data_PCOD8081979
_publ_section_title
;
Structure prediction by ZEFSAII (Michael W. Deem and Ramdas Pophale) SiO2 
 PCOD8081979
Probable space group: C 2/M
;
_chemical_formula_sum "Si O2"
_cell_formula_units_Z 64
_cell_length_a 24.476736
_cell_length_b 8.935367
_cell_length_c 28.725339
_cell_angle_alpha 90.000000
_cell_angle_beta 148.928904
_cell_angle_gamma 90.000000
_cell_volume 3242.395709
_symmetry_space_group_name_H-M "C 2/M"
_symmetry_group_IT_number 12
_symmetry_cell_setting 'monoclinic'
loop_
_space_group_symop_operation_xyz
x,y,z
-x,y,-z
-x,-y,-z
x,-y,z
1/2+x,1/2+y,z
1/2-x,1/2+y,-z
1/2-x,1/2-y,-z
1/2+x,1/2-y,z
loop_
_atom_site_type_symbol
_atom_site_label
_atom_site_fract_x
_atom_site_fract_y
_atom_site_fract_z
Si Si1 0.391195 0.824722 0.147095
Si Si2 0.506816 0.672871 0.367143
Si Si3 0.087848 0.170697 0.331899
Si Si4 0.421704 0.677461 0.482589
Si Si5 0.019709 0.824873 0.872423
Si Si6 0.416723 0.675559 0.978142
Si Si7 0.792489 0.829569 0.667506
Si Si8 0.796284 0.822557 0.162203
O O1 0.504382 0.789976 0.252286
O O2 0.392981 0.758562 0.095961
O O3 0.301726 0.748532 0.114272
O O4 0.368701 0.000000 0.128635
O O5 0.491066 0.500000 0.366881
O O6 0.600159 0.697859 0.396451
O O7 0.540498 0.749361 0.440406
O O8 0.395763 0.734837 0.265867
O O9 0.194672 0.190081 0.379605
O O10 0.043760 0.000000 0.291883
O O11 0.500000 0.738310 0.500000
O O12 0.421249 0.500000 0.483565
O O13 0.303251 0.729101 0.384291
O O14 0.900401 0.777347 0.771383
O O15 0.035949 0.000000 0.876222
O O16 0.036482 0.777581 0.937809
O O17 0.392610 0.500000 0.957684
O O18 0.309050 0.764837 0.889450
O O19 0.500000 0.725753 0.000000
O O20 0.766294 0.000000 0.661296
O O21 0.795591 0.000000 0.157125
#
# Coordination Sequence:
#
# PCOD8081979 Si02
#       8
#     8   8   8   8   8   8   8   8
#     4  10  18  30  53  84 111 134 171 219 261 310
#     4   8  16  33  54  74 101 138 171 204 256 313
#     4   8  15  31  53  75 103 136 168 206 261 324
#     4  10  21  35  50  72 103 138 177 217 254 298
#     4   9  19  37  57  77 109 146 171 205 266 326
#     4  10  22  39  57  79 106 137 179 226 264 304
#     4   9  18  33  53  76 101 133 170 208 257 312
#     4  10  20  36  57  78 106 143 177 214 265 322
#
# _framework density 19.738492000000001
#
# number of rings (size 3 to 8) (size 9 to 14) (size 15 to 20)
#    0.000    2.750    0.000    3.000    0.000    5.000 
#    0.000    3.125    0.000    0.000    0.000    0.000 
#    0.000    0.000    0.000    0.000    0.000    0.000 
#
# Total GULP energy -396621.049679 kJ/mol
# GULP energy per Si atom -12394.407802 kJ/mol
# Density = 1.969357 g / cm^3
# Si number density = 19.738492 Si / 1000 Ang^3
#
#
#
# Elastic Constant Matrix: (Units=GPa)
#
#
# Indices 1 2 3 4 5 6 
#
# 1 105.8117 22.2013 22.4945 -0.0003 6.4278 -0.0001
# 2 22.2013 48.8986 11.1190 -0.0002 5.7998 -0.0007
# 3 22.4945 11.1190 49.5148 -0.0004 5.1902 0.0000
# 4 -0.0003 -0.0002 -0.0004 23.5477 0.0000 8.5546
# 5 6.4278 5.7998 5.1902 0.0000 36.7267 0.0000
# 6 -0.0001 -0.0007 0.0000 8.5546 0.0000 24.1097
#
#
#
# Elastic Compliance Matrix: (Units=1/GPa)
#
#
# Indices 1 2 3 4 5 6 
#
# 1 0.011224 -0.004074 -0.004106 0.000000 -0.000741 0.000000
# 2 -0.004074 0.023309 -0.003118 0.000000 -0.002527 0.000001
# 3 -0.004106 -0.003118 0.022975 0.000000 -0.002036 0.000000
# 4 0.000000 0.000000 0.000000 0.048751 0.000000 -0.017298
# 5 -0.000741 -0.002527 -0.002036 0.000000 0.028045 0.000000
# 6 0.000000 0.000001 0.000000 -0.017298 0.000000 0.047615
#
#
# Mechanical properties :
#
#
# Convention : Reuss Voigt Hill
#
# Bulk Modulus (GPa) = 28.64524 35.09497 31.87010
# Shear Modulus (GPa) = 23.13177 26.77083 24.95130
#
# Velocity S-wave (km/s) = 3.42703 3.68676 3.55927
# Velocity P-wave (km/s) = 5.49575 5.99512 5.75086
#
# Compressibility (1/GPa) = 0.03490982
#
# Stress axis : x y z
#
# Youngs Moduli (GPa) = 89.09835 42.90165 43.52527
#
# Poissons Ratio (x) = 0.17479 0.17873
# Poissons Ratio (y) = 0.36301 0.13573
# Poissons Ratio (z) = 0.36587 0.13379
#
# Static dielectric constant tensor:
#      x y z
#    x 3.918970 0.000000 -0.124900 
#    y 0.000000 3.269130 0.000000 
#    z -0.124900 0.000000 3.436450 
# 
# 
# High freq. dielectric constant tensor:
#      x y z
#    x 1.778160 0.000000 -0.000380 
#    y 0.000000 1.744170 0.000000 
#    z -0.000380 0.000000 1.750850 
# 
# From -- ./inp_files/382541.got.cif
#   From: 2010.06.25/outbox.cif.g09.slc.cpg/sg12_192_cif.got.tgz:382541.got - 2010.06.28 00:19:55.
