data_PCOD8081153
_publ_section_title
;
Structure prediction by ZEFSAII (Michael W. Deem and Ramdas Pophale) SiO2 
 PCOD8081153
Probable space group: C 2/M
;
_chemical_formula_sum "Si O2"
_cell_formula_units_Z 56
_cell_length_a 18.752471
_cell_length_b 9.034252
_cell_length_c 23.065106
_cell_angle_alpha 90.000000
_cell_angle_beta 52.173641
_cell_angle_gamma 90.000000
_cell_volume 3086.479556
_symmetry_space_group_name_H-M "C 2/M"
_symmetry_group_IT_number 12
_symmetry_cell_setting 'monoclinic'
loop_
_space_group_symop_operation_xyz
x,y,z
-x,y,-z
-x,-y,-z
x,-y,z
1/2+x,1/2+y,z
1/2-x,1/2+y,-z
1/2-x,1/2-y,-z
1/2+x,1/2-y,z
loop_
_atom_site_type_symbol
_atom_site_label
_atom_site_fract_x
_atom_site_fract_y
_atom_site_fract_z
Si Si1 0.840221 0.174370 0.933638
Si Si2 0.884165 0.336736 0.210116
Si Si3 0.421903 0.674827 0.498230
Si Si4 0.775575 0.323796 0.370367
Si Si5 0.507290 0.672354 0.931989
Si Si6 0.434460 0.675499 0.359243
Si Si7 0.552145 0.166889 0.212202
O O1 0.916646 0.211696 0.942744
O O2 0.866083 0.244298 0.858634
O O3 0.826196 0.000000 0.933102
O O4 0.750000 0.250000 0.000000
O O5 0.865492 0.500000 0.194743
O O6 0.799553 0.282302 0.291377
O O7 0.904093 0.234215 0.144966
O O8 0.968771 0.337255 0.210536
O O9 0.500000 0.743880 0.500000
O O10 0.420632 0.500000 0.505818
O O11 0.324763 0.735146 0.567254
O O12 0.441335 0.720706 0.422801
O O13 0.787356 0.500000 0.374230
O O14 0.841172 0.239943 0.381704
O O15 0.524024 0.500000 0.928162
O O16 0.500000 0.741985 0.000000
O O17 0.435745 0.500000 0.348726
O O18 0.521936 0.747035 0.285064
O O19 0.583642 0.000000 0.211847
#
# Coordination Sequence:
#
# PCOD8081153 Si02
#       7
#     8   8   8   8   8   8   8
#     4  10  19  32  51  74 101 131 164 201 241 289
#     4   8  15  27  45  69  93 120 156 197 238 279
#     4   9  18  32  49  70  99 132 161 194 240 293
#     4   9  17  31  51  72  94 123 161 202 242 285
#     4   9  18  32  49  69  95 127 159 194 239 286
#     4  10  18  29  50  76  97 122 161 204 242 285
#     4   9  17  31  50  71  98 128 160 202 246 286
#
# _framework density 18.143647999999999
#
# number of rings (size 3 to 8) (size 9 to 14) (size 15 to 20)
#    0.000    2.857    0.000    2.571    0.000    4.286 
#    0.000    2.143    0.000    5.571    0.000    0.000 
#    0.000    0.000    0.000    0.000    0.000    0.000 
#
# Total GULP energy -347107.142056 kJ/mol
# GULP energy per Si atom -12396.683645 kJ/mol
# Density = 1.810235 g / cm^3
# Si number density = 18.143648 Si / 1000 Ang^3
#
#
#
# Elastic Constant Matrix: (Units=GPa)
#
#
# Indices 1 2 3 4 5 6 
#
# 1 68.5368 38.4553 71.1338 0.0000 2.2459 -0.0001
# 2 38.4553 75.6668 68.4537 -0.0001 -0.4842 -0.0003
# 3 71.1338 68.4537 200.0336 0.0000 -1.2182 0.0000
# 4 0.0000 -0.0001 0.0000 31.3486 0.0000 -0.4138
# 5 2.2459 -0.4842 -1.2182 0.0000 28.1672 0.0000
# 6 -0.0001 -0.0003 0.0000 -0.4138 0.0000 15.5015
#
#
#
# Elastic Compliance Matrix: (Units=1/GPa)
#
#
# Indices 1 2 3 4 5 6 
#
# 1 0.025530 -0.006900 -0.006732 0.000000 -0.002445 0.000000
# 2 -0.006900 0.021007 -0.004731 0.000000 0.000707 0.000000
# 3 -0.006732 -0.004731 0.009017 0.000000 0.000845 0.000000
# 4 0.000000 0.000000 0.000000 0.031911 0.000000 0.000852
# 5 -0.002445 0.000707 0.000845 0.000000 0.035746 0.000000
# 6 0.000000 0.000000 0.000000 0.000852 0.000000 0.064532
#
#
# Mechanical properties :
#
#
# Convention : Reuss Voigt Hill
#
# Bulk Modulus (GPa) = 53.11251 77.81364 65.46308
# Shear Modulus (GPa) = 21.66898 26.08309 23.87604
#
# Velocity S-wave (km/s) = 3.45962 3.79567 3.63153
# Velocity P-wave (km/s) = 6.73019 7.88607 7.33095
#
# Compressibility (1/GPa) = 0.01882796
#
# Stress axis : x y z
#
# Youngs Moduli (GPa) = 39.17023 47.60361 110.89788
#
# Poissons Ratio (x) = 0.32845 0.74659
# Poissons Ratio (y) = 0.27027 0.52464
# Poissons Ratio (z) = 0.26370 0.22520
#
# Static dielectric constant tensor:
#      x y z
#    x 3.132670 0.000000 0.009080 
#    y 0.000000 3.315960 0.000000 
#    z 0.009080 0.000000 3.813090 
# 
# 
# High freq. dielectric constant tensor:
#      x y z
#    x 1.661610 0.000000 -0.001470 
#    y 0.000000 1.692830 0.000000 
#    z -0.001470 0.000000 1.725520 
# 
# From -- ./inp_files/345499.got.cif
#   From: 2010.06.25/outbox.cif.g09.slc.cpg/sg12_173_cif.got.tgz:345499.got - 2010.06.28 00:19:55.
