data_PCOD8081825
_publ_section_title
;
Structure prediction by ZEFSAII (Michael W. Deem and Ramdas Pophale) SiO2 
 PCOD8081825
Probable space group: C 2/M
;
_chemical_formula_sum "Si O2"
_cell_formula_units_Z 48
_cell_length_a 20.865473
_cell_length_b 8.649243
_cell_length_c 15.173034
_cell_angle_alpha 90.000000
_cell_angle_beta 69.429297
_cell_angle_gamma 90.000000
_cell_volume 2563.690775
_symmetry_space_group_name_H-M "C 2/M"
_symmetry_group_IT_number 12
_symmetry_cell_setting 'monoclinic'
loop_
_space_group_symop_operation_xyz
x,y,z
-x,y,-z
-x,-y,-z
x,-y,z
1/2+x,1/2+y,z
1/2-x,1/2+y,-z
1/2-x,1/2-y,-z
1/2+x,1/2-y,z
loop_
_atom_site_type_symbol
_atom_site_label
_atom_site_fract_x
_atom_site_fract_y
_atom_site_fract_z
Si Si1 0.051250 0.681225 0.589528
Si Si2 0.100839 0.316971 0.095758
Si Si3 0.049158 0.316147 0.787352
Si Si4 0.193145 0.819953 0.201381
Si Si5 0.152616 0.315883 0.883393
Si Si6 0.588811 0.679000 0.399600
O O1 0.062547 0.500000 0.571094
O O2 0.071198 0.734968 0.678369
O O3 0.099245 0.771779 0.496590
O O4 0.971632 0.719206 0.612547
O O5 0.097547 0.500000 0.094003
O O6 0.154509 0.269295 0.143503
O O7 0.025828 0.247995 0.153377
O O8 0.125361 0.251435 0.989681
O O9 0.045769 0.500000 0.794849
O O10 0.104423 0.248721 0.829236
O O11 0.270350 0.756432 0.169843
O O12 0.158145 0.787594 0.312715
O O13 0.191671 0.000000 0.177994
O O14 0.150411 0.500000 0.882754
O O15 0.567760 0.500000 0.404305
#
# Coordination Sequence:
#
# PCOD8081825 Si02
#       6
#     8   8   8   8   8   8
#     4  10  18  30  51  76  97 120 160 210 248 279
#     4  10  18  31  54  77  97 127 169 211 242 280
#     4   9  17  30  50  77 101 125 162 208 249 284
#     4  10  20  33  50  73 102 135 164 198 244 296
#     4   9  18  32  50  73 102 133 165 200 244 295
#     4  10  19  31  48  71  99 130 162 196 241 297
#
# _framework density 18.723006000000002
#
# number of rings (size 3 to 8) (size 9 to 14) (size 15 to 20)
#    0.000    2.333    1.667    3.000    0.000    2.667 
#    0.000    0.833    0.000    7.000    0.000    0.000 
#    0.000    0.000    0.000    0.000    0.000    0.000 
#
# Total GULP energy -297575.658646 kJ/mol
# GULP energy per Si atom -12398.985777 kJ/mol
# Density = 1.868039 g / cm^3
# Si number density = 18.723006 Si / 1000 Ang^3
#
#
#
# Elastic Constant Matrix: (Units=GPa)
#
#
# Indices 1 2 3 4 5 6 
#
# 1 135.4116 5.9086 82.4785 0.0000 6.8577 0.0000
# 2 5.9086 17.3137 20.9440 0.0000 0.7396 0.0000
# 3 82.4785 20.9440 180.9530 0.0000 9.1213 0.0000
# 4 0.0000 0.0000 0.0000 19.8991 0.0000 -1.0467
# 5 6.8577 0.7396 9.1213 0.0000 20.1821 0.0000
# 6 0.0000 0.0000 0.0000 -1.0467 0.0000 15.3173
#
#
#
# Elastic Compliance Matrix: (Units=1/GPa)
#
#
# Indices 1 2 3 4 5 6 
#
# 1 0.010354 0.002500 -0.004939 0.000000 -0.001378 0.000000
# 2 0.002500 0.067787 -0.009023 0.000000 0.000744 0.000000
# 3 -0.004939 -0.009023 0.008924 0.000000 -0.002024 0.000000
# 4 0.000000 0.000000 0.000000 0.050435 0.000000 0.003447
# 5 -0.001378 0.000744 -0.002024 0.000000 0.050904 0.000000
# 6 0.000000 0.000000 0.000000 0.003447 0.000000 0.065521
#
#
# Mechanical properties :
#
#
# Convention : Reuss Voigt Hill
#
# Bulk Modulus (GPa) = 15.59055 61.37116 38.48085
# Shear Modulus (GPa) = 16.76554 26.03619 21.40086
#
# Velocity S-wave (km/s) = 2.99566 3.73312 3.38453
# Velocity P-wave (km/s) = 4.50669 7.17156 5.98922
#
# Compressibility (1/GPa) = 0.06414143
#
# Stress axis : x y z
#
# Youngs Moduli (GPa) = 96.58017 14.75199 112.05680
#
# Poissons Ratio (x) = -0.03688 0.55349
# Poissons Ratio (y) = -0.24148 1.01110
# Poissons Ratio (z) = 0.47704 0.13311
#
# Static dielectric constant tensor:
#      x y z
#    x 3.432740 0.000000 -0.028110 
#    y 0.000000 3.085980 0.000000 
#    z -0.028110 0.000000 3.878210 
# 
# 
# High freq. dielectric constant tensor:
#      x y z
#    x 1.709320 0.000000 -0.000330 
#    y 0.000000 1.692610 0.000000 
#    z -0.000330 0.000000 1.748270 
# 
# From -- ./inp_files/229931.got.cif
#   From: 2010.06.25/outbox.cif.g09.slc.cpg/sg12_115_cif.got.tgz:229931.got - 2010.06.28 00:19:55.
