data_PCOD8081584
_publ_section_title
;
Structure prediction by ZEFSAII (Michael W. Deem and Ramdas Pophale) SiO2 
 PCOD8081584
Probable space group: C 2/M
;
_chemical_formula_sum "Si O2"
_cell_formula_units_Z 56
_cell_length_a 27.084212
_cell_length_b 8.898924
_cell_length_c 17.297608
_cell_angle_alpha 90.000000
_cell_angle_beta 126.148584
_cell_angle_gamma 90.000000
_cell_volume 3366.486655
_symmetry_space_group_name_H-M "C 2/M"
_symmetry_group_IT_number 12
_symmetry_cell_setting 'monoclinic'
loop_
_space_group_symop_operation_xyz
x,y,z
-x,y,-z
-x,-y,-z
x,-y,z
1/2+x,1/2+y,z
1/2-x,1/2+y,-z
1/2-x,1/2-y,-z
1/2+x,1/2-y,z
loop_
_atom_site_type_symbol
_atom_site_label
_atom_site_fract_x
_atom_site_fract_y
_atom_site_fract_z
Si Si1 0.790110 0.178167 0.217361
Si Si2 0.345647 0.676192 0.111691
Si Si3 0.597828 0.824884 0.608028
Si Si4 0.670288 0.322524 0.073986
Si Si5 0.959060 0.325924 0.036793
Si Si6 0.017825 0.177522 0.788018
Si Si7 0.514615 0.825167 0.390354
O O1 0.810515 0.245384 0.152524
O O2 0.840046 0.230223 0.326017
O O3 0.724040 0.250191 0.175494
O O4 0.784001 0.000000 0.213805
O O5 0.346636 0.500000 0.124097
O O6 0.414980 0.734211 0.174448
O O7 0.314643 0.720190 0.001604
O O8 0.572250 0.792721 0.498781
O O9 0.547477 0.771757 0.624153
O O10 0.612248 0.000000 0.632359
O O11 0.667715 0.500000 0.084402
O O12 0.605107 0.256317 0.037958
O O13 0.946305 0.500000 0.041854
O O14 0.996706 0.254655 0.143311
O O15 0.000000 0.301023 0.000000
O O16 0.973858 0.233862 0.678415
O O17 0.012278 0.000000 0.793453
O O18 0.510064 0.000000 0.366483
#
# Coordination Sequence:
#
# PCOD8081584 Si02
#       7
#     8   8   8   8   8   8   8
#     4  11  19  29  44  66  97 132 168 200 237 280
#     4   8  16  28  41  63  93 126 161 194 228 274
#     4   9  18  30  44  65  95 133 172 206 239 277
#     4  10  20  33  48  68  95 126 162 198 239 289
#     4  10  21  37  55  75  97 122 156 198 245 293
#     4  10  18  30  49  73  99 127 163 200 242 289
#     4   9  17  30  46  66  95 131 170 206 241 280
#
# _framework density 16.634551999999999
#
# number of rings (size 3 to 8) (size 9 to 14) (size 15 to 20)
#    0.000    2.429    1.429    3.857    0.000    1.714 
#    0.000    2.857    0.000    0.000    0.000    1.000 
#    0.000    0.000    0.000    0.000    0.000    0.000 
#
# Total GULP energy -347122.505151 kJ/mol
# GULP energy per Si atom -12397.232327 kJ/mol
# Density = 1.659669 g / cm^3
# Si number density = 16.634552 Si / 1000 Ang^3
#
#
#
# Elastic Constant Matrix: (Units=GPa)
#
#
# Indices 1 2 3 4 5 6 
#
# 1 54.2791 40.8012 45.0870 0.0000 3.0415 0.0000
# 2 40.8012 92.4848 58.2163 0.0000 3.5133 0.0000
# 3 45.0870 58.2163 111.0014 0.0000 7.1075 0.0000
# 4 0.0000 0.0000 0.0000 30.4572 0.0000 3.4764
# 5 3.0415 3.5133 7.1075 0.0000 21.4846 0.0000
# 6 0.0000 0.0000 0.0000 3.4764 0.0000 20.9917
#
#
#
# Elastic Compliance Matrix: (Units=1/GPa)
#
#
# Indices 1 2 3 4 5 6 
#
# 1 0.032038 -0.008872 -0.008339 0.000000 -0.000326 0.000000
# 2 -0.008872 0.018599 -0.006167 0.000000 0.000255 0.000000
# 3 -0.008339 -0.006167 0.015826 0.000000 -0.003046 0.000000
# 4 0.000000 0.000000 0.000000 0.033465 0.000000 -0.005542
# 5 -0.000326 0.000255 -0.003046 0.000000 0.047557 0.000000
# 6 0.000000 0.000000 0.000000 -0.005542 0.000000 0.048556
#
#
# Mechanical properties :
#
#
# Convention : Reuss Voigt Hill
#
# Bulk Modulus (GPa) = 50.74772 60.66380 55.70576
# Shear Modulus (GPa) = 20.05082 22.16410 21.10746
#
# Velocity S-wave (km/s) = 3.47561 3.65418 3.56602
# Velocity P-wave (km/s) = 6.83229 7.37237 7.10746
#
# Compressibility (1/GPa) = 0.01970532
#
# Stress axis : x y z
#
# Youngs Moduli (GPa) = 31.21315 53.76614 63.18897
#
# Poissons Ratio (x) = 0.47704 0.52694
# Poissons Ratio (y) = 0.27694 0.38969
# Poissons Ratio (z) = 0.26029 0.33158
#
# Static dielectric constant tensor:
#      x y z
#    x 2.809770 0.000000 0.040800 
#    y 0.000000 3.015300 0.000000 
#    z 0.040800 0.000000 3.230490 
# 
# 
# High freq. dielectric constant tensor:
#      x y z
#    x 1.596220 0.000000 0.011060 
#    y 0.000000 1.642910 0.000000 
#    z 0.011060 0.000000 1.640370 
# 
# From -- ./inp_files/244283.got.cif
#   From: 2010.06.25/outbox.cif.g09.slc.cpg/sg12_123_cif.got.tgz:244283.got - 2010.06.28 00:19:55.
