data_PCOD8081719
_publ_section_title
;
Structure prediction by ZEFSAII (Michael W. Deem and Ramdas Pophale) SiO2 
 PCOD8081719
Probable space group: C 2/M
;
_chemical_formula_sum "Si O2"
_cell_formula_units_Z 56
_cell_length_a 19.232097
_cell_length_b 9.318910
_cell_length_c 28.347152
_cell_angle_alpha 90.000000
_cell_angle_beta 141.680965
_cell_angle_gamma 90.000000
_cell_volume 3150.073601
_symmetry_space_group_name_H-M "C 2/M"
_symmetry_group_IT_number 12
_symmetry_cell_setting 'monoclinic'
loop_
_space_group_symop_operation_xyz
x,y,z
-x,y,-z
-x,-y,-z
x,-y,z
1/2+x,1/2+y,z
1/2-x,1/2+y,-z
1/2-x,1/2-y,-z
1/2+x,1/2-y,z
loop_
_atom_site_type_symbol
_atom_site_label
_atom_site_fract_x
_atom_site_fract_y
_atom_site_fract_z
Si Si1 0.562251 0.333908 0.104302
Si Si2 0.707791 0.165096 0.251905
Si Si3 0.572316 0.665382 0.682656
Si Si4 0.668493 0.333529 0.062068
Si Si5 0.600502 0.163659 0.290761
Si Si6 0.883930 0.164929 0.185492
Si Si7 0.648008 0.831450 0.422188
O O1 0.584493 0.500000 0.125855
O O2 0.607734 0.246837 0.172727
O O3 0.625908 0.285822 0.090870
O O4 0.429550 0.304026 0.028045
O O5 0.830983 0.218266 0.301803
O O6 0.694847 0.189142 0.301101
O O7 0.695520 0.000000 0.230895
O O8 0.537193 0.500000 0.655038
O O9 0.619792 0.686111 0.760344
O O10 0.466399 0.767375 0.617283
O O11 0.702416 0.500000 0.080401
O O12 0.775797 0.239871 0.104957
O O13 0.495310 0.264417 0.223533
O O14 0.655265 0.200517 0.370242
O O15 0.557187 0.000000 0.267479
O O16 0.883481 0.000000 0.170182
O O17 0.750000 0.750000 0.500000
O O18 0.653685 0.000000 0.436649
#
# Coordination Sequence:
#
# PCOD8081719 Si02
#       7
#     8   8   8   8   8   8   8
#     4   9  18  30  47  72 102 136 172 214 259 302
#     4  10  19  34  53  76 105 135 169 211 256 302
#     4   9  18  32  52  78 104 131 165 207 250 297
#     4   9  17  30  47  70 101 136 174 214 258 305
#     4   9  20  36  54  75 103 138 169 201 252 311
#     4  10  18  30  50  76 101 130 173 221 258 293
#     4  10  20  36  58  81 103 132 167 203 244 296
#
# _framework density 17.777363000000001
#
# number of rings (size 3 to 8) (size 9 to 14) (size 15 to 20)
#    0.000    2.571    1.429    1.714    0.000    2.857 
#    0.000    2.857    0.000    4.286    0.000    0.000 
#    0.000    0.000    0.000    0.000    0.000    0.000 
#
# Total GULP energy -347228.274574 kJ/mol
# GULP energy per Si atom -12401.009806 kJ/mol
# Density = 1.773690 g / cm^3
# Si number density = 17.777363 Si / 1000 Ang^3
#
#
#
# Elastic Constant Matrix: (Units=GPa)
#
#
# Indices 1 2 3 4 5 6 
#
# 1 102.9791 42.2119 48.5972 0.0000 11.3799 0.0000
# 2 42.2119 87.0650 62.8748 0.0000 12.2192 -0.0001
# 3 48.5972 62.8748 112.9769 0.0000 15.2458 0.0000
# 4 0.0000 0.0000 0.0000 36.5187 0.0000 5.0480
# 5 11.3799 12.2192 15.2458 0.0000 20.9218 0.0000
# 6 0.0000 -0.0001 0.0000 5.0480 0.0000 23.5515
#
#
#
# Elastic Compliance Matrix: (Units=1/GPa)
#
#
# Indices 1 2 3 4 5 6 
#
# 1 0.013003 -0.003600 -0.003237 0.000000 -0.002611 0.000000
# 2 -0.003600 0.020477 -0.009425 0.000000 -0.003134 0.000000
# 3 -0.003237 -0.009425 0.016091 0.000000 -0.004460 0.000000
# 4 0.000000 0.000000 0.000000 0.028219 0.000000 -0.006048
# 5 -0.002611 -0.003134 -0.004460 0.000000 0.054297 0.000000
# 6 0.000000 0.000000 0.000000 -0.006048 0.000000 0.043757
#
#
# Mechanical properties :
#
#
# Convention : Reuss Voigt Hill
#
# Bulk Modulus (GPa) = 58.66210 67.82097 63.24154
# Shear Modulus (GPa) = 23.35911 26.15421 24.75666
#
# Velocity S-wave (km/s) = 3.62882 3.83980 3.73580
# Velocity P-wave (km/s) = 7.11531 7.60866 7.36612
#
# Compressibility (1/GPa) = 0.01704678
#
# Stress axis : x y z
#
# Youngs Moduli (GPa) = 76.90792 48.83582 62.14693
#
# Poissons Ratio (x) = 0.17579 0.20119
# Poissons Ratio (y) = 0.27685 0.58571
# Poissons Ratio (z) = 0.24898 0.46026
#
# Static dielectric constant tensor:
#      x y z
#    x 3.229620 0.000000 0.091440 
#    y 0.000000 3.294530 0.000000 
#    z 0.091440 0.000000 3.136020 
# 
# 
# High freq. dielectric constant tensor:
#      x y z
#    x 1.674770 0.000000 0.012120 
#    y 0.000000 1.690230 0.000000 
#    z 0.012120 0.000000 1.674750 
# 
# From -- ./inp_files/275600.got.cif
#   From: 2010.06.25/outbox.cif.g09.slc.cpg/sg12_138_cif.got.tgz:275600.got - 2010.06.28 00:19:55.
