data_PCOD8081225
_publ_section_title
;
Structure prediction by ZEFSAII (Michael W. Deem and Ramdas Pophale) SiO2 
 PCOD8081225
Probable space group: C 2/M
;
_chemical_formula_sum "Si O2"
_cell_formula_units_Z 56
_cell_length_a 21.464136
_cell_length_b 13.619915
_cell_length_c 10.157555
_cell_angle_alpha 90.000000
_cell_angle_beta 81.916837
_cell_angle_gamma 90.000000
_cell_volume 2939.955170
_symmetry_space_group_name_H-M "C 2/M"
_symmetry_group_IT_number 12
_symmetry_cell_setting 'monoclinic'
loop_
_space_group_symop_operation_xyz
x,y,z
-x,y,-z
-x,-y,-z
x,-y,z
1/2+x,1/2+y,z
1/2-x,1/2+y,-z
1/2-x,1/2-y,-z
1/2+x,1/2-y,z
loop_
_atom_site_type_symbol
_atom_site_label
_atom_site_fract_x
_atom_site_fract_y
_atom_site_fract_z
Si Si1 0.843726 0.804052 0.531886
Si Si2 0.427750 0.280591 0.035283
Si Si3 0.289428 0.889997 0.456699
Si Si4 0.436642 0.386894 0.295584
Si Si5 0.571091 0.300222 0.253615
Si Si6 0.494691 0.111563 0.654946
Si Si7 0.116295 0.390473 0.791614
O O1 0.785179 0.875919 0.527660
O O2 0.821166 0.690502 0.542686
O O3 0.892734 0.819420 0.399119
O O4 0.874850 0.831512 0.661649
O O5 0.421103 0.364866 0.147399
O O6 0.387131 0.185346 0.087070
O O7 0.500000 0.246569 0.000000
O O8 0.404147 0.322289 0.901829
O O9 0.317134 0.877962 0.301488
O O10 0.304260 0.000000 0.506202
O O11 0.423104 0.500000 0.329503
O O12 0.509008 0.362760 0.306228
O O13 0.556528 0.183944 0.266859
O O14 0.500000 0.136920 0.500000
O O15 0.561815 0.131970 0.701536
O O16 0.471982 0.000000 0.683783
O O17 0.109024 0.500000 0.851707
#
# Coordination Sequence:
#
# PCOD8081225 Si02
#       7
#     8   8   8   8   8   8   8
#     4  11  22  38  61  87 110 146 191 237 279 331
#     4  10  20  36  53  83 118 150 185 222 277 340
#     4  10  21  38  61  84 111 147 190 235 281 330
#     4  11  22  38  59  82 115 151 188 231 283 336
#     4  11  22  35  55  86 119 146 183 234 280 333
#     4  10  18  29  52  85 117 147 180 228 287 334
#     4  10  18  33  56  80 113 152 186 224 276 335
#
# _framework density 19.047910000000002
#
# number of rings (size 3 to 8) (size 9 to 14) (size 15 to 20)
#    0.000    1.571    4.286    2.571    0.000    6.857 
#    0.000    0.714    0.000    0.000    0.000    0.000 
#    0.000    0.000    0.000    0.000    0.000    0.000 
#
# Total GULP energy -347246.895638 kJ/mol
# GULP energy per Si atom -12401.674844 kJ/mol
# Density = 1.900456 g / cm^3
# Si number density = 19.047910 Si / 1000 Ang^3
#
#
#
# Elastic Constant Matrix: (Units=GPa)
#
#
# Indices 1 2 3 4 5 6 
#
# 1 73.8947 20.1159 45.7496 0.0000 7.5117 0.0000
# 2 20.1159 88.1704 14.3615 0.0000 3.6007 0.0000
# 3 45.7496 14.3615 98.4449 0.0000 13.2316 0.0000
# 4 0.0000 0.0000 0.0000 21.0787 0.0000 -6.7699
# 5 7.5117 3.6007 13.2316 0.0000 21.2026 0.0000
# 6 0.0000 0.0000 0.0000 -6.7699 0.0000 15.9588
#
#
#
# Elastic Compliance Matrix: (Units=1/GPa)
#
#
# Indices 1 2 3 4 5 6 
#
# 1 0.019813 -0.003072 -0.008608 0.000000 -0.001126 0.000000
# 2 -0.003072 0.012114 -0.000228 0.000000 -0.000826 0.000000
# 3 -0.008608 -0.000228 0.015038 0.000000 -0.006296 0.000000
# 4 0.000000 0.000000 0.000000 0.054925 0.000000 0.023300
# 5 -0.001126 -0.000826 -0.006296 0.000000 0.051632 0.000000
# 6 0.000000 0.000000 0.000000 0.023300 0.000000 0.072546
#
#
# Mechanical properties :
#
#
# Convention : Reuss Voigt Hill
#
# Bulk Modulus (GPa) = 43.20201 46.77377 44.98789
# Shear Modulus (GPa) = 19.40996 23.66688 21.53842
#
# Velocity S-wave (km/s) = 3.19565 3.52872 3.36631
# Velocity P-wave (km/s) = 6.02878 6.41963 6.22727
#
# Compressibility (1/GPa) = 0.02314707
#
# Stress axis : x y z
#
# Youngs Moduli (GPa) = 50.47206 82.55227 66.49885
#
# Poissons Ratio (x) = 0.25362 0.57242
# Poissons Ratio (y) = 0.15506 0.01519
# Poissons Ratio (z) = 0.43447 0.01885
#
# Static dielectric constant tensor:
#      x y z
#    x 3.312860 0.000000 -0.011430 
#    y 0.000000 3.542340 0.000000 
#    z -0.011430 0.000000 3.562710 
# 
# 
# High freq. dielectric constant tensor:
#      x y z
#    x 1.713110 0.000000 -0.006730 
#    y 0.000000 1.748840 0.000000 
#    z -0.006730 0.000000 1.730300 
# 
# From -- ./inp_files/96286.got.cif
#   From: 2010.06.25/outbox.cif.g09.slc.cpg/sg12_49_cif.got.tgz:96286.got - 2010.06.28 00:19:55.
