data_PCOD8081194
_publ_section_title
;
Structure prediction by ZEFSAII (Michael W. Deem and Ramdas Pophale) SiO2 
 PCOD8081194
Probable space group: C 2/M
;
_chemical_formula_sum "Si O2"
_cell_formula_units_Z 64
_cell_length_a 26.993100
_cell_length_b 22.355059
_cell_length_c 7.827218
_cell_angle_alpha 90.000000
_cell_angle_beta 52.872428
_cell_angle_gamma 90.000000
_cell_volume 3765.774147
_symmetry_space_group_name_H-M "C 2/M"
_symmetry_group_IT_number 12
_symmetry_cell_setting 'monoclinic'
loop_
_space_group_symop_operation_xyz
x,y,z
-x,y,-z
-x,-y,-z
x,-y,z
1/2+x,1/2+y,z
1/2-x,1/2+y,-z
1/2-x,1/2-y,-z
1/2+x,1/2-y,z
loop_
_atom_site_type_symbol
_atom_site_label
_atom_site_fract_x
_atom_site_fract_y
_atom_site_fract_z
Si Si1 0.347645 0.433456 0.563846
Si Si2 0.434836 0.258886 0.703776
Si Si3 0.683773 0.202703 0.499374
Si Si4 0.570979 0.393983 0.904536
Si Si5 0.433949 0.400008 0.697156
Si Si6 0.070891 0.242665 0.902327
Si Si7 0.308667 0.206555 0.876195
Si Si8 0.751151 0.830870 0.679711
O O1 0.318943 0.500000 0.637538
O O2 0.394085 0.434012 0.306674
O O3 0.380933 0.419603 0.675174
O O4 0.294881 0.385769 0.633675
O O5 0.500000 0.231002 0.500000
O O6 0.440843 0.329442 0.683715
O O7 0.374418 0.240823 0.722493
O O8 0.422412 0.235082 0.918849
O O9 0.612347 0.213966 0.699684
O O10 0.691196 0.168487 0.301603
O O11 0.717381 0.160609 0.567905
O O12 0.714170 0.267805 0.407007
O O13 0.595121 0.325658 0.837276
O O14 0.500000 0.396083 0.000000
O O15 0.581576 0.419781 0.074986
O O16 0.500000 0.428117 0.500000
O O17 0.000000 0.248561 0.000000
O O18 0.250000 0.250000 0.000000
O O19 0.301842 0.167597 0.061538
#
# Coordination Sequence:
#
# PCOD8081194 Si02
#       8
#     8   8   8   8   8   8   8   8
#     4  12  25  38  53  71  98 135 180 228 261 300
#     4  10  19  30  50  80 109 140 171 209 257 313
#     4  10  18  32  54  74 102 133 164 208 253 311
#     4  10  20  35  53  73  99 135 177 220 261 301
#     4  10  20  35  53  71 100 135 177 218 261 305
#     4  10  18  29  51  78 109 138 165 205 261 313
#     4  10  19  30  50  74 101 136 169 205 251 312
#     4  10  21  35  49  72 100 130 176 207 254 311
#
# _framework density 16.995177999999999
#
# number of rings (size 3 to 8) (size 9 to 14) (size 15 to 20)
#    0.000    1.750    3.750    2.250    1.750    2.000 
#    0.000    0.000    0.000    0.000    0.000    0.000 
#    0.000    1.000    0.000    0.000    0.000    0.000 
#
# Total GULP energy -396486.413031 kJ/mol
# GULP energy per Si atom -12390.200407 kJ/mol
# Density = 1.695650 g / cm^3
# Si number density = 16.995178 Si / 1000 Ang^3
#
#
#
# Elastic Constant Matrix: (Units=GPa)
#
#
# Indices 1 2 3 4 5 6 
#
# 1 107.6499 22.4837 51.9305 0.0000 20.2066 0.0000
# 2 22.4837 28.5310 22.6144 0.0000 4.3698 0.0000
# 3 51.9305 22.6144 108.3825 0.0000 20.2645 0.0000
# 4 0.0000 0.0000 0.0000 -22.1119 0.0000 -16.2946
# 5 20.2066 4.3698 20.2645 0.0000 40.2864 0.0000
# 6 0.0000 0.0000 0.0000 -16.2946 0.0000 -13.3985
#
#
#
# Elastic Compliance Matrix: (Units=1/GPa)
#
#
# Indices 1 2 3 4 5 6 
#
# 1 0.013497 -0.006579 -0.004373 0.000000 -0.003856 0.000000
# 2 -0.006579 0.045203 -0.006600 0.000000 0.001717 0.000000
# 3 -0.004373 -0.006600 0.013417 0.000000 -0.003840 0.000000
# 4 0.000000 0.000000 0.000000 -0.435688 0.000000 0.529861
# 5 -0.003856 0.001717 -0.003840 0.000000 0.028502 0.000000
# 6 0.000000 0.000000 0.000000 0.529861 0.000000 -0.719024
#
#
# Mechanical properties :
#
#
# Convention : Reuss Voigt Hill
#
# Bulk Modulus (GPa) = 27.01876 48.73561 37.87719
# Shear Modulus (GPa) = -4.96697 10.79086 2.91194
#
# Velocity S-wave (km/s) = -1.71141 2.52253 1.31039
# Velocity P-wave (km/s) = 3.46802 6.10103 4.96235
#
# Compressibility (1/GPa) = 0.03701132
#
# Stress axis : x y z
#
# Youngs Moduli (GPa) = 74.09053 22.12241 74.53221
#
# Poissons Ratio (x) = 0.14555 0.32594
# Poissons Ratio (y) = 0.48746 0.49194
# Poissons Ratio (z) = 0.32401 0.14602
#
# Static dielectric constant tensor:
#      x y z
#    x 3.781800 0.000000 0.477270 
#    y 0.000000 2.676910 0.000000 
#    z 0.477270 0.000000 3.730160 
# 
# 
# High freq. dielectric constant tensor:
#      x y z
#    x 1.667230 0.000000 0.019290 
#    y 0.000000 1.577450 0.000000 
#    z 0.019290 0.000000 1.675600 
# 
# From -- ./inp_files/106699.got.cif
#   From: 2010.06.25/outbox.cif.g09.slc.cpg/sg12_54_cif.got.tgz:106699.got - 2010.06.28 00:19:55.
