data_PCOD8081727
_publ_section_title
;
Structure prediction by ZEFSAII (Michael W. Deem and Ramdas Pophale) SiO2 
 PCOD8081727
Probable space group: C 2/M
;
_chemical_formula_sum "Si O2"
_cell_formula_units_Z 64
_cell_length_a 24.961956
_cell_length_b 9.216606
_cell_length_c 15.527262
_cell_angle_alpha 90.000000
_cell_angle_beta 72.988285
_cell_angle_gamma 90.000000
_cell_volume 3415.967060
_symmetry_space_group_name_H-M "C 2/M"
_symmetry_group_IT_number 12
_symmetry_cell_setting 'monoclinic'
loop_
_space_group_symop_operation_xyz
x,y,z
-x,y,-z
-x,-y,-z
x,-y,z
1/2+x,1/2+y,z
1/2-x,1/2+y,-z
1/2-x,1/2-y,-z
1/2+x,1/2-y,z
loop_
_atom_site_type_symbol
_atom_site_label
_atom_site_fract_x
_atom_site_fract_y
_atom_site_fract_z
Si Si1 0.932912 0.327641 0.370606
Si Si2 0.941566 0.327474 0.702343
Si Si3 0.628443 0.172254 0.429438
Si Si4 0.730481 0.162593 0.147486
Si Si5 0.642623 0.169979 0.751235
Si Si6 0.378026 0.833453 0.901302
Si Si7 0.358791 0.666597 0.073712
Si Si8 0.229274 0.831014 0.316913
O O1 0.934630 0.500000 0.371020
O O2 0.904717 0.271036 0.471438
O O3 0.897373 0.273296 0.305705
O O4 0.995679 0.264323 0.334615
O O5 0.942223 0.500000 0.700396
O O6 0.905277 0.272416 0.638555
O O7 0.914426 0.272788 0.804326
O O8 0.689836 0.245158 0.402173
O O9 0.635838 0.000000 0.427398
O O10 0.687841 0.183608 0.088890
O O11 0.793096 0.184701 0.084051
O O12 0.715244 0.278399 0.227387
O O13 0.723040 0.000000 0.190243
O O14 0.625305 0.255421 0.844990
O O15 0.706106 0.204393 0.692222
O O16 0.635181 0.000000 0.773824
O O17 0.393390 0.000000 0.913689
O O18 0.392311 0.740458 0.979344
O O19 0.377092 0.500000 0.071860
O O20 0.216105 0.000000 0.329971
#
# Coordination Sequence:
#
# PCOD8081727 Si02
#       8
#     8   8   8   8   8   8   8   8
#     4   9  18  33  56  79  98 131 177 219 256 296
#     4   9  17  31  53  81 106 128 165 216 263 301
#     4  10  18  32  55  81 106 130 165 214 262 308
#     4   9  17  31  49  73 104 134 168 209 254 303
#     4   9  19  36  53  73 103 137 176 215 249 294
#     4  10  18  30  50  76 105 132 163 209 260 305
#     4  10  20  32  50  75 103 137 173 206 251 307
#     4  10  19  30  48  75 108 140 168 204 253 305
#
# _framework density 18.735544000000001
#
# number of rings (size 3 to 8) (size 9 to 14) (size 15 to 20)
#    0.000    2.500    1.250    1.500    0.000    3.500 
#    0.000    1.250    0.000    7.500    0.000    0.000 
#    0.000    0.000    0.000    0.000    0.000    0.000 
#
# Total GULP energy -396794.061726 kJ/mol
# GULP energy per Si atom -12399.814429 kJ/mol
# Density = 1.869290 g / cm^3
# Si number density = 18.735544 Si / 1000 Ang^3
#
#
#
# Elastic Constant Matrix: (Units=GPa)
#
#
# Indices 1 2 3 4 5 6 
#
# 1 73.4993 26.3329 50.5473 0.0000 9.9507 0.0000
# 2 26.3329 51.6856 45.2393 0.0000 3.3715 0.0000
# 3 50.5473 45.2393 151.0281 0.0000 3.9141 0.0000
# 4 0.0000 0.0000 0.0000 23.5234 0.0000 -2.5191
# 5 9.9507 3.3715 3.9141 0.0000 18.5572 0.0000
# 6 0.0000 0.0000 0.0000 -2.5191 0.0000 16.5306
#
#
#
# Elastic Compliance Matrix: (Units=1/GPa)
#
#
# Indices 1 2 3 4 5 6 
#
# 1 0.020077 -0.005387 -0.004879 0.000000 -0.008758 0.000000
# 2 -0.005387 0.027850 -0.006519 0.000000 -0.000796 0.000000
# 3 -0.004879 -0.006519 0.010164 0.000000 0.001657 0.000000
# 4 0.000000 0.000000 0.000000 0.043216 0.000000 0.006586
# 5 -0.008758 -0.000796 0.001657 0.000000 0.058379 0.000000
# 6 0.000000 0.000000 0.000000 0.006586 0.000000 0.061497
#
#
# Mechanical properties :
#
#
# Convention : Reuss Voigt Hill
#
# Bulk Modulus (GPa) = 40.78079 57.82801 49.30440
# Shear Modulus (GPa) = 19.01683 21.99514 20.50599
#
# Velocity S-wave (km/s) = 3.18938 3.43006 3.31191
# Velocity P-wave (km/s) = 5.94783 6.82784 6.40297
#
# Compressibility (1/GPa) = 0.02452135
#
# Stress axis : x y z
#
# Youngs Moduli (GPa) = 49.80941 35.90677 98.38842
#
# Poissons Ratio (x) = 0.19343 0.48001
# Poissons Ratio (y) = 0.26833 0.64135
# Poissons Ratio (z) = 0.24301 0.23406
#
# Static dielectric constant tensor:
#      x y z
#    x 3.455710 0.000000 -0.094350 
#    y 0.000000 3.168680 0.000000 
#    z -0.094350 0.000000 3.420600 
# 
# 
# High freq. dielectric constant tensor:
#      x y z
#    x 1.715140 0.000000 -0.005030 
#    y 0.000000 1.695780 0.000000 
#    z -0.005030 0.000000 1.730490 
# 
# From -- ./inp_files/243739.got.cif
#   From: 2010.06.25/outbox.cif.g09.slc.cpg/sg12_122_cif.got.tgz:243739.got - 2010.06.28 00:19:55.
