data_PCOD8081392
_publ_section_title
;
Structure prediction by ZEFSAII (Michael W. Deem and Ramdas Pophale) SiO2 
 PCOD8081392
Probable space group: C 2/M
;
_chemical_formula_sum "Si O2"
_cell_formula_units_Z 56
_cell_length_a 20.650223
_cell_length_b 20.756192
_cell_length_c 9.475768
_cell_angle_alpha 90.000000
_cell_angle_beta 124.384975
_cell_angle_gamma 90.000000
_cell_volume 3351.803073
_symmetry_space_group_name_H-M "C 2/M"
_symmetry_group_IT_number 12
_symmetry_cell_setting 'monoclinic'
loop_
_space_group_symop_operation_xyz
x,y,z
-x,y,-z
-x,-y,-z
x,-y,z
1/2+x,1/2+y,z
1/2-x,1/2+y,-z
1/2-x,1/2-y,-z
1/2+x,1/2-y,z
loop_
_atom_site_type_symbol
_atom_site_label
_atom_site_fract_x
_atom_site_fract_y
_atom_site_fract_z
Si Si1 0.835495 0.813635 0.170348
Si Si2 0.498719 0.280368 0.333338
Si Si3 0.469250 0.842460 0.804711
Si Si4 0.190239 0.337195 0.813602
Si Si5 0.800246 0.328249 0.488832
Si Si6 0.169530 0.182560 0.524959
Si Si7 0.049843 0.574673 0.698551
O O1 0.834120 0.736465 0.190355
O O2 0.819133 0.845755 0.303270
O O3 0.923234 0.826746 0.217291
O O4 0.776079 0.845095 0.987467
O O5 0.500000 0.260956 0.500000
O O6 0.491964 0.214786 0.237907
O O7 0.576543 0.318366 0.377075
O O8 0.374815 0.840575 0.681610
O O9 0.497668 0.909731 0.772267
O O10 0.500000 0.835717 0.000000
O O11 0.192982 0.362109 0.654950
O O12 0.129325 0.384583 0.812936
O O13 0.793799 0.253675 0.438150
O O14 0.722501 0.355447 0.474806
O O15 0.071901 0.500000 0.723205
O O16 0.000000 0.595140 0.500000
#
# Coordination Sequence:
#
# PCOD8081392 Si02
#       7
#     8   8   8   8   8   8   8
#     4   9  17  26  49  70  92 124 156 193 238 292
#     4   9  16  30  46  68  99 130 160 186 229 293
#     4  11  21  29  48  66  93 127 163 201 242 278
#     4  10  18  30  48  67  91 120 163 199 236 286
#     4   9  17  29  40  63  95 123 154 191 238 283
#     4   8  16  26  41  65  96 125 147 186 236 288
#     4  11  22  37  53  67  90 130 175 204 235 277
#
# _framework density 16.707425000000001
#
# number of rings (size 3 to 8) (size 9 to 14) (size 15 to 20)
#    0.000    2.429    2.857    1.286    2.000    3.714 
#    0.000    0.000    0.000    0.000    0.000    0.000 
#    0.000    8.571    0.000    0.000    0.000    0.000 
#
# Total GULP energy -346970.360296 kJ/mol
# GULP energy per Si atom -12391.798582 kJ/mol
# Density = 1.666940 g / cm^3
# Si number density = 16.707425 Si / 1000 Ang^3
#
#
#
# Elastic Constant Matrix: (Units=GPa)
#
#
# Indices 1 2 3 4 5 6 
#
# 1 130.3570 15.5361 49.0987 0.0000 7.9055 0.0000
# 2 15.5361 29.6139 18.4770 0.0000 2.5315 0.0000
# 3 49.0987 18.4770 115.3434 0.0000 10.2570 0.0000
# 4 0.0000 0.0000 0.0000 11.3429 0.0000 1.4121
# 5 7.9055 2.5315 10.2570 0.0000 25.0838 0.0000
# 6 0.0000 0.0000 0.0000 1.4121 0.0000 11.3996
#
#
#
# Elastic Compliance Matrix: (Units=1/GPa)
#
#
# Indices 1 2 3 4 5 6 
#
# 1 0.009363 -0.002652 -0.003448 0.000000 -0.001274 0.000000
# 2 -0.002652 0.038315 -0.004918 0.000000 -0.001020 0.000000
# 3 -0.003448 -0.004918 0.011191 0.000000 -0.002993 0.000000
# 4 0.000000 0.000000 0.000000 0.089542 0.000000 -0.011092
# 5 -0.001274 -0.001020 -0.002993 0.000000 0.041595 0.000000
# 6 0.000000 0.000000 0.000000 -0.011092 0.000000 0.089097
#
#
# Mechanical properties :
#
#
# Convention : Reuss Voigt Hill
#
# Bulk Modulus (GPa) = 27.14890 49.05976 38.10433
# Shear Modulus (GPa) = 15.95325 22.37876 19.16601
#
# Velocity S-wave (km/s) = 3.09343 3.66382 3.39064
# Velocity P-wave (km/s) = 5.38925 6.87938 6.17940
#
# Compressibility (1/GPa) = 0.03683390
#
# Stress axis : x y z
#
# Youngs Moduli (GPa) = 106.80270 26.09939 89.35518
#
# Poissons Ratio (x) = 0.06922 0.30805
# Poissons Ratio (y) = 0.28326 0.43945
# Poissons Ratio (z) = 0.36820 0.12836
#
# Static dielectric constant tensor:
#      x y z
#    x 3.512040 0.000000 0.003830 
#    y 0.000000 2.498610 0.000000 
#    z 0.003830 0.000000 3.236760 
# 
# 
# High freq. dielectric constant tensor:
#      x y z
#    x 1.663760 0.000000 0.002290 
#    y 0.000000 1.559880 0.000000 
#    z 0.002290 0.000000 1.645760 
# 
# From -- ./inp_files/89259.got.cif
#   From: 2010.06.25/outbox.cif.g09.slc.cpg/sg12_45_cif.got.tgz:89259.got - 2010.06.28 00:19:55.
