data_PCOD8081546
_publ_section_title
;
Structure prediction by ZEFSAII (Michael W. Deem and Ramdas Pophale) SiO2 
 PCOD8081546
Probable space group: C 2/M
;
_chemical_formula_sum "Si O2"
_cell_formula_units_Z 56
_cell_length_a 19.305113
_cell_length_b 8.730882
_cell_length_c 23.235450
_cell_angle_alpha 90.000000
_cell_angle_beta 128.621331
_cell_angle_gamma 90.000000
_cell_volume 3059.798251
_symmetry_space_group_name_H-M "C 2/M"
_symmetry_group_IT_number 12
_symmetry_cell_setting 'monoclinic'
loop_
_space_group_symop_operation_xyz
x,y,z
-x,y,-z
-x,-y,-z
x,-y,z
1/2+x,1/2+y,z
1/2-x,1/2+y,-z
1/2-x,1/2-y,-z
1/2+x,1/2-y,z
loop_
_atom_site_type_symbol
_atom_site_label
_atom_site_fract_x
_atom_site_fract_y
_atom_site_fract_z
Si Si1 0.366609 0.320365 0.715763
Si Si2 0.172869 0.317488 0.999360
Si Si3 0.936273 0.181691 0.148867
Si Si4 0.789543 0.320203 0.282145
Si Si5 0.283850 0.817857 0.147945
Si Si6 0.247600 0.680311 0.436147
Si Si7 0.903419 0.818877 0.434065
O O1 0.361259 0.500000 0.701580
O O2 0.464927 0.268669 0.783411
O O3 0.301201 0.269963 0.733398
O O4 0.339748 0.236355 0.642845
O O5 0.172422 0.500000 0.999116
O O6 0.082272 0.252232 0.924492
O O7 0.250000 0.250000 0.000000
O O8 0.193263 0.253003 0.073739
O O9 0.870793 0.252055 0.162217
O O10 0.923715 0.000000 0.140301
O O11 0.803129 0.500000 0.292052
O O12 0.785673 0.263142 0.214706
O O13 0.874070 0.243966 0.356746
O O14 0.281918 0.000000 0.140358
O O15 0.245070 0.500000 0.440199
O O16 0.250000 0.750000 0.500000
O O17 0.334588 0.737519 0.446962
O O18 0.000000 0.752634 0.500000
O O19 0.905803 0.000000 0.431373
#
# Coordination Sequence:
#
# PCOD8081546 Si02
#       7
#     8   8   8   8   8   8   8
#     4   9  19  36  54  72  98 132 167 202 243 292
#     4  10  18  30  49  72 100 131 164 203 246 290
#     4  10  19  32  52  75  99 129 165 205 247 290
#     4   9  19  35  53  73  98 130 165 201 243 289
#     4  10  19  32  51  75 102 129 163 205 246 292
#     4  10  20  34  53  75 100 131 164 202 246 291
#     4   9  19  35  53  73  98 129 164 201 243 290
#
# _framework density 18.301862
#
# number of rings (size 3 to 8) (size 9 to 14) (size 15 to 20)
#    0.000    2.429    0.000    4.286    0.000    4.286 
#    0.000    5.000    0.000    4.286    0.000    0.000 
#    0.000    0.000    0.000    0.000    0.000    0.000 
#
# Total GULP energy -347170.437263 kJ/mol
# GULP energy per Si atom -12398.944188 kJ/mol
# Density = 1.826021 g / cm^3
# Si number density = 18.301862 Si / 1000 Ang^3
#
#
#
# Elastic Constant Matrix: (Units=GPa)
#
#
# Indices 1 2 3 4 5 6 
#
# 1 71.4488 30.6414 84.9761 0.0000 -5.4846 0.0000
# 2 30.6414 72.2546 61.1641 0.0000 -1.3436 0.0000
# 3 84.9761 61.1641 208.2754 0.0000 -5.4083 0.0000
# 4 0.0000 0.0000 0.0000 37.0468 0.0000 -1.6668
# 5 -5.4846 -1.3436 -5.4083 0.0000 35.1388 0.0000
# 6 0.0000 0.0000 0.0000 -1.6668 0.0000 22.3860
#
#
#
# Elastic Compliance Matrix: (Units=1/GPa)
#
#
# Indices 1 2 3 4 5 6 
#
# 1 0.027878 -0.002932 -0.010445 0.000000 0.002632 0.000000
# 2 -0.002932 0.018728 -0.004314 0.000000 -0.000405 0.000000
# 3 -0.010445 -0.004314 0.010324 0.000000 -0.000206 0.000000
# 4 0.000000 0.000000 0.000000 0.027084 0.000000 0.002017
# 5 0.002632 -0.000405 -0.000206 0.000000 0.028822 0.000000
# 6 0.000000 0.000000 0.000000 0.002017 0.000000 0.044821
#
#
# Mechanical properties :
#
#
# Convention : Reuss Voigt Hill
#
# Bulk Modulus (GPa) = 46.40714 78.39356 62.40035
# Shear Modulus (GPa) = 24.97254 30.59414 27.78334
#
# Velocity S-wave (km/s) = 3.69790 4.09301 3.90046
# Velocity P-wave (km/s) = 6.60637 8.07859 7.37929
#
# Compressibility (1/GPa) = 0.02154841
#
# Stress axis : x y z
#
# Youngs Moduli (GPa) = 35.87118 53.39703 96.85853
#
# Poissons Ratio (x) = 0.15654 1.01166
# Poissons Ratio (y) = 0.10516 0.41786
# Poissons Ratio (z) = 0.37466 0.23036
#
# Static dielectric constant tensor:
#      x y z
#    x 3.259810 0.000000 -0.018220 
#    y 0.000000 3.352650 0.000000 
#    z -0.018220 0.000000 3.927430 
# 
# 
# High freq. dielectric constant tensor:
#      x y z
#    x 1.682590 0.000000 -0.002850 
#    y 0.000000 1.714570 0.000000 
#    z -0.002850 0.000000 1.729010 
# 
# From -- ./inp_files/342514.got.cif
#   From: 2010.06.25/outbox.cif.g09.slc.cpg/sg12_172_cif.got.tgz:342514.got - 2010.06.28 00:19:55.
