data_PCOD8081418
_publ_section_title
;
Structure prediction by ZEFSAII (Michael W. Deem and Ramdas Pophale) SiO2 
 PCOD8081418
Probable space group: C 2/M
;
_chemical_formula_sum "Si O2"
_cell_formula_units_Z 56
_cell_length_a 19.034345
_cell_length_b 8.932165
_cell_length_c 20.000110
_cell_angle_alpha 90.000000
_cell_angle_beta 113.638296
_cell_angle_gamma 90.000000
_cell_volume 3115.068061
_symmetry_space_group_name_H-M "C 2/M"
_symmetry_group_IT_number 12
_symmetry_cell_setting 'monoclinic'
loop_
_space_group_symop_operation_xyz
x,y,z
-x,y,-z
-x,-y,-z
x,-y,z
1/2+x,1/2+y,z
1/2-x,1/2+y,-z
1/2-x,1/2-y,-z
1/2+x,1/2-y,z
loop_
_atom_site_type_symbol
_atom_site_label
_atom_site_fract_x
_atom_site_fract_y
_atom_site_fract_z
Si Si1 0.982928 0.329564 0.571461
Si Si2 0.754528 0.677417 0.797564
Si Si3 0.399776 0.323440 0.893534
Si Si4 0.707918 0.672850 0.923330
Si Si5 0.567352 0.672297 0.948942
Si Si6 0.173805 0.177564 0.503161
Si Si7 0.362378 0.676198 0.358644
O O1 0.975261 0.500000 0.593809
O O2 0.903884 0.243619 0.560259
O O3 0.000000 0.321591 0.500000
O O4 0.057275 0.251765 0.632635
O O5 0.755789 0.500000 0.797186
O O6 0.839966 0.741017 0.821936
O O7 0.724067 0.742093 0.856917
O O8 0.701043 0.736313 0.717541
O O9 0.387848 0.500000 0.879443
O O10 0.483263 0.261324 0.903146
O O11 0.390104 0.267823 0.967368
O O12 0.731219 0.500000 0.933874
O O13 0.617459 0.697491 0.902087
O O14 0.750000 0.750000 0.000000
O O15 0.552937 0.500000 0.960454
O O16 0.250000 0.250000 0.500000
O O17 0.169162 0.219029 0.579944
O O18 0.176417 0.000000 0.492370
O O19 0.375862 0.500000 0.358580
#
# Coordination Sequence:
#
# PCOD8081418 Si02
#       7
#     8   8   8   8   8   8   8
#     4   9  17  31  53  79 104 131 169 209 242 292
#     4  10  20  32  48  72 101 130 160 202 252 298
#     4   9  16  29  48  66  89 125 164 201 244 293
#     4  10  18  30  48  69  93 122 162 207 245 286
#     4   8  15  28  46  66  88 119 160 204 245 286
#     4  10  19  33  55  79 104 135 170 209 252 300
#     4   9  19  35  51  71 104 141 168 200 257 311
#
# _framework density 17.977136000000002
#
# number of rings (size 3 to 8) (size 9 to 14) (size 15 to 20)
#    0.000    2.714    1.429    1.714    0.000    2.857 
#    0.000    3.571    0.000    1.714    0.000    0.000 
#    0.000    0.000    0.000    0.000    0.000    0.000 
#
# Total GULP energy -346976.919626 kJ/mol
# GULP energy per Si atom -12392.032844 kJ/mol
# Density = 1.793622 g / cm^3
# Si number density = 17.977136 Si / 1000 Ang^3
#
#
#
# Elastic Constant Matrix: (Units=GPa)
#
#
# Indices 1 2 3 4 5 6 
#
# 1 113.2753 41.2089 55.2863 0.0000 22.5565 0.0000
# 2 41.2089 51.9325 32.0302 0.0000 9.7165 0.0000
# 3 55.2863 32.0302 111.1011 0.0000 28.1945 0.0000
# 4 0.0000 0.0000 0.0000 22.4392 0.0000 7.8267
# 5 22.5565 9.7165 28.1945 0.0000 32.2697 0.0000
# 6 0.0000 0.0000 0.0000 7.8267 0.0000 29.2082
#
#
#
# Elastic Compliance Matrix: (Units=1/GPa)
#
#
# Indices 1 2 3 4 5 6 
#
# 1 0.014596 -0.008474 -0.003699 0.000000 -0.004419 0.000000
# 2 -0.008474 0.028395 -0.004244 0.000000 0.001081 0.000000
# 3 -0.003699 -0.004244 0.014242 0.000000 -0.008580 0.000000
# 4 0.000000 0.000000 0.000000 0.049160 0.000000 -0.013173
# 5 -0.004419 0.001081 -0.008580 0.000000 0.041249 0.000000
# 6 0.000000 0.000000 0.000000 -0.013173 0.000000 0.037767
#
#
# Mechanical properties :
#
#
# Convention : Reuss Voigt Hill
#
# Bulk Modulus (GPa) = 40.98288 59.26217 50.12253
# Shear Modulus (GPa) = 22.08716 26.63567 24.36141
#
# Velocity S-wave (km/s) = 3.50898 3.85339 3.68521
# Velocity P-wave (km/s) = 6.26609 7.26877 6.78598
#
# Compressibility (1/GPa) = 0.02440043
#
# Stress axis : x y z
#
# Youngs Moduli (GPa) = 68.51118 35.21738 70.21297
#
# Poissons Ratio (x) = 0.29843 0.25970
# Poissons Ratio (y) = 0.58056 0.29797
# Poissons Ratio (z) = 0.25341 0.14946
#
# Static dielectric constant tensor:
#      x y z
#    x 4.839470 0.000000 0.291280 
#    y 0.000000 3.155030 0.000000 
#    z 0.291280 0.000000 3.285600 
# 
# 
# High freq. dielectric constant tensor:
#      x y z
#    x 1.704540 0.000000 0.018600 
#    y 0.000000 1.679400 0.000000 
#    z 0.018600 0.000000 1.671090 
# 
# From -- ./inp_files/319356.got.cif
#   From: 2010.06.25/outbox.cif.g09.slc.cpg/sg12_160_cif.got.tgz:319356.got - 2010.06.28 00:19:55.
