data_PCOD8081158
_publ_section_title
;
Structure prediction by ZEFSAII (Michael W. Deem and Ramdas Pophale) SiO2 
 PCOD8081158
Probable space group: C 2/M
;
_chemical_formula_sum "Si O2"
_cell_formula_units_Z 64
_cell_length_a 18.281437
_cell_length_b 8.851362
_cell_length_c 21.995495
_cell_angle_alpha 90.000000
_cell_angle_beta 111.117248
_cell_angle_gamma 90.000000
_cell_volume 3320.195965
_symmetry_space_group_name_H-M "C 2/M"
_symmetry_group_IT_number 12
_symmetry_cell_setting 'monoclinic'
loop_
_space_group_symop_operation_xyz
x,y,z
-x,y,-z
-x,-y,-z
x,-y,z
1/2+x,1/2+y,z
1/2-x,1/2+y,-z
1/2-x,1/2-y,-z
1/2+x,1/2-y,z
loop_
_atom_site_type_symbol
_atom_site_label
_atom_site_fract_x
_atom_site_fract_y
_atom_site_fract_z
Si Si1 0.034296 0.674033 0.876345
Si Si2 0.460405 0.667015 0.749275
Si Si3 0.273474 0.678070 0.365505
Si Si4 0.333100 0.678335 0.009948
Si Si5 0.705577 0.669284 0.234737
Si Si6 0.415372 0.321035 0.490700
Si Si7 0.130714 0.178311 0.390802
Si Si8 0.127753 0.323935 0.104584
O O1 0.058777 0.500000 0.887851
O O2 0.105880 0.776195 0.919541
O O3 0.016546 0.715095 0.800620
O O4 0.958163 0.708657 0.894290
O O5 0.498093 0.500000 0.765670
O O6 0.375381 0.666643 0.753915
O O7 0.445822 0.712152 0.674549
O O8 0.266776 0.500000 0.354654
O O9 0.269797 0.753893 0.297773
O O10 0.355316 0.727703 0.420165
O O11 0.205375 0.730723 0.390043
O O12 0.323940 0.500000 0.005245
O O13 0.250000 0.750000 0.000000
O O14 0.366787 0.736127 0.956522
O O15 0.732962 0.500000 0.226140
O O16 0.695595 0.764827 0.170010
O O17 0.500000 0.251159 0.500000
O O18 0.420994 0.500000 0.497294
O O19 0.387760 0.259285 0.547787
O O20 0.150226 0.000000 0.394777
O O21 0.141453 0.500000 0.096956
#
# Coordination Sequence:
#
# PCOD8081158 Si02
#       8
#     8   8   8   8   8   8   8   8
#     4  10  20  35  57  83 110 139 174 219 267 316
#     4   8  15  28  48  75 103 132 169 212 259 311
#     4  10  18  29  50  77 103 132 169 215 263 311
#     4  12  25  40  57  78 109 146 184 223 265 315
#     4   9  17  31  52  78 108 138 171 214 262 312
#     4   9  18  32  49  71 100 135 174 215 259 310
#     4   9  17  31  52  75 100 132 172 216 261 313
#     4  10  20  36  59  86 113 140 176 220 265 315
#
# _framework density 19.275971999999999
#
# number of rings (size 3 to 8) (size 9 to 14) (size 15 to 20)
#    0.000    2.375    0.000    4.125    0.000    6.000 
#    0.000    1.875    0.000    6.375    0.000    0.000 
#    0.000    0.000    0.000    0.000    0.000    0.000 
#
# Total GULP energy -396784.128035 kJ/mol
# GULP energy per Si atom -12399.504001 kJ/mol
# Density = 1.923210 g / cm^3
# Si number density = 19.275972 Si / 1000 Ang^3
#
#
#
# Elastic Constant Matrix: (Units=GPa)
#
#
# Indices 1 2 3 4 5 6 
#
# 1 52.8340 32.8682 33.3832 0.0000 20.8406 0.0000
# 2 32.8682 107.8207 49.4895 0.0000 15.5566 0.0000
# 3 33.3832 49.4895 124.1333 0.0000 30.0697 0.0000
# 4 0.0000 0.0000 0.0000 33.0286 0.0000 1.4823
# 5 20.8406 15.5566 30.0697 0.0000 16.5349 0.0000
# 6 0.0000 0.0000 0.0000 1.4823 0.0000 20.9495
#
#
#
# Elastic Compliance Matrix: (Units=1/GPa)
#
#
# Indices 1 2 3 4 5 6 
#
# 1 0.042015 -0.007093 0.004898 0.000000 -0.055189 0.000000
# 2 -0.007093 0.012730 -0.004347 0.000000 0.004869 0.000000
# 3 0.004898 -0.004347 0.016044 0.000000 -0.031261 0.000000
# 4 0.000000 0.000000 0.000000 0.030373 0.000000 -0.002149
# 5 -0.055189 0.004869 -0.031261 0.000000 0.182308 0.000000
# 6 0.000000 0.000000 0.000000 -0.002149 0.000000 0.047886
#
#
# Mechanical properties :
#
#
# Convention : Reuss Voigt Hill
#
# Bulk Modulus (GPa) = 17.32975 57.36329 37.34652
# Shear Modulus (GPa) = 13.74851 25.37241 19.56046
#
# Velocity S-wave (km/s) = 2.67356 3.63198 3.18898
# Velocity P-wave (km/s) = 4.30586 6.88563 5.74249
#
# Compressibility (1/GPa) = 0.05770424
#
# Stress axis : x y z
#
# Youngs Moduli (GPa) = 23.80107 78.55659 62.32730
#
# Poissons Ratio (x) = 0.55721 -0.30526
# Poissons Ratio (y) = 0.16882 0.27093
# Poissons Ratio (z) = -0.11657 0.34148
#
# Static dielectric constant tensor:
#      x y z
#    x 3.249980 0.000000 0.009970 
#    y 0.000000 3.498890 0.000000 
#    z 0.009970 0.000000 3.907780 
# 
# 
# High freq. dielectric constant tensor:
#      x y z
#    x 1.711180 0.000000 0.004400 
#    y 0.000000 1.744700 0.000000 
#    z 0.004400 0.000000 1.771520 
# 
# From -- ./inp_files/345593.got.cif
#   From: 2010.06.25/outbox.cif.g09.slc.cpg/sg12_173_cif.got.tgz:345593.got - 2010.06.28 00:19:55.
