data_PCOD8081106
_publ_section_title
;
Structure prediction by ZEFSAII (Michael W. Deem and Ramdas Pophale) SiO2 
 PCOD8081106
Probable space group: C 2/M
;
_chemical_formula_sum "Si O2"
_cell_formula_units_Z 64
_cell_length_a 25.700408
_cell_length_b 13.248434
_cell_length_c 12.231670
_cell_angle_alpha 90.000000
_cell_angle_beta 112.831155
_cell_angle_gamma 90.000000
_cell_volume 3838.463646
_symmetry_space_group_name_H-M "C 2/M"
_symmetry_group_IT_number 12
_symmetry_cell_setting 'monoclinic'
loop_
_space_group_symop_operation_xyz
x,y,z
-x,y,-z
-x,-y,-z
x,-y,z
1/2+x,1/2+y,z
1/2-x,1/2+y,-z
1/2-x,1/2-y,-z
1/2+x,1/2-y,z
loop_
_atom_site_type_symbol
_atom_site_label
_atom_site_fract_x
_atom_site_fract_y
_atom_site_fract_z
Si Si1 0.161136 0.115670 0.030297
Si Si2 0.822374 0.615450 0.667604
Si Si3 0.732136 0.613833 0.409762
Si Si4 0.760735 0.256285 0.778250
Si Si5 0.388667 0.705119 0.650500
Si Si6 0.556944 0.382229 0.101326
Si Si7 0.436295 0.616531 0.474506
Si Si8 0.842680 0.114894 0.223341
O O1 0.212449 0.189224 0.103539
O O2 0.108454 0.142086 0.063325
O O3 0.180537 0.000000 0.063316
O O4 0.142874 0.134976 0.891017
O O5 0.841431 0.500000 0.695321
O O6 0.766296 0.628951 0.549012
O O7 0.806614 0.661653 0.773108
O O8 0.873638 0.676665 0.653702
O O9 0.736770 0.500000 0.370730
O O10 0.757829 0.684719 0.337120
O O11 0.666945 0.637552 0.378576
O O12 0.705989 0.310554 0.778735
O O13 0.435054 0.674532 0.777707
O O14 0.413819 0.688442 0.551572
O O15 0.551121 0.500000 0.121934
O O16 0.500000 0.340404 0.000000
O O17 0.500000 0.647701 0.500000
O O18 0.432507 0.500000 0.509481
O O19 0.399571 0.636222 0.336505
O O20 0.821950 0.000000 0.225538
#
# Coordination Sequence:
#
# PCOD8081106 Si02
#       8
#     8   8   8   8   8   8   8   8
#     4  10  20  34  50  74 104 134 167 204 249 303
#     4  10  20  31  49  76 103 132 167 207 249 295
#     4  10  18  29  49  77 106 131 161 204 253 303
#     4  11  18  31  50  73 100 135 168 205 251 299
#     4  11  19  33  53  75 103 133 167 205 252 299
#     4  10  20  32  52  78 102 130 165 206 252 302
#     4  10  21  34  51  76 105 135 165 201 249 305
#     4  10  21  34  48  70 105 140 168 201 244 297
#
# _framework density 16.673337
#
# number of rings (size 3 to 8) (size 9 to 14) (size 15 to 20)
#    0.000    1.750    2.500    5.250    1.750    2.000 
#    0.000    0.000    0.000    0.750    0.000    0.000 
#    0.000    0.000    0.000    0.000    0.000    0.000 
#
# Total GULP energy -396881.103275 kJ/mol
# GULP energy per Si atom -12402.534477 kJ/mol
# Density = 1.663539 g / cm^3
# Si number density = 16.673337 Si / 1000 Ang^3
#
#
#
# Elastic Constant Matrix: (Units=GPa)
#
#
# Indices 1 2 3 4 5 6 
#
# 1 63.3289 30.2340 37.2553 0.0000 5.9681 0.0000
# 2 30.2340 88.4038 43.6543 0.0000 3.8028 0.0000
# 3 37.2553 43.6543 106.5412 0.0000 1.9187 0.0000
# 4 0.0000 0.0000 0.0000 22.2111 0.0000 -2.1038
# 5 5.9681 3.8028 1.9187 0.0000 29.8450 0.0000
# 6 0.0000 0.0000 0.0000 -2.1038 0.0000 23.7964
#
#
#
# Elastic Compliance Matrix: (Units=1/GPa)
#
#
# Indices 1 2 3 4 5 6 
#
# 1 0.021555 -0.004431 -0.005661 0.000000 -0.003382 0.000000
# 2 -0.004431 0.015154 -0.004646 0.000000 -0.000746 0.000000
# 3 -0.005661 -0.004646 0.013254 0.000000 0.000872 0.000000
# 4 0.000000 0.000000 0.000000 0.045403 0.000000 0.004014
# 5 -0.003382 -0.000746 0.000872 0.000000 0.034222 0.000000
# 6 0.000000 0.000000 0.000000 0.004014 0.000000 0.042378
#
#
# Mechanical properties :
#
#
# Convention : Reuss Voigt Hill
#
# Bulk Modulus (GPa) = 48.81381 53.39569 51.10475
# Shear Modulus (GPa) = 24.00742 24.97919 24.49330
#
# Velocity S-wave (km/s) = 3.79868 3.87480 3.83693
# Velocity P-wave (km/s) = 6.96994 7.21892 7.09552
#
# Compressibility (1/GPa) = 0.02048600
#
# Stress axis : x y z
#
# Youngs Moduli (GPa) = 46.39333 65.99133 75.45144
#
# Poissons Ratio (x) = 0.29240 0.42712
# Poissons Ratio (y) = 0.20556 0.35056
# Poissons Ratio (z) = 0.26263 0.30661
#
# Static dielectric constant tensor:
#      x y z
#    x 2.975380 0.000000 -0.006420 
#    y 0.000000 3.181410 0.000000 
#    z -0.006420 0.000000 3.327600 
# 
# 
# High freq. dielectric constant tensor:
#      x y z
#    x 1.623970 0.000000 -0.003520 
#    y 0.000000 1.631820 0.000000 
#    z -0.003520 0.000000 1.653310 
# 
# From -- ./inp_files/176133.got.cif
#   From: 2010.06.25/outbox.cif.g09.slc.cpg/sg12_89_cif.got.tgz:176133.got - 2010.06.28 00:19:55.
