data_PCOD8081516
_publ_section_title
;
Structure prediction by ZEFSAII (Michael W. Deem and Ramdas Pophale) SiO2 
 PCOD8081516
Probable space group: C 2/M
;
_chemical_formula_sum "Si O2"
_cell_formula_units_Z 48
_cell_length_a 21.605541
_cell_length_b 16.908138
_cell_length_c 21.860413
_cell_angle_alpha 90.000000
_cell_angle_beta 159.178114
_cell_angle_gamma 90.000000
_cell_volume 2838.670239
_symmetry_space_group_name_H-M "C 2/M"
_symmetry_group_IT_number 12
_symmetry_cell_setting 'monoclinic'
loop_
_space_group_symop_operation_xyz
x,y,z
-x,y,-z
-x,-y,-z
x,-y,z
1/2+x,1/2+y,z
1/2-x,1/2+y,-z
1/2-x,1/2-y,-z
1/2+x,1/2-y,z
loop_
_atom_site_type_symbol
_atom_site_label
_atom_site_fract_x
_atom_site_fract_y
_atom_site_fract_z
Si Si1 0.730200 0.673261 0.360220
Si Si2 0.715623 0.183522 0.417512
Si Si3 0.304732 0.410186 0.798054
Si Si4 0.482971 0.592674 0.735362
Si Si5 0.575785 0.089544 0.699524
Si Si6 0.364967 0.089584 0.110792
O O1 0.731806 0.769410 0.367817
O O2 0.723094 0.649579 0.283107
O O3 0.571961 0.636281 0.252751
O O4 0.906001 0.641559 0.553224
O O5 0.750000 0.250000 0.500000
O O6 0.865681 0.118108 0.568199
O O7 0.522888 0.146848 0.239456
O O8 0.254404 0.500000 0.732334
O O9 0.187535 0.378955 0.745698
O O10 0.500000 0.407270 0.000000
O O11 0.458001 0.500000 0.723042
O O12 0.686616 0.613206 0.910663
O O13 0.683506 0.095138 0.861927
O O14 0.517626 0.000000 0.632485
O O15 0.420662 0.000000 0.145429
#
# Coordination Sequence:
#
# PCOD8081516 Si02
#       6
#     8   8   8   8   8   8
#     4  11  20  31  46  71 101 135 164 200 252 288
#     4  10  20  32  46  71 103 135 163 200 251 297
#     4  10  20  33  48  70  97 133 176 203 230 283
#     4  10  19  32  51  70  97 133 169 206 242 290
#     4  10  18  30  49  69  96 133 170 202 232 282
#     4  10  19  33  52  74  98 133 172 204 241 289
#
# _framework density 16.909326
#
# number of rings (size 3 to 8) (size 9 to 14) (size 15 to 20)
#    0.000    1.833    3.333    3.500    0.000    6.667 
#    3.000    0.000    0.000    0.000    0.000    0.000 
#    0.000   13.333    0.000    0.000    0.000    0.000 
#
# Total GULP energy -297464.786720 kJ/mol
# GULP energy per Si atom -12394.366113 kJ/mol
# Density = 1.687084 g / cm^3
# Si number density = 16.909326 Si / 1000 Ang^3
#
#
#
# Elastic Constant Matrix: (Units=GPa)
#
#
# Indices 1 2 3 4 5 6 
#
# 1 57.9476 38.7238 28.4839 -0.0003 2.8013 0.0098
# 2 38.7238 72.3358 44.9473 -0.1169 8.5182 0.0038
# 3 28.4839 44.9473 105.0053 0.0867 14.9564 -0.0111
# 4 -0.0003 -0.1169 0.0867 13.4763 0.0221 3.1533
# 5 2.8013 8.5182 14.9564 0.0221 22.9912 0.0059
# 6 0.0098 0.0038 -0.0111 3.1533 0.0059 34.8168
#
#
#
# Elastic Compliance Matrix: (Units=1/GPa)
#
#
# Indices 1 2 3 4 5 6 
#
# 1 0.027244 -0.013734 -0.001943 -0.000112 0.003033 0.000003
# 2 -0.013734 0.025835 -0.006842 0.000280 -0.003448 -0.000026
# 3 -0.001943 -0.006842 0.013870 -0.000143 -0.006251 0.000020
# 4 -0.000112 0.000280 -0.000143 0.075814 -0.000068 -0.006866
# 5 0.003033 -0.003448 -0.006251 -0.000068 0.048469 -0.000004
# 6 0.000003 -0.000026 0.000020 -0.006866 -0.000004 0.029344
#
#
# Mechanical properties :
#
#
# Convention : Reuss Voigt Hill
#
# Bulk Modulus (GPa) = 45.64380 51.06651 48.35516
# Shear Modulus (GPa) = 18.32060 22.46578 20.39319
#
# Velocity S-wave (km/s) = 3.29517 3.64895 3.47656
# Velocity P-wave (km/s) = 6.44433 6.92957 6.69135
#
# Compressibility (1/GPa) = 0.02190878
#
# Stress axis : x y z
#
# Youngs Moduli (GPa) = 36.70600 38.70749 72.10017
#
# Poissons Ratio (x) = 0.53162 0.14010
# Poissons Ratio (y) = 0.50413 0.49332
# Poissons Ratio (z) = 0.07132 0.26484
#
# Static dielectric constant tensor:
#      x y z
#    x 3.168250 -0.000010 -0.028390 
#    y -0.000010 3.379700 -0.000140 
#    z -0.028390 -0.000140 3.352320 
# 
# 
# High freq. dielectric constant tensor:
#      x y z
#    x 1.612070 0.000000 0.009200 
#    y 0.000000 1.636780 -0.000010 
#    z 0.009200 -0.000010 1.669220 
# 
# From -- ./inp_files/86802.got.cif
#   From: 2010.06.25/outbox.cif.g09.slc.cpg/sg12_44_cif.got.tgz:86802.got - 2010.06.28 00:19:55.
