data_PCOD8081582
_publ_section_title
;
Structure prediction by ZEFSAII (Michael W. Deem and Ramdas Pophale) SiO2 
 PCOD8081582
Probable space group: C 2/M
;
_chemical_formula_sum "Si O2"
_cell_formula_units_Z 56
_cell_length_a 19.202890
_cell_length_b 9.473271
_cell_length_c 21.651203
_cell_angle_alpha 90.000000
_cell_angle_beta 125.519080
_cell_angle_gamma 90.000000
_cell_volume 3205.763095
_symmetry_space_group_name_H-M "C 2/M"
_symmetry_group_IT_number 12
_symmetry_cell_setting 'monoclinic'
loop_
_space_group_symop_operation_xyz
x,y,z
-x,y,-z
-x,-y,-z
x,-y,z
1/2+x,1/2+y,z
1/2-x,1/2+y,-z
1/2-x,1/2-y,-z
1/2+x,1/2-y,z
loop_
_atom_site_type_symbol
_atom_site_label
_atom_site_fract_x
_atom_site_fract_y
_atom_site_fract_z
Si Si1 0.710595 0.836503 0.816175
Si Si2 0.049326 0.161286 0.713689
Si Si3 0.234070 0.337525 0.684899
Si Si4 0.070511 0.164503 0.584494
Si Si5 0.578757 0.662493 0.248585
Si Si6 0.861818 0.662795 0.937426
Si Si7 0.491022 0.162204 0.895723
O O1 0.619327 0.763565 0.780050
O O2 0.740116 0.813554 0.761155
O O3 0.779270 0.762955 0.896331
O O4 0.703021 0.000000 0.830215
O O5 0.959583 0.184230 0.702697
O O6 0.035007 0.198584 0.634539
O O7 0.081379 0.000000 0.737190
O O8 0.215680 0.500000 0.659272
O O9 0.158521 0.245823 0.616414
O O10 0.323293 0.283586 0.701389
O O11 0.000000 0.219272 0.500000
O O12 0.089428 0.000000 0.584831
O O13 0.577590 0.500000 0.227301
O O14 0.519011 0.744521 0.170024
O O15 0.833035 0.500000 0.917651
O O16 0.919955 0.704562 0.909112
O O17 0.914957 0.688802 0.027468
O O18 0.480179 0.000000 0.871127
#
# Coordination Sequence:
#
# PCOD8081582 Si02
#       7
#     8   8   8   8   8   8   8
#     4  10  18  30  49  73  98 126 167 212 244 284
#     4   9  19  34  52  71  98 134 163 196 246 296
#     4   9  18  31  49  74 100 127 159 197 243 291
#     4   9  18  34  55  77  98 125 164 201 233 282
#     4  10  19  33  50  72 101 131 164 201 246 296
#     4   9  17  30  47  70  98 129 166 205 249 293
#     4   9  18  30  47  71  99 130 164 206 248 289
#
# _framework density 17.468539
#
# number of rings (size 3 to 8) (size 9 to 14) (size 15 to 20)
#    0.000    2.714    1.429    1.286    0.000    2.571 
#    0.000    2.857    0.000    0.000    0.000    0.000 
#    0.000    0.000    0.000    0.000    0.000    0.000 
#
# Total GULP energy -347225.320484 kJ/mol
# GULP energy per Si atom -12400.904303 kJ/mol
# Density = 1.742878 g / cm^3
# Si number density = 17.468539 Si / 1000 Ang^3
#
#
#
# Elastic Constant Matrix: (Units=GPa)
#
#
# Indices 1 2 3 4 5 6 
#
# 1 98.0359 38.9482 47.1166 0.0000 13.6344 0.0000
# 2 38.9482 71.4171 54.3655 0.0000 11.5443 0.0000
# 3 47.1166 54.3655 113.8878 0.0000 15.7674 0.0000
# 4 0.0000 0.0000 0.0000 29.4572 0.0000 5.4793
# 5 13.6344 11.5443 15.7674 0.0000 21.5560 0.0000
# 6 0.0000 0.0000 0.0000 5.4793 0.0000 23.0285
#
#
#
# Elastic Compliance Matrix: (Units=1/GPa)
#
#
# Indices 1 2 3 4 5 6 
#
# 1 0.014104 -0.004734 -0.002994 0.000000 -0.004195 0.000000
# 2 -0.004734 0.023995 -0.009047 0.000000 -0.003238 0.000000
# 3 -0.002994 -0.009047 0.014915 0.000000 -0.004171 0.000000
# 4 0.000000 0.000000 0.000000 0.035520 0.000000 -0.008451
# 5 -0.004195 -0.003238 -0.004171 0.000000 0.053830 0.000000
# 6 0.000000 0.000000 0.000000 -0.008451 0.000000 0.045435
#
#
# Mechanical properties :
#
#
# Convention : Reuss Voigt Hill
#
# Bulk Modulus (GPa) = 51.38006 62.68903 57.03454
# Shear Modulus (GPa) = 21.94555 24.33571 23.14063
#
# Velocity S-wave (km/s) = 3.54826 3.73650 3.64360
# Velocity P-wave (km/s) = 6.80174 7.38782 7.10083
#
# Compressibility (1/GPa) = 0.01946281
#
# Stress axis : x y z
#
# Youngs Moduli (GPa) = 70.90388 41.67607 67.04446
#
# Poissons Ratio (x) = 0.19730 0.20074
# Poissons Ratio (y) = 0.33567 0.60656
# Poissons Ratio (z) = 0.21229 0.37705
#
# Static dielectric constant tensor:
#      x y z
#    x 3.143230 0.000000 0.086740 
#    y 0.000000 3.219450 0.000000 
#    z 0.086740 0.000000 3.130950 
# 
# 
# High freq. dielectric constant tensor:
#      x y z
#    x 1.661520 0.000000 0.011370 
#    y 0.000000 1.674510 0.000000 
#    z 0.011370 0.000000 1.660800 
# 
# From -- ./inp_files/280419.got.cif
#   From: 2010.06.25/outbox.cif.g09.slc.cpg/sg12_141_cif.got.tgz:280419.got - 2010.06.28 00:19:55.
