data_PCOD8081249
_publ_section_title
;
Structure prediction by ZEFSAII (Michael W. Deem and Ramdas Pophale) SiO2 
 PCOD8081249
Probable space group: C 2/M
;
_chemical_formula_sum "Si O2"
_cell_formula_units_Z 56
_cell_length_a 27.290719
_cell_length_b 8.480061
_cell_length_c 14.521255
_cell_angle_alpha 90.000000
_cell_angle_beta 103.699876
_cell_angle_gamma 90.000000
_cell_volume 3264.999340
_symmetry_space_group_name_H-M "C 2/M"
_symmetry_group_IT_number 12
_symmetry_cell_setting 'monoclinic'
loop_
_space_group_symop_operation_xyz
x,y,z
-x,y,-z
-x,-y,-z
x,-y,z
1/2+x,1/2+y,z
1/2-x,1/2+y,-z
1/2-x,1/2-y,-z
1/2+x,1/2-y,z
loop_
_atom_site_type_symbol
_atom_site_label
_atom_site_fract_x
_atom_site_fract_y
_atom_site_fract_z
Si Si1 0.638730 0.186392 0.433427
Si Si2 0.284174 0.183158 0.384903
Si Si3 0.943119 0.687629 0.461265
Si Si4 0.681028 0.183063 0.891909
Si Si5 0.366883 0.683080 0.294994
Si Si6 0.295356 0.682691 0.910529
Si Si7 0.316354 0.817548 0.729197
O O1 0.690034 0.240704 0.508256
O O2 0.589246 0.250068 0.464695
O O3 0.641542 0.239479 0.327359
O O4 0.637385 0.000000 0.438054
O O5 0.325504 0.205743 0.323952
O O6 0.237229 0.294472 0.343652
O O7 0.267515 0.000000 0.377699
O O8 0.940314 0.500000 0.450069
O O9 0.921640 0.766346 0.358295
O O10 0.000000 0.746716 0.500000
O O11 0.638748 0.280678 0.816457
O O12 0.736809 0.235286 0.881837
O O13 0.671288 0.000000 0.872125
O O14 0.675180 0.222698 0.997199
O O15 0.357200 0.500000 0.310863
O O16 0.299566 0.500000 0.936045
O O17 0.321643 0.717196 0.824422
O O18 0.323140 0.000000 0.757670
#
# Coordination Sequence:
#
# PCOD8081249 Si02
#       7
#     8   8   8   8   8   8   8
#     4   8  17  30  45  67  93 122 159 197 234 281
#     4  10  18  30  44  62  92 128 166 199 227 271
#     4   9  18  35  56  74  95 124 159 200 243 285
#     4  10  19  32  48  66  93 127 164 202 235 277
#     4  11  20  30  48  72  99 127 158 197 241 287
#     4  10  20  31  45  65  94 129 165 202 233 274
#     4  11  19  28  43  65  95 129 161 194 234 278
#
# _framework density 17.151610999999999
#
# number of rings (size 3 to 8) (size 9 to 14) (size 15 to 20)
#    0.000    2.143    1.429    4.286    0.000    1.429 
#    0.000    6.429    0.000    0.000    0.000    1.000 
#    0.000    8.000    0.000    0.000    0.000    0.000 
#
# Total GULP energy -347111.720746 kJ/mol
# GULP energy per Si atom -12396.847170 kJ/mol
# Density = 1.711257 g / cm^3
# Si number density = 17.151611 Si / 1000 Ang^3
#
#
#
# Elastic Constant Matrix: (Units=GPa)
#
#
# Indices 1 2 3 4 5 6 
#
# 1 59.9222 9.4302 48.4629 0.0000 2.9067 0.0000
# 2 9.4302 47.1949 23.9410 0.0000 2.9420 0.0000
# 3 48.4629 23.9410 125.4851 0.0000 -6.2109 0.0000
# 4 0.0000 0.0000 0.0000 27.8514 0.0000 0.9814
# 5 2.9067 2.9420 -6.2109 0.0000 22.0076 0.0000
# 6 0.0000 0.0000 0.0000 0.9814 0.0000 13.4332
#
#
#
# Elastic Compliance Matrix: (Units=1/GPa)
#
#
# Indices 1 2 3 4 5 6 
#
# 1 0.025068 0.000494 -0.010083 0.000000 -0.006223 0.000000
# 2 0.000494 0.023909 -0.004983 0.000000 -0.004668 0.000000
# 3 -0.010083 -0.004983 0.013096 0.000000 0.005694 0.000000
# 4 0.000000 0.000000 0.000000 0.035998 0.000000 -0.002630
# 5 -0.006223 -0.004668 0.005694 0.000000 0.048492 0.000000
# 6 0.000000 0.000000 0.000000 -0.002630 0.000000 0.074634
#
#
# Mechanical properties :
#
#
# Convention : Reuss Voigt Hill
#
# Bulk Modulus (GPa) = 30.37020 44.03006 37.20013
# Shear Modulus (GPa) = 19.13383 22.70964 20.92174
#
# Velocity S-wave (km/s) = 3.34364 3.64270 3.49637
# Velocity P-wave (km/s) = 5.71419 6.58932 6.16730
#
# Compressibility (1/GPa) = 0.03292701
#
# Stress axis : x y z
#
# Youngs Moduli (GPa) = 39.89223 41.82536 76.35946
#
# Poissons Ratio (x) = -0.02067 0.76997
# Poissons Ratio (y) = -0.01971 0.38053
# Poissons Ratio (z) = 0.40225 0.20843
#
# Static dielectric constant tensor:
#      x y z
#    x 3.054200 0.000000 -0.124320 
#    y 0.000000 3.026670 0.000000 
#    z -0.124320 0.000000 3.379310 
# 
# 
# High freq. dielectric constant tensor:
#      x y z
#    x 1.608070 0.000000 -0.013170 
#    y 0.000000 1.659840 0.000000 
#    z -0.013170 0.000000 1.666280 
# 
# From -- ./inp_files/243015.got.cif
#   From: 2010.06.25/outbox.cif.g09.slc.cpg/sg12_122_cif.got.tgz:243015.got - 2010.06.28 00:19:55.
