data_PCOD8081055
_publ_section_title
;
Structure prediction by ZEFSAII (Michael W. Deem and Ramdas Pophale) SiO2 
 PCOD8081055
Probable space group: C 2/M
;
_chemical_formula_sum "Si O2"
_cell_formula_units_Z 64
_cell_length_a 25.182618
_cell_length_b 9.011938
_cell_length_c 27.433649
_cell_angle_alpha 90.000000
_cell_angle_beta 140.632551
_cell_angle_gamma 90.000000
_cell_volume 3949.039486
_symmetry_space_group_name_H-M "C 2/M"
_symmetry_group_IT_number 12
_symmetry_cell_setting 'monoclinic'
loop_
_space_group_symop_operation_xyz
x,y,z
-x,y,-z
-x,-y,-z
x,-y,z
1/2+x,1/2+y,z
1/2-x,1/2+y,-z
1/2-x,1/2-y,-z
1/2+x,1/2-y,z
loop_
_atom_site_type_symbol
_atom_site_label
_atom_site_fract_x
_atom_site_fract_y
_atom_site_fract_z
Si Si1 0.329880 0.827275 0.178902
Si Si2 0.303293 0.176639 0.333776
Si Si3 0.128550 0.824359 0.172079
Si Si4 0.335984 0.172103 0.073043
Si Si5 0.426567 0.823749 0.339173
Si Si6 0.065565 0.663615 0.502619
Si Si7 0.336850 0.172346 0.905256
Si Si8 0.462408 0.828167 0.081504
O O1 0.362320 0.796597 0.147447
O O2 0.405232 0.777511 0.268588
O O3 0.247339 0.733839 0.130681
O O4 0.307473 0.000000 0.171172
O O5 0.206801 0.225764 0.261621
O O6 0.350154 0.235066 0.318411
O O7 0.350160 0.242982 0.415811
O O8 0.311351 0.000000 0.341695
O O9 0.137641 0.756163 0.125281
O O10 0.046216 0.767583 0.140410
O O11 0.125462 0.000000 0.163833
O O12 0.409033 0.231266 0.089648
O O13 0.321342 0.000000 0.052103
O O14 0.250000 0.250000 0.000000
O O15 0.516259 0.756308 0.422269
O O16 0.433445 0.000000 0.349386
O O17 0.092110 0.500000 0.503808
O O18 0.000000 0.652324 0.500000
O O19 0.324314 0.000000 0.884579
O O20 0.411793 0.198159 0.996113
O O21 0.486410 0.000000 0.104824
#
# Coordination Sequence:
#
# PCOD8081055 Si02
#       8
#     8   8   8   8   8   8   8   8
#     4  10  18  29  49  73  93 116 152 195 229 261
#     4   8  13  22  37  62  93 118 142 178 222 267
#     4  11  21  32  48  70  93 118 155 196 227 263
#     4  10  20  34  51  68  90 119 153 194 233 269
#     4   8  12  21  38  64  94 116 140 180 225 267
#     4   7  10  17  33  58  90 121 139 165 221 274
#     4  11  21  33  48  65  92 126 154 183 228 280
#     4  10  22  37  47  62  90 124 158 189 226 275
#
# _framework density 16.206472000000002
#
# number of rings (size 3 to 8) (size 9 to 14) (size 15 to 20)
#    0.000    2.625    2.500    2.625    0.000    3.000 
#    0.000    0.000    0.000    0.000    0.000    3.500 
#    0.000    0.000    0.000    0.000    0.000    0.000 
#
# Total GULP energy -396477.165195 kJ/mol
# GULP energy per Si atom -12389.911412 kJ/mol
# Density = 1.616959 g / cm^3
# Si number density = 16.206472 Si / 1000 Ang^3
#
#
#
# Elastic Constant Matrix: (Units=GPa)
#
#
# Indices 1 2 3 4 5 6 
#
# 1 95.0986 32.9084 59.5080 0.0000 9.9218 0.0000
# 2 32.9084 39.5168 38.8831 0.0000 4.3017 0.0002
# 3 59.5080 38.8831 150.9301 0.0000 9.0991 -0.0001
# 4 0.0000 0.0000 0.0000 5.9157 0.0000 0.1788
# 5 9.9218 4.3017 9.0991 0.0000 14.6583 0.0001
# 6 0.0000 0.0002 -0.0001 0.1788 0.0001 20.4088
#
#
#
# Elastic Compliance Matrix: (Units=1/GPa)
#
#
# Indices 1 2 3 4 5 6 
#
# 1 0.016877 -0.009642 -0.003794 0.000000 -0.006239 0.000000
# 2 -0.009642 0.039723 -0.006360 0.000000 -0.001182 0.000000
# 3 -0.003794 -0.006360 0.009862 0.000000 -0.001687 0.000000
# 4 0.000000 0.000000 0.000000 0.169087 0.000000 -0.001481
# 5 -0.006239 -0.001182 -0.001687 0.000000 0.073838 0.000000
# 6 0.000000 0.000000 0.000000 -0.001481 0.000000 0.049011
#
#
# Mechanical properties :
#
#
# Convention : Reuss Voigt Hill
#
# Bulk Modulus (GPa) = 37.21917 60.90492 49.06204
# Shear Modulus (GPa) = 12.28658 18.47962 15.38310
#
# Velocity S-wave (km/s) = 2.75640 3.38044 3.08424
# Velocity P-wave (km/s) = 5.75724 7.27315 6.55913
#
# Compressibility (1/GPa) = 0.02686788
#
# Stress axis : x y z
#
# Youngs Moduli (GPa) = 59.25176 25.17449 101.40175
#
# Poissons Ratio (x) = 0.24274 0.38472
# Poissons Ratio (y) = 0.57133 0.64496
# Poissons Ratio (z) = 0.22480 0.16012
#
# Static dielectric constant tensor:
#      x y z
#    x 2.925180 0.000000 -0.040520 
#    y 0.000000 2.804840 0.000000 
#    z -0.040520 0.000000 3.647930 
# 
# 
# High freq. dielectric constant tensor:
#      x y z
#    x 1.587370 0.000000 -0.000900 
#    y 0.000000 1.589420 0.000000 
#    z -0.000900 0.000000 1.641970 
# 
# From -- ./inp_files/346235.got.cif
#   From: 2010.06.25/outbox.cif.g09.slc.cpg/sg12_174_cif.got.tgz:346235.got - 2010.06.28 00:19:55.
