data_PCOD8081591
_publ_section_title
;
Structure prediction by ZEFSAII (Michael W. Deem and Ramdas Pophale) SiO2 
 PCOD8081591
Probable space group: C 2/M
;
_chemical_formula_sum "Si O2"
_cell_formula_units_Z 56
_cell_length_a 30.785754
_cell_length_b 9.407610
_cell_length_c 33.103384
_cell_angle_alpha 90.000000
_cell_angle_beta 161.229619
_cell_angle_gamma 90.000000
_cell_volume 3085.002512
_symmetry_space_group_name_H-M "C 2/M"
_symmetry_group_IT_number 12
_symmetry_cell_setting 'monoclinic'
loop_
_space_group_symop_operation_xyz
x,y,z
-x,y,-z
-x,-y,-z
x,-y,z
1/2+x,1/2+y,z
1/2-x,1/2+y,-z
1/2-x,1/2-y,-z
1/2+x,1/2-y,z
loop_
_atom_site_type_symbol
_atom_site_label
_atom_site_fract_x
_atom_site_fract_y
_atom_site_fract_z
Si Si1 0.917793 0.829889 0.388726
Si Si2 0.384611 0.665629 0.070976
Si Si3 0.884740 0.332437 0.869185
Si Si4 0.873117 0.835790 0.490528
Si Si5 0.650439 0.335203 0.440880
Si Si6 0.872281 0.161255 0.152724
Si Si7 0.407029 0.163065 0.796888
O O1 0.764540 0.769334 0.252865
O O2 0.000000 0.772272 0.500000
O O3 0.994620 0.774429 0.415909
O O4 0.916896 0.000000 0.389586
O O5 0.377256 0.500000 0.054930
O O6 0.413293 0.698802 0.143076
O O7 0.505819 0.732459 0.153094
O O8 0.244244 0.735780 0.933709
O O9 0.876895 0.500000 0.868786
O O10 0.927887 0.295423 0.861737
O O11 0.000000 0.266510 0.000000
O O12 0.845235 0.767739 0.510084
O O13 0.748511 0.812372 0.350897
O O14 0.899835 0.000000 0.522865
O O15 0.694995 0.500000 0.479069
O O16 0.750000 0.250000 0.500000
O O17 0.499084 0.314416 0.292646
O O18 0.818501 0.000000 0.107817
O O19 0.449457 0.000000 0.825942
#
# Coordination Sequence:
#
# PCOD8081591 Si02
#       7
#     8   8   8   8   8   8   8
#     4   9  14  25  43  64  96 130 160 202 251 296
#     4  10  20  33  51  72  96 131 170 204 249 305
#     4   9  17  27  43  71 102 129 161 207 258 300
#     4   9  17  28  47  74 100 133 169 203 249 303
#     4  10  20  33  50  74 104 133 166 207 251 297
#     4   9  19  35  51  70  98 132 168 210 253 293
#     4  10  18  30  49  74 102 129 163 204 250 302
#
# _framework density 18.152335999999998
#
# number of rings (size 3 to 8) (size 9 to 14) (size 15 to 20)
#    0.000    2.571    1.429    1.286    0.000    2.286 
#    0.000    4.286    0.000    0.429    0.000    3.000 
#    0.000    0.000    0.000    0.000    0.000    0.000 
#
# Total GULP energy -347136.469561 kJ/mol
# GULP energy per Si atom -12397.731056 kJ/mol
# Density = 1.811102 g / cm^3
# Si number density = 18.152336 Si / 1000 Ang^3
#
#
#
# Elastic Constant Matrix: (Units=GPa)
#
#
# Indices 1 2 3 4 5 6 
#
# 1 102.9390 23.3481 46.6756 0.0016 3.2051 0.0003
# 2 23.3481 42.4462 19.9453 0.0057 9.2162 0.0009
# 3 46.6756 19.9453 83.5686 -0.0038 -2.2782 0.0029
# 4 0.0016 0.0057 -0.0038 17.0607 0.0023 5.5723
# 5 3.2051 9.2162 -2.2782 0.0023 37.6850 0.0003
# 6 0.0003 0.0009 0.0029 5.5723 0.0003 18.5063
#
#
#
# Elastic Compliance Matrix: (Units=1/GPa)
#
#
# Indices 1 2 3 4 5 6 
#
# 1 0.013724 -0.004313 -0.006650 -0.000002 -0.000515 0.000002
# 2 -0.004313 0.029801 -0.004901 -0.000011 -0.007218 0.000003
# 3 -0.006650 -0.004901 0.016926 0.000007 0.002787 -0.000004
# 4 -0.000002 -0.000011 0.000007 0.065008 -0.000001 -0.019574
# 5 -0.000515 -0.007218 0.002787 -0.000001 0.028513 0.000000
# 6 0.000002 0.000003 -0.000004 -0.019574 0.000000 0.059930
#
#
# Mechanical properties :
#
#
# Convention : Reuss Voigt Hill
#
# Bulk Modulus (GPa) = 34.81309 45.43245 40.12277
# Shear Modulus (GPa) = 19.59219 23.91603 21.75411
#
# Velocity S-wave (km/s) = 3.28887 3.63370 3.46558
# Velocity P-wave (km/s) = 5.80018 6.53359 6.17778
#
# Compressibility (1/GPa) = 0.02872483
#
# Stress axis : x y z
#
# Youngs Moduli (GPa) = 72.86517 33.55548 59.08027
#
# Poissons Ratio (x) = 0.14471 0.39289
# Poissons Ratio (y) = 0.31423 0.28954
# Poissons Ratio (z) = 0.48456 0.16445
#
# Static dielectric constant tensor:
#      x y z
#    x 3.484710 0.000000 -0.043520 
#    y 0.000000 2.936040 -0.000010 
#    z -0.043520 -0.000010 3.590030 
# 
# 
# High freq. dielectric constant tensor:
#      x y z
#    x 1.713930 0.000000 0.002590 
#    y 0.000000 1.646610 0.000000 
#    z 0.002590 0.000000 1.711140 
# 
# From -- ./inp_files/383876.got.cif
#   From: 2010.06.25/outbox.cif.g09.slc.cpg/sg12_192_cif.got.tgz:383876.got - 2010.06.28 00:19:55.
