data_PCOD8081443
_publ_section_title
;
Structure prediction by ZEFSAII (Michael W. Deem and Ramdas Pophale) SiO2 
 PCOD8081443
Probable space group: C 2/M
;
_chemical_formula_sum "Si O2"
_cell_formula_units_Z 40
_cell_length_a 28.915285
_cell_length_b 8.865157
_cell_length_c 12.804106
_cell_angle_alpha 90.000000
_cell_angle_beta 135.839643
_cell_angle_gamma 90.000000
_cell_volume 2286.596825
_symmetry_space_group_name_H-M "C 2/M"
_symmetry_group_IT_number 12
_symmetry_cell_setting 'monoclinic'
loop_
_space_group_symop_operation_xyz
x,y,z
-x,y,-z
-x,-y,-z
x,-y,z
1/2+x,1/2+y,z
1/2-x,1/2+y,-z
1/2-x,1/2-y,-z
1/2+x,1/2-y,z
loop_
_atom_site_type_symbol
_atom_site_label
_atom_site_fract_x
_atom_site_fract_y
_atom_site_fract_z
Si Si1 0.353271 0.321237 0.978684
Si Si2 0.678431 0.177895 0.872135
Si Si3 0.705708 0.176766 0.694193
Si Si4 0.074007 0.677741 0.090364
Si Si5 0.682712 0.178560 0.430447
O O1 0.356693 0.500000 0.989225
O O2 0.280689 0.257517 0.826977
O O3 0.407832 0.260859 0.987121
O O4 0.370256 0.255475 0.122223
O O5 0.659010 0.214303 0.719229
O O6 0.680964 0.000000 0.896751
O O7 0.750000 0.250000 0.000000
O O8 0.671214 0.234702 0.531653
O O9 0.716294 0.000000 0.703920
O O10 0.080327 0.500000 0.082624
O O11 0.121544 0.734433 0.261046
O O12 0.000000 0.725884 0.000000
O O13 0.750000 0.250000 0.500000
O O14 0.689695 0.000000 0.435636
#
# Coordination Sequence:
#
# PCOD8081443 Si02
#       5
#     8   8   8   8   8
#     4  10  18  30  48  70  97 128 165 204 244 291
#     4   9  16  27  44  69  99 127 158 199 248 295
#     4   8  15  27  45  70  97 122 154 198 242 287
#     4  10  21  34  49  72 101 133 166 201 244 296
#     4  10  18  31  50  72  99 128 160 201 246 291
#
# _framework density 17.493245000000002
#
# number of rings (size 3 to 8) (size 9 to 14) (size 15 to 20)
#    0.000    2.600    2.000    2.400    0.000    0.400 
#    0.000    1.000    0.000    1.200    0.000    8.400 
#    0.000    0.000    0.000    0.000    0.000    0.000 
#
# Total GULP energy -247819.631394 kJ/mol
# GULP energy per Si atom -12390.981570 kJ/mol
# Density = 1.745343 g / cm^3
# Si number density = 17.493245 Si / 1000 Ang^3
#
#
#
# Elastic Constant Matrix: (Units=GPa)
#
#
# Indices 1 2 3 4 5 6 
#
# 1 152.4179 48.6770 81.4824 0.0000 -34.3793 0.0000
# 2 48.6770 48.9667 27.6860 0.0000 -9.5712 0.0000
# 3 81.4824 27.6860 99.9781 0.0000 -20.6705 0.0000
# 4 0.0000 0.0000 0.0000 14.1953 0.0000 -4.5716
# 5 -34.3793 -9.5712 -20.6705 0.0000 37.3836 0.0000
# 6 0.0000 0.0000 0.0000 -4.5716 0.0000 29.5047
#
#
#
# Elastic Compliance Matrix: (Units=1/GPa)
#
#
# Indices 1 2 3 4 5 6 
#
# 1 0.015991 -0.009424 -0.008898 0.000000 0.007373 0.000000
# 2 -0.009424 0.030032 -0.000946 0.000000 -0.001501 0.000000
# 3 -0.008898 -0.000946 0.017811 0.000000 0.001422 0.000000
# 4 0.000000 0.000000 0.000000 0.074146 0.000000 0.011489
# 5 0.007373 -0.001501 0.001422 0.000000 0.033932 0.000000
# 6 0.000000 0.000000 0.000000 0.011489 0.000000 0.035673
#
#
# Mechanical properties :
#
#
# Convention : Reuss Voigt Hill
#
# Bulk Modulus (GPa) = 39.53206 68.56151 54.04679
# Shear Modulus (GPa) = 19.64228 25.78452 22.71340
#
# Velocity S-wave (km/s) = 3.35453 3.84340 3.60725
# Velocity P-wave (km/s) = 6.13607 7.67944 6.95073
#
# Compressibility (1/GPa) = 0.02529592
#
# Stress axis : x y z
#
# Youngs Moduli (GPa) = 62.53681 33.29809 56.14631
#
# Poissons Ratio (x) = 0.31379 0.49962
# Poissons Ratio (y) = 0.58933 0.05313
# Poissons Ratio (z) = 0.55648 0.03151
#
# Static dielectric constant tensor:
#      x y z
#    x 3.320590 0.000000 -0.364100 
#    y 0.000000 3.144480 0.000000 
#    z -0.364100 0.000000 3.118530 
# 
# 
# High freq. dielectric constant tensor:
#      x y z
#    x 1.671050 0.000000 -0.043070 
#    y 0.000000 1.664040 0.000000 
#    z -0.043070 0.000000 1.651800 
# 
# From -- ./inp_files/162374.got.cif
#   From: 2010.06.25/outbox.cif.g09.slc.cpg/sg12_82_cif.got.tgz:162374.got - 2010.06.28 00:19:55.
