data_PCOD8081870
_publ_section_title
;
Structure prediction by ZEFSAII (Michael W. Deem and Ramdas Pophale) SiO2 
 PCOD8081870
Probable space group: C 2/M
;
_chemical_formula_sum "Si O2"
_cell_formula_units_Z 64
_cell_length_a 9.097770
_cell_length_b 16.564363
_cell_length_c 32.788816
_cell_angle_alpha 90.000000
_cell_angle_beta 39.209018
_cell_angle_gamma 90.000000
_cell_volume 3123.607374
_symmetry_space_group_name_H-M "C 2/M"
_symmetry_group_IT_number 12
_symmetry_cell_setting 'monoclinic'
loop_
_space_group_symop_operation_xyz
x,y,z
-x,y,-z
-x,-y,-z
x,-y,z
1/2+x,1/2+y,z
1/2-x,1/2+y,-z
1/2-x,1/2-y,-z
1/2+x,1/2-y,z
loop_
_atom_site_type_symbol
_atom_site_label
_atom_site_fract_x
_atom_site_fract_y
_atom_site_fract_z
Si Si1 0.030517 0.592072 0.751031
Si Si2 0.486868 0.795665 0.456467
Si Si3 0.622383 0.909112 0.359269
Si Si4 0.367351 0.358585 0.746733
Si Si5 0.832193 0.904042 0.000753
Si Si6 0.991005 0.095750 0.123167
Si Si7 0.925240 0.699678 0.331260
Si Si8 0.807149 0.595903 0.130276
O O1 0.021467 0.500000 0.737968
O O2 0.170643 0.597129 0.762837
O O3 0.156509 0.644335 0.688928
O O4 0.770820 0.626345 0.813389
O O5 0.500000 0.825520 0.500000
O O6 0.250000 0.750000 0.500000
O O7 0.493457 0.874699 0.426807
O O8 0.697065 0.735118 0.401382
O O9 0.570071 0.853422 0.331818
O O10 0.897445 0.910058 0.307524
O O11 0.533751 0.000000 0.370593
O O12 0.404364 0.268869 0.721713
O O13 0.283941 0.355539 0.811152
O O14 0.912996 0.867761 0.939908
O O15 0.847314 0.000000 0.996337
O O16 0.569972 0.876607 0.065673
O O17 0.000000 0.869582 0.000000
O O18 0.153445 0.124868 0.125139
O O19 0.995537 0.000000 0.119270
O O20 0.785691 0.500000 0.142473
#
# Coordination Sequence:
#
# PCOD8081870 Si02
#       8
#     8   8   8   8   8   8   8   8
#     4  11  22  37  59  88 119 153 201 257 299 349
#     4  11  23  44  68  92 126 166 201 241 297 364
#     4  11  23  41  65  94 124 159 205 253 295 348
#     4  11  22  37  58  88 122 159 199 249 309 358
#     4   9  16  27  46  75 112 155 201 252 308 362
#     4   9  18  31  49  77 115 156 199 251 310 362
#     4  11  24  42  65  87 122 164 200 239 300 369
#     4  10  18  30  51  79 115 156 203 256 303 361
#
# _framework density 20.489129999999999
#
# number of rings (size 3 to 8) (size 9 to 14) (size 15 to 20)
#    0.000    1.625    1.250    4.875    1.750    4.750 
#    0.000    1.875    0.000    0.750    0.000    1.750 
#    0.000    0.000    0.000    0.000    0.000    0.500 
#
# Total GULP energy -396932.581877 kJ/mol
# GULP energy per Si atom -12404.143184 kJ/mol
# Density = 2.044250 g / cm^3
# Si number density = 20.489130 Si / 1000 Ang^3
#
#
#
# Elastic Constant Matrix: (Units=GPa)
#
#
# Indices 1 2 3 4 5 6 
#
# 1 151.9051 31.2333 66.2797 -0.0047 6.8563 0.0089
# 2 31.2333 88.3727 45.5479 -0.0009 6.1522 -0.0006
# 3 66.2797 45.5479 139.7915 0.0159 14.5670 0.0035
# 4 -0.0047 -0.0009 0.0159 25.3920 -0.0059 5.2036
# 5 6.8563 6.1522 14.5670 -0.0059 48.2741 -0.0019
# 6 0.0089 -0.0006 0.0035 5.2036 -0.0019 25.3787
#
#
#
# Elastic Compliance Matrix: (Units=1/GPa)
#
#
# Indices 1 2 3 4 5 6 
#
# 1 0.008388 -0.001100 -0.003623 0.000004 0.000042 -0.000003
# 2 -0.001100 0.013752 -0.003916 0.000002 -0.000415 0.000001
# 3 -0.003623 -0.003916 0.010368 -0.000008 -0.002115 0.000001
# 4 0.000004 0.000002 -0.000008 0.041110 0.000006 -0.008429
# 5 0.000042 -0.000415 -0.002115 0.000006 0.021400 0.000001
# 6 -0.000003 0.000001 0.000001 -0.008429 0.000001 0.041131
#
#
# Mechanical properties :
#
#
# Convention : Reuss Voigt Hill
#
# Bulk Modulus (GPa) = 65.66284 74.02124 69.84204
# Shear Modulus (GPa) = 31.54511 35.60954 33.57733
#
# Velocity S-wave (km/s) = 3.92803 4.17342 4.05259
# Velocity P-wave (km/s) = 7.25878 7.70901 7.48728
#
# Compressibility (1/GPa) = 0.01522931
#
# Stress axis : x y z
#
# Youngs Moduli (GPa) = 119.21539 72.71848 96.45473
#
# Poissons Ratio (x) = 0.08001 0.34946
# Poissons Ratio (y) = 0.13116 0.37770
# Poissons Ratio (z) = 0.43192 0.28475
#
# Static dielectric constant tensor:
#      x y z
#    x 3.849170 0.000080 0.022170 
#    y 0.000080 3.499370 0.000200 
#    z 0.022170 0.000200 3.585990 
# 
# 
# High freq. dielectric constant tensor:
#      x y z
#    x 1.817570 0.000000 0.005640 
#    y 0.000000 1.772110 0.000000 
#    z 0.005640 0.000000 1.809260 
# 
# From -- ./inp_files/372925.got.cif
#   From: 2010.06.25/outbox.cif.g09.slc.cpg/sg12_187_cif.got.tgz:372925.got - 2010.06.28 00:19:55.
