data_PCOD8081849
_publ_section_title
;
Structure prediction by ZEFSAII (Michael W. Deem and Ramdas Pophale) SiO2 
 PCOD8081849
Probable space group: C 2/M
;
_chemical_formula_sum "Si O2"
_cell_formula_units_Z 64
_cell_length_a 27.580217
_cell_length_b 12.066232
_cell_length_c 15.277286
_cell_angle_alpha 90.000000
_cell_angle_beta 136.288051
_cell_angle_gamma 90.000000
_cell_volume 3513.293674
_symmetry_space_group_name_H-M "C 2/M"
_symmetry_group_IT_number 12
_symmetry_cell_setting 'monoclinic'
loop_
_space_group_symop_operation_xyz
x,y,z
-x,y,-z
-x,-y,-z
x,-y,z
1/2+x,1/2+y,z
1/2-x,1/2+y,-z
1/2-x,1/2-y,-z
1/2+x,1/2-y,z
loop_
_atom_site_type_symbol
_atom_site_label
_atom_site_fract_x
_atom_site_fract_y
_atom_site_fract_z
Si Si1 0.432188 0.372424 0.455827
Si Si2 0.026150 0.128146 0.296385
Si Si3 0.861314 0.738300 0.652778
Si Si4 0.630067 0.373083 0.901327
Si Si5 0.300203 0.631289 0.181504
Si Si6 0.751599 0.368031 0.389725
Si Si7 0.810911 0.764049 0.862029
Si Si8 0.081296 0.371761 0.106718
O O1 0.500000 0.314024 0.500000
O O2 0.433157 0.500000 0.427828
O O3 0.431686 0.358475 0.558674
O O4 0.361181 0.321524 0.324572
O O5 0.067543 0.199416 0.279594
O O6 0.948088 0.179354 0.204538
O O7 0.023832 0.000000 0.262993
O O8 0.825697 0.675883 0.524093
O O9 0.809328 0.831391 0.623300
O O10 0.882564 0.646926 0.752070
O O11 0.619622 0.500000 0.863435
O O12 0.681129 0.324554 0.892121
O O13 0.661745 0.361716 0.039478
O O14 0.290933 0.500000 0.172937
O O15 0.228631 0.680960 0.124625
O O16 0.752626 0.500000 0.383536
O O17 0.738617 0.315014 0.277410
O O18 0.878201 0.701372 0.911470
O O19 0.089251 0.500000 0.091934
O O20 0.000000 0.335394 0.000000
#
# Coordination Sequence:
#
# PCOD8081849 Si02
#       8
#     8   8   8   8   8   8   8   8
#     4   9  15  27  46  70 100 129 156 193 246 297
#     4  10  18  30  51  78 106 133 163 204 254 304
#     4  10  20  34  54  78 100 130 170 206 249 305
#     4  10  20  33  50  74 106 137 166 206 254 303
#     4  10  19  32  51  76 104 133 168 212 256 297
#     4  10  21  36  52  73 104 135 166 209 253 297
#     4  11  21  34  52  75 101 135 177 209 247 301
#     4  10  21  37  55  74 100 132 169 215 258 298
#
# _framework density 18.216525000000001
#
# number of rings (size 3 to 8) (size 9 to 14) (size 15 to 20)
#    0.000    2.000    1.250    3.375    0.000    0.000 
#    0.000    3.750    0.000    6.000    0.000    0.875 
#    0.000    0.000    0.000    0.000    0.000    0.000 
#
# Total GULP energy -396736.603872 kJ/mol
# GULP energy per Si atom -12398.018871 kJ/mol
# Density = 1.817506 g / cm^3
# Si number density = 18.216525 Si / 1000 Ang^3
#
#
#
# Elastic Constant Matrix: (Units=GPa)
#
#
# Indices 1 2 3 4 5 6 
#
# 1 112.6493 36.7784 38.6600 0.0000 4.8959 0.0000
# 2 36.7784 62.7423 21.5877 0.0000 0.4404 0.0000
# 3 38.6600 21.5877 104.7165 0.0000 -8.3959 0.0000
# 4 0.0000 0.0000 0.0000 24.8993 0.0000 0.0191
# 5 4.8959 0.4404 -8.3959 0.0000 30.5846 0.0000
# 6 0.0000 0.0000 0.0000 0.0191 0.0000 21.5417
#
#
#
# Elastic Compliance Matrix: (Units=1/GPa)
#
#
# Indices 1 2 3 4 5 6 
#
# 1 0.012116 -0.005883 -0.003486 0.000000 -0.002812 0.000000
# 2 -0.005883 0.020058 -0.001954 0.000000 0.000117 0.000000
# 3 -0.003486 -0.001954 0.011540 0.000000 0.003754 0.000000
# 4 0.000000 0.000000 0.000000 0.040162 0.000000 -0.000036
# 5 -0.002812 0.000117 0.003754 0.000000 0.034175 0.000000
# 6 0.000000 0.000000 0.000000 -0.000036 0.000000 0.046422
#
#
# Mechanical properties :
#
#
# Convention : Reuss Voigt Hill
#
# Bulk Modulus (GPa) = 47.46234 52.68448 50.07341
# Shear Modulus (GPa) = 25.75429 27.61058 26.68244
#
# Velocity S-wave (km/s) = 3.76412 3.89741 3.83134
# Velocity P-wave (km/s) = 6.70839 7.01692 6.86439
#
# Compressibility (1/GPa) = 0.02106934
#
# Stress axis : x y z
#
# Youngs Moduli (GPa) = 82.53265 49.85469 86.65321
#
# Poissons Ratio (x) = 0.29331 0.30205
# Poissons Ratio (y) = 0.48557 0.16929
# Poissons Ratio (z) = 0.28769 0.09740
#
# Static dielectric constant tensor:
#      x y z
#    x 3.420440 0.000000 0.041910 
#    y 0.000000 3.002510 0.000000 
#    z 0.041910 0.000000 3.454950 
# 
# 
# High freq. dielectric constant tensor:
#      x y z
#    x 1.714320 0.000000 -0.000020 
#    y 0.000000 1.671760 0.000000 
#    z -0.000020 0.000000 1.717180 
# 
# From -- ./inp_files/245990.got.cif
#   From: 2010.06.25/outbox.cif.g09.slc.cpg/sg12_123_cif.got.tgz:245990.got - 2010.06.28 00:19:55.
