data_PCOD8081246
_publ_section_title
;
Structure prediction by ZEFSAII (Michael W. Deem and Ramdas Pophale) SiO2 
 PCOD8081246
Probable space group: C 2/M
;
_chemical_formula_sum "Si O2"
_cell_formula_units_Z 48
_cell_length_a 23.458578
_cell_length_b 16.765169
_cell_length_c 8.276116
_cell_angle_alpha 90.000000
_cell_angle_beta 109.394157
_cell_angle_gamma 90.000000
_cell_volume 3070.195328
_symmetry_space_group_name_H-M "C 2/M"
_symmetry_group_IT_number 12
_symmetry_cell_setting 'monoclinic'
loop_
_space_group_symop_operation_xyz
x,y,z
-x,y,-z
-x,-y,-z
x,-y,z
1/2+x,1/2+y,z
1/2-x,1/2+y,-z
1/2-x,1/2-y,-z
1/2+x,1/2-y,z
loop_
_atom_site_type_symbol
_atom_site_label
_atom_site_fract_x
_atom_site_fract_y
_atom_site_fract_z
Si Si1 0.623751 0.592890 0.306651
Si Si2 0.746687 0.591075 0.888820
Si Si3 0.128606 0.850981 0.951509
Si Si4 0.507348 0.408159 0.685977
Si Si5 0.289474 0.702917 0.408989
Si Si6 0.188429 0.288557 0.879833
O O1 0.642233 0.500000 0.348835
O O2 0.552745 0.604347 0.266897
O O3 0.658467 0.649352 0.463395
O O4 0.640262 0.621304 0.143821
O O5 0.758426 0.500000 0.858504
O O6 0.678343 0.603167 0.889995
O O7 0.753600 0.642685 0.731456
O O8 0.800381 0.618239 0.065959
O O9 0.061105 0.867806 0.833168
O O10 0.135929 0.755043 0.934478
O O11 0.500000 0.370553 0.500000
O O12 0.524856 0.500000 0.683814
O O13 0.250000 0.750000 0.500000
O O14 0.319651 0.769716 0.318589
O O15 0.250000 0.250000 0.000000
#
# Coordination Sequence:
#
# PCOD8081246 Si02
#       6
#     8   8   8   8   8   8
#     4  11  20  28  42  65  91 119 151 184 217 257
#     4  10  18  30  47  65  86 115 151 186 222 261
#     4  10  18  30  44  61  89 121 151 181 218 260
#     4  10  19  29  41  60  88 120 152 183 214 255
#     4  10  18  30  44  62  89 117 146 179 221 265
#     4   8  17  30  44  60  82 114 145 182 221 257
#
# _framework density 15.634183999999999
#
# number of rings (size 3 to 8) (size 9 to 14) (size 15 to 20)
#    0.000    2.500    0.000    7.500    0.000    2.667 
#    0.000    0.833    0.000    0.000    0.000    0.000 
#    0.000   18.000    0.000    0.000    0.000    2.000 
#
# Total GULP energy -297371.311927 kJ/mol
# GULP energy per Si atom -12390.471330 kJ/mol
# Density = 1.559860 g / cm^3
# Si number density = 15.634184 Si / 1000 Ang^3
#
#
#
# Elastic Constant Matrix: (Units=GPa)
#
#
# Indices 1 2 3 4 5 6 
#
# 1 62.3609 38.3983 30.0940 0.0000 -4.6458 0.0000
# 2 38.3983 90.6075 43.0800 0.0000 -0.4029 0.0000
# 3 30.0940 43.0800 99.7905 0.0000 -3.0581 0.0000
# 4 0.0000 0.0000 0.0000 26.6784 0.0000 1.9904
# 5 -4.6458 -0.4029 -3.0581 0.0000 26.8540 0.0000
# 6 0.0000 0.0000 0.0000 1.9904 0.0000 21.7138
#
#
#
# Elastic Compliance Matrix: (Units=1/GPa)
#
#
# Indices 1 2 3 4 5 6 
#
# 1 0.022879 -0.008116 -0.003290 0.000000 0.003462 0.000000
# 2 -0.008116 0.016772 -0.004845 0.000000 -0.001704 0.000000
# 3 -0.003290 -0.004845 0.013131 0.000000 0.000854 0.000000
# 4 0.000000 0.000000 0.000000 0.037742 0.000000 -0.003460
# 5 0.003462 -0.001704 0.000854 0.000000 0.037909 0.000000
# 6 0.000000 0.000000 0.000000 -0.003460 0.000000 0.046371
#
#
# Mechanical properties :
#
#
# Convention : Reuss Voigt Hill
#
# Bulk Modulus (GPa) = 49.31068 52.87817 51.09442
# Shear Modulus (GPa) = 23.35737 24.46168 23.90952
#
# Velocity S-wave (km/s) = 3.86941 3.95983 3.91488
# Velocity P-wave (km/s) = 7.18136 7.40288 7.29296
#
# Compressibility (1/GPa) = 0.02027958
#
# Stress axis : x y z
#
# Youngs Moduli (GPa) = 43.70900 59.62215 76.15596
#
# Poissons Ratio (x) = 0.48390 0.25053
# Poissons Ratio (y) = 0.35475 0.36900
# Poissons Ratio (z) = 0.14379 0.28889
#
# Static dielectric constant tensor:
#      x y z
#    x 2.932410 0.000000 -0.088630 
#    y 0.000000 3.667490 0.000000 
#    z -0.088630 0.000000 3.322820 
# 
# 
# High freq. dielectric constant tensor:
#      x y z
#    x 1.578520 0.000000 -0.015740 
#    y 0.000000 1.580350 0.000000 
#    z -0.015740 0.000000 1.611580 
# 
# From -- ./inp_files/97423.got.cif
#   From: 2010.06.25/outbox.cif.g09.slc.cpg/sg12_49_cif.got.tgz:97423.got - 2010.06.28 00:19:55.
