data_PCOD8081232
_publ_section_title
;
Structure prediction by ZEFSAII (Michael W. Deem and Ramdas Pophale) SiO2 
 PCOD8081232
Probable space group: C 2/M
;
_chemical_formula_sum "Si O2"
_cell_formula_units_Z 56
_cell_length_a 22.927517
_cell_length_b 14.017752
_cell_length_c 18.583655
_cell_angle_alpha 90.000000
_cell_angle_beta 149.466126
_cell_angle_gamma 90.000000
_cell_volume 3034.387241
_symmetry_space_group_name_H-M "C 2/M"
_symmetry_group_IT_number 12
_symmetry_cell_setting 'monoclinic'
loop_
_space_group_symop_operation_xyz
x,y,z
-x,y,-z
-x,-y,-z
x,-y,z
1/2+x,1/2+y,z
1/2-x,1/2+y,-z
1/2-x,1/2-y,-z
1/2+x,1/2-y,z
loop_
_atom_site_type_symbol
_atom_site_label
_atom_site_fract_x
_atom_site_fract_y
_atom_site_fract_z
Si Si1 0.021613 0.320067 0.193857
Si Si2 0.198828 0.608083 0.580805
Si Si3 0.574748 0.610356 0.647997
Si Si4 0.545386 0.262279 0.366378
Si Si5 0.739619 0.603802 0.514760
Si Si6 0.606749 0.280864 0.152246
Si Si7 0.163254 0.609181 0.108861
O O1 0.980558 0.271656 0.225141
O O2 0.127279 0.390839 0.321046
O O3 0.067554 0.236467 0.191849
O O4 0.915168 0.375516 0.045009
O O5 0.165490 0.500000 0.566098
O O6 0.082442 0.670592 0.453367
O O7 0.267242 0.613217 0.578381
O O8 0.282151 0.651245 0.731120
O O9 0.500000 0.642354 0.500000
O O10 0.552446 0.500000 0.642126
O O11 0.539474 0.670912 0.679920
O O12 0.706804 0.632036 0.773888
O O13 0.664418 0.315588 0.473034
O O14 0.693240 0.500000 0.489662
O O15 0.628609 0.178518 0.137121
O O16 0.500000 0.333752 0.000000
O O17 0.150495 0.500000 0.122376
#
# Coordination Sequence:
#
# PCOD8081232 Si02
#       7
#     8   8   8   8   8   8   8
#     4  10  19  33  53  82 114 140 180 226 276 329
#     4  10  19  33  50  77 108 137 181 229 273 319
#     4  10  22  38  57  82 112 149 186 225 273 332
#     4  11  19  35  57  79 112 144 186 227 274 327
#     4  10  18  29  54  83 108 139 173 226 282 328
#     4  10  19  33  53  77 110 147 182 221 276 327
#     4  10  22  37  55  83 116 146 182 225 278 336
#
# _framework density 18.455127000000001
#
# number of rings (size 3 to 8) (size 9 to 14) (size 15 to 20)
#    0.000    1.857    2.857    2.571    0.000    4.571 
#    0.000    0.000    0.000    3.857    0.000    2.000 
#    0.000    0.000    0.000    0.000    0.000    0.000 
#
# Total GULP energy -347155.787835 kJ/mol
# GULP energy per Si atom -12398.420994 kJ/mol
# Density = 1.841312 g / cm^3
# Si number density = 18.455127 Si / 1000 Ang^3
#
#
#
# Elastic Constant Matrix: (Units=GPa)
#
#
# Indices 1 2 3 4 5 6 
#
# 1 52.9333 18.3967 25.8439 0.0000 -5.3933 0.0000
# 2 18.3967 86.5521 33.2173 0.0000 -6.7880 0.0000
# 3 25.8439 33.2173 113.4840 0.0000 -9.1444 0.0000
# 4 0.0000 0.0000 0.0000 28.4994 0.0000 -0.7265
# 5 -5.3933 -6.7880 -9.1444 0.0000 25.0666 0.0000
# 6 0.0000 0.0000 0.0000 -0.7265 0.0000 25.4590
#
#
#
# Elastic Compliance Matrix: (Units=1/GPa)
#
#
# Indices 1 2 3 4 5 6 
#
# 1 0.022118 -0.002984 -0.003962 0.000000 0.002506 0.000000
# 2 -0.002984 0.013537 -0.003131 0.000000 0.001881 0.000000
# 3 -0.003962 -0.003131 0.010811 0.000000 0.002244 0.000000
# 4 0.000000 0.000000 0.000000 0.035114 0.000000 0.001002
# 5 0.002506 0.001881 0.002244 0.000000 0.041761 0.000000
# 6 0.000000 0.000000 0.000000 0.001002 0.000000 0.039307
#
#
# Mechanical properties :
#
#
# Convention : Reuss Voigt Hill
#
# Bulk Modulus (GPa) = 38.00453 45.32059 41.66256
# Shear Modulus (GPa) = 26.09952 27.50578 26.80265
#
# Velocity S-wave (km/s) = 3.76468 3.86478 3.81506
# Velocity P-wave (km/s) = 6.28767 6.67277 6.48308
#
# Compressibility (1/GPa) = 0.02631265
#
# Stress axis : x y z
#
# Youngs Moduli (GPa) = 45.21127 73.86986 92.49572
#
# Poissons Ratio (x) = 0.22045 0.36643
# Poissons Ratio (y) = 0.13493 0.28962
# Poissons Ratio (z) = 0.17911 0.23130
#
# Static dielectric constant tensor:
#      x y z
#    x 3.134500 0.000000 -0.210620 
#    y 0.000000 3.417460 0.000000 
#    z -0.210620 0.000000 3.576650 
# 
# 
# High freq. dielectric constant tensor:
#      x y z
#    x 1.686060 0.000000 -0.014910 
#    y 0.000000 1.713810 0.000000 
#    z -0.014910 0.000000 1.721760 
# 
# From -- ./inp_files/284585.got.cif
#   From: 2010.06.25/outbox.cif.g09.slc.cpg/sg12_143_cif.got.tgz:284585.got - 2010.06.28 00:19:55.
