data_PCOD8081938
_publ_section_title
;
Structure prediction by ZEFSAII (Michael W. Deem and Ramdas Pophale) SiO2 
 PCOD8081938
Probable space group: C 2/M
;
_chemical_formula_sum "Si O2"
_cell_formula_units_Z 40
_cell_length_a 24.130213
_cell_length_b 10.356127
_cell_length_c 9.536486
_cell_angle_alpha 90.000000
_cell_angle_beta 58.832714
_cell_angle_gamma 90.000000
_cell_volume 2039.144849
_symmetry_space_group_name_H-M "C 2/M"
_symmetry_group_IT_number 12
_symmetry_cell_setting 'monoclinic'
loop_
_space_group_symop_operation_xyz
x,y,z
-x,y,-z
-x,-y,-z
x,-y,z
1/2+x,1/2+y,z
1/2-x,1/2+y,-z
1/2-x,1/2-y,-z
1/2+x,1/2-y,z
loop_
_atom_site_type_symbol
_atom_site_label
_atom_site_fract_x
_atom_site_fract_y
_atom_site_fract_z
Si Si1 0.958873 0.356588 0.824788
Si Si2 0.349159 0.212832 0.768487
Si Si3 0.791682 0.860572 0.077632
Si Si4 0.854621 0.650890 0.172463
Si Si5 0.098820 0.651773 0.583780
O O1 0.981543 0.500000 0.832789
O O2 0.910606 0.359442 0.755721
O O3 0.026917 0.286813 0.700609
O O4 0.922041 0.302776 0.010861
O O5 0.283689 0.129278 0.865810
O O6 0.367079 0.236367 0.582448
O O7 0.335064 0.340837 0.879809
O O8 0.799704 0.744613 0.180103
O O9 0.811973 0.000000 0.114666
O O10 0.839986 0.500000 0.154576
O O11 0.858711 0.671892 0.332521
O O12 0.098073 0.500000 0.541447
#
# Coordination Sequence:
#
# PCOD8081938 Si02
#       5
#     8   8   8   8   8
#     4   9  16  29  51  78 106 133 164 209 263 310
#     4  10  20  32  52  76 103 134 174 215 258 304
#     4  10  21  37  54  73 104 143 178 211 252 305
#     4   9  19  34  54  80 107 136 170 208 255 310
#     4  10  18  30  52  82 109 131 165 216 264 306
#
# _framework density 19.616066
#
# number of rings (size 3 to 8) (size 9 to 14) (size 15 to 20)
#    0.000    2.400    0.000    3.000    0.000   10.400 
#    0.000    1.000    0.000   19.200    0.000    0.000 
#    0.000    0.000    0.000    0.000    0.000    0.000 
#
# Total GULP energy -247764.000529 kJ/mol
# GULP energy per Si atom -12388.200026 kJ/mol
# Density = 1.957142 g / cm^3
# Si number density = 19.616066 Si / 1000 Ang^3
#
#
#
# Elastic Constant Matrix: (Units=GPa)
#
#
# Indices 1 2 3 4 5 6 
#
# 1 84.6109 37.3978 31.5947 0.0000 6.9741 0.0000
# 2 37.3978 77.5059 18.7305 0.0000 5.5537 0.0000
# 3 31.5947 18.7305 108.4499 0.0000 20.2564 0.0000
# 4 0.0000 0.0000 0.0000 12.7520 0.0000 4.2074
# 5 6.9741 5.5537 20.2564 0.0000 31.3478 0.0000
# 6 0.0000 0.0000 0.0000 4.2074 0.0000 14.3494
#
#
#
# Elastic Compliance Matrix: (Units=1/GPa)
#
#
# Indices 1 2 3 4 5 6 
#
# 1 0.016216 -0.006971 -0.003499 0.000000 -0.000111 0.000000
# 2 -0.006971 0.016489 -0.000638 0.000000 -0.000958 0.000000
# 3 -0.003499 -0.000638 0.011582 0.000000 -0.006592 0.000000
# 4 0.000000 0.000000 0.000000 0.086818 0.000000 -0.025456
# 5 -0.000111 -0.000958 -0.006592 0.000000 0.036355 0.000000
# 6 0.000000 0.000000 0.000000 -0.025456 0.000000 0.077154
#
#
# Mechanical properties :
#
#
# Convention : Reuss Voigt Hill
#
# Bulk Modulus (GPa) = 45.31058 49.55694 47.43376
# Shear Modulus (GPa) = 18.23586 23.87942 21.05764
#
# Velocity S-wave (km/s) = 3.05231 3.49283 3.27997
# Velocity P-wave (km/s) = 5.96414 6.44862 6.21111
#
# Compressibility (1/GPa) = 0.02206990
#
# Stress axis : x y z
#
# Youngs Moduli (GPa) = 61.66846 60.64811 86.34187
#
# Poissons Ratio (x) = 0.42276 0.30215
# Poissons Ratio (y) = 0.42987 0.05509
# Poissons Ratio (z) = 0.21580 0.03870
#
# Static dielectric constant tensor:
#      x y z
#    x 3.596880 0.000000 -0.068380 
#    y 0.000000 3.162880 0.000000 
#    z -0.068380 0.000000 3.666940 
# 
# 
# High freq. dielectric constant tensor:
#      x y z
#    x 1.765900 0.000000 0.000430 
#    y 0.000000 1.705030 0.000000 
#    z 0.000430 0.000000 1.771200 
# 
# From -- ./inp_files/83372.got.cif
#   From: 2010.06.25/outbox.cif.g09.slc.cpg/sg12_42_cif.got.tgz:83372.got - 2010.06.28 00:19:55.
