data_PCOD8081630
_publ_section_title
;
Structure prediction by ZEFSAII (Michael W. Deem and Ramdas Pophale) SiO2 
 PCOD8081630
Probable space group: C 2/M
;
_chemical_formula_sum "Si O2"
_cell_formula_units_Z 64
_cell_length_a 20.548457
_cell_length_b 9.317850
_cell_length_c 23.507420
_cell_angle_alpha 90.000000
_cell_angle_beta 123.684571
_cell_angle_gamma 90.000000
_cell_volume 3745.219264
_symmetry_space_group_name_H-M "C 2/M"
_symmetry_group_IT_number 12
_symmetry_cell_setting 'monoclinic'
loop_
_space_group_symop_operation_xyz
x,y,z
-x,y,-z
-x,-y,-z
x,-y,z
1/2+x,1/2+y,z
1/2-x,1/2+y,-z
1/2-x,1/2-y,-z
1/2+x,1/2-y,z
loop_
_atom_site_type_symbol
_atom_site_label
_atom_site_fract_x
_atom_site_fract_y
_atom_site_fract_z
Si Si1 0.688218 0.669060 0.678642
Si Si2 0.459845 0.328983 0.325876
Si Si3 0.134574 0.167820 0.423849
Si Si4 0.330638 0.331629 0.036254
Si Si5 0.260710 0.331942 0.418676
Si Si6 0.133692 0.168510 0.823970
Si Si7 0.285176 0.168449 0.833725
Si Si8 0.910791 0.168764 0.959115
O O1 0.679437 0.500000 0.669185
O O2 0.604299 0.729906 0.659817
O O3 0.710157 0.731953 0.627531
O O4 0.757175 0.707466 0.756400
O O5 0.460742 0.500000 0.328425
O O6 0.546127 0.270861 0.381989
O O7 0.434681 0.272049 0.250568
O O8 0.181896 0.250347 0.397954
O O9 0.170811 0.199548 0.503070
O O10 0.137123 0.000000 0.410165
O O11 0.312360 0.500000 0.026223
O O12 0.380926 0.290900 0.117255
O O13 0.250000 0.250000 0.000000
O O14 0.379257 0.282138 0.005316
O O15 0.241113 0.500000 0.405546
O O16 0.218854 0.224864 0.845416
O O17 0.136023 0.000000 0.815284
O O18 0.364541 0.252731 0.886149
O O19 0.301432 0.000000 0.848135
O O20 0.902046 0.000000 0.945321
O O21 0.000000 0.218593 0.000000
#
# Coordination Sequence:
#
# PCOD8081630 Si02
#       8
#     8   8   8   8   8   8   8   8
#     4   8  15  28  48  71  91 117 152 192 232 267
#     4   8  14  26  45  70  94 113 148 196 228 258
#     4   9  17  29  47  71  95 122 154 187 222 266
#     4  10  18  30  50  69  88 118 155 189 224 271
#     4   9  17  30  47  67  96 127 152 182 226 273
#     4   8  14  26  46  69  88 111 147 190 229 262
#     4   9  16  30  51  69  87 117 157 191 225 272
#     4  10  21  34  45  66  99 125 147 184 236 280
#
# _framework density 17.088453000000001
#
# number of rings (size 3 to 8) (size 9 to 14) (size 15 to 20)
#    0.000    3.125    1.250    1.500    0.000    0.750 
#    2.250    3.125    0.000    4.500    0.000    3.500 
#    0.000    0.000    0.000    0.000    0.000    0.000 
#
# Total GULP energy -396615.374702 kJ/mol
# GULP energy per Si atom -12394.230459 kJ/mol
# Density = 1.704956 g / cm^3
# Si number density = 17.088453 Si / 1000 Ang^3
#
#
#
# Elastic Constant Matrix: (Units=GPa)
#
#
# Indices 1 2 3 4 5 6 
#
# 1 139.2991 32.1699 91.8965 0.0000 4.2979 0.0000
# 2 32.1699 22.2770 29.7015 0.0000 2.9093 0.0000
# 3 91.8965 29.7015 125.3000 0.0000 1.9043 0.0000
# 4 0.0000 0.0000 0.0000 18.6558 0.0000 1.6490
# 5 4.2979 2.9093 1.9043 0.0000 34.5885 0.0000
# 6 0.0000 0.0000 0.0000 1.6490 0.0000 21.6149
#
#
#
# Elastic Compliance Matrix: (Units=1/GPa)
#
#
# Indices 1 2 3 4 5 6 
#
# 1 0.015438 -0.010434 -0.008840 0.000000 -0.000554 0.000000
# 2 -0.010434 0.073446 -0.009691 0.000000 -0.004348 0.000000
# 3 -0.008840 -0.009691 0.016747 0.000000 0.000992 0.000000
# 4 0.000000 0.000000 0.000000 0.053967 0.000000 -0.004117
# 5 -0.000554 -0.004348 0.000992 0.000000 0.029291 0.000000
# 6 0.000000 0.000000 0.000000 -0.004117 0.000000 0.046579
#
#
# Mechanical properties :
#
#
# Convention : Reuss Voigt Hill
#
# Bulk Modulus (GPa) = 20.96487 66.04577 43.50532
# Shear Modulus (GPa) = 16.16562 23.84569 20.00566
#
# Velocity S-wave (km/s) = 3.07904 3.73959 3.42528
# Velocity P-wave (km/s) = 4.99357 7.57492 6.41541
#
# Compressibility (1/GPa) = 0.04769884
#
# Stress axis : x y z
#
# Youngs Moduli (GPa) = 64.77676 13.61539 59.71351
#
# Poissons Ratio (x) = 0.14207 0.52789
# Poissons Ratio (y) = 0.67590 0.57870
# Poissons Ratio (z) = 0.57265 0.13195
#
# Static dielectric constant tensor:
#      x y z
#    x 3.359930 0.000000 -0.100310 
#    y 0.000000 2.786280 0.000000 
#    z -0.100310 0.000000 3.597870 
# 
# 
# High freq. dielectric constant tensor:
#      x y z
#    x 1.651890 0.000000 -0.003030 
#    y 0.000000 1.615070 0.000000 
#    z -0.003030 0.000000 1.669980 
# 
# From -- ./inp_files/345572.got.cif
#   From: 2010.06.25/outbox.cif.g09.slc.cpg/sg12_173_cif.got.tgz:345572.got - 2010.06.28 00:19:55.
