data_PCOD8081894
_publ_section_title
;
Structure prediction by ZEFSAII (Michael W. Deem and Ramdas Pophale) SiO2 
 PCOD8081894
Probable space group: C 2/M
;
_chemical_formula_sum "Si O2"
_cell_formula_units_Z 64
_cell_length_a 9.441505
_cell_length_b 26.323686
_cell_length_c 21.689946
_cell_angle_alpha 90.000000
_cell_angle_beta 134.493989
_cell_angle_gamma 90.000000
_cell_volume 3845.326521
_symmetry_space_group_name_H-M "C 2/M"
_symmetry_group_IT_number 12
_symmetry_cell_setting 'monoclinic'
loop_
_space_group_symop_operation_xyz
x,y,z
-x,y,-z
-x,-y,-z
x,-y,z
1/2+x,1/2+y,z
1/2-x,1/2+y,-z
1/2-x,1/2-y,-z
1/2+x,1/2-y,z
loop_
_atom_site_type_symbol
_atom_site_label
_atom_site_fract_x
_atom_site_fract_y
_atom_site_fract_z
Si Si1 0.462314 0.805301 0.588953
Si Si2 0.400559 0.442278 0.780059
Si Si3 0.908554 0.440321 0.760597
Si Si4 0.046751 0.889032 0.708877
Si Si5 0.359214 0.560133 0.904239
Si Si6 0.540123 0.914182 0.360724
Si Si7 0.800501 0.557905 0.467697
Si Si8 0.319290 0.294054 0.607463
O O1 0.495282 0.854286 0.641325
O O2 0.403194 0.761250 0.618264
O O3 0.662804 0.789412 0.615219
O O4 0.286946 0.816673 0.486177
O O5 0.480135 0.500000 0.797222
O O6 0.519115 0.404647 0.771587
O O7 0.430179 0.420887 0.858564
O O8 0.167567 0.442991 0.692620
O O9 0.867225 0.500000 0.760138
O O10 0.768927 0.404527 0.758841
O O11 0.867682 0.427173 0.677056
O O12 0.131828 0.424532 0.847434
O O13 0.895363 0.918132 0.619028
O O14 0.003100 0.829391 0.685188
O O15 0.376353 0.500000 0.909392
O O16 0.500000 0.584194 0.000000
O O17 0.696864 0.935605 0.457966
O O18 0.795209 0.500000 0.445335
O O19 0.000000 0.584383 0.500000
#
# Coordination Sequence:
#
# PCOD8081894 Si02
#       8
#     8   8   8   8   8   8   8   8
#     4  10  20  36  51  67  89 130 185 228 259 294
#     4  10  18  30  52  76 101 133 167 205 249 302
#     4  10  22  34  48  75 110 136 164 213 258 295
#     4  12  21  33  47  72 106 138 170 217 260 291
#     4   8  16  34  56  75  99 136 172 198 242 314
#     4  11  19  33  49  67  97 136 180 212 251 293
#     4  11  19  28  46  66  94 138 182 210 235 296
#     4  10  21  35  51  67  92 132 179 225 265 291
#
# _framework density 16.64358
#
# number of rings (size 3 to 8) (size 9 to 14) (size 15 to 20)
#    0.000    1.750    3.750    3.000    1.750    0.500 
#    0.000    1.875    0.000    3.000    0.000    0.000 
#    0.000   16.000    0.000    0.000    0.000    0.000 
#
# Total GULP energy -396817.678015 kJ/mol
# GULP energy per Si atom -12400.552438 kJ/mol
# Density = 1.660570 g / cm^3
# Si number density = 16.643580 Si / 1000 Ang^3
#
#
#
# Elastic Constant Matrix: (Units=GPa)
#
#
# Indices 1 2 3 4 5 6 
#
# 1 94.0587 24.1457 34.2598 0.0000 -1.4151 0.0000
# 2 24.1457 65.3712 15.4561 0.0000 -0.3339 0.0000
# 3 34.2598 15.4561 90.6508 0.0000 -4.8900 0.0000
# 4 0.0000 0.0000 0.0000 9.8185 0.0000 0.3680
# 5 -1.4151 -0.3339 -4.8900 0.0000 15.2102 0.0000
# 6 0.0000 0.0000 0.0000 0.3680 0.0000 25.8370
#
#
#
# Elastic Compliance Matrix: (Units=1/GPa)
#
#
# Indices 1 2 3 4 5 6 
#
# 1 0.013199 -0.003849 -0.004346 0.000000 -0.000254 0.000000
# 2 -0.003849 0.017066 -0.001480 0.000000 -0.000459 0.000000
# 3 -0.004346 -0.001480 0.013130 0.000000 0.003785 0.000000
# 4 0.000000 0.000000 0.000000 0.101903 0.000000 -0.001451
# 5 -0.000254 -0.000459 0.003785 0.000000 0.066928 0.000000
# 6 0.000000 0.000000 0.000000 -0.001451 0.000000 0.038725
#
#
# Mechanical properties :
#
#
# Convention : Reuss Voigt Hill
#
# Bulk Modulus (GPa) = 41.58658 44.20044 42.89351
# Shear Modulus (GPa) = 17.96517 21.92108 19.94313
#
# Velocity S-wave (km/s) = 3.28899 3.63311 3.46533
# Velocity P-wave (km/s) = 6.28205 6.64936 6.46831
#
# Compressibility (1/GPa) = 0.02404622
#
# Stress axis : x y z
#
# Youngs Moduli (GPa) = 75.76474 58.59437 76.16039
#
# Poissons Ratio (x) = 0.22553 0.33097
# Poissons Ratio (y) = 0.29162 0.11272
# Poissons Ratio (z) = 0.32925 0.08672
#
# Static dielectric constant tensor:
#      x y z
#    x 3.196720 0.000000 -0.164810 
#    y 0.000000 3.033080 0.000000 
#    z -0.164810 0.000000 3.154420 
# 
# 
# High freq. dielectric constant tensor:
#      x y z
#    x 1.642390 0.000000 -0.010770 
#    y 0.000000 1.625250 0.000000 
#    z -0.010770 0.000000 1.608540 
# 
# From -- ./inp_files/302673.got.cif
#   From: 2010.06.25/outbox.cif.g09.slc.cpg/sg12_152_cif.got.tgz:302673.got - 2010.06.28 00:19:55.
