data_PCOD8081539
_publ_section_title
;
Structure prediction by ZEFSAII (Michael W. Deem and Ramdas Pophale) SiO2 
 PCOD8081539
Probable space group: C 2/M
;
_chemical_formula_sum "Si O2"
_cell_formula_units_Z 48
_cell_length_a 25.388026
_cell_length_b 8.856639
_cell_length_c 27.757345
_cell_angle_alpha 90.000000
_cell_angle_beta 153.262461
_cell_angle_gamma 90.000000
_cell_volume 2807.992012
_symmetry_space_group_name_H-M "C 2/M"
_symmetry_group_IT_number 12
_symmetry_cell_setting 'monoclinic'
loop_
_space_group_symop_operation_xyz
x,y,z
-x,y,-z
-x,-y,-z
x,-y,z
1/2+x,1/2+y,z
1/2-x,1/2+y,-z
1/2-x,1/2-y,-z
1/2+x,1/2-y,z
loop_
_atom_site_type_symbol
_atom_site_label
_atom_site_fract_x
_atom_site_fract_y
_atom_site_fract_z
Si Si1 0.732951 0.678423 0.797380
Si Si2 0.192339 0.179222 0.240818
Si Si3 0.238874 0.179196 0.605311
Si Si4 0.851459 0.822724 0.613869
Si Si5 0.488746 0.323525 0.637300
Si Si6 0.553397 0.333743 0.990877
O O1 0.731487 0.500000 0.788558
O O2 0.748747 0.758696 0.759334
O O3 0.612783 0.743845 0.721903
O O4 0.837365 0.719342 0.920058
O O5 0.258209 0.255908 0.338826
O O6 0.053708 0.222452 0.130439
O O7 0.208561 0.000000 0.255239
O O8 0.349614 0.243675 0.664816
O O9 0.118427 0.239614 0.482695
O O10 0.247278 0.000000 0.613386
O O11 0.750000 0.750000 0.500000
O O12 0.969258 0.790839 0.678708
O O13 0.830133 0.000000 0.602916
O O14 0.491682 0.500000 0.630361
O O15 0.597118 0.500000 0.010336
O O16 0.500000 0.345515 0.000000
#
# Coordination Sequence:
#
# PCOD8081539 Si02
#       6
#     8   8   8   8   8   8
#     4  10  18  30  49  71  94 122 156 189 225 274
#     4  10  20  33  47  67  96 126 154 189 235 277
#     4  10  19  32  49  70  95 123 157 193 231 274
#     4   9  16  30  49  68  92 123 158 191 227 271
#     4   8  17  31  47  69  97 125 149 184 234 277
#     4   8  16  31  47  64  90 121 153 191 233 272
#
# _framework density 17.094065000000001
#
# number of rings (size 3 to 8) (size 9 to 14) (size 15 to 20)
#    0.000    2.833    0.000    4.000    0.000    4.333 
#    0.000   13.333    0.000    1.000    0.000    0.000 
#    0.000    0.000    0.000    0.000    0.000    0.000 
#
# Total GULP energy -297378.593290 kJ/mol
# GULP energy per Si atom -12390.774720 kJ/mol
# Density = 1.705516 g / cm^3
# Si number density = 17.094065 Si / 1000 Ang^3
#
#
#
# Elastic Constant Matrix: (Units=GPa)
#
#
# Indices 1 2 3 4 5 6 
#
# 1 92.3170 38.7509 42.2346 -0.0003 24.7452 0.0000
# 2 38.7509 76.5997 28.7892 -0.0011 11.8853 -0.0002
# 3 42.2346 28.7892 72.2294 -0.0016 21.9461 -0.0006
# 4 -0.0003 -0.0011 -0.0016 24.9054 -0.0007 -3.8806
# 5 24.7452 11.8853 21.9461 -0.0007 14.8846 -0.0001
# 6 0.0000 -0.0002 -0.0006 -3.8806 -0.0001 24.2091
#
#
#
# Elastic Compliance Matrix: (Units=1/GPa)
#
#
# Indices 1 2 3 4 5 6 
#
# 1 0.021915 -0.005954 -0.001478 -0.000001 -0.029499 0.000000
# 2 -0.005954 0.017260 -0.004018 0.000001 0.002040 0.000000
# 3 -0.001478 -0.004018 0.026429 0.000001 -0.033301 0.000001
# 4 -0.000001 0.000001 0.000001 0.041180 0.000002 0.006601
# 5 -0.029499 0.002040 -0.033301 0.000002 0.163696 0.000000
# 6 0.000000 0.000000 0.000001 0.006601 0.000000 0.042365
#
#
# Mechanical properties :
#
#
# Convention : Reuss Voigt Hill
#
# Bulk Modulus (GPa) = 23.41703 51.18840 37.30272
# Shear Modulus (GPa) = 14.28652 21.55793 17.92223
#
# Velocity S-wave (km/s) = 2.89409 3.55510 3.24149
# Velocity P-wave (km/s) = 4.98962 6.84557 5.98991
#
# Compressibility (1/GPa) = 0.04270395
#
# Stress axis : x y z
#
# Youngs Moduli (GPa) = 45.63142 57.93580 37.83737
#
# Poissons Ratio (x) = 0.34494 0.05593
# Poissons Ratio (y) = 0.27168 0.15204
# Poissons Ratio (z) = 0.06745 0.23279
#
# Static dielectric constant tensor:
#      x y z
#    x 3.440410 0.000000 0.134550 
#    y 0.000000 3.189900 0.000000 
#    z 0.134550 0.000000 3.414250 
# 
# 
# High freq. dielectric constant tensor:
#      x y z
#    x 1.648660 0.000000 0.004200 
#    y 0.000000 1.659650 0.000000 
#    z 0.004200 0.000000 1.639410 
# 
# From -- ./inp_files/179214.got.cif
#   From: 2010.06.25/outbox.cif.g09.slc.cpg/sg12_90_cif.got.tgz:179214.got - 2010.06.28 00:19:55.
