data_PCOD8081311
_publ_section_title
;
Structure prediction by ZEFSAII (Michael W. Deem and Ramdas Pophale) SiO2 
 PCOD8081311
Probable space group: C 2/M
;
_chemical_formula_sum "Si O2"
_cell_formula_units_Z 64
_cell_length_a 31.829495
_cell_length_b 9.108731
_cell_length_c 12.296404
_cell_angle_alpha 90.000000
_cell_angle_beta 80.153397
_cell_angle_gamma 90.000000
_cell_volume 3512.534702
_symmetry_space_group_name_H-M "C 2/M"
_symmetry_group_IT_number 12
_symmetry_cell_setting 'monoclinic'
loop_
_space_group_symop_operation_xyz
x,y,z
-x,y,-z
-x,-y,-z
x,-y,z
1/2+x,1/2+y,z
1/2-x,1/2+y,-z
1/2-x,1/2-y,-z
1/2+x,1/2-y,z
loop_
_atom_site_type_symbol
_atom_site_label
_atom_site_fract_x
_atom_site_fract_y
_atom_site_fract_z
Si Si1 0.131365 0.168375 0.914247
Si Si2 0.425040 0.170409 0.898628
Si Si3 0.621447 0.671346 0.453172
Si Si4 0.532160 0.656763 0.392886
Si Si5 0.011689 0.330567 0.763284
Si Si6 0.294618 0.325973 0.960038
Si Si7 0.353126 0.174226 0.763493
Si Si8 0.600004 0.329274 0.699763
O O1 0.132664 0.201654 0.784345
O O2 0.121003 0.000000 0.941093
O O3 0.092389 0.254317 0.985684
O O4 0.176518 0.211045 0.947032
O O5 0.475726 0.205749 0.870724
O O6 0.398268 0.219972 0.801960
O O7 0.417057 0.000000 0.917853
O O8 0.634290 0.500000 0.440990
O O9 0.574974 0.707171 0.430756
O O10 0.651071 0.766059 0.358735
O O11 0.621899 0.729715 0.578538
O O12 0.500000 0.617834 0.500000
O O13 0.538352 0.500000 0.324727
O O14 0.513736 0.792159 0.334284
O O15 0.024414 0.500000 0.757757
O O16 0.054878 0.240041 0.753689
O O17 0.289383 0.500000 0.944644
O O18 0.315201 0.252879 0.844989
O O19 0.250000 0.250000 0.000000
O O20 0.346169 0.000000 0.766653
O O21 0.590297 0.500000 0.686310
#
# Coordination Sequence:
#
# PCOD8081311 Si02
#       8
#     8   8   8   8   8   8   8   8
#     4   9  20  37  57  77 101 134 175 213 253 314
#     4   9  19  33  48  69 102 138 174 221 272 305
#     4  10  19  31  50  73 102 139 177 218 263 306
#     4  10  18  30  46  67  95 136 183 229 270 305
#     4  11  21  31  45  70 101 139 183 229 270 306
#     4  10  20  37  62  91 111 131 162 203 259 316
#     4  10  19  33  53  80 111 139 169 213 261 307
#     4  10  21  37  51  70 102 143 184 220 258 306
#
# _framework density 18.220461
#
# number of rings (size 3 to 8) (size 9 to 14) (size 15 to 20)
#    0.000    2.125    2.500    1.125    0.000    3.750 
#    0.000    2.500    0.000    0.750    0.000    0.000 
#    0.000    0.000    0.000    0.000    0.000    0.000 
#
# Total GULP energy -396524.465871 kJ/mol
# GULP energy per Si atom -12391.389558 kJ/mol
# Density = 1.817899 g / cm^3
# Si number density = 18.220461 Si / 1000 Ang^3
#
#
#
# Elastic Constant Matrix: (Units=GPa)
#
#
# Indices 1 2 3 4 5 6 
#
# 1 83.1787 42.4013 59.6214 0.0000 -13.5267 0.0000
# 2 42.4013 63.8567 48.9864 0.0000 -9.2717 0.0000
# 3 59.6214 48.9864 131.5089 0.0000 -5.2976 0.0000
# 4 0.0000 0.0000 0.0000 22.4782 0.0000 -7.6988
# 5 -13.5267 -9.2717 -5.2976 0.0000 19.4830 0.0000
# 6 0.0000 0.0000 0.0000 -7.6988 0.0000 25.6476
#
#
#
# Elastic Compliance Matrix: (Units=1/GPa)
#
#
# Indices 1 2 3 4 5 6 
#
# 1 0.022849 -0.008521 -0.006783 0.000000 0.009964 0.000000
# 2 -0.008521 0.026518 -0.005808 0.000000 0.005124 0.000000
# 3 -0.006783 -0.005808 0.012681 0.000000 -0.004025 0.000000
# 4 0.000000 0.000000 0.000000 0.049585 0.000000 0.014884
# 5 0.009964 0.005124 -0.004025 0.000000 0.059588 0.000000
# 6 0.000000 0.000000 0.000000 0.014884 0.000000 0.043458
#
#
# Mechanical properties :
#
#
# Convention : Reuss Voigt Hill
#
# Bulk Modulus (GPa) = 50.44949 64.50695 57.47822
# Shear Modulus (GPa) = 18.97451 22.02410 20.49931
#
# Velocity S-wave (km/s) = 3.23055 3.48049 3.35785
# Velocity P-wave (km/s) = 6.45475 7.18555 6.82993
#
# Compressibility (1/GPa) = 0.01982181
#
# Stress axis : x y z
#
# Youngs Moduli (GPa) = 43.76638 37.71053 78.86040
#
# Poissons Ratio (x) = 0.32134 0.53493
# Poissons Ratio (y) = 0.37295 0.45803
# Poissons Ratio (z) = 0.29688 0.21903
#
# Static dielectric constant tensor:
#      x y z
#    x 3.175140 0.000000 -0.037280 
#    y 0.000000 3.408020 0.000000 
#    z -0.037280 0.000000 3.516160 
# 
# 
# High freq. dielectric constant tensor:
#      x y z
#    x 1.672780 0.000000 -0.008200 
#    y 0.000000 1.709030 0.000000 
#    z -0.008200 0.000000 1.704950 
# 
# From -- ./inp_files/187521.got.cif
#   From: 2010.06.25/outbox.cif.g09.slc.cpg/sg12_94_cif.got.tgz:187521.got - 2010.06.28 00:19:55.
