data_PCOD8081009
_publ_section_title
;
Structure prediction by ZEFSAII (Michael W. Deem and Ramdas Pophale) SiO2 
 PCOD8081009
Probable space group: C 2/M
;
_chemical_formula_sum "Si O2"
_cell_formula_units_Z 64
_cell_length_a 24.937803
_cell_length_b 8.842920
_cell_length_c 23.972288
_cell_angle_alpha 90.000000
_cell_angle_beta 134.721579
_cell_angle_gamma 90.000000
_cell_volume 3756.198606
_symmetry_space_group_name_H-M "C 2/M"
_symmetry_group_IT_number 12
_symmetry_cell_setting 'monoclinic'
loop_
_space_group_symop_operation_xyz
x,y,z
-x,y,-z
-x,-y,-z
x,-y,z
1/2+x,1/2+y,z
1/2-x,1/2+y,-z
1/2-x,1/2-y,-z
1/2+x,1/2-y,z
loop_
_atom_site_type_symbol
_atom_site_label
_atom_site_fract_x
_atom_site_fract_y
_atom_site_fract_z
Si Si1 0.914480 0.678798 0.083324
Si Si2 0.158099 0.172821 0.658635
Si Si3 0.771994 0.320933 0.909897
Si Si4 0.682343 0.825252 0.178456
Si Si5 0.605868 0.679449 0.815401
Si Si6 0.931889 0.333103 0.493323
Si Si7 0.450543 0.821288 0.334272
Si Si8 0.028279 0.823544 0.082299
O O1 0.915902 0.500000 0.092009
O O2 0.927580 0.757793 0.151878
O O3 0.981048 0.726666 0.091272
O O4 0.834466 0.734754 0.999684
O O5 0.247907 0.193388 0.728153
O O6 0.132489 0.221935 0.577549
O O7 0.118920 0.271388 0.677738
O O8 0.134547 0.000000 0.651875
O O9 0.767374 0.500000 0.904180
O O10 0.793833 0.261070 0.864678
O O11 0.690688 0.255973 0.868476
O O12 0.615085 0.723634 0.152779
O O13 0.656521 0.000000 0.155273
O O14 0.604602 0.500000 0.815493
O O15 0.552382 0.737762 0.726866
O O16 0.896198 0.500000 0.474282
O O17 0.000000 0.340586 0.500000
O O18 0.968667 0.276858 0.578525
O O19 0.444549 0.000000 0.321524
O O20 0.018469 0.000000 0.088084
O O21 0.000000 0.781561 0.000000
#
# Coordination Sequence:
#
# PCOD8081009 Si02
#       8
#     8   8   8   8   8   8   8   8
#     4  11  22  37  55  73  97 137 177 211 256 309
#     4  10  18  29  48  74 103 132 168 210 253 301
#     4   9  18  33  52  73 101 135 171 207 253 303
#     4  10  19  34  53  75 101 135 173 209 255 307
#     4  11  21  35  52  75 106 135 170 217 254 297
#     4   8  16  29  44  66 100 136 168 203 244 298
#     4  10  19  31  47  70 102 139 173 203 246 305
#     4  11  23  37  53  76 100 128 171 221 263 297
#
# _framework density 17.038502000000001
#
# number of rings (size 3 to 8) (size 9 to 14) (size 15 to 20)
#    0.000    2.000    2.500    3.000    0.000    4.250 
#    0.000    1.875    0.000    0.000    0.000    0.875 
#    0.000    0.000    0.000    0.000    0.000    0.000 
#
# Total GULP energy -396818.549566 kJ/mol
# GULP energy per Si atom -12400.579674 kJ/mol
# Density = 1.699972 g / cm^3
# Si number density = 17.038502 Si / 1000 Ang^3
#
#
#
# Elastic Constant Matrix: (Units=GPa)
#
#
# Indices 1 2 3 4 5 6 
#
# 1 64.1296 27.3688 45.6989 0.0000 -8.5743 0.0000
# 2 27.3688 68.0695 48.5473 0.0000 -0.3826 0.0000
# 3 45.6989 48.5473 134.6068 0.0000 -7.6818 0.0000
# 4 0.0000 0.0000 0.0000 28.9991 0.0000 -0.5061
# 5 -8.5743 -0.3826 -7.6818 0.0000 18.9768 0.0000
# 6 0.0000 0.0000 0.0000 -0.5061 0.0000 21.6285
#
#
#
# Elastic Compliance Matrix: (Units=1/GPa)
#
#
# Indices 1 2 3 4 5 6 
#
# 1 0.022732 -0.005272 -0.005360 0.000000 0.007995 0.000000
# 2 -0.005272 0.021122 -0.006080 0.000000 -0.004418 0.000000
# 3 -0.005360 -0.006080 0.011563 0.000000 0.002137 0.000000
# 4 0.000000 0.000000 0.000000 0.034498 0.000000 0.000807
# 5 0.007995 -0.004418 0.002137 0.000000 0.057084 0.000000
# 6 0.000000 0.000000 0.000000 0.000807 0.000000 0.046254
#
#
# Mechanical properties :
#
#
# Convention : Reuss Voigt Hill
#
# Bulk Modulus (GPa) = 45.46843 56.67065 51.06954
# Shear Modulus (GPa) = 21.36670 23.60027 22.48348
#
# Velocity S-wave (km/s) = 3.54506 3.72575 3.63653
# Velocity P-wave (km/s) = 6.59547 7.20006 6.90439
#
# Compressibility (1/GPa) = 0.02199328
#
# Stress axis : x y z
#
# Youngs Moduli (GPa) = 43.99127 47.34343 86.47971
#
# Poissons Ratio (x) = 0.24961 0.46350
# Poissons Ratio (y) = 0.23194 0.52580
# Poissons Ratio (z) = 0.23578 0.28785
#
# Static dielectric constant tensor:
#      x y z
#    x 2.878060 0.000000 0.026520 
#    y 0.000000 3.148730 0.000000 
#    z 0.026520 0.000000 3.520560 
# 
# 
# High freq. dielectric constant tensor:
#      x y z
#    x 1.616950 0.000000 0.001510 
#    y 0.000000 1.658120 0.000000 
#    z 0.001510 0.000000 1.665610 
# 
# From -- ./inp_files/324291.got.cif
#   From: 2010.06.25/outbox.cif.g09.slc.cpg/sg12_163_cif.got.tgz:324291.got - 2010.06.28 00:19:55.
