data_PCOD8081676
_publ_section_title
;
Structure prediction by ZEFSAII (Michael W. Deem and Ramdas Pophale) SiO2 
 PCOD8081676
Probable space group: C 2/M
;
_chemical_formula_sum "Si O2"
_cell_formula_units_Z 64
_cell_length_a 31.184292
_cell_length_b 8.895057
_cell_length_c 25.983347
_cell_angle_alpha 90.000000
_cell_angle_beta 150.302981
_cell_angle_gamma 90.000000
_cell_volume 3570.652050
_symmetry_space_group_name_H-M "C 2/M"
_symmetry_group_IT_number 12
_symmetry_cell_setting 'monoclinic'
loop_
_space_group_symop_operation_xyz
x,y,z
-x,y,-z
-x,-y,-z
x,-y,z
1/2+x,1/2+y,z
1/2-x,1/2+y,-z
1/2-x,1/2-y,-z
1/2+x,1/2-y,z
loop_
_atom_site_type_symbol
_atom_site_label
_atom_site_fract_x
_atom_site_fract_y
_atom_site_fract_z
Si Si1 0.546080 0.325435 0.430342
Si Si2 0.821192 0.677619 0.361895
Si Si3 0.029521 0.322510 0.952748
Si Si4 0.279891 0.825233 0.125759
Si Si5 0.103454 0.323605 0.923219
Si Si6 0.547634 0.172408 0.754401
Si Si7 0.373423 0.324361 0.312584
Si Si8 0.863144 0.678302 0.838297
O O1 0.569804 0.500000 0.455297
O O2 0.628708 0.231382 0.534892
O O3 0.521959 0.276046 0.347228
O O4 0.466010 0.288803 0.384324
O O5 0.823034 0.500000 0.359924
O O6 0.870677 0.746373 0.364773
O O7 0.723568 0.733646 0.264366
O O8 0.026482 0.500000 0.949537
O O9 0.052606 0.260887 0.920185
O O10 0.934481 0.267214 0.870949
O O11 0.102936 0.272129 0.069913
O O12 0.355880 0.791856 0.164626
O O13 0.297196 0.739736 0.197362
O O14 0.270653 0.000000 0.128644
O O15 0.192889 0.763806 0.009711
O O16 0.124326 0.500000 0.949814
O O17 0.044203 0.291367 0.811565
O O18 0.523643 0.000000 0.717998
O O19 0.357262 0.500000 0.303374
O O20 0.846193 0.500000 0.818108
#
# Coordination Sequence:
#
# PCOD8081676 Si02
#       8
#     8   8   8   8   8   8   8   8
#     4  10  21  36  53  71  95 131 172 209 244 287
#     4  12  23  33  50  76 103 130 161 200 248 298
#     4   8  16  31  53  77  99 128 165 203 242 288
#     4  10  19  30  45  71 105 137 168 203 246 291
#     4  10  18  30  50  74 100 134 172 206 247 297
#     4   9  19  33  48  69 101 136 169 209 251 290
#     4  10  20  34  51  72  99 132 169 204 241 290
#     4   9  17  33  54  75 101 131 164 200 240 292
#
# _framework density 17.923897
#
# number of rings (size 3 to 8) (size 9 to 14) (size 15 to 20)
#    0.000    2.250    0.000    4.500    0.000    5.000 
#    0.000    1.875    0.000    0.750    0.000    0.000 
#    0.000    0.000    0.000    0.000    0.000    0.000 
#
# Total GULP energy -396854.658985 kJ/mol
# GULP energy per Si atom -12401.708093 kJ/mol
# Density = 1.788310 g / cm^3
# Si number density = 17.923897 Si / 1000 Ang^3
#
#
#
# Elastic Constant Matrix: (Units=GPa)
#
#
# Indices 1 2 3 4 5 6 
#
# 1 93.9935 33.7710 54.3794 0.0000 -14.7018 0.0000
# 2 33.7710 83.5878 53.1484 0.0000 -2.3247 0.0000
# 3 54.3794 53.1484 119.9739 0.0000 -7.9299 0.0000
# 4 0.0000 0.0000 0.0000 28.7311 0.0000 -2.7167
# 5 -14.7018 -2.3247 -7.9299 0.0000 22.7297 0.0000
# 6 0.0000 0.0000 0.0000 -2.7167 0.0000 18.4736
#
#
#
# Elastic Compliance Matrix: (Units=1/GPa)
#
#
# Indices 1 2 3 4 5 6 
#
# 1 0.016121 -0.002762 -0.005541 0.000000 0.008212 0.000000
# 2 -0.002762 0.017146 -0.006496 0.000000 -0.002299 0.000000
# 3 -0.005541 -0.006496 0.013761 0.000000 0.000552 0.000000
# 4 0.000000 0.000000 0.000000 0.035296 0.000000 0.005191
# 5 0.008212 -0.002299 0.000552 0.000000 0.049265 0.000000
# 6 0.000000 0.000000 0.000000 0.005191 0.000000 0.054895
#
#
# Mechanical properties :
#
#
# Convention : Reuss Voigt Hill
#
# Bulk Modulus (GPa) = 57.36919 64.46142 60.91531
# Shear Modulus (GPa) = 22.53368 24.40397 23.46883
#
# Velocity S-wave (km/s) = 3.54953 3.69390 3.62243
# Velocity P-wave (km/s) = 6.99110 7.36446 7.18020
#
# Compressibility (1/GPa) = 0.01743096
#
# Stress axis : x y z
#
# Youngs Moduli (GPa) = 62.02898 58.32434 72.67071
#
# Poissons Ratio (x) = 0.16108 0.40267
# Poissons Ratio (y) = 0.17131 0.47204
# Poissons Ratio (z) = 0.34370 0.37885
#
# Static dielectric constant tensor:
#      x y z
#    x 3.511580 0.000000 -0.122270 
#    y 0.000000 3.198880 0.000000 
#    z -0.122270 0.000000 3.295000 
# 
# 
# High freq. dielectric constant tensor:
#      x y z
#    x 1.677050 0.000000 -0.010180 
#    y 0.000000 1.685650 0.000000 
#    z -0.010180 0.000000 1.691570 
# 
# From -- ./inp_files/244241.got.cif
#   From: 2010.06.25/outbox.cif.g09.slc.cpg/sg12_123_cif.got.tgz:244241.got - 2010.06.28 00:19:55.
