data_PCOD8081925
_publ_section_title
;
Structure prediction by ZEFSAII (Michael W. Deem and Ramdas Pophale) SiO2 
 PCOD8081925
Probable space group: C 2/M
;
_chemical_formula_sum "Si O2"
_cell_formula_units_Z 56
_cell_length_a 12.847160
_cell_length_b 20.160930
_cell_length_c 13.465157
_cell_angle_alpha 90.000000
_cell_angle_beta 117.203655
_cell_angle_gamma 90.000000
_cell_volume 3101.844320
_symmetry_space_group_name_H-M "C 2/M"
_symmetry_group_IT_number 12
_symmetry_cell_setting 'monoclinic'
loop_
_space_group_symop_operation_xyz
x,y,z
-x,y,-z
-x,-y,-z
x,-y,z
1/2+x,1/2+y,z
1/2-x,1/2+y,-z
1/2-x,1/2-y,-z
1/2+x,1/2-y,z
loop_
_atom_site_type_symbol
_atom_site_label
_atom_site_fract_x
_atom_site_fract_y
_atom_site_fract_z
Si Si1 0.465731 0.235387 0.239112
Si Si2 0.344473 0.632915 0.168085
Si Si3 0.370763 0.576629 0.966948
Si Si4 0.105784 0.692599 0.118938
Si Si5 0.536791 0.424521 0.402823
Si Si6 0.171296 0.802851 0.408627
Si Si7 0.238362 0.180034 0.211168
O O1 0.395736 0.295765 0.155284
O O2 0.547785 0.192194 0.202454
O O3 0.545014 0.268374 0.357883
O O4 0.376083 0.188009 0.255283
O O5 0.213665 0.640417 0.158265
O O6 0.429935 0.597598 0.284398
O O7 0.332755 0.590252 0.063284
O O8 0.359436 0.500000 0.939996
O O9 0.288464 0.609717 0.848868
O O10 0.500000 0.603035 0.000000
O O11 0.159945 0.765028 0.119871
O O12 0.000000 0.674115 0.000000
O O13 0.500000 0.421415 0.500000
O O14 0.572295 0.500000 0.389247
O O15 0.651211 0.376376 0.445407
O O16 0.250000 0.750000 0.500000
O O17 0.216113 0.815267 0.317658
#
# Coordination Sequence:
#
# PCOD8081925 Si02
#       7
#     8   8   8   8   8   8   8
#     4   9  19  32  52  80 110 144 177 233 288 339
#     4  10  20  34  55  82 114 146 189 234 282 344
#     4  11  21  33  54  79 109 144 184 228 277 340
#     4  10  18  30  52  80 111 146 181 228 280 338
#     4  10  22  38  59  84 115 152 192 239 294 348
#     4  10  22  34  59  86 113 143 189 244 288 344
#     4  10  20  34  51  81 110 146 181 228 294 338
#
# _framework density 18.053775000000002
#
# number of rings (size 3 to 8) (size 9 to 14) (size 15 to 20)
#    0.000    2.000    0.000    5.143    8.000    4.000 
#    0.000    0.000    0.000    8.571    0.000    2.000 
#    0.000    0.000    0.000    0.000    0.000    0.000 
#
# Total GULP energy -346975.112134 kJ/mol
# GULP energy per Si atom -12391.968291 kJ/mol
# Density = 1.801268 g / cm^3
# Si number density = 18.053775 Si / 1000 Ang^3
#
#
#
# Elastic Constant Matrix: (Units=GPa)
#
#
# Indices 1 2 3 4 5 6 
#
# 1 124.0310 58.3900 34.7493 0.0000 1.4757 0.0000
# 2 58.3900 100.9165 48.3508 0.0000 -0.0826 0.0000
# 3 34.7493 48.3508 95.0845 0.0000 -5.7134 0.0000
# 4 0.0000 0.0000 0.0000 19.1852 0.0000 -1.2960
# 5 1.4757 -0.0826 -5.7134 0.0000 22.8068 0.0000
# 6 0.0000 0.0000 0.0000 -1.2960 0.0000 27.2473
#
#
#
# Elastic Compliance Matrix: (Units=1/GPa)
#
#
# Indices 1 2 3 4 5 6 
#
# 1 0.011183 -0.005928 -0.001134 0.000000 -0.001029 0.000000
# 2 -0.005928 0.016304 -0.006191 0.000000 -0.001108 0.000000
# 3 -0.001134 -0.006191 0.014298 0.000000 0.003633 0.000000
# 4 0.000000 0.000000 0.000000 0.052291 0.000000 0.002487
# 5 -0.001029 -0.001108 0.003633 0.000000 0.044819 0.000000
# 6 0.000000 0.000000 0.000000 0.002487 0.000000 0.036819
#
#
# Mechanical properties :
#
#
# Convention : Reuss Voigt Hill
#
# Bulk Modulus (GPa) = 65.45015 67.00137 66.22576
# Shear Modulus (GPa) = 24.11785 25.75066 24.93426
#
# Velocity S-wave (km/s) = 3.65895 3.78078 3.72036
# Velocity P-wave (km/s) = 7.36085 7.50011 7.43081
#
# Compressibility (1/GPa) = 0.01527880
#
# Stress axis : x y z
#
# Youngs Moduli (GPa) = 89.41938 61.33329 69.93975
#
# Poissons Ratio (x) = 0.36358 0.07935
# Poissons Ratio (y) = 0.53007 0.43300
# Poissons Ratio (z) = 0.10145 0.37972
#
# Static dielectric constant tensor:
#      x y z
#    x 3.533470 0.000000 0.036140 
#    y 0.000000 3.366130 0.000000 
#    z 0.036140 0.000000 3.223090 
# 
# 
# High freq. dielectric constant tensor:
#      x y z
#    x 1.704730 0.000000 -0.007100 
#    y 0.000000 1.681790 0.000000 
#    z -0.007100 0.000000 1.692680 
# 
# From -- ./inp_files/133988.got.cif
#   From: 2010.06.25/outbox.cif.g09.slc.cpg/sg12_67_cif.got.tgz:133988.got - 2010.06.28 00:19:55.
