data_PCOD8081933
_publ_section_title
;
Structure prediction by ZEFSAII (Michael W. Deem and Ramdas Pophale) SiO2 
 PCOD8081933
Probable space group: C 2/M
;
_chemical_formula_sum "Si O2"
_cell_formula_units_Z 64
_cell_length_a 26.962222
_cell_length_b 17.466099
_cell_length_c 21.218799
_cell_angle_alpha 90.000000
_cell_angle_beta 161.682426
_cell_angle_gamma 90.000000
_cell_volume 3140.466672
_symmetry_space_group_name_H-M "C 2/M"
_symmetry_group_IT_number 12
_symmetry_cell_setting 'monoclinic'
loop_
_space_group_symop_operation_xyz
x,y,z
-x,y,-z
-x,-y,-z
x,-y,z
1/2+x,1/2+y,z
1/2-x,1/2+y,-z
1/2-x,1/2-y,-z
1/2+x,1/2-y,z
loop_
_atom_site_type_symbol
_atom_site_label
_atom_site_fract_x
_atom_site_fract_y
_atom_site_fract_z
Si Si1 0.300753 0.411610 0.081847
Si Si2 0.447402 0.917091 0.629109
Si Si3 0.992279 0.814796 0.222147
Si Si4 0.959371 0.860094 0.524397
Si Si5 0.230853 0.583341 0.460468
Si Si6 0.136945 0.582569 0.114497
Si Si7 0.024702 0.710016 0.146302
Si Si8 0.673038 0.765515 0.549708
O O1 0.338211 0.500000 0.108966
O O2 0.342396 0.349861 0.077518
O O3 0.390651 0.391441 0.255497
O O4 0.114166 0.398405 0.864457
O O5 0.318840 0.921693 0.527944
O O6 0.381110 0.852874 0.501459
O O7 0.458153 0.000000 0.607127
O O8 0.089063 0.890315 0.321389
O O9 0.951295 0.768128 0.109075
O O10 0.092560 0.757422 0.386497
O O11 0.811508 0.917501 0.355812
O O12 0.899325 0.779453 0.478974
O O13 0.000000 0.852706 0.500000
O O14 0.218125 0.500000 0.412211
O O15 0.133044 0.643554 0.303589
O O16 0.122060 0.500000 0.059872
O O17 0.000000 0.585985 0.000000
O O18 0.123861 0.661905 0.059490
O O19 0.136212 0.754414 0.229239
#
# Coordination Sequence:
#
# PCOD8081933 Si02
#       8
#     8   8   8   8   8   8   8   8
#     4  10  23  39  55  82 125 158 184 237 292 342
#     4  10  20  35  57  85 113 148 185 229 295 355
#     4  10  19  33  55  82 112 148 187 237 297 344
#     4  11  25  40  58  83 116 161 204 239 275 331
#     4  10  18  30  52  81 110 144 187 228 282 348
#     4  11  24  40  58  82 115 163 207 233 273 337
#     4  11  19  35  57  85 114 150 190 248 284 333
#     4  10  19  38  57  81 117 144 190 248 292 336
#
# _framework density 20.379137
#
# number of rings (size 3 to 8) (size 9 to 14) (size 15 to 20)
#    0.000    1.625    3.750    1.875    1.750    4.000 
#    0.000    0.000    0.000    0.375    0.000    3.500 
#    0.000    0.000    0.000    0.000    0.000    0.000 
#
# Total GULP energy -396439.973317 kJ/mol
# GULP energy per Si atom -12388.749166 kJ/mol
# Density = 2.033275 g / cm^3
# Si number density = 20.379137 Si / 1000 Ang^3
#
#
#
# Elastic Constant Matrix: (Units=GPa)
#
#
# Indices 1 2 3 4 5 6 
#
# 1 72.0558 40.9582 13.7927 0.0105 7.4364 0.0096
# 2 40.9582 142.7273 41.9532 0.0490 -3.2968 0.0424
# 3 13.7927 41.9532 44.7127 0.0664 0.4699 0.0575
# 4 0.0105 0.0490 0.0664 19.4868 0.0309 -8.0916
# 5 7.4364 -3.2968 0.4699 0.0309 17.2665 0.0241
# 6 0.0096 0.0424 0.0575 -8.0916 0.0241 18.8725
#
#
#
# Elastic Compliance Matrix: (Units=1/GPa)
#
#
# Indices 1 2 3 4 5 6 
#
# 1 0.017800 -0.005137 -0.000580 0.000031 -0.008631 0.000028
# 2 -0.005137 0.011233 -0.009004 -0.000003 0.004602 -0.000002
# 3 -0.000580 -0.009004 0.031017 -0.000132 -0.002313 -0.000128
# 4 0.000031 -0.000003 -0.000132 0.062433 -0.000159 0.026769
# 5 -0.008631 0.004602 -0.002313 -0.000159 0.062575 -0.000147
# 6 0.000028 -0.000002 -0.000128 0.026769 -0.000147 0.064465
#
#
# Mechanical properties :
#
#
# Convention : Reuss Voigt Hill
#
# Bulk Modulus (GPa) = 32.67120 50.32268 41.49694
# Shear Modulus (GPa) = 17.29101 21.97793 19.63447
#
# Velocity S-wave (km/s) = 2.91600 3.28754 3.10733
# Velocity P-wave (km/s) = 5.23488 6.25759 5.76894
#
# Compressibility (1/GPa) = 0.03060800
#
# Stress axis : x y z
#
# Youngs Moduli (GPa) = 56.18014 89.02049 32.24048
#
# Poissons Ratio (x) = 0.45728 0.01871
# Poissons Ratio (y) = 0.28859 0.29029
# Poissons Ratio (z) = 0.03261 0.80153
#
# Static dielectric constant tensor:
#      x y z
#    x 3.490100 -0.000020 0.222680 
#    y -0.000020 4.379440 -0.000040 
#    z 0.222680 -0.000040 3.717310 
# 
# 
# High freq. dielectric constant tensor:
#      x y z
#    x 1.772970 0.000000 0.030750 
#    y 0.000000 1.808960 0.000000 
#    z 0.030750 0.000000 1.773490 
# 
# From -- ./inp_files/328669.got.cif
#   From: 2010.06.25/outbox.cif.g09.slc.cpg/sg12_165_cif.got.tgz:328669.got - 2010.06.28 00:19:55.
