data_PCOD8081126
_publ_section_title
;
Structure prediction by ZEFSAII (Michael W. Deem and Ramdas Pophale) SiO2 
 PCOD8081126
Probable space group: C 2/M
;
_chemical_formula_sum "Si O2"
_cell_formula_units_Z 48
_cell_length_a 18.727569
_cell_length_b 13.648569
_cell_length_c 18.648583
_cell_angle_alpha 90.000000
_cell_angle_beta 30.228286
_cell_angle_gamma 90.000000
_cell_volume 2399.759637
_symmetry_space_group_name_H-M "C 2/M"
_symmetry_group_IT_number 12
_symmetry_cell_setting 'monoclinic'
loop_
_space_group_symop_operation_xyz
x,y,z
-x,y,-z
-x,-y,-z
x,-y,z
1/2+x,1/2+y,z
1/2-x,1/2+y,-z
1/2-x,1/2-y,-z
1/2+x,1/2-y,z
loop_
_atom_site_type_symbol
_atom_site_label
_atom_site_fract_x
_atom_site_fract_y
_atom_site_fract_z
Si Si1 0.112402 0.115938 0.032640
Si Si2 0.140089 0.387294 0.924914
Si Si3 0.865137 0.615440 0.910151
Si Si4 0.533482 0.886625 0.630346
Si Si5 0.786566 0.705446 0.759849
Si Si6 0.794274 0.886384 0.315172
O O1 0.954075 0.150379 0.190987
O O2 0.123885 0.000000 0.018246
O O3 0.219076 0.156625 0.001543
O O4 0.157017 0.156399 0.916254
O O5 0.190079 0.500000 0.882810
O O6 0.266388 0.323354 0.780898
O O7 0.111279 0.343174 0.030219
O O8 0.000000 0.373955 0.000000
O O9 0.852836 0.500000 0.928637
O O10 0.998522 0.642962 0.742986
O O11 0.439115 0.822518 0.658438
O O12 0.699373 0.868819 0.469063
O O13 0.491009 0.000000 0.654598
O O14 0.778975 0.673163 0.684628
O O15 0.794865 0.000000 0.292703
#
# Coordination Sequence:
#
# PCOD8081126 Si02
#       6
#     8   8   8   8   8   8
#     4   9  17  28  47  78 110 136 161 195 246 306
#     4  10  21  36  55  75  93 124 177 230 261 283
#     4   8  16  33  53  74 100 128 165 211 255 299
#     4   9  18  31  51  80 110 138 161 189 244 313
#     4  11  19  30  50  74 105 137 170 208 246 289
#     4  10  18  29  49  80 114 140 160 187 237 311
#
# _framework density 20.002002999999998
#
# number of rings (size 3 to 8) (size 9 to 14) (size 15 to 20)
#    0.000    2.500    0.000    4.500    0.000    5.333 
#    0.000    0.000    0.000   13.000    0.000   11.667 
#    0.000    0.000    0.000    0.000    0.000    0.000 
#
# Total GULP energy -297543.885211 kJ/mol
# GULP energy per Si atom -12397.661884 kJ/mol
# Density = 1.995648 g / cm^3
# Si number density = 20.002003 Si / 1000 Ang^3
#
#
#
# Elastic Constant Matrix: (Units=GPa)
#
#
# Indices 1 2 3 4 5 6 
#
# 1 84.4472 9.5482 29.1881 -0.0009 15.8925 0.0007
# 2 9.5482 42.5076 13.5919 -0.0008 0.9846 0.0007
# 3 29.1881 13.5919 121.2055 -0.0021 -5.2126 0.0012
# 4 -0.0009 -0.0008 -0.0021 23.6136 0.0007 4.8305
# 5 15.8925 0.9846 -5.2126 0.0007 23.8991 -0.0005
# 6 0.0007 0.0007 0.0012 4.8305 -0.0005 14.4573
#
#
#
# Elastic Compliance Matrix: (Units=1/GPa)
#
#
# Indices 1 2 3 4 5 6 
#
# 1 0.015539 -0.001953 -0.004002 0.000001 -0.011126 -0.000001
# 2 -0.001953 0.024708 -0.002310 0.000001 -0.000223 -0.000001
# 3 -0.004002 -0.002310 0.009682 0.000001 0.004868 -0.000001
# 4 0.000001 0.000001 0.000001 0.045455 -0.000002 -0.015188
# 5 -0.011126 -0.000223 0.004868 -0.000002 0.050312 0.000003
# 6 -0.000001 -0.000001 -0.000001 -0.015188 0.000003 0.074244
#
#
# Mechanical properties :
#
#
# Convention : Reuss Voigt Hill
#
# Bulk Modulus (GPa) = 29.94006 39.20186 34.57096
# Shear Modulus (GPa) = 20.19357 25.44947 22.82152
#
# Velocity S-wave (km/s) = 3.18083 3.57087 3.38148
# Velocity P-wave (km/s) = 5.33772 6.05334 5.70676
#
# Compressibility (1/GPa) = 0.03340007
#
# Stress axis : x y z
#
# Youngs Moduli (GPa) = 64.35222 40.47319 103.27943
#
# Poissons Ratio (x) = 0.07906 0.41328
# Poissons Ratio (y) = 0.12570 0.23856
# Poissons Ratio (z) = 0.25751 0.09349
#
# Static dielectric constant tensor:
#      x y z
#    x 3.675470 0.000000 0.082470 
#    y 0.000000 3.568910 0.000000 
#    z 0.082470 0.000000 3.677140 
# 
# 
# High freq. dielectric constant tensor:
#      x y z
#    x 1.768550 0.000000 0.005620 
#    y 0.000000 1.776760 0.000000 
#    z 0.005620 0.000000 1.767220 
# 
# From -- ./inp_files/278040.got.cif
#   From: 2010.06.25/outbox.cif.g09.slc.cpg/sg12_140_cif.got.tgz:278040.got - 2010.06.28 00:19:55.
