data_PCOD8081012
_publ_section_title
;
Structure prediction by ZEFSAII (Michael W. Deem and Ramdas Pophale) SiO2 
 PCOD8081012
Probable space group: C 2/M
;
_chemical_formula_sum "Si O2"
_cell_formula_units_Z 64
_cell_length_a 22.285851
_cell_length_b 12.476652
_cell_length_c 14.429619
_cell_angle_alpha 90.000000
_cell_angle_beta 108.846950
_cell_angle_gamma 90.000000
_cell_volume 3797.081649
_symmetry_space_group_name_H-M "C 2/M"
_symmetry_group_IT_number 12
_symmetry_cell_setting 'monoclinic'
loop_
_space_group_symop_operation_xyz
x,y,z
-x,y,-z
-x,-y,-z
x,-y,z
1/2+x,1/2+y,z
1/2-x,1/2+y,-z
1/2-x,1/2-y,-z
1/2+x,1/2-y,z
loop_
_atom_site_type_symbol
_atom_site_label
_atom_site_fract_x
_atom_site_fract_y
_atom_site_fract_z
Si Si1 0.135651 0.126020 0.449983
Si Si2 0.914639 0.878722 0.897945
Si Si3 0.214153 0.877260 0.672770
Si Si4 0.098357 0.122404 0.737824
Si Si5 0.958456 0.198349 0.107782
Si Si6 0.534962 0.124456 0.237265
Si Si7 0.990164 0.743922 0.596383
Si Si8 0.839689 0.246450 0.722073
O O1 0.176734 0.152552 0.560721
O O2 0.167149 0.187201 0.379427
O O3 0.064844 0.167731 0.429681
O O4 0.132997 0.000000 0.427524
O O5 0.854300 0.841099 0.808793
O O6 0.977878 0.874402 0.865577
O O7 0.903803 0.000000 0.926426
O O8 0.923280 0.801100 0.991265
O O9 0.170367 0.857129 0.741024
O O10 0.274052 0.801484 0.714191
O O11 0.237083 0.000000 0.679446
O O12 0.090327 0.149867 0.842087
O O13 0.054100 0.196149 0.654209
O O14 0.079677 0.000000 0.709113
O O15 0.981168 0.317312 0.148259
O O16 0.523205 0.147002 0.340010
O O17 0.604985 0.165120 0.247440
O O18 0.529559 0.000000 0.213199
O O19 0.000000 0.692909 0.500000
#
# Coordination Sequence:
#
# PCOD8081012 Si02
#       8
#     8   8   8   8   8   8   8   8
#     4  10  19  31  50  74  99 130 165 207 253 290
#     4  10  18  32  55  80 103 124 153 201 255 298
#     4  10  20  32  48  68  97 135 170 204 241 287
#     4  10  18  29  49  75 103 130 157 199 252 301
#     4   9  18  32  53  79 101 124 156 200 251 300
#     4   9  19  33  49  68  97 132 164 200 238 284
#     4  10  18  29  48  75 101 125 159 202 251 296
#     4  10  20  33  48  69  98 132 171 206 237 282
#
# _framework density 16.855049000000001
#
# number of rings (size 3 to 8) (size 9 to 14) (size 15 to 20)
#    0.000    2.250    1.250    3.750    0.000    0.750 
#    0.000    6.250    0.000    6.750    0.000    0.000 
#    0.000    0.000    0.000    0.000    0.000    0.000 
#
# Total GULP energy -396782.586109 kJ/mol
# GULP energy per Si atom -12399.455816 kJ/mol
# Density = 1.681669 g / cm^3
# Si number density = 16.855049 Si / 1000 Ang^3
#
#
#
# Elastic Constant Matrix: (Units=GPa)
#
#
# Indices 1 2 3 4 5 6 
#
# 1 82.6718 32.5809 42.3795 0.0000 -7.2096 0.0000
# 2 32.5809 90.0037 34.0483 0.0000 -1.6742 0.0000
# 3 42.3795 34.0483 93.9859 0.0000 -15.3175 0.0000
# 4 0.0000 0.0000 0.0000 17.7901 0.0000 1.3141
# 5 -7.2096 -1.6742 -15.3175 0.0000 21.3081 0.0000
# 6 0.0000 0.0000 0.0000 1.3141 0.0000 21.4487
#
#
#
# Elastic Compliance Matrix: (Units=1/GPa)
#
#
# Indices 1 2 3 4 5 6 
#
# 1 0.016759 -0.003770 -0.006021 0.000000 0.001046 0.000000
# 2 -0.003770 0.013857 -0.003795 0.000000 -0.002915 0.000000
# 3 -0.006021 -0.003795 0.016253 0.000000 0.009348 0.000000
# 4 0.000000 0.000000 0.000000 0.056467 0.000000 -0.003460
# 5 0.001046 -0.002915 0.009348 0.000000 0.053776 0.000000
# 6 0.000000 0.000000 0.000000 -0.003460 0.000000 0.046835
#
#
# Mechanical properties :
#
#
# Convention : Reuss Voigt Hill
#
# Bulk Modulus (GPa) = 50.76676 53.85321 52.30998
# Shear Modulus (GPa) = 21.03635 22.61955 21.82795
#
# Velocity S-wave (km/s) = 3.53664 3.66731 3.60257
# Velocity P-wave (km/s) = 6.84559 7.06770 6.95753
#
# Compressibility (1/GPa) = 0.01969793
#
# Stress axis : x y z
#
# Youngs Moduli (GPa) = 59.66837 72.16710 61.52620
#
# Poissons Ratio (x) = 0.27204 0.37044
# Poissons Ratio (y) = 0.22493 0.23350
# Poissons Ratio (z) = 0.35926 0.27389
#
# Static dielectric constant tensor:
#      x y z
#    x 3.068110 0.000000 -0.150220 
#    y 0.000000 2.979420 0.000000 
#    z -0.150220 0.000000 3.241700 
# 
# 
# High freq. dielectric constant tensor:
#      x y z
#    x 1.635920 0.000000 -0.011350 
#    y 0.000000 1.636390 0.000000 
#    z -0.011350 0.000000 1.653190 
# 
# From -- ./inp_files/232515.got.cif
#   From: 2010.06.25/outbox.cif.g09.slc.cpg/sg12_117_cif.got.tgz:232515.got - 2010.06.28 00:19:55.
