data_PCOD8081406
_publ_section_title
;
Structure prediction by ZEFSAII (Michael W. Deem and Ramdas Pophale) SiO2 
 PCOD8081406
Probable space group: C 2/M
;
_chemical_formula_sum "Si O2"
_cell_formula_units_Z 56
_cell_length_a 23.598746
_cell_length_b 8.710410
_cell_length_c 19.083977
_cell_angle_alpha 90.000000
_cell_angle_beta 51.245348
_cell_angle_gamma 90.000000
_cell_volume 3059.133183
_symmetry_space_group_name_H-M "C 2/M"
_symmetry_group_IT_number 12
_symmetry_cell_setting 'monoclinic'
loop_
_space_group_symop_operation_xyz
x,y,z
-x,y,-z
-x,-y,-z
x,-y,z
1/2+x,1/2+y,z
1/2-x,1/2+y,-z
1/2-x,1/2-y,-z
1/2+x,1/2-y,z
loop_
_atom_site_type_symbol
_atom_site_label
_atom_site_fract_x
_atom_site_fract_y
_atom_site_fract_z
Si Si1 0.491820 0.322020 0.288347
Si Si2 0.815600 0.178904 0.771538
Si Si3 0.359769 0.179111 0.872591
Si Si4 0.658348 0.176960 0.848533
Si Si5 0.590402 0.320276 0.033952
Si Si6 0.533744 0.678518 0.404251
Si Si7 0.058656 0.679113 0.800113
O O1 0.509921 0.500000 0.260220
O O2 0.559338 0.216798 0.215201
O O3 0.477721 0.295754 0.382261
O O4 0.427903 0.265206 0.285497
O O5 0.804824 0.258340 0.855833
O O6 0.744402 0.211866 0.780445
O O7 0.886401 0.246799 0.676153
O O8 0.828123 0.000000 0.776478
O O9 0.349507 0.260986 0.956074
O O10 0.347269 0.000000 0.892311
O O11 0.628091 0.215011 0.794879
O O12 0.643311 0.000000 0.880465
O O13 0.617944 0.283783 0.935211
O O14 0.579037 0.500000 0.051416
O O15 0.513365 0.238335 0.105305
O O16 0.500000 0.758507 0.500000
O O17 0.544524 0.500000 0.411840
O O18 0.050147 0.500000 0.792282
#
# Coordination Sequence:
#
# PCOD8081406 Si02
#       7
#     8   8   8   8   8   8   8
#     4   9  16  28  48  72  96 122 154 192 231 273
#     4   9  18  33  50  69  95 124 156 192 232 282
#     4  10  18  30  48  68  94 125 156 194 237 280
#     4  10  21  34  47  65  92 128 163 196 235 275
#     4  11  21  32  48  69  92 122 162 204 239 271
#     4   8  14  27  51  79  98 114 145 190 234 277
#     4  10  19  32  49  67  92 126 163 199 232 271
#
# _framework density 18.305841000000001
#
# number of rings (size 3 to 8) (size 9 to 14) (size 15 to 20)
#    0.000    2.429    0.000    6.429    0.000    4.000 
#    0.000    0.000    0.000   11.571    0.000    0.000 
#    0.000    0.000    0.000    0.000    0.000    3.571 
#
# Total GULP energy -347012.220830 kJ/mol
# GULP energy per Si atom -12393.293601 kJ/mol
# Density = 1.826418 g / cm^3
# Si number density = 18.305841 Si / 1000 Ang^3
#
#
#
# Elastic Constant Matrix: (Units=GPa)
#
#
# Indices 1 2 3 4 5 6 
#
# 1 138.6526 35.8382 57.9874 0.0016 24.7443 -0.0067
# 2 35.8382 55.5028 25.9255 0.0034 10.6687 -0.0030
# 3 57.9874 25.9255 73.0103 -0.0012 26.8163 0.0143
# 4 0.0016 0.0034 -0.0012 12.2575 0.0001 6.3813
# 5 24.7443 10.6687 26.8163 0.0001 24.7651 0.0004
# 6 -0.0067 -0.0030 0.0143 6.3813 0.0004 21.8066
#
#
#
# Elastic Compliance Matrix: (Units=1/GPa)
#
#
# Indices 1 2 3 4 5 6 
#
# 1 0.011502 -0.003729 -0.006940 -0.000006 -0.002370 0.000009
# 2 -0.003729 0.022850 -0.004823 -0.000011 -0.000895 0.000008
# 3 -0.006940 -0.004823 0.029241 0.000020 -0.022651 -0.000027
# 4 -0.000006 -0.000011 0.000020 0.096245 -0.000011 -0.028164
# 5 -0.002370 -0.000895 -0.022651 -0.000011 0.067660 0.000016
# 6 0.000009 0.000008 -0.000027 -0.028164 0.000016 0.054099
#
#
# Mechanical properties :
#
#
# Convention : Reuss Voigt Hill
#
# Bulk Modulus (GPa) = 30.66797 56.29645 43.48221
# Shear Modulus (GPa) = 15.45824 21.59350 18.52587
#
# Velocity S-wave (km/s) = 2.90908 3.43825 3.18468
# Velocity P-wave (km/s) = 5.29841 6.82511 6.10964
#
# Compressibility (1/GPa) = 0.03260731
#
# Stress axis : x y z
#
# Youngs Moduli (GPa) = 86.94313 43.76351 34.19836
#
# Poissons Ratio (x) = 0.16320 0.23734
# Poissons Ratio (y) = 0.32423 0.16495
# Poissons Ratio (z) = 0.60340 0.21109
#
# Static dielectric constant tensor:
#      x y z
#    x 3.702710 0.000000 0.423550 
#    y 0.000000 3.271250 0.000000 
#    z 0.423550 0.000000 3.398130 
# 
# 
# High freq. dielectric constant tensor:
#      x y z
#    x 1.709430 0.000000 0.030760 
#    y 0.000000 1.700630 0.000000 
#    z 0.030760 0.000000 1.674440 
# 
# From -- ./inp_files/287395.got.cif
#   From: 2010.06.25/outbox.cif.g09.slc.cpg/sg12_144_cif.got.tgz:287395.got - 2010.06.28 00:19:55.
