data_PCOD8081088
_publ_section_title
;
Structure prediction by ZEFSAII (Michael W. Deem and Ramdas Pophale) SiO2 
 PCOD8081088
Probable space group: C 2/M
;
_chemical_formula_sum "Si O2"
_cell_formula_units_Z 56
_cell_length_a 18.940708
_cell_length_b 8.823154
_cell_length_c 23.326647
_cell_angle_alpha 90.000000
_cell_angle_beta 51.697671
_cell_angle_gamma 90.000000
_cell_volume 3059.175279
_symmetry_space_group_name_H-M "C 2/M"
_symmetry_group_IT_number 12
_symmetry_cell_setting 'monoclinic'
loop_
_space_group_symop_operation_xyz
x,y,z
-x,y,-z
-x,-y,-z
x,-y,z
1/2+x,1/2+y,z
1/2-x,1/2+y,-z
1/2-x,1/2-y,-z
1/2+x,1/2-y,z
loop_
_atom_site_type_symbol
_atom_site_label
_atom_site_fract_x
_atom_site_fract_y
_atom_site_fract_z
Si Si1 0.997431 0.324825 0.938926
Si Si2 0.103501 0.327250 0.782248
Si Si3 0.420945 0.178989 0.499598
Si Si4 0.760989 0.327503 0.376626
Si Si5 0.065630 0.678822 0.636322
Si Si6 0.341927 0.179789 0.933011
Si Si7 0.955532 0.823230 0.784807
O O1 0.977654 0.500000 0.959529
O O2 0.916769 0.261305 0.940553
O O3 0.092365 0.300549 0.856513
O O4 0.000000 0.242665 0.000000
O O5 0.069683 0.500000 0.784768
O O6 0.204468 0.308520 0.706973
O O7 0.041105 0.207127 0.781850
O O8 0.500000 0.246893 0.500000
O O9 0.324427 0.221773 0.573413
O O10 0.431085 0.242496 0.430054
O O11 0.427453 0.000000 0.495140
O O12 0.732415 0.500000 0.403519
O O13 0.840614 0.277339 0.379751
O O14 0.050993 0.500000 0.645913
O O15 0.979691 0.756316 0.710053
O O16 0.368089 0.242458 0.856693
O O17 0.334718 0.000000 0.933750
O O18 0.250000 0.250000 0.000000
O O19 0.935588 0.000000 0.789345
#
# Coordination Sequence:
#
# PCOD8081088 Si02
#       7
#     8   8   8   8   8   8   8
#     4   8  14  27  49  73  96 126 162 198 237 283
#     4   8  15  29  48  71  98 126 157 198 248 290
#     4  10  21  35  50  70  99 132 160 192 242 299
#     4   9  17  30  50  73  95 124 162 202 241 282
#     4   9  18  34  53  72  96 125 159 200 244 289
#     4  10  19  32  50  72 102 135 165 201 244 289
#     4  10  18  29  49  75  98 123 162 206 244 285
#
# _framework density 18.305588
#
# number of rings (size 3 to 8) (size 9 to 14) (size 15 to 20)
#    0.000    2.857    0.000    3.857    0.000    3.143 
#    0.000    1.429    0.000   12.429    0.000    0.000 
#    0.000    0.000    0.000    0.000    0.000    0.000 
#
# Total GULP energy -346961.064529 kJ/mol
# GULP energy per Si atom -12391.466590 kJ/mol
# Density = 1.826392 g / cm^3
# Si number density = 18.305588 Si / 1000 Ang^3
#
#
#
# Elastic Constant Matrix: (Units=GPa)
#
#
# Indices 1 2 3 4 5 6 
#
# 1 71.2974 18.7487 67.9329 0.0000 6.4322 -0.0002
# 2 18.7487 50.6152 38.0653 0.0001 -4.4258 -0.0005
# 3 67.9329 38.0653 189.8697 0.0000 6.1877 -0.0001
# 4 0.0000 0.0001 0.0000 31.4516 0.0000 -7.3227
# 5 6.4322 -4.4258 6.1877 0.0000 28.1442 0.0000
# 6 -0.0002 -0.0005 -0.0001 -7.3227 0.0000 13.3337
#
#
#
# Elastic Compliance Matrix: (Units=1/GPa)
#
#
# Indices 1 2 3 4 5 6 
#
# 1 0.021979 -0.003144 -0.007104 0.000000 -0.003956 0.000000
# 2 -0.003144 0.024353 -0.003934 0.000000 0.005413 0.000001
# 3 -0.007104 -0.003934 0.008626 0.000000 -0.000891 0.000000
# 4 0.000000 0.000000 0.000000 0.036456 0.000000 0.020021
# 5 -0.003956 0.005413 -0.000891 0.000000 0.037483 0.000000
# 6 0.000000 0.000001 0.000000 0.020021 0.000000 0.085994
#
#
# Mechanical properties :
#
#
# Convention : Reuss Voigt Hill
#
# Bulk Modulus (GPa) = 37.60332 62.36401 49.98367
# Shear Modulus (GPa) = 19.83181 27.05492 23.44336
#
# Velocity S-wave (km/s) = 3.29504 3.84859 3.58252
# Velocity P-wave (km/s) = 5.92140 7.34106 6.66911
#
# Compressibility (1/GPa) = 0.02659340
#
# Stress axis : x y z
#
# Youngs Moduli (GPa) = 45.49882 41.06208 115.92394
#
# Poissons Ratio (x) = 0.12911 0.82357
# Poissons Ratio (y) = 0.14306 0.45603
# Poissons Ratio (z) = 0.32324 0.16153
#
# Static dielectric constant tensor:
#      x y z
#    x 3.200230 0.000000 0.268460 
#    y 0.000000 3.095960 0.000000 
#    z 0.268460 0.000000 3.875240 
# 
# 
# High freq. dielectric constant tensor:
#      x y z
#    x 1.660690 0.000000 0.008090 
#    y 0.000000 1.688150 0.000000 
#    z 0.008090 0.000000 1.737270 
# 
# From -- ./inp_files/342219.got.cif
#   From: 2010.06.25/outbox.cif.g09.slc.cpg/sg12_172_cif.got.tgz:342219.got - 2010.06.28 00:19:55.
