data_PCOD8081239
_publ_section_title
;
Structure prediction by ZEFSAII (Michael W. Deem and Ramdas Pophale) SiO2 
 PCOD8081239
Probable space group: C 2/M
;
_chemical_formula_sum "Si O2"
_cell_formula_units_Z 56
_cell_length_a 29.255955
_cell_length_b 9.184045
_cell_length_c 29.098056
_cell_angle_alpha 90.000000
_cell_angle_beta 152.687664
_cell_angle_gamma 90.000000
_cell_volume 3587.354942
_symmetry_space_group_name_H-M "C 2/M"
_symmetry_group_IT_number 12
_symmetry_cell_setting 'monoclinic'
loop_
_space_group_symop_operation_xyz
x,y,z
-x,y,-z
-x,-y,-z
x,-y,z
1/2+x,1/2+y,z
1/2-x,1/2+y,-z
1/2-x,1/2-y,-z
1/2+x,1/2-y,z
loop_
_atom_site_type_symbol
_atom_site_label
_atom_site_fract_x
_atom_site_fract_y
_atom_site_fract_z
Si Si1 0.162782 0.167193 0.367398
Si Si2 0.186705 0.331698 0.716508
Si Si3 0.614318 0.169008 0.409817
Si Si4 0.636391 0.327089 0.582706
Si Si5 0.403572 0.669387 0.890335
Si Si6 0.005655 0.667690 0.610826
Si Si7 0.670414 0.668047 0.272913
O O1 0.278990 0.215197 0.473446
O O2 0.096488 0.253471 0.345041
O O3 0.120846 0.198165 0.278469
O O4 0.152321 0.000000 0.371378
O O5 0.190174 0.500000 0.703446
O O6 0.127479 0.240586 0.625391
O O7 0.300544 0.271737 0.821370
O O8 0.125551 0.316392 0.709887
O O9 0.526399 0.215674 0.366467
O O10 0.610082 0.000000 0.395637
O O11 0.633567 0.500000 0.583665
O O12 0.544655 0.272154 0.470886
O O13 0.737084 0.275179 0.648445
O O14 0.409753 0.500000 0.906604
O O15 0.405454 0.699551 0.836955
O O16 0.500000 0.746420 0.000000
O O17 0.971861 0.500000 0.572554
O O18 0.707534 0.500000 0.304039
#
# Coordination Sequence:
#
# PCOD8081239 Si02
#       7
#     8   8   8   8   8   8   8
#     4   9  16  27  41  58  81 110 143 174 206 244
#     4   9  18  30  45  60  81 114 144 170 207 256
#     4   9  17  27  40  57  81 110 143 179 204 235
#     4  11  20  27  39  61  88 114 143 177 207 239
#     4   8  14  26  46  70  87 100 131 180 220 247
#     4  10  18  30  43  57  81 117 150 170 202 250
#     4   9  16  29  46  62  85 116 144 171 209 255
#
# _framework density 15.610388
#
# number of rings (size 3 to 8) (size 9 to 14) (size 15 to 20)
#    0.000    2.714    1.429    2.571    0.000    3.429 
#    0.000    0.000    0.000    6.857    0.000    1.000 
#    0.000    0.000    0.000    0.000    0.000    0.000 
#
# Total GULP energy -346954.874244 kJ/mol
# GULP energy per Si atom -12391.245509 kJ/mol
# Density = 1.557486 g / cm^3
# Si number density = 15.610388 Si / 1000 Ang^3
#
#
#
# Elastic Constant Matrix: (Units=GPa)
#
#
# Indices 1 2 3 4 5 6 
#
# 1 150.6686 34.9850 57.3233 0.0000 -0.3222 0.0000
# 2 34.9850 49.1205 21.5442 0.0000 1.3376 0.0004
# 3 57.3233 21.5442 73.1747 -0.0001 -3.4258 0.0000
# 4 0.0000 0.0000 -0.0001 5.6807 -0.0001 -2.9738
# 5 -0.3222 1.3376 -3.4258 -0.0001 13.0548 0.0000
# 6 0.0000 0.0004 0.0000 -2.9738 0.0000 21.5307
#
#
#
# Elastic Compliance Matrix: (Units=1/GPa)
#
#
# Indices 1 2 3 4 5 6 
#
# 1 0.010209 -0.004262 -0.006794 0.000000 -0.001094 0.000000
# 2 -0.004262 0.025391 -0.004317 -0.000001 -0.003840 -0.000001
# 3 -0.006794 -0.004317 0.020524 0.000001 0.005661 0.000000
# 4 0.000000 -0.000001 0.000001 0.189754 0.000001 0.026209
# 5 -0.001094 -0.003840 0.005661 0.000001 0.078452 0.000000
# 6 0.000000 -0.000001 0.000000 0.026209 0.000000 0.050065
#
#
# Mechanical properties :
#
#
# Convention : Reuss Voigt Hill
#
# Bulk Modulus (GPa) = 39.40233 55.62988 47.51611
# Shear Modulus (GPa) = 12.08891 18.66065 15.37478
#
# Velocity S-wave (km/s) = 2.78585 3.46121 3.14173
# Velocity P-wave (km/s) = 5.97025 7.18937 6.60798
#
# Compressibility (1/GPa) = 0.02537921
#
# Stress axis : x y z
#
# Youngs Moduli (GPa) = 97.95117 39.38353 48.72247
#
# Poissons Ratio (x) = 0.16783 0.33103
# Poissons Ratio (y) = 0.41742 0.21034
# Poissons Ratio (z) = 0.66550 0.17002
#
# Static dielectric constant tensor:
#      x y z
#    x 3.166870 0.000000 0.007790 
#    y 0.000000 2.801140 0.000000 
#    z 0.007790 0.000000 2.848050 
# 
# 
# High freq. dielectric constant tensor:
#      x y z
#    x 1.605450 0.000000 -0.001230 
#    y 0.000000 1.581310 0.000000 
#    z -0.001230 0.000000 1.549290 
# 
# From -- ./inp_files/247743.got.cif
#   From: 2010.06.25/outbox.cif.g09.slc.cpg/sg12_124_cif.got.tgz:247743.got - 2010.06.28 00:19:55.
