data_PCOD8081704
_publ_section_title
;
Structure prediction by ZEFSAII (Michael W. Deem and Ramdas Pophale) SiO2 
 PCOD8081704
Probable space group: C 2/M
;
_chemical_formula_sum "Si O2"
_cell_formula_units_Z 56
_cell_length_a 18.390785
_cell_length_b 13.530994
_cell_length_c 14.562361
_cell_angle_alpha 90.000000
_cell_angle_beta 61.733523
_cell_angle_gamma 90.000000
_cell_volume 3191.660396
_symmetry_space_group_name_H-M "C 2/M"
_symmetry_group_IT_number 12
_symmetry_cell_setting 'monoclinic'
loop_
_space_group_symop_operation_xyz
x,y,z
-x,y,-z
-x,-y,-z
x,-y,z
1/2+x,1/2+y,z
1/2-x,1/2+y,-z
1/2-x,1/2-y,-z
1/2+x,1/2-y,z
loop_
_atom_site_type_symbol
_atom_site_label
_atom_site_fract_x
_atom_site_fract_y
_atom_site_fract_z
Si Si1 0.293094 0.386514 0.278193
Si Si2 0.952064 0.114482 0.671265
Si Si3 0.810331 0.201516 0.649690
Si Si4 0.801530 0.612334 0.136808
Si Si5 0.902500 0.203052 0.059008
Si Si6 0.345821 0.387085 0.907907
Si Si7 0.141214 0.885371 0.560146
O O1 0.263724 0.500000 0.287538
O O2 0.214491 0.314676 0.311903
O O3 0.363522 0.365972 0.160841
O O4 0.329885 0.361557 0.355136
O O5 0.903352 0.182607 0.628250
O O6 0.920059 0.133696 0.793080
O O7 0.046311 0.146431 0.609769
O O8 0.938590 0.000000 0.651891
O O9 0.748764 0.127120 0.738834
O O10 0.805848 0.178929 0.543720
O O11 0.832641 0.500000 0.112657
O O12 0.881862 0.681999 0.089243
O O13 0.741500 0.638808 0.087399
O O14 0.860170 0.179125 0.987770
O O15 0.000000 0.185215 0.000000
O O16 0.346612 0.500000 0.939798
O O17 0.152776 0.000000 0.529251
#
# Coordination Sequence:
#
# PCOD8081704 Si02
#       7
#     8   8   8   8   8   8   8
#     4  10  22  35  47  69  98 128 161 193 230 283
#     4   9  17  29  50  79 100 118 153 200 242 276
#     4  10  18  31  51  73  96 125 158 193 237 281
#     4   9  19  34  50  71  96 123 159 196 232 280
#     4  11  21  32  50  72  95 126 158 193 239 283
#     4   9  17  31  50  70  96 127 157 194 235 275
#     4  10  18  30  50  75 101 124 152 195 241 280
#
# _framework density 17.545726999999999
#
# number of rings (size 3 to 8) (size 9 to 14) (size 15 to 20)
#    0.000    2.286    0.000    4.714    0.000    3.714 
#    0.000    0.000    0.000    1.714    0.000    0.000 
#    0.000    0.000    0.000    0.000    0.000    0.000 
#
# Total GULP energy -347207.710262 kJ/mol
# GULP energy per Si atom -12400.275367 kJ/mol
# Density = 1.750579 g / cm^3
# Si number density = 17.545727 Si / 1000 Ang^3
#
#
#
# Elastic Constant Matrix: (Units=GPa)
#
#
# Indices 1 2 3 4 5 6 
#
# 1 53.0133 31.5801 22.3197 0.0000 9.6494 0.0000
# 2 31.5801 82.6066 26.5483 0.0000 4.8040 0.0000
# 3 22.3197 26.5483 78.4624 0.0000 20.1204 0.0000
# 4 0.0000 0.0000 0.0000 20.6768 0.0000 2.0660
# 5 9.6494 4.8040 20.1204 0.0000 21.5527 0.0000
# 6 0.0000 0.0000 0.0000 2.0660 0.0000 23.2376
#
#
#
# Elastic Compliance Matrix: (Units=1/GPa)
#
#
# Indices 1 2 3 4 5 6 
#
# 1 0.026639 -0.008897 -0.002653 0.000000 -0.007467 0.000000
# 2 -0.008897 0.016600 -0.004152 0.000000 0.004160 0.000000
# 3 -0.002653 -0.004152 0.018883 0.000000 -0.015515 0.000000
# 4 0.000000 0.000000 0.000000 0.048797 0.000000 -0.004338
# 5 -0.007467 0.004160 -0.015515 0.000000 0.063298 0.000000
# 6 0.000000 0.000000 0.000000 -0.004338 0.000000 0.043419
#
#
# Mechanical properties :
#
#
# Convention : Reuss Voigt Hill
#
# Bulk Modulus (GPa) = 32.55478 41.66426 37.10952
# Shear Modulus (GPa) = 19.28418 22.00236 20.64327
#
# Velocity S-wave (km/s) = 3.31884 3.54503 3.43380
# Velocity P-wave (km/s) = 5.76895 6.36820 6.07597
#
# Compressibility (1/GPa) = 0.03071746
#
# Stress axis : x y z
#
# Youngs Moduli (GPa) = 37.53855 60.24270 52.95755
#
# Poissons Ratio (x) = 0.53600 0.14047
# Poissons Ratio (y) = 0.33399 0.21990
# Poissons Ratio (z) = 0.09957 0.25015
#
# Static dielectric constant tensor:
#      x y z
#    x 3.130190 0.000000 0.071450 
#    y 0.000000 3.159080 0.000000 
#    z 0.071450 0.000000 3.336810 
# 
# 
# High freq. dielectric constant tensor:
#      x y z
#    x 1.663570 0.000000 0.010730 
#    y 0.000000 1.664580 0.000000 
#    z 0.010730 0.000000 1.690620 
# 
# From -- ./inp_files/223738.got.cif
#   From: 2010.06.25/outbox.cif.g09.slc.cpg/sg12_112_cif.got.tgz:223738.got - 2010.06.28 00:19:55.
