data_PCOD8081071
_publ_section_title
;
Structure prediction by ZEFSAII (Michael W. Deem and Ramdas Pophale) SiO2 
 PCOD8081071
Probable space group: C 2/M
;
_chemical_formula_sum "Si O2"
_cell_formula_units_Z 64
_cell_length_a 18.648146
_cell_length_b 9.157595
_cell_length_c 28.410261
_cell_angle_alpha 90.000000
_cell_angle_beta 132.490929
_cell_angle_gamma 90.000000
_cell_volume 3577.553980
_symmetry_space_group_name_H-M "C 2/M"
_symmetry_group_IT_number 12
_symmetry_cell_setting 'monoclinic'
loop_
_space_group_symop_operation_xyz
x,y,z
-x,y,-z
-x,-y,-z
x,-y,z
1/2+x,1/2+y,z
1/2-x,1/2+y,-z
1/2-x,1/2-y,-z
1/2+x,1/2-y,z
loop_
_atom_site_type_symbol
_atom_site_label
_atom_site_fract_x
_atom_site_fract_y
_atom_site_fract_z
Si Si1 0.783332 0.673252 0.858382
Si Si2 0.914688 0.660935 0.500002
Si Si3 0.428108 0.673113 0.258174
Si Si4 0.207079 0.327754 0.638049
Si Si5 0.915956 0.327210 0.995391
Si Si6 0.074745 0.826961 0.244127
Si Si7 0.542760 0.172402 0.133353
Si Si8 0.042380 0.827719 0.622945
O O1 0.776306 0.500000 0.853958
O O2 0.678348 0.741936 0.799840
O O3 0.862721 0.722412 0.854747
O O4 0.814877 0.724979 0.925809
O O5 0.899091 0.500000 0.515315
O O6 0.819198 0.710798 0.428224
O O7 0.000000 0.655100 0.500000
O O8 0.943039 0.772610 0.553971
O O9 0.422237 0.500000 0.252517
O O10 0.505127 0.732886 0.254518
O O11 0.463151 0.720990 0.325318
O O12 0.192189 0.500000 0.640053
O O13 0.316393 0.275817 0.695667
O O14 0.138527 0.242346 0.643593
O O15 0.920554 0.500000 0.994679
O O16 0.942517 0.282102 0.060851
O O17 0.000000 0.260962 0.000000
O O18 0.038896 0.757776 0.180020
O O19 0.068678 0.000000 0.236901
O O20 0.546277 0.000000 0.144720
O O21 0.049526 0.000000 0.619774
#
# Coordination Sequence:
#
# PCOD8081071 Si02
#       8
#     8   8   8   8   8   8   8   8
#     4   8  13  25  47  70  89 114 150 187 222 264
#     4   8  15  29  47  67  91 118 147 178 217 268
#     4   9  18  30  43  63  92 123 152 183 221 265
#     4   9  18  32  49  67  89 120 153 181 215 267
#     4   7  11  21  41  68  91 111 141 183 226 265
#     4  10  20  33  46  62  90 126 156 180 216 269
#     4   9  16  28  48  72  92 111 146 194 231 259
#     4  10  18  29  49  74  94 112 143 190 231 259
#
# _framework density 17.889316999999998
#
# number of rings (size 3 to 8) (size 9 to 14) (size 15 to 20)
#    0.000    3.250    0.000    3.375    0.000    3.750 
#    0.000    2.500    0.000    4.125    0.000    0.000 
#    0.000    0.000    0.000    0.000    0.000    0.000 
#
# Total GULP energy -396422.295852 kJ/mol
# GULP energy per Si atom -12388.196745 kJ/mol
# Density = 1.784860 g / cm^3
# Si number density = 17.889317 Si / 1000 Ang^3
#
#
#
# Elastic Constant Matrix: (Units=GPa)
#
#
# Indices 1 2 3 4 5 6 
#
# 1 75.6683 24.4341 60.3412 0.0000 -18.6597 0.0000
# 2 24.4341 32.0894 36.3175 0.0000 -6.5603 0.0000
# 3 60.3412 36.3175 172.2985 0.0000 -20.5970 0.0000
# 4 0.0000 0.0000 0.0000 24.3939 0.0000 -4.0836
# 5 -18.6597 -6.5603 -20.5970 0.0000 10.9520 0.0000
# 6 0.0000 0.0000 0.0000 -4.0836 0.0000 13.7878
#
#
#
# Elastic Compliance Matrix: (Units=1/GPa)
#
#
# Indices 1 2 3 4 5 6 
#
# 1 0.027845 -0.010183 -0.003436 0.000000 0.034881 0.000000
# 2 -0.010183 0.045645 -0.006270 0.000000 -0.001800 0.000000
# 3 -0.003436 -0.006270 0.009262 0.000000 0.007810 0.000000
# 4 0.000000 0.000000 0.000000 0.043132 0.000000 0.012775
# 5 0.034881 -0.001800 0.007810 0.000000 0.164347 0.000000
# 6 0.000000 0.000000 0.000000 0.012775 0.000000 0.076312
#
#
# Mechanical properties :
#
#
# Convention : Reuss Voigt Hill
#
# Bulk Modulus (GPa) = 23.26936 58.02685 40.64811
# Shear Modulus (GPa) = 11.88649 20.42430 16.15540
#
# Velocity S-wave (km/s) = 2.58048 3.38258 3.00838
# Velocity P-wave (km/s) = 4.68126 6.91106 5.90241
#
# Compressibility (1/GPa) = 0.04297496
#
# Stress axis : x y z
#
# Youngs Moduli (GPa) = 35.91304 21.90829 107.96446
#
# Poissons Ratio (x) = 0.22309 0.37092
# Poissons Ratio (y) = 0.36570 0.67694
# Poissons Ratio (z) = 0.12338 0.13737
#
# Static dielectric constant tensor:
#      x y z
#    x 3.135730 0.000000 0.191500 
#    y 0.000000 2.900810 0.000000 
#    z 0.191500 0.000000 3.973190 
# 
# 
# High freq. dielectric constant tensor:
#      x y z
#    x 1.654500 0.000000 0.004360 
#    y 0.000000 1.648900 0.000000 
#    z 0.004360 0.000000 1.721590 
# 
# From -- ./inp_files/365242.got.cif
#   From: 2010.06.25/outbox.cif.g09.slc.cpg/sg12_183_cif.got.tgz:365242.got - 2010.06.28 00:19:55.
