data_PCOD8081744
_publ_section_title
;
Structure prediction by ZEFSAII (Michael W. Deem and Ramdas Pophale) SiO2 
 PCOD8081744
Probable space group: C 2/M
;
_chemical_formula_sum "Si O2"
_cell_formula_units_Z 64
_cell_length_a 23.800441
_cell_length_b 13.467561
_cell_length_c 12.160615
_cell_angle_alpha 90.000000
_cell_angle_beta 109.035821
_cell_angle_gamma 90.000000
_cell_volume 3684.732575
_symmetry_space_group_name_H-M "C 2/M"
_symmetry_group_IT_number 12
_symmetry_cell_setting 'monoclinic'
loop_
_space_group_symop_operation_xyz
x,y,z
-x,y,-z
-x,-y,-z
x,-y,z
1/2+x,1/2+y,z
1/2-x,1/2+y,-z
1/2-x,1/2-y,-z
1/2+x,1/2-y,z
loop_
_atom_site_type_symbol
_atom_site_label
_atom_site_fract_x
_atom_site_fract_y
_atom_site_fract_z
Si Si1 0.704137 0.114000 0.414340
Si Si2 0.431015 0.886510 0.618762
Si Si3 0.608044 0.241376 0.593214
Si Si4 0.517895 0.716660 0.726183
Si Si5 0.597111 0.613577 0.391534
Si Si6 0.762991 0.289181 0.337354
Si Si7 0.441891 0.387325 0.036322
Si Si8 0.348562 0.383003 0.802085
O O1 0.632760 0.126712 0.363259
O O2 0.735304 0.180288 0.340980
O O3 0.730451 0.146416 0.548142
O O4 0.721972 0.000000 0.404937
O O5 0.424417 0.851297 0.487352
O O6 0.480605 0.819484 0.711869
O O7 0.452721 0.000000 0.634800
O O8 0.567522 0.279301 0.664691
O O9 0.621324 0.325251 0.510076
O O10 0.673107 0.215098 0.682193
O O11 0.473730 0.627311 0.665524
O O12 0.550557 0.690287 0.859992
O O13 0.612876 0.500000 0.422335
O O14 0.627931 0.656458 0.301014
O O15 0.718922 0.346481 0.225996
O O16 0.429073 0.500000 0.070731
O O17 0.500000 0.389164 0.000000
O O18 0.388251 0.343520 0.928321
O O19 0.354082 0.500000 0.805916
#
# Coordination Sequence:
#
# PCOD8081744 Si02
#       8
#     8   8   8   8   8   8   8   8
#     4   9  17  29  48  73 100 130 165 205 248 295
#     4   9  18  33  53  76 101 133 172 211 249 289
#     4  10  22  31  45  77 108 139 166 191 249 314
#     4  11  20  33  50  74 105 134 167 205 250 303
#     4  10  18  30  50  78 107 130 160 205 257 313
#     4  10  18  31  47  69 102 135 166 204 245 294
#     4  10  20  35  55  78 100 126 166 213 259 299
#     4  10  19  32  54  78  96 126 171 212 250 290
#
# _framework density 17.368967999999999
#
# number of rings (size 3 to 8) (size 9 to 14) (size 15 to 20)
#    0.000    2.125    1.250    5.250    0.000    4.500 
#    0.000    0.625    0.000    1.125    0.000    0.000 
#    0.000    0.000    0.000    0.000    0.000    0.000 
#
# Total GULP energy -396732.359491 kJ/mol
# GULP energy per Si atom -12397.886234 kJ/mol
# Density = 1.732944 g / cm^3
# Si number density = 17.368968 Si / 1000 Ang^3
#
#
#
# Elastic Constant Matrix: (Units=GPa)
#
#
# Indices 1 2 3 4 5 6 
#
# 1 85.8215 17.2208 49.7718 0.0000 14.8788 0.0000
# 2 17.2208 82.0898 39.8016 0.0000 0.2585 0.0000
# 3 49.7718 39.8016 90.4012 0.0000 18.5958 0.0000
# 4 0.0000 0.0000 0.0000 17.3322 0.0000 4.2761
# 5 14.8788 0.2585 18.5958 0.0000 26.6870 0.0000
# 6 0.0000 0.0000 0.0000 4.2761 0.0000 21.1296
#
#
#
# Elastic Compliance Matrix: (Units=1/GPa)
#
#
# Indices 1 2 3 4 5 6 
#
# 1 0.017445 0.000870 -0.009321 0.000000 -0.003239 0.000000
# 2 0.000870 0.016220 -0.008741 0.000000 0.005449 0.000000
# 3 -0.009321 -0.008741 0.022128 0.000000 -0.010137 0.000000
# 4 0.000000 0.000000 0.000000 0.060728 0.000000 -0.012290
# 5 -0.003239 0.005449 -0.010137 0.000000 0.046288 0.000000
# 6 0.000000 0.000000 0.000000 -0.012290 0.000000 0.049814
#
#
# Mechanical properties :
#
#
# Convention : Reuss Voigt Hill
#
# Bulk Modulus (GPa) = 46.71191 52.43343 49.57267
# Shear Modulus (GPa) = 19.67383 23.13099 21.40241
#
# Velocity S-wave (km/s) = 3.36921 3.65326 3.51411
# Velocity P-wave (km/s) = 6.48751 6.93171 6.71328
#
# Compressibility (1/GPa) = 0.02140782
#
# Stress axis : x y z
#
# Youngs Moduli (GPa) = 57.32299 61.65090 45.19221
#
# Poissons Ratio (x) = -0.05364 0.42125
# Poissons Ratio (y) = -0.04988 0.39504
# Poissons Ratio (z) = 0.53433 0.53891
#
# Static dielectric constant tensor:
#      x y z
#    x 3.257250 0.000000 0.212150 
#    y 0.000000 3.271800 0.000000 
#    z 0.212150 0.000000 3.069030 
# 
# 
# High freq. dielectric constant tensor:
#      x y z
#    x 1.671520 0.000000 0.022880 
#    y 0.000000 1.669690 0.000000 
#    z 0.022880 0.000000 1.632030 
# 
# From -- ./inp_files/176138.got.cif
#   From: 2010.06.25/outbox.cif.g09.slc.cpg/sg12_89_cif.got.tgz:176138.got - 2010.06.28 00:19:55.
