data_PCOD8081200
_publ_section_title
;
Structure prediction by ZEFSAII (Michael W. Deem and Ramdas Pophale) SiO2 
 PCOD8081200
Probable space group: C 2/M
;
_chemical_formula_sum "Si O2"
_cell_formula_units_Z 56
_cell_length_a 23.111337
_cell_length_b 9.016006
_cell_length_c 18.829982
_cell_angle_alpha 90.000000
_cell_angle_beta 52.186631
_cell_angle_gamma 90.000000
_cell_volume 3099.722702
_symmetry_space_group_name_H-M "C 2/M"
_symmetry_group_IT_number 12
_symmetry_cell_setting 'monoclinic'
loop_
_space_group_symop_operation_xyz
x,y,z
-x,y,-z
-x,-y,-z
x,-y,z
1/2+x,1/2+y,z
1/2-x,1/2+y,-z
1/2-x,1/2-y,-z
1/2+x,1/2-y,z
loop_
_atom_site_type_symbol
_atom_site_label
_atom_site_fract_x
_atom_site_fract_y
_atom_site_fract_z
Si Si1 0.635013 0.333027 0.988916
Si Si2 0.556051 0.667479 0.749827
Si Si3 0.110204 0.168117 0.855254
Si Si4 0.253596 0.325580 0.708207
Si Si5 0.277287 0.324691 0.408333
Si Si6 0.202457 0.672410 0.189975
Si Si7 0.086047 0.325823 0.164166
O O1 0.626283 0.500000 0.024966
O O2 0.583873 0.310844 0.956618
O O3 0.718487 0.300183 0.904356
O O4 0.611468 0.221159 0.067075
O O5 0.540345 0.500000 0.738199
O O6 0.547053 0.684145 0.843014
O O7 0.637108 0.715763 0.665536
O O8 0.495552 0.768267 0.757404
O O9 0.170873 0.290955 0.793422
O O10 0.144488 0.000000 0.822124
O O11 0.265884 0.500000 0.690226
O O12 0.269440 0.244859 0.621268
O O13 0.306974 0.262069 0.729312
O O14 0.264393 0.500000 0.420267
O O15 0.250000 0.250000 0.500000
O O16 0.189902 0.500000 0.215764
O O17 0.141832 0.735827 0.181268
O O18 0.085096 0.500000 0.167123
#
# Coordination Sequence:
#
# PCOD8081200 Si02
#       7
#     8   8   8   8   8   8   8
#     4   9  17  31  50  68  92 130 177 220 257 297
#     4   9  19  35  52  71 100 135 166 196 245 307
#     4   8  16  32  50  68  95 133 170 207 252 302
#     4  10  18  29  51  80 103 127 162 205 249 293
#     4  10  20  36  59  84 107 130 157 195 243 299
#     4   9  19  35  50  67  97 138 177 212 251 295
#     4  11  22  32  46  70 101 135 173 216 255 290
#
# _framework density 18.066132
#
# number of rings (size 3 to 8) (size 9 to 14) (size 15 to 20)
#    0.000    2.571    0.000    4.286    0.000    6.857 
#    0.000    2.857    0.000    0.857    0.000    6.000 
#    0.000    0.000    0.000    0.000    0.000    0.000 
#
# Total GULP energy -347063.974889 kJ/mol
# GULP energy per Si atom -12395.141960 kJ/mol
# Density = 1.802501 g / cm^3
# Si number density = 18.066132 Si / 1000 Ang^3
#
#
#
# Elastic Constant Matrix: (Units=GPa)
#
#
# Indices 1 2 3 4 5 6 
#
# 1 75.6528 34.6842 28.6223 -0.0001 11.0841 -0.0003
# 2 34.6842 82.9462 40.5203 -0.0001 9.7537 -0.0003
# 3 28.6223 40.5203 85.8319 -0.0001 19.2174 0.0000
# 4 -0.0001 -0.0001 -0.0001 30.1951 0.0000 3.6131
# 5 11.0841 9.7537 19.2174 0.0000 19.4017 0.0001
# 6 -0.0003 -0.0003 0.0000 3.6131 0.0001 28.6611
#
#
#
# Elastic Compliance Matrix: (Units=1/GPa)
#
#
# Indices 1 2 3 4 5 6 
#
# 1 0.017309 -0.005688 -0.001944 0.000000 -0.005104 0.000000
# 2 -0.005688 0.017547 -0.006604 0.000000 0.000970 0.000000
# 3 -0.001944 -0.006604 0.018535 0.000000 -0.013929 0.000000
# 4 0.000000 0.000000 0.000000 0.033625 0.000000 -0.004239
# 5 -0.005104 0.000970 -0.013929 0.000000 0.067766 0.000000
# 6 0.000000 0.000000 0.000000 -0.004239 0.000000 0.035425
#
#
# Mechanical properties :
#
#
# Convention : Reuss Voigt Hill
#
# Bulk Modulus (GPa) = 40.13029 50.23162 45.18096
# Shear Modulus (GPa) = 22.02780 25.02519 23.52649
#
# Velocity S-wave (km/s) = 3.49562 3.72586 3.61258
# Velocity P-wave (km/s) = 6.20916 6.80985 6.51643
#
# Compressibility (1/GPa) = 0.02491883
#
# Stress axis : x y z
#
# Youngs Moduli (GPa) = 57.77214 56.99140 53.95157
#
# Poissons Ratio (x) = 0.32417 0.10489
# Poissons Ratio (y) = 0.32861 0.35629
# Poissons Ratio (z) = 0.11232 0.37636
#
# Static dielectric constant tensor:
#      x y z
#    x 3.557580 0.000000 0.311980 
#    y 0.000000 3.230410 0.000000 
#    z 0.311980 0.000000 3.159870 
# 
# 
# High freq. dielectric constant tensor:
#      x y z
#    x 1.696160 0.000000 0.023580 
#    y 0.000000 1.696570 0.000000 
#    z 0.023580 0.000000 1.672640 
# 
# From -- ./inp_files/287317.got.cif
#   From: 2010.06.25/outbox.cif.g09.slc.cpg/sg12_144_cif.got.tgz:287317.got - 2010.06.28 00:19:55.
