data_PCOD8081632
_publ_section_title
;
Structure prediction by ZEFSAII (Michael W. Deem and Ramdas Pophale) SiO2 
 PCOD8081632
Probable space group: C 2/M
;
_chemical_formula_sum "Si O2"
_cell_formula_units_Z 64
_cell_length_a 20.901382
_cell_length_b 9.030683
_cell_length_c 20.421009
_cell_angle_alpha 90.000000
_cell_angle_beta 105.344433
_cell_angle_gamma 90.000000
_cell_volume 3717.137319
_symmetry_space_group_name_H-M "C 2/M"
_symmetry_group_IT_number 12
_symmetry_cell_setting 'monoclinic'
loop_
_space_group_symop_operation_xyz
x,y,z
-x,y,-z
-x,-y,-z
x,-y,z
1/2+x,1/2+y,z
1/2-x,1/2+y,-z
1/2-x,1/2-y,-z
1/2+x,1/2-y,z
loop_
_atom_site_type_symbol
_atom_site_label
_atom_site_fract_x
_atom_site_fract_y
_atom_site_fract_z
Si Si1 0.383002 0.170317 0.288932
Si Si2 0.536703 0.675829 0.150987
Si Si3 0.983142 0.172372 0.711648
Si Si4 0.705688 0.826854 0.853009
Si Si5 0.414531 0.826853 0.436669
Si Si6 0.853390 0.823886 0.917170
Si Si7 0.391333 0.675739 0.071609
Si Si8 0.448327 0.673652 0.563362
O O1 0.444692 0.260181 0.278289
O O2 0.318568 0.205685 0.227762
O O3 0.366400 0.205716 0.361309
O O4 0.404086 0.000000 0.288741
O O5 0.538809 0.500000 0.146207
O O6 0.549284 0.729936 0.229391
O O7 0.594220 0.743647 0.120723
O O8 0.465137 0.733511 0.107609
O O9 0.933481 0.203624 0.636522
O O10 0.997313 0.000000 0.722000
O O11 0.780348 0.765586 0.878891
O O12 0.660162 0.742657 0.891738
O O13 0.702360 0.000000 0.868834
O O14 0.392675 0.741015 0.498140
O O15 0.485186 0.762793 0.434237
O O16 0.419027 0.000000 0.453695
O O17 0.855534 0.000000 0.915086
O O18 0.872723 0.767120 0.994347
O O19 0.386970 0.500000 0.075432
O O20 0.457383 0.500000 0.552095
#
# Coordination Sequence:
#
# PCOD8081632 Si02
#       8
#     8   8   8   8   8   8   8   8
#     4   9  17  27  40  59  85 115 145 176 211 257
#     4   9  16  28  46  68  90 114 148 186 219 257
#     4   9  16  26  42  63  85 111 143 179 216 255
#     4  10  19  31  46  66  92 119 146 181 224 264
#     4   9  15  23  35  53  79 111 142 169 204 251
#     4   9  18  30  46  68  91 115 147 186 223 260
#     4  10  18  30  50  70  87 113 149 186 223 264
#     4   9  15  22  34  56  84 108 133 170 216 255
#
# _framework density 17.217549999999999
#
# number of rings (size 3 to 8) (size 9 to 14) (size 15 to 20)
#    0.000    2.750    1.250    2.250    0.000    2.500 
#    0.000    0.000    0.000    3.750    0.000    0.875 
#    0.000    0.000    0.000    0.000    0.000    0.000 
#
# Total GULP energy -396458.812546 kJ/mol
# GULP energy per Si atom -12389.337892 kJ/mol
# Density = 1.717836 g / cm^3
# Si number density = 17.217550 Si / 1000 Ang^3
#
#
#
# Elastic Constant Matrix: (Units=GPa)
#
#
# Indices 1 2 3 4 5 6 
#
# 1 97.3374 16.0652 68.6588 0.0000 -0.8932 0.0000
# 2 16.0652 29.0406 33.3961 0.0000 0.6763 0.0000
# 3 68.6588 33.3961 197.1867 0.0000 2.3252 0.0000
# 4 0.0000 0.0000 0.0000 12.9256 0.0000 1.5856
# 5 -0.8932 0.6763 2.3252 0.0000 6.7221 0.0000
# 6 0.0000 0.0000 0.0000 1.5856 0.0000 11.4385
#
#
#
# Elastic Compliance Matrix: (Units=1/GPa)
#
#
# Indices 1 2 3 4 5 6 
#
# 1 0.013864 -0.002675 -0.004417 0.000000 0.003639 0.000000
# 2 -0.002675 0.043301 -0.006373 0.000000 -0.002507 0.000000
# 3 -0.004417 -0.006373 0.007720 0.000000 -0.002616 0.000000
# 4 0.000000 0.000000 0.000000 0.078704 0.000000 -0.010910
# 5 0.003639 -0.002507 -0.002616 0.000000 0.150404 0.000000
# 6 0.000000 0.000000 0.000000 -0.010910 0.000000 0.088936
#
#
# Mechanical properties :
#
#
# Convention : Reuss Voigt Hill
#
# Bulk Modulus (GPa) = 26.34667 62.20055 44.27361
# Shear Modulus (GPa) = 11.83402 19.91356 15.87379
#
# Velocity S-wave (km/s) = 2.62453 3.40455 3.03966
# Velocity P-wave (km/s) = 4.95173 7.18744 6.17167
#
# Compressibility (1/GPa) = 0.03795546
#
# Stress axis : x y z
#
# Youngs Moduli (GPa) = 72.12806 23.09420 129.54076
#
# Poissons Ratio (x) = 0.06177 0.57223
# Poissons Ratio (y) = 0.19291 0.82553
# Poissons Ratio (z) = 0.31862 0.14717
#
# Static dielectric constant tensor:
#      x y z
#    x 2.939990 0.000000 0.059990 
#    y 0.000000 3.029150 0.000000 
#    z 0.059990 0.000000 4.348870 
# 
# 
# High freq. dielectric constant tensor:
#      x y z
#    x 1.608540 0.000000 0.002640 
#    y 0.000000 1.641720 0.000000 
#    z 0.002640 0.000000 1.698670 
# 
# From -- ./inp_files/319252.got.cif
#   From: 2010.06.25/outbox.cif.g09.slc.cpg/sg12_160_cif.got.tgz:319252.got - 2010.06.28 00:19:55.
