data_PCOD8081887
_publ_section_title
;
Structure prediction by ZEFSAII (Michael W. Deem and Ramdas Pophale) SiO2 
 PCOD8081887
Probable space group: C 2/M
;
_chemical_formula_sum "Si O2"
_cell_formula_units_Z 56
_cell_length_a 19.942876
_cell_length_b 17.825807
_cell_length_c 9.547485
_cell_angle_alpha 90.000000
_cell_angle_beta 64.651860
_cell_angle_gamma 90.000000
_cell_volume 3067.336255
_symmetry_space_group_name_H-M "C 2/M"
_symmetry_group_IT_number 12
_symmetry_cell_setting 'monoclinic'
loop_
_space_group_symop_operation_xyz
x,y,z
-x,y,-z
-x,-y,-z
x,-y,z
1/2+x,1/2+y,z
1/2-x,1/2+y,-z
1/2-x,1/2-y,-z
1/2+x,1/2-y,z
loop_
_atom_site_type_symbol
_atom_site_label
_atom_site_fract_x
_atom_site_fract_y
_atom_site_fract_z
Si Si1 0.818382 0.415152 0.492389
Si Si2 0.598277 0.911660 0.029281
Si Si3 0.140753 0.787274 0.699011
Si Si4 0.697125 0.586891 0.819996
Si Si5 0.273146 0.322699 0.630915
Si Si6 0.944909 0.648381 0.227321
Si Si7 0.752571 0.163579 0.956060
O O1 0.840939 0.500000 0.452271
O O2 0.778454 0.400850 0.676797
O O3 0.762692 0.392970 0.417441
O O4 0.895520 0.369369 0.409485
O O5 0.530161 0.872859 0.174513
O O6 0.670554 0.870476 0.020432
O O7 0.601774 0.000000 0.059666
O O8 0.587617 0.899491 0.873433
O O9 0.135333 0.865420 0.789114
O O10 0.214191 0.745320 0.692205
O O11 0.153008 0.799108 0.520907
O O12 0.066756 0.737614 0.792066
O O13 0.673251 0.500000 0.836163
O O14 0.700189 0.615566 0.975910
O O15 0.294378 0.345668 0.769702
O O16 0.750000 0.250000 0.000000
#
# Coordination Sequence:
#
# PCOD8081887 Si02
#       7
#     8   8   8   8   8   8   8
#     4   9  16  29  48  71  99 135 169 208 255 297
#     4  11  21  32  48  79 108 136 171 207 250 306
#     4   9  16  33  50  73  93 133 175 219 252 298
#     4  10  20  31  48  75 106 131 163 213 266 305
#     4   9  17  28  51  69  94 130 183 215 249 291
#     4  10  18  30  52  72 102 137 172 212 248 302
#     4  12  21  33  49  71 101 138 169 213 256 305
#
# _framework density 18.256882999999998
#
# number of rings (size 3 to 8) (size 9 to 14) (size 15 to 20)
#    0.000    2.000    4.286    3.000    0.000    0.571 
#    0.000    0.714    0.000    2.571    0.000    9.000 
#    0.000    0.000    0.000   28.857    0.000    0.000 
#
# Total GULP energy -347042.631755 kJ/mol
# GULP energy per Si atom -12394.379706 kJ/mol
# Density = 1.821533 g / cm^3
# Si number density = 18.256883 Si / 1000 Ang^3
#
#
#
# Elastic Constant Matrix: (Units=GPa)
#
#
# Indices 1 2 3 4 5 6 
#
# 1 44.0524 46.1659 22.3441 0.0000 -3.1562 0.0000
# 2 46.1659 134.0394 39.8184 0.0000 -1.4591 0.0000
# 3 22.3441 39.8184 99.1902 0.0000 15.0513 0.0000
# 4 0.0000 0.0000 0.0000 27.6511 0.0000 -0.3296
# 5 -3.1562 -1.4591 15.0513 0.0000 23.8140 0.0000
# 6 0.0000 0.0000 0.0000 -0.3296 0.0000 23.4945
#
#
#
# Elastic Compliance Matrix: (Units=1/GPa)
#
#
# Indices 1 2 3 4 5 6 
#
# 1 0.037781 -0.011427 -0.005063 0.000000 0.007507 0.000000
# 2 -0.011427 0.012118 -0.002404 0.000000 0.000748 0.000000
# 3 -0.005063 -0.002404 0.013617 0.000000 -0.009425 0.000000
# 4 0.000000 0.000000 0.000000 0.036171 0.000000 0.000507
# 5 0.007507 0.000748 -0.009425 0.000000 0.048990 0.000000
# 6 0.000000 0.000000 0.000000 0.000507 0.000000 0.042570
#
#
# Mechanical properties :
#
#
# Convention : Reuss Voigt Hill
#
# Bulk Modulus (GPa) = 38.86603 54.88207 46.87405
# Shear Modulus (GPa) = 21.04272 26.25551 23.64912
#
# Velocity S-wave (km/s) = 3.39867 3.79636 3.60301
# Velocity P-wave (km/s) = 6.06101 7.02444 6.56044
#
# Compressibility (1/GPa) = 0.02572941
#
# Stress axis : x y z
#
# Youngs Moduli (GPa) = 26.46827 82.51878 73.43563
#
# Poissons Ratio (x) = 0.94293 0.37179
# Poissons Ratio (y) = 0.30245 0.17655
# Poissons Ratio (z) = 0.13400 0.19839
#
# Static dielectric constant tensor:
#      x y z
#    x 2.890290 0.000000 -0.034510 
#    y 0.000000 3.569400 0.000000 
#    z -0.034510 0.000000 3.630740 
# 
# 
# High freq. dielectric constant tensor:
#      x y z
#    x 1.639430 0.000000 0.003510 
#    y 0.000000 1.719240 0.000000 
#    z 0.003510 0.000000 1.711040 
# 
# From -- ./inp_files/97648.got.cif
#   From: 2010.06.25/outbox.cif.g09.slc.cpg/sg12_49_cif.got.tgz:97648.got - 2010.06.28 00:19:55.
