data_PCOD8081848
_publ_section_title
;
Structure prediction by ZEFSAII (Michael W. Deem and Ramdas Pophale) SiO2 
 PCOD8081848
Probable space group: C 2/M
;
_chemical_formula_sum "Si O2"
_cell_formula_units_Z 56
_cell_length_a 18.757873
_cell_length_b 8.732100
_cell_length_c 22.915708
_cell_angle_alpha 90.000000
_cell_angle_beta 52.910474
_cell_angle_gamma 90.000000
_cell_volume 2994.139273
_symmetry_space_group_name_H-M "C 2/M"
_symmetry_group_IT_number 12
_symmetry_cell_setting 'monoclinic'
loop_
_space_group_symop_operation_xyz
x,y,z
-x,y,-z
-x,-y,-z
x,-y,z
1/2+x,1/2+y,z
1/2-x,1/2+y,-z
1/2-x,1/2-y,-z
1/2+x,1/2-y,z
loop_
_atom_site_type_symbol
_atom_site_label
_atom_site_fract_x
_atom_site_fract_y
_atom_site_fract_z
Si Si1 0.905734 0.322957 0.562110
Si Si2 0.240144 0.818535 0.568110
Si Si3 0.325503 0.325748 0.121959
Si Si4 0.276756 0.174670 0.718979
Si Si5 0.870087 0.678110 0.282700
Si Si6 0.484618 0.679342 0.132521
Si Si7 0.329721 0.820779 0.997540
O O1 0.916513 0.500000 0.541585
O O2 0.826408 0.258073 0.561207
O O3 0.877716 0.298874 0.644553
O O4 0.000000 0.239964 0.500000
O O5 0.250000 0.750000 0.500000
O O6 0.151023 0.754505 0.644006
O O7 0.233838 0.000000 0.568312
O O8 0.334465 0.500000 0.094657
O O9 0.234594 0.305998 0.205752
O O10 0.411042 0.282584 0.119287
O O11 0.316555 0.212899 0.072383
O O12 0.213383 0.295589 0.718754
O O13 0.245991 0.000000 0.717015
O O14 0.888442 0.500000 0.282844
O O15 0.956400 0.753980 0.209483
O O16 0.498553 0.500000 0.132103
O O17 0.576721 0.754505 0.069037
O O18 0.329355 0.000000 0.987351
O O19 0.250000 0.750000 0.000000
#
# Coordination Sequence:
#
# PCOD8081848 Si02
#       7
#     8   8   8   8   8   8   8
#     4   8  14  27  49  75 100 130 170 212 254 303
#     4  10  19  32  50  73 104 139 175 217 264 313
#     4   9  18  34  56  80 106 137 174 217 266 318
#     4   8  15  29  50  75 103 135 169 212 265 312
#     4  10  18  30  51  78 105 134 173 217 259 307
#     4  10  20  37  60  83 107 135 171 217 267 317
#     4  12  25  39  55  77 108 143 178 216 263 318
#
# _framework density 18.703203999999999
#
# number of rings (size 3 to 8) (size 9 to 14) (size 15 to 20)
#    0.000    2.429    0.000    5.571    0.000    4.571 
#    0.000    1.429    0.000   14.143    0.000    0.000 
#    0.000    0.000    0.000    0.000    0.000    0.000 
#
# Total GULP energy -347004.140132 kJ/mol
# GULP energy per Si atom -12393.005005 kJ/mol
# Density = 1.866063 g / cm^3
# Si number density = 18.703204 Si / 1000 Ang^3
#
#
#
# Elastic Constant Matrix: (Units=GPa)
#
#
# Indices 1 2 3 4 5 6 
#
# 1 66.3919 36.6232 64.4474 -0.0001 -6.8547 -0.0003
# 2 36.6232 108.7803 61.6678 -0.0003 2.6304 -0.0008
# 3 64.4474 61.6678 192.5183 0.0000 -8.0728 0.0000
# 4 -0.0001 -0.0003 0.0000 33.3148 0.0000 3.4547
# 5 -6.8547 2.6304 -8.0728 0.0000 27.1747 -0.0001
# 6 -0.0003 -0.0008 0.0000 3.4547 -0.0001 20.9458
#
#
#
# Elastic Compliance Matrix: (Units=1/GPa)
#
#
# Indices 1 2 3 4 5 6 
#
# 1 0.024406 -0.004655 -0.006483 0.000000 0.004681 0.000000
# 2 -0.004655 0.012250 -0.002496 0.000000 -0.003101 0.000000
# 3 -0.006483 -0.002496 0.008208 0.000000 0.001045 0.000000
# 4 0.000000 0.000000 0.000000 0.030539 0.000000 -0.005037
# 5 0.004681 -0.003101 0.001045 0.000000 0.038590 0.000000
# 6 0.000000 0.000000 0.000000 -0.005037 0.000000 0.048573
#
#
# Mechanical properties :
#
#
# Convention : Reuss Voigt Hill
#
# Bulk Modulus (GPa) = 56.82838 77.01860 66.92349
# Shear Modulus (GPa) = 25.54955 29.95053 27.75004
#
# Velocity S-wave (km/s) = 3.70002 4.00604 3.85607
# Velocity P-wave (km/s) = 6.97881 7.91622 7.46225
#
# Compressibility (1/GPa) = 0.01759684
#
# Stress axis : x y z
#
# Youngs Moduli (GPa) = 40.97346 81.63407 121.83662
#
# Poissons Ratio (x) = 0.38000 0.78984
# Poissons Ratio (y) = 0.19073 0.30406
# Poissons Ratio (z) = 0.26562 0.20373
#
# Static dielectric constant tensor:
#      x y z
#    x 3.170180 0.000000 -0.186980 
#    y 0.000000 3.308770 0.000000 
#    z -0.186980 0.000000 3.965720 
# 
# 
# High freq. dielectric constant tensor:
#      x y z
#    x 1.676880 0.000000 -0.009940 
#    y 0.000000 1.716690 0.000000 
#    z -0.009940 0.000000 1.756220 
# 
# From -- ./inp_files/313778.got.cif
#   From: 2010.06.25/outbox.cif.g09.slc.cpg/sg12_157_cif.got.tgz:313778.got - 2010.06.28 00:19:55.
