data_PCOD8081734
_publ_section_title
;
Structure prediction by ZEFSAII (Michael W. Deem and Ramdas Pophale) SiO2 
 PCOD8081734
Probable space group: C 2/M
;
_chemical_formula_sum "Si O2"
_cell_formula_units_Z 64
_cell_length_a 17.459971
_cell_length_b 17.473505
_cell_length_c 23.620676
_cell_angle_alpha 90.000000
_cell_angle_beta 151.385229
_cell_angle_gamma 90.000000
_cell_volume 3451.256202
_symmetry_space_group_name_H-M "C 2/M"
_symmetry_group_IT_number 12
_symmetry_cell_setting 'monoclinic'
loop_
_space_group_symop_operation_xyz
x,y,z
-x,y,-z
-x,-y,-z
x,-y,z
1/2+x,1/2+y,z
1/2-x,1/2+y,-z
1/2-x,1/2-y,-z
1/2+x,1/2-y,z
loop_
_atom_site_type_symbol
_atom_site_label
_atom_site_fract_x
_atom_site_fract_y
_atom_site_fract_z
Si Si1 0.059189 0.909227 0.404905
Si Si2 0.160098 0.915846 0.639077
Si Si3 0.811231 0.410902 0.129692
Si Si4 0.449501 0.912152 0.527353
Si Si5 0.842864 0.657355 0.662904
Si Si6 0.622540 0.664736 0.332414
Si Si7 0.266903 0.587888 0.800084
Si Si8 0.507205 0.589654 0.862909
O O1 0.224448 0.885023 0.542659
O O2 0.029904 0.861713 0.328569
O O3 0.900124 0.888221 0.338213
O O4 0.069078 0.000000 0.399597
O O5 0.280373 0.856208 0.686939
O O6 0.000000 0.924816 0.500000
O O7 0.243122 0.000000 0.696309
O O8 0.842518 0.500000 0.160323
O O9 0.730268 0.376616 0.134806
O O10 0.978718 0.373393 0.224773
O O11 0.690712 0.396480 0.999523
O O12 0.500000 0.875823 0.500000
O O13 0.297234 0.869970 0.452233
O O14 0.587689 0.900846 0.662202
O O15 0.402685 0.000000 0.487470
O O16 0.852471 0.745523 0.654170
O O17 0.524499 0.635258 0.214946
O O18 0.318569 0.500000 0.837247
O O19 0.392587 0.625012 0.837718
O O20 0.469818 0.500000 0.828396
#
# Coordination Sequence:
#
# PCOD8081734 Si02
#       8
#     8   8   8   8   8   8   8   8
#     4  10  20  37  60  81 108 146 192 234 271 328
#     4   8  16  34  58  77  99 137 185 233 271 314
#     4  10  20  35  58  79 102 145 198 243 266 309
#     4  10  18  30  50  76 110 148 180 212 268 342
#     4  11  22  36  53  85 113 142 181 233 287 337
#     4  12  23  34  51  84 120 152 171 220 293 352
#     4   9  17  32  54  80 106 136 183 230 265 314
#     4  10  20  36  55  78 109 149 193 226 270 330
#
# _framework density 18.543972
#
# number of rings (size 3 to 8) (size 9 to 14) (size 15 to 20)
#    0.000    2.000    1.250    4.500    0.000    4.500 
#    2.250    0.000    0.000    0.750    0.000    3.500 
#    0.000    0.000    0.000    0.000    0.000    0.000 
#
# Total GULP energy -396682.990634 kJ/mol
# GULP energy per Si atom -12396.343457 kJ/mol
# Density = 1.850177 g / cm^3
# Si number density = 18.543972 Si / 1000 Ang^3
#
#
#
# Elastic Constant Matrix: (Units=GPa)
#
#
# Indices 1 2 3 4 5 6 
#
# 1 134.1223 45.9972 37.9415 0.2388 -4.4886 -0.0028
# 2 45.9972 81.8282 27.6802 0.2682 -0.8477 0.0057
# 3 37.9415 27.6802 65.3108 0.7161 1.5457 0.0110
# 4 0.2388 0.2682 0.7161 -168.1720 0.0085 -13.4679
# 5 -4.4886 -0.8477 1.5457 0.0085 21.2389 -0.0019
# 6 -0.0028 0.0057 0.0110 -13.4679 -0.0019 13.2855
#
#
#
# Elastic Compliance Matrix: (Units=1/GPa)
#
#
# Indices 1 2 3 4 5 6 
#
# 1 0.010178 -0.004295 -0.004146 -0.000010 0.002281 -0.000002
# 2 -0.004295 0.016100 -0.004330 0.000001 0.000050 -0.000003
# 3 -0.004146 -0.004330 0.019613 0.000066 -0.002477 0.000052
# 4 -0.000010 0.000001 0.000066 -0.005500 -0.000005 -0.005575
# 5 0.002281 0.000050 -0.002477 -0.000005 0.047748 0.000004
# 6 -0.000002 -0.000003 0.000052 -0.005575 0.000004 0.069618
#
#
# Mechanical properties :
#
#
# Convention : Reuss Voigt Hill
#
# Bulk Modulus (GPa) = 49.14208 56.05547 52.59878
# Shear Modulus (GPa) = 26.30425 -15.42002 5.44211
#
# Velocity S-wave (km/s) = 3.77036 -2.88677 1.71496
# Velocity P-wave (km/s) = 6.74625 4.37982 5.68747
#
# Compressibility (1/GPa) = 0.02034916
#
# Stress axis : x y z
#
# Youngs Moduli (GPa) = 98.24897 62.11110 50.98633
#
# Poissons Ratio (x) = 0.26677 0.21141
# Poissons Ratio (y) = 0.42199 0.22075
# Poissons Ratio (z) = 0.40738 0.26892
#
# Static dielectric constant tensor:
#      x y z
#    x 3.943600 0.000110 -0.045940 
#    y 0.000110 2.322970 0.000060 
#    z -0.045940 0.000060 3.182400 
# 
# 
# High freq. dielectric constant tensor:
#      x y z
#    x 1.735640 0.000000 -0.001940 
#    y 0.000000 1.689870 0.000000 
#    z -0.001940 0.000000 1.699810 
# 
# From -- ./inp_files/344097.got.cif
#   From: 2010.06.25/outbox.cif.g09.slc.cpg/sg12_173_cif.got.tgz:344097.got - 2010.06.28 00:19:55.
