data_PCOD8081503
_publ_section_title
;
Structure prediction by ZEFSAII (Michael W. Deem and Ramdas Pophale) SiO2 
 PCOD8081503
Probable space group: C 2/M
;
_chemical_formula_sum "Si O2"
_cell_formula_units_Z 64
_cell_length_a 17.190990
_cell_length_b 13.800549
_cell_length_c 16.359445
_cell_angle_alpha 90.000000
_cell_angle_beta 94.721623
_cell_angle_gamma 90.000000
_cell_volume 3868.026901
_symmetry_space_group_name_H-M "C 2/M"
_symmetry_group_IT_number 12
_symmetry_cell_setting 'monoclinic'
loop_
_space_group_symop_operation_xyz
x,y,z
-x,y,-z
-x,-y,-z
x,-y,z
1/2+x,1/2+y,z
1/2-x,1/2+y,-z
1/2-x,1/2-y,-z
1/2+x,1/2-y,z
loop_
_atom_site_type_symbol
_atom_site_label
_atom_site_fract_x
_atom_site_fract_y
_atom_site_fract_z
Si Si1 0.150466 0.260372 0.828247
Si Si2 0.414449 0.291241 0.005872
Si Si3 0.240917 0.388372 0.237827
Si Si4 0.233468 0.889912 0.067257
Si Si5 0.050072 0.383728 0.699433
Si Si6 0.878243 0.615538 0.638784
Si Si7 0.349262 0.107529 0.933501
Si Si8 0.910135 0.394399 0.470123
O O1 0.106832 0.210968 0.900510
O O2 0.182511 0.176408 0.771092
O O3 0.224378 0.324055 0.862118
O O4 0.088727 0.329568 0.778641
O O5 0.500000 0.335721 0.000000
O O6 0.355818 0.358550 0.949885
O O7 0.414793 0.183542 0.966341
O O8 0.268132 0.500000 0.248078
O O9 0.196672 0.351107 0.315518
O O10 0.177055 0.377436 0.161182
O O11 0.237775 0.000000 0.098040
O O12 0.272875 0.874987 0.982386
O O13 0.058050 0.500000 0.710390
O O14 0.094321 0.345623 0.620182
O O15 0.959263 0.351579 0.688348
O O16 0.881197 0.500000 0.632153
O O17 0.870289 0.659765 0.545058
O O18 0.383973 0.000000 0.949994
O O19 0.870916 0.500000 0.458013
O O20 0.000000 0.407629 0.500000
#
# Coordination Sequence:
#
# PCOD8081503 Si02
#       8
#     8   8   8   8   8   8   8   8
#     4  11  20  32  47  67  92 118 148 189 228 267
#     4  11  22  33  46  65  88 115 152 191 227 267
#     4  10  18  30  49  66  87 120 152 184 222 264
#     4  10  19  35  50  61  84 119 155 183 222 272
#     4   9  17  28  46  73  98 119 144 178 222 266
#     4   8  15  27  47  71  93 119 148 180 219 266
#     4   9  17  32  49  63  85 115 143 180 229 271
#     4   7  11  24  43  65  96 124 142 168 214 268
#
# _framework density 16.545904
#
# number of rings (size 3 to 8) (size 9 to 14) (size 15 to 20)
#    0.000    2.625    2.500    2.625    1.750    1.000 
#    0.000    0.625    0.000    0.000    0.000    0.000 
#    0.000    4.500    0.000    0.000    0.000    1.500 
#
# Total GULP energy -396534.333454 kJ/mol
# GULP energy per Si atom -12391.697920 kJ/mol
# Density = 1.650824 g / cm^3
# Si number density = 16.545904 Si / 1000 Ang^3
#
#
#
# Elastic Constant Matrix: (Units=GPa)
#
#
# Indices 1 2 3 4 5 6 
#
# 1 69.3360 21.1395 16.7252 0.0000 -6.9771 0.0000
# 2 21.1395 45.5772 16.6876 0.0000 -8.9904 0.0000
# 3 16.7252 16.6876 52.1098 0.0000 -10.6835 0.0000
# 4 0.0000 0.0000 0.0000 12.6084 0.0000 2.9687
# 5 -6.9771 -8.9904 -10.6835 0.0000 23.4843 0.0000
# 6 0.0000 0.0000 0.0000 2.9687 0.0000 18.1369
#
#
#
# Elastic Compliance Matrix: (Units=1/GPa)
#
#
# Indices 1 2 3 4 5 6 
#
# 1 0.017335 -0.006641 -0.003201 0.000000 0.001152 0.000000
# 2 -0.006641 0.028333 -0.005649 0.000000 0.006303 0.000000
# 3 -0.003201 -0.005649 0.023589 0.000000 0.007617 0.000000
# 4 0.000000 0.000000 0.000000 0.082492 0.000000 -0.013503
# 5 0.001152 0.006303 0.007617 0.000000 0.048802 0.000000
# 6 0.000000 0.000000 0.000000 -0.013503 0.000000 0.057346
#
#
# Mechanical properties :
#
#
# Convention : Reuss Voigt Hill
#
# Bulk Modulus (GPa) = 26.12785 30.68085 28.40435
# Shear Modulus (GPa) = 16.57614 18.34396 17.46005
#
# Velocity S-wave (km/s) = 3.16860 3.33328 3.25198
# Velocity P-wave (km/s) = 5.40482 5.77906 5.59507
#
# Compressibility (1/GPa) = 0.03827334
#
# Stress axis : x y z
#
# Youngs Moduli (GPa) = 57.68540 35.29450 42.39350
#
# Poissons Ratio (x) = 0.23440 0.13571
# Poissons Ratio (y) = 0.38310 0.23950
# Poissons Ratio (z) = 0.18466 0.19939
#
# Static dielectric constant tensor:
#      x y z
#    x 2.853140 0.000000 -0.195350 
#    y 0.000000 2.942880 0.000000 
#    z -0.195350 0.000000 3.369770 
# 
# 
# High freq. dielectric constant tensor:
#      x y z
#    x 1.611650 0.000000 -0.012100 
#    y 0.000000 1.605100 0.000000 
#    z -0.012100 0.000000 1.639470 
# 
# From -- ./inp_files/269885.got.cif
#   From: 2010.06.25/outbox.cif.g09.slc.cpg/sg12_135_cif.got.tgz:269885.got - 2010.06.28 00:19:55.
