data_PCOD8081072
_publ_section_title
;
Structure prediction by ZEFSAII (Michael W. Deem and Ramdas Pophale) SiO2 
 PCOD8081072
Probable space group: C 2/M
;
_chemical_formula_sum "Si O2"
_cell_formula_units_Z 64
_cell_length_a 28.738580
_cell_length_b 9.073260
_cell_length_c 14.102184
_cell_angle_alpha 90.000000
_cell_angle_beta 76.001270
_cell_angle_gamma 90.000000
_cell_volume 3567.972981
_symmetry_space_group_name_H-M "C 2/M"
_symmetry_group_IT_number 12
_symmetry_cell_setting 'monoclinic'
loop_
_space_group_symop_operation_xyz
x,y,z
-x,y,-z
-x,-y,-z
x,-y,z
1/2+x,1/2+y,z
1/2-x,1/2+y,-z
1/2-x,1/2-y,-z
1/2+x,1/2-y,z
loop_
_atom_site_type_symbol
_atom_site_label
_atom_site_fract_x
_atom_site_fract_y
_atom_site_fract_z
Si Si1 0.116743 0.171148 0.257035
Si Si2 0.016440 0.175040 0.391152
Si Si3 0.298969 0.831854 0.475450
Si Si4 0.388196 0.324560 0.134337
Si Si5 0.802218 0.326465 0.268529
Si Si6 0.800589 0.327125 0.680133
Si Si7 0.524870 0.675310 0.781604
Si Si8 0.928679 0.828321 0.917601
O O1 0.070682 0.223742 0.340589
O O2 0.162575 0.267217 0.261065
O O3 0.107891 0.200489 0.150389
O O4 0.127490 0.000000 0.271475
O O5 0.000000 0.244428 0.500000
O O6 0.980898 0.231220 0.324509
O O7 0.014065 0.000000 0.397251
O O8 0.250000 0.750000 0.500000
O O9 0.325195 0.793533 0.362896
O O10 0.324781 0.796280 0.563303
O O11 0.284067 0.000000 0.480582
O O12 0.381459 0.500000 0.136819
O O13 0.337147 0.249051 0.176083
O O14 0.424983 0.273077 0.198632
O O15 0.407686 0.260940 0.024822
O O16 0.798641 0.500000 0.249573
O O17 0.749718 0.256437 0.283765
O O18 0.791849 0.500000 0.701306
O O19 0.520614 0.500000 0.784482
O O20 0.480846 0.739568 0.866433
O O21 0.935764 0.000000 0.932098
#
# Coordination Sequence:
#
# PCOD8081072 Si02
#       8
#     8   8   8   8   8   8   8   8
#     4   9  17  30  49  71  96 129 164 195 235 284
#     4   8  14  25  42  69 103 130 155 192 233 276
#     4   8  16  30  47  65  88 119 150 184 226 274
#     4  10  18  29  49  74  96 121 159 205 245 277
#     4  10  20  34  49  69  99 128 155 191 240 291
#     4  10  19  33  52  72  94 123 162 200 233 276
#     4   8  14  25  44  69  94 124 161 195 230 278
#     4   8  15  29  48  70  96 125 159 199 239 282
#
# _framework density 17.937355
#
# number of rings (size 3 to 8) (size 9 to 14) (size 15 to 20)
#    0.000    3.125    0.000    2.625    0.000    3.500 
#    0.000    2.500    0.000    4.875    0.000    0.000 
#    0.000    0.000    0.000    0.000    0.000    0.000 
#
# Total GULP energy -396425.922558 kJ/mol
# GULP energy per Si atom -12388.310080 kJ/mol
# Density = 1.789653 g / cm^3
# Si number density = 17.937355 Si / 1000 Ang^3
#
#
#
# Elastic Constant Matrix: (Units=GPa)
#
#
# Indices 1 2 3 4 5 6 
#
# 1 94.4261 29.6051 55.3180 0.0000 1.9634 0.0000
# 2 29.6051 39.3893 26.4512 0.0000 0.3597 0.0000
# 3 55.3180 26.4512 133.7913 0.0000 -1.5825 0.0000
# 4 0.0000 0.0000 0.0000 15.6053 0.0000 -1.1981
# 5 1.9634 0.3597 -1.5825 0.0000 20.3574 0.0000
# 6 0.0000 0.0000 0.0000 -1.1981 0.0000 20.8546
#
#
#
# Elastic Compliance Matrix: (Units=1/GPa)
#
#
# Indices 1 2 3 4 5 6 
#
# 1 0.016366 -0.008908 -0.005027 0.000000 -0.001812 0.000000
# 2 -0.008908 0.034142 -0.003067 0.000000 0.000017 0.000000
# 3 -0.005027 -0.003067 0.010175 0.000000 0.001330 0.000000
# 4 0.000000 0.000000 0.000000 0.064365 0.000000 0.003698
# 5 -0.001812 0.000017 0.001330 0.000000 0.049400 0.000000
# 6 0.000000 0.000000 0.000000 0.003698 0.000000 0.048164
#
#
# Mechanical properties :
#
#
# Convention : Reuss Voigt Hill
#
# Bulk Modulus (GPa) = 37.48235 54.48392 45.98314
# Shear Modulus (GPa) = 18.83181 21.77895 20.30538
#
# Velocity S-wave (km/s) = 3.24368 3.48827 3.36820
# Velocity P-wave (km/s) = 5.91356 6.83114 6.38885
#
# Compressibility (1/GPa) = 0.02667922
#
# Stress axis : x y z
#
# Youngs Moduli (GPa) = 61.10265 29.28923 98.28208
#
# Poissons Ratio (x) = 0.26092 0.49406
# Poissons Ratio (y) = 0.54432 0.30139
# Poissons Ratio (z) = 0.30716 0.08982
#
# Static dielectric constant tensor:
#      x y z
#    x 3.174310 0.000000 0.209960 
#    y 0.000000 2.893340 0.000000 
#    z 0.209960 0.000000 3.936600 
# 
# 
# High freq. dielectric constant tensor:
#      x y z
#    x 1.681300 0.000000 0.008930 
#    y 0.000000 1.654130 0.000000 
#    z 0.008930 0.000000 1.702360 
# 
# From -- ./inp_files/243796.got.cif
#   From: 2010.06.25/outbox.cif.g09.slc.cpg/sg12_122_cif.got.tgz:243796.got - 2010.06.28 00:19:55.
