data_PCOD8081023
_publ_section_title
;
Structure prediction by ZEFSAII (Michael W. Deem and Ramdas Pophale) SiO2 
 PCOD8081023
Probable space group: C 2/M
;
_chemical_formula_sum "Si O2"
_cell_formula_units_Z 40
_cell_length_a 20.545047
_cell_length_b 8.661417
_cell_length_c 26.471697
_cell_angle_alpha 90.000000
_cell_angle_beta 152.479309
_cell_angle_gamma 90.000000
_cell_volume 2176.630020
_symmetry_space_group_name_H-M "C 2/M"
_symmetry_group_IT_number 12
_symmetry_cell_setting 'monoclinic'
loop_
_space_group_symop_operation_xyz
x,y,z
-x,y,-z
-x,-y,-z
x,-y,z
1/2+x,1/2+y,z
1/2-x,1/2+y,-z
1/2-x,1/2-y,-z
1/2+x,1/2-y,z
loop_
_atom_site_type_symbol
_atom_site_label
_atom_site_fract_x
_atom_site_fract_y
_atom_site_fract_z
Si Si1 0.581778 0.822377 0.788374
Si Si2 0.379883 0.821856 0.559997
Si Si3 0.924623 0.818699 0.774006
Si Si4 0.671795 0.182600 0.994733
Si Si5 0.368468 0.679501 0.444637
O O1 0.520520 0.804133 0.690187
O O2 0.479681 0.736079 0.757367
O O3 0.739983 0.750004 0.897006
O O4 0.588533 0.000000 0.810020
O O5 0.250000 0.750000 0.500000
O O6 0.407563 0.731494 0.527714
O O7 0.346061 0.000000 0.524910
O O8 0.762456 0.773192 0.668110
O O9 0.943564 0.000000 0.791156
O O10 0.010849 0.741125 0.880042
O O11 0.676328 0.000000 0.999518
O O12 0.750000 0.250000 0.000000
O O13 0.500000 0.716878 0.500000
O O14 0.329082 0.500000 0.418115
#
# Coordination Sequence:
#
# PCOD8081023 Si02
#       5
#     8   8   8   8   8
#     4  10  19  32  51  79 112 142 178 224 274 325
#     4  11  22  35  57  83 113 147 183 229 276 328
#     4  11  20  32  53  78 108 144 182 226 274 327
#     4  10  18  29  48  75 108 142 178 222 272 324
#     4  11  24  40  57  79 111 149 188 230 277 331
#
# _framework density 18.377032
#
# number of rings (size 3 to 8) (size 9 to 14) (size 15 to 20)
#    0.000    1.400    2.000    7.800    0.000    4.000 
#    0.000    0.000    0.000    1.200    0.000    8.400 
#    0.000    0.000    0.000    0.000    0.000    0.000 
#
# Total GULP energy -248008.940110 kJ/mol
# GULP energy per Si atom -12400.447006 kJ/mol
# Density = 1.833520 g / cm^3
# Si number density = 18.377032 Si / 1000 Ang^3
#
#
#
# Elastic Constant Matrix: (Units=GPa)
#
#
# Indices 1 2 3 4 5 6 
#
# 1 73.7222 34.3055 37.2495 -0.0043 -1.5030 0.0001
# 2 34.3055 137.1843 59.0019 -0.0127 4.7752 0.0007
# 3 37.2495 59.0019 145.4711 -0.0162 1.2070 0.0014
# 4 -0.0043 -0.0127 -0.0162 37.3327 -0.0005 -0.5904
# 5 -1.5030 4.7752 1.2070 -0.0005 14.8736 0.0007
# 6 0.0001 0.0007 0.0014 -0.5904 0.0007 21.5667
#
#
#
# Elastic Compliance Matrix: (Units=1/GPa)
#
#
# Indices 1 2 3 4 5 6 
#
# 1 0.016531 -0.002910 -0.003076 0.000000 0.002854 0.000000
# 2 -0.002910 0.009439 -0.003058 0.000002 -0.003076 0.000000
# 3 -0.003076 -0.003058 0.008903 0.000002 -0.000052 0.000000
# 4 0.000000 0.000002 0.000002 0.026798 0.000000 0.000734
# 5 0.002854 -0.003076 -0.000052 0.000000 0.068514 -0.000002
# 6 0.000000 0.000000 0.000000 0.000734 -0.000002 0.046388
#
#
# Mechanical properties :
#
#
# Convention : Reuss Voigt Hill
#
# Bulk Modulus (GPa) = 59.57867 68.61015 64.09441
# Shear Modulus (GPa) = 24.96803 29.80933 27.38868
#
# Velocity S-wave (km/s) = 3.68999 4.03190 3.86473
# Velocity P-wave (km/s) = 7.11655 7.68705 7.40729
#
# Compressibility (1/GPa) = 0.01678453
#
# Stress axis : x y z
#
# Youngs Moduli (GPa) = 60.49163 105.93825 112.32653
#
# Poissons Ratio (x) = 0.30830 0.34555
# Poissons Ratio (y) = 0.17604 0.34348
# Poissons Ratio (z) = 0.18609 0.32394
#
# Static dielectric constant tensor:
#      x y z
#    x 2.809930 0.000000 -0.070320 
#    y 0.000000 3.595200 0.000010 
#    z -0.070320 0.000010 4.220550 
# 
# 
# High freq. dielectric constant tensor:
#      x y z
#    x 1.648830 0.000000 -0.005660 
#    y 0.000000 1.737040 0.000000 
#    z -0.005660 0.000000 1.741650 
# 
# From -- ./inp_files/362588.got.cif
#   From: 2010.06.25/outbox.cif.g09.slc.cpg/sg12_182_cif.got.tgz:362588.got - 2010.06.28 00:19:55.
