data_PCOD8081103
_publ_section_title
;
Structure prediction by ZEFSAII (Michael W. Deem and Ramdas Pophale) SiO2 
 PCOD8081103
Probable space group: C 2/M
;
_chemical_formula_sum "Si O2"
_cell_formula_units_Z 56
_cell_length_a 28.901033
_cell_length_b 8.865590
_cell_length_c 18.905511
_cell_angle_alpha 90.000000
_cell_angle_beta 141.210858
_cell_angle_gamma 90.000000
_cell_volume 3034.590391
_symmetry_space_group_name_H-M "C 2/M"
_symmetry_group_IT_number 12
_symmetry_cell_setting 'monoclinic'
loop_
_space_group_symop_operation_xyz
x,y,z
-x,y,-z
-x,-y,-z
x,-y,z
1/2+x,1/2+y,z
1/2-x,1/2+y,-z
1/2-x,1/2-y,-z
1/2+x,1/2-y,z
loop_
_atom_site_type_symbol
_atom_site_label
_atom_site_fract_x
_atom_site_fract_y
_atom_site_fract_z
Si Si1 0.474697 0.821027 0.046848
Si Si2 0.419031 0.170760 0.314577
Si Si3 0.814363 0.326133 0.900795
Si Si4 0.881355 0.671952 0.120543
Si Si5 0.475553 0.676160 0.758536
Si Si6 0.421271 0.824355 0.560619
Si Si7 0.837396 0.821828 0.339280
O O1 0.530826 0.748431 0.170795
O O2 0.478702 0.000000 0.060096
O O3 0.500000 0.766856 0.000000
O O4 0.390900 0.760910 0.960110
O O5 0.361817 0.193428 0.180139
O O6 0.500807 0.209045 0.384632
O O7 0.398681 0.281568 0.353588
O O8 0.415161 0.000000 0.339079
O O9 0.810291 0.500000 0.875772
O O10 0.741452 0.251287 0.779907
O O11 0.812917 0.303891 0.985063
O O12 0.913184 0.500000 0.148222
O O13 0.942696 0.792865 0.172818
O O14 0.459355 0.500000 0.743799
O O15 0.418059 0.750811 0.634868
O O16 0.356445 0.751387 0.436957
O O17 0.406088 0.000000 0.550508
O O18 0.835589 0.000000 0.345666
#
# Coordination Sequence:
#
# PCOD8081103 Si02
#       7
#     8   8   8   8   8   8   8
#     4   9  17  33  58  80  98 126 159 186 223 287
#     4   9  18  31  47  66  89 124 171 213 241 272
#     4   8  16  31  48  70  99 127 156 193 240 287
#     4   8  15  31  50  65  91 131 167 197 233 283
#     4  10  18  29  49  77 103 122 149 197 248 283
#     4  10  20  35  51  65  90 130 173 207 233 275
#     4  11  21  30  44  68  99 130 160 202 248 283
#
# _framework density 18.453890999999999
#
# number of rings (size 3 to 8) (size 9 to 14) (size 15 to 20)
#    0.000    2.714    0.000    4.286    0.000    5.429 
#    0.000    5.714    0.000    0.857    0.000    0.000 
#    0.000    0.000    0.000    0.000    0.000    0.000 
#
# Total GULP energy -346993.103108 kJ/mol
# GULP energy per Si atom -12392.610825 kJ/mol
# Density = 1.841189 g / cm^3
# Si number density = 18.453891 Si / 1000 Ang^3
#
#
#
# Elastic Constant Matrix: (Units=GPa)
#
#
# Indices 1 2 3 4 5 6 
#
# 1 41.4224 20.6093 36.4185 0.0000 -22.8784 0.0000
# 2 20.6093 73.6226 47.8031 0.0000 -14.2641 0.0000
# 3 36.4185 47.8031 159.6488 0.0000 -29.5045 0.0000
# 4 0.0000 0.0000 0.0000 28.3906 0.0000 -7.0767
# 5 -22.8784 -14.2641 -29.5045 0.0000 29.8688 0.0000
# 6 0.0000 0.0000 0.0000 -7.0767 0.0000 15.6048
#
#
#
# Elastic Compliance Matrix: (Units=1/GPa)
#
#
# Indices 1 2 3 4 5 6 
#
# 1 0.045889 -0.004829 -0.003612 0.000000 0.029276 0.000000
# 2 -0.004829 0.017719 -0.004066 0.000000 0.000747 0.000000
# 3 -0.003612 -0.004066 0.009095 0.000000 0.004276 0.000000
# 4 0.000000 0.000000 0.000000 0.039712 0.000000 0.018009
# 5 0.029276 0.000747 0.004276 0.000000 0.060484 0.000000
# 6 0.000000 0.000000 0.000000 0.018009 0.000000 0.072250
#
#
# Mechanical properties :
#
#
# Convention : Reuss Voigt Hill
#
# Bulk Modulus (GPa) = 20.96848 53.81727 37.39288
# Shear Modulus (GPa) = 17.47884 26.09703 21.78794
#
# Velocity S-wave (km/s) = 3.08094 3.76463 3.43981
# Velocity P-wave (km/s) = 4.90342 6.93708 6.00694
#
# Compressibility (1/GPa) = 0.04769063
#
# Stress axis : x y z
#
# Youngs Moduli (GPa) = 21.79174 56.43562 109.94520
#
# Poissons Ratio (x) = 0.27250 0.39710
# Poissons Ratio (y) = 0.10522 0.44705
# Poissons Ratio (z) = 0.07871 0.22947
#
# Static dielectric constant tensor:
#      x y z
#    x 3.099510 0.000000 -0.264980 
#    y 0.000000 3.161430 0.000000 
#    z -0.264980 0.000000 3.837630 
# 
# 
# High freq. dielectric constant tensor:
#      x y z
#    x 1.665950 0.000000 -0.029760 
#    y 0.000000 1.700340 0.000000 
#    z -0.029760 0.000000 1.730180 
# 
# From -- ./inp_files/295161.got.cif
#   From: 2010.06.25/outbox.cif.g09.slc.cpg/sg12_148_cif.got.tgz:295161.got - 2010.06.28 00:19:55.
