data_PCOD8081768
_publ_section_title
;
Structure prediction by ZEFSAII (Michael W. Deem and Ramdas Pophale) SiO2 
 PCOD8081768
Probable space group: C 2/M
;
_chemical_formula_sum "Si O2"
_cell_formula_units_Z 56
_cell_length_a 22.123097
_cell_length_b 21.081072
_cell_length_c 10.244862
_cell_angle_alpha 90.000000
_cell_angle_beta 48.414010
_cell_angle_gamma 90.000000
_cell_volume 3573.743182
_symmetry_space_group_name_H-M "C 2/M"
_symmetry_group_IT_number 12
_symmetry_cell_setting 'monoclinic'
loop_
_space_group_symop_operation_xyz
x,y,z
-x,y,-z
-x,-y,-z
x,-y,z
1/2+x,1/2+y,z
1/2-x,1/2+y,-z
1/2-x,1/2-y,-z
1/2+x,1/2-y,z
loop_
_atom_site_type_symbol
_atom_site_label
_atom_site_fract_x
_atom_site_fract_y
_atom_site_fract_z
Si Si1 0.539148 0.000000 0.085676
Si Si2 0.194337 0.187543 0.943493
Si Si3 0.457762 0.749279 0.923422
Si Si4 0.710193 0.682927 0.205736
Si Si5 0.937368 0.245274 0.477142
Si Si6 0.369011 0.124657 0.972684
Si Si7 0.931469 0.500000 0.489511
Si Si8 0.354813 0.127770 0.681703
O O1 0.467862 0.000000 0.293269
O O2 0.500000 0.000000 0.000000
O O3 0.596293 0.939867 0.021476
O O4 0.235874 0.255392 0.893164
O O5 0.259314 0.138552 0.789276
O O6 0.111876 0.194911 0.979706
O O7 0.170292 0.165090 0.123752
O O8 0.524119 0.736058 0.718530
O O9 0.500000 0.743935 0.000000
O O10 0.421946 0.818972 0.955762
O O11 0.638453 0.696205 0.410623
O O12 0.775043 0.629098 0.155911
O O13 0.908093 0.317426 0.539192
O O14 0.000000 0.226818 0.500000
O O15 0.373352 0.127750 0.809372
O O16 0.876350 0.561622 0.584701
O O17 0.000000 0.500000 0.500000
#
# Coordination Sequence:
#
# PCOD8081768 Si02
#       8
#     4   8   8   8   8   8   4   8
#     4  12  24  34  46  70 102 129 149 182 230 275
#     4   8  15  29  44  66  93 119 148 189 238 266
#     4  11  20  29  44  70 100 123 148 190 236 278
#     4   8  15  27  48  67  85 118 160 191 221 271
#     4  11  16  28  48  71  90 119 158 191 230 267
#     4  10  18  33  47  67  96 126 155 186 230 271
#     4  12  20  32  50  76  92 116 167 190 213 265
#     4  10  18  30  51  70  91 120 158 201 219 261
#
# _framework density 15.669843999999999
#
# number of rings (size 3 to 8) (size 9 to 14) (size 15 to 20)
#    0.000    2.000    4.286    3.429    0.000    0.000 
#    0.000    7.857    0.000    0.000    0.000    2.000 
#    0.000    0.000    0.000    0.000    0.000    0.000 
#
# Total GULP energy -347030.582754 kJ/mol
# GULP energy per Si atom -12393.949384 kJ/mol
# Density = 1.563418 g / cm^3
# Si number density = 15.669844 Si / 1000 Ang^3
#
#
#
# Elastic Constant Matrix: (Units=GPa)
#
#
# Indices 1 2 3 4 5 6 
#
# 1 120.3588 52.8713 77.3095 0.0000 -4.1795 0.0000
# 2 52.8713 77.0810 44.7794 0.0000 -13.1888 0.0000
# 3 77.3095 44.7794 109.4254 0.0000 -5.9042 0.0000
# 4 0.0000 0.0000 0.0000 12.5912 0.0000 -20.0928
# 5 -4.1795 -13.1888 -5.9042 0.0000 25.7730 0.0000
# 6 0.0000 0.0000 0.0000 -20.0928 0.0000 10.2476
#
#
#
# Elastic Compliance Matrix: (Units=1/GPa)
#
#
# Indices 1 2 3 4 5 6 
#
# 1 0.017415 -0.006822 -0.009667 0.000000 -0.002882 0.000000
# 2 -0.006822 0.021124 -0.003342 0.000000 0.008938 0.000000
# 3 -0.009667 -0.003342 0.017374 0.000000 0.000702 0.000000
# 4 0.000000 0.000000 0.000000 -0.037306 0.000000 -0.073147
# 5 -0.002882 0.008938 0.000702 0.000000 0.043067 0.000000
# 6 0.000000 0.000000 0.000000 -0.073147 0.000000 -0.045838
#
#
# Mechanical properties :
#
#
# Convention : Reuss Voigt Hill
#
# Bulk Modulus (GPa) = 61.54066 72.97618 67.25842
# Shear Modulus (GPa) = 82.08092 18.51604 50.29848
#
# Velocity S-wave (km/s) = 7.24535 3.44122 5.67174
# Velocity P-wave (km/s) = 10.45716 7.90326 9.26859
#
# Compressibility (1/GPa) = 0.01624942
#
# Stress axis : x y z
#
# Youngs Moduli (GPa) = 57.42238 47.34036 57.55633
#
# Poissons Ratio (x) = 0.32296 0.55642
# Poissons Ratio (y) = 0.39174 0.19237
# Poissons Ratio (z) = 0.55512 0.15822
#
# Static dielectric constant tensor:
#      x y z
#    x 3.075460 0.000000 -0.227250 
#    y 0.000000 2.936710 0.000000 
#    z -0.227250 0.000000 3.221890 
# 
# 
# High freq. dielectric constant tensor:
#      x y z
#    x 1.592560 0.000000 -0.015520 
#    y 0.000000 1.568900 0.000000 
#    z -0.015520 0.000000 1.600820 
# 
# From -- ./inp_files/90349.got.cif
#   From: 2010.06.25/outbox.cif.g09.slc.cpg/sg12_46_cif.got.tgz:90349.got - 2010.06.28 00:19:55.
