data_PCOD8081614
_publ_section_title
;
Structure prediction by ZEFSAII (Michael W. Deem and Ramdas Pophale) SiO2 
 PCOD8081614
Probable space group: C 2/M
;
_chemical_formula_sum "Si O2"
_cell_formula_units_Z 56
_cell_length_a 20.095700
_cell_length_b 9.062983
_cell_length_c 20.676905
_cell_angle_alpha 90.000000
_cell_angle_beta 129.898798
_cell_angle_gamma 90.000000
_cell_volume 2889.058403
_symmetry_space_group_name_H-M "C 2/M"
_symmetry_group_IT_number 12
_symmetry_cell_setting 'monoclinic'
loop_
_space_group_symop_operation_xyz
x,y,z
-x,y,-z
-x,-y,-z
x,-y,z
1/2+x,1/2+y,z
1/2-x,1/2+y,-z
1/2-x,1/2-y,-z
1/2+x,1/2-y,z
loop_
_atom_site_type_symbol
_atom_site_label
_atom_site_fract_x
_atom_site_fract_y
_atom_site_fract_z
Si Si1 0.804784 0.671154 0.588612
Si Si2 0.487882 0.675445 0.719641
Si Si3 0.654407 0.326673 0.753575
Si Si4 0.269633 0.829390 0.709978
Si Si5 0.402115 0.333063 0.873473
Si Si6 0.183501 0.326076 0.066491
Si Si7 0.072646 0.165328 0.904911
O O1 0.814368 0.500000 0.577314
O O2 0.750000 0.750000 0.500000
O O3 0.899704 0.740309 0.651145
O O4 0.752303 0.692919 0.623158
O O5 0.469970 0.500000 0.708724
O O6 0.556636 0.726840 0.707036
O O7 0.529310 0.729535 0.813088
O O8 0.654786 0.500000 0.760506
O O9 0.685886 0.280525 0.700956
O O10 0.721961 0.268686 0.850661
O O11 0.350396 0.726624 0.778707
O O12 0.292954 0.000000 0.739803
O O13 0.371716 0.500000 0.870403
O O14 0.385673 0.226413 0.923255
O O15 0.503368 0.332290 0.919819
O O16 0.179064 0.500000 0.057534
O O17 0.156692 0.257830 0.980315
O O18 0.105379 0.000000 0.910972
#
# Coordination Sequence:
#
# PCOD8081614 Si02
#       7
#     8   8   8   8   8   8   8
#     4  11  23  39  62  89 115 139 175 222 272 330
#     4  10  20  38  60  81 110 146 182 225 277 330
#     4   8  17  35  57  79 108 147 188 225 267 320
#     4   9  18  35  58  83 109 142 182 223 267 323
#     4  10  18  30  49  75 108 143 183 229 277 326
#     4  10  20  32  48  74 107 149 195 232 267 312
#     4  10  20  31  47  75 109 144 184 229 279 324
#
# _framework density 19.383478
#
# number of rings (size 3 to 8) (size 9 to 14) (size 15 to 20)
#    0.000    2.286    1.429    2.571    0.000    4.571 
#    0.000    4.286    0.000    4.286    0.000    0.000 
#    0.000    0.000    0.000    0.000    0.000    0.000 
#
# Total GULP energy -347058.289416 kJ/mol
# GULP energy per Si atom -12394.938908 kJ/mol
# Density = 1.933936 g / cm^3
# Si number density = 19.383478 Si / 1000 Ang^3
#
#
#
# Elastic Constant Matrix: (Units=GPa)
#
#
# Indices 1 2 3 4 5 6 
#
# 1 103.3746 32.3426 59.4857 0.0000 10.5764 0.0000
# 2 32.3426 73.2938 54.4597 0.0000 3.3212 0.0000
# 3 59.4857 54.4597 140.4172 0.0000 -2.6071 0.0000
# 4 0.0000 0.0000 0.0000 35.4149 0.0000 0.8405
# 5 10.5764 3.3212 -2.6071 0.0000 12.3328 0.0000
# 6 0.0000 0.0000 0.0000 0.8405 0.0000 16.7324
#
#
#
# Elastic Compliance Matrix: (Units=1/GPa)
#
#
# Indices 1 2 3 4 5 6 
#
# 1 0.015028 -0.001529 -0.006029 0.000000 -0.013750 0.000000
# 2 -0.001529 0.019901 -0.007174 0.000000 -0.005565 0.000000
# 3 -0.006029 -0.007174 0.012640 0.000000 0.009774 0.000000
# 4 0.000000 0.000000 0.000000 0.028270 0.000000 -0.001420
# 5 -0.013750 -0.005565 0.009774 0.000000 0.096442 0.000000
# 6 0.000000 0.000000 0.000000 -0.001420 0.000000 0.059836
#
#
# Mechanical properties :
#
#
# Convention : Reuss Voigt Hill
#
# Bulk Modulus (GPa) = 55.23276 67.74018 61.48647
# Shear Modulus (GPa) = 18.68359 24.28253 21.48306
#
# Velocity S-wave (km/s) = 3.10803 3.54325 3.33275
# Velocity P-wave (km/s) = 6.43711 7.19463 6.82639
#
# Compressibility (1/GPa) = 0.01810520
#
# Stress axis : x y z
#
# Youngs Moduli (GPa) = 66.54314 50.24833 79.11676
#
# Poissons Ratio (x) = 0.07682 0.47697
# Poissons Ratio (y) = 0.10173 0.56760
# Poissons Ratio (z) = 0.40117 0.36049
#
# Static dielectric constant tensor:
#      x y z
#    x 3.888180 0.000000 -0.042190 
#    y 0.000000 3.481490 0.000000 
#    z -0.042190 0.000000 3.437330 
# 
# 
# High freq. dielectric constant tensor:
#      x y z
#    x 1.756220 0.000000 -0.007620 
#    y 0.000000 1.739930 0.000000 
#    z -0.007620 0.000000 1.738030 
# 
# From -- ./inp_files/320268.got.cif
#   From: 2010.06.25/outbox.cif.g09.slc.cpg/sg12_161_cif.got.tgz:320268.got - 2010.06.28 00:19:55.
