data_PCOD8081456
_publ_section_title
;
Structure prediction by ZEFSAII (Michael W. Deem and Ramdas Pophale) SiO2 
 PCOD8081456
Probable space group: C 2/M
;
_chemical_formula_sum "Si O2"
_cell_formula_units_Z 40
_cell_length_a 23.723331
_cell_length_b 13.397827
_cell_length_c 23.654028
_cell_angle_alpha 90.000000
_cell_angle_beta 161.094352
_cell_angle_gamma 90.000000
_cell_volume 2435.984181
_symmetry_space_group_name_H-M "C 2/M"
_symmetry_group_IT_number 12
_symmetry_cell_setting 'monoclinic'
loop_
_space_group_symop_operation_xyz
x,y,z
-x,y,-z
-x,-y,-z
x,-y,z
1/2+x,1/2+y,z
1/2-x,1/2+y,-z
1/2-x,1/2-y,-z
1/2+x,1/2-y,z
loop_
_atom_site_type_symbol
_atom_site_label
_atom_site_fract_x
_atom_site_fract_y
_atom_site_fract_z
Si Si1 0.665172 0.382228 0.225570
Si Si2 0.273359 0.618164 0.838889
Si Si3 0.387634 0.198180 0.206815
Si Si4 0.612491 0.613581 0.862658
Si Si5 0.757752 0.616925 0.434473
O O1 0.650435 0.500000 0.215399
O O2 0.769667 0.353708 0.267422
O O3 0.758845 0.341688 0.370738
O O4 0.467553 0.343590 0.036057
O O5 0.248405 0.500000 0.825748
O O6 0.145897 0.679841 0.758622
O O7 0.353321 0.313469 0.157914
O O8 0.589093 0.171461 0.385705
O O9 0.261828 0.126819 0.051232
O O10 0.615949 0.500000 0.843957
O O11 0.427432 0.641820 0.713918
O O12 0.796264 0.500000 0.472277
#
# Coordination Sequence:
#
# PCOD8081456 Si02
#       5
#     8   8   8   8   8
#     4   8  15  26  44  68  98 124 141 178 236 280
#     4   9  15  27  45  69  97 123 148 179 226 282
#     4  11  20  30  50  70  90 124 162 184 223 278
#     4  10  21  35  46  65  97 124 153 195 230 262
#     4  10  18  30  48  71  97 121 147 187 232 277
#
# _framework density 16.420469000000001
#
# number of rings (size 3 to 8) (size 9 to 14) (size 15 to 20)
#    0.000    2.400    2.000    3.600    0.000    0.800 
#    0.000    3.000    0.000    0.000    0.000    5.600 
#    0.000    0.000    0.000    0.000    0.000    0.000 
#
# Total GULP energy -247894.129213 kJ/mol
# GULP energy per Si atom -12394.706461 kJ/mol
# Density = 1.638310 g / cm^3
# Si number density = 16.420469 Si / 1000 Ang^3
#
#
#
# Elastic Constant Matrix: (Units=GPa)
#
#
# Indices 1 2 3 4 5 6 
#
# 1 80.5285 41.8264 18.9682 0.0033 4.2097 0.0006
# 2 41.8264 61.7702 21.7006 0.0097 0.7009 0.0077
# 3 18.9682 21.7006 93.1084 0.0060 7.5094 0.0033
# 4 0.0033 0.0097 0.0060 16.1236 0.0035 -0.2141
# 5 4.2097 0.7009 7.5094 0.0035 11.3680 0.0036
# 6 0.0006 0.0077 0.0033 -0.2141 0.0036 18.2764
#
#
#
# Elastic Compliance Matrix: (Units=1/GPa)
#
#
# Indices 1 2 3 4 5 6 
#
# 1 0.019633 -0.013063 -0.000458 0.000005 -0.006162 0.000006
# 2 -0.013063 0.026357 -0.003951 -0.000013 0.005823 -0.000011
# 3 -0.000458 -0.003951 0.012381 0.000000 -0.007765 0.000001
# 4 0.000005 -0.000013 0.000000 0.062031 -0.000020 0.000727
# 5 -0.006162 0.005823 -0.007765 -0.000020 0.095019 -0.000020
# 6 0.000006 -0.000011 0.000001 0.000727 -0.000020 0.054724
#
#
# Mechanical properties :
#
#
# Convention : Reuss Voigt Hill
#
# Bulk Modulus (GPa) = 42.68896 44.48861 43.58878
# Shear Modulus (GPa) = 15.97972 19.34775 17.66373
#
# Velocity S-wave (km/s) = 3.12293 3.43632 3.28337
# Velocity P-wave (km/s) = 6.24960 6.54955 6.40133
#
# Compressibility (1/GPa) = 0.02342526
#
# Stress axis : x y z
#
# Youngs Moduli (GPa) = 50.93458 37.94119 80.77115
#
# Poissons Ratio (x) = 0.49564 0.03700
# Poissons Ratio (y) = 0.66537 0.31914
# Poissons Ratio (z) = 0.02333 0.14991
#
# Static dielectric constant tensor:
#      x y z
#    x 3.209750 0.000000 -0.099290 
#    y 0.000000 2.688200 -0.000010 
#    z -0.099290 -0.000010 3.247190 
# 
# 
# High freq. dielectric constant tensor:
#      x y z
#    x 1.628400 0.000000 0.000930 
#    y 0.000000 1.575850 0.000000 
#    z 0.000930 0.000000 1.645460 
# 
# From -- ./inp_files/84646.got.cif
#   From: 2010.06.25/outbox.cif.g09.slc.cpg/sg12_43_cif.got.tgz:84646.got - 2010.06.28 00:19:55.
