data_PCOD8081215
_publ_section_title
;
Structure prediction by ZEFSAII (Michael W. Deem and Ramdas Pophale) SiO2 
 PCOD8081215
Probable space group: C 2/M
;
_chemical_formula_sum "Si O2"
_cell_formula_units_Z 56
_cell_length_a 26.816159
_cell_length_b 9.171555
_cell_length_c 14.277496
_cell_angle_alpha 90.000000
_cell_angle_beta 57.384313
_cell_angle_gamma 90.000000
_cell_volume 2957.746153
_symmetry_space_group_name_H-M "C 2/M"
_symmetry_group_IT_number 12
_symmetry_cell_setting 'monoclinic'
loop_
_space_group_symop_operation_xyz
x,y,z
-x,y,-z
-x,-y,-z
x,-y,z
1/2+x,1/2+y,z
1/2-x,1/2+y,-z
1/2-x,1/2-y,-z
1/2+x,1/2-y,z
loop_
_atom_site_type_symbol
_atom_site_label
_atom_site_fract_x
_atom_site_fract_y
_atom_site_fract_z
Si Si1 0.892028 0.832394 0.827167
Si Si2 0.108734 0.670916 0.600188
Si Si3 0.507401 0.827990 0.383931
Si Si4 0.645984 0.166917 0.963123
Si Si5 0.281249 0.335041 0.816513
Si Si6 0.160443 0.670468 0.739326
Si Si7 0.218635 0.327056 0.369433
O O1 0.825220 0.811700 0.858268
O O2 0.934747 0.750697 0.712630
O O3 0.911016 0.000000 0.814024
O O4 0.894931 0.764535 0.928280
O O5 0.106697 0.500000 0.584526
O O6 0.048835 0.736130 0.616562
O O7 0.112858 0.708931 0.706674
O O8 0.166819 0.731883 0.489472
O O9 0.500000 0.787988 0.500000
O O10 0.515385 0.000000 0.361508
O O11 0.714642 0.194301 0.918537
O O12 0.633531 0.212944 0.867766
O O13 0.627831 0.000000 0.998466
O O14 0.285877 0.500000 0.772124
O O15 0.298204 0.222802 0.717868
O O16 0.176990 0.500000 0.721349
O O17 0.220320 0.757230 0.657665
O O18 0.225135 0.500000 0.365241
#
# Coordination Sequence:
#
# PCOD8081215 Si02
#       7
#     8   8   8   8   8   8   8
#     4  11  22  35  53  77 105 136 170 214 264 306
#     4   9  18  33  53  76 103 138 177 212 250 302
#     4  10  21  38  58  78 102 135 175 214 250 298
#     4   9  18  33  53  75 100 134 173 211 252 304
#     4   9  19  34  51  75 107 140 171 205 254 313
#     4   9  18  34  53  75 106 139 171 209 254 306
#     4  10  18  29  51  82 109 134 168 211 258 304
#
# _framework density 18.933336000000001
#
# number of rings (size 3 to 8) (size 9 to 14) (size 15 to 20)
#    0.000    2.429    0.000    3.429    0.000    4.857 
#    0.000    3.571    0.000    4.286    0.000    0.000 
#    0.000    0.000    0.000    0.000    0.000    0.000 
#
# Total GULP energy -347184.441634 kJ/mol
# GULP energy per Si atom -12399.444344 kJ/mol
# Density = 1.889024 g / cm^3
# Si number density = 18.933336 Si / 1000 Ang^3
#
#
#
# Elastic Constant Matrix: (Units=GPa)
#
#
# Indices 1 2 3 4 5 6 
#
# 1 94.4300 31.5121 44.2560 0.0000 17.2648 0.0000
# 2 31.5121 62.2683 51.0491 0.0000 3.0269 0.0000
# 3 44.2560 51.0491 122.4331 0.0000 9.2731 0.0000
# 4 0.0000 0.0000 0.0000 27.1076 0.0000 -2.6980
# 5 17.2648 3.0269 9.2731 0.0000 22.1593 0.0000
# 6 0.0000 0.0000 0.0000 -2.6980 0.0000 20.3759
#
#
#
# Elastic Compliance Matrix: (Units=1/GPa)
#
#
# Indices 1 2 3 4 5 6 
#
# 1 0.015410 -0.005119 -0.002664 0.000000 -0.010192 0.000000
# 2 -0.005119 0.026121 -0.009369 0.000000 0.004341 0.000000
# 3 -0.002664 -0.009369 0.013202 0.000000 -0.002169 0.000000
# 4 0.000000 0.000000 0.000000 0.037383 0.000000 0.004950
# 5 -0.010192 0.004341 -0.002169 0.000000 0.053384 0.000000
# 6 0.000000 0.000000 0.000000 0.004950 0.000000 0.049733
#
#
# Mechanical properties :
#
#
# Convention : Reuss Voigt Hill
#
# Bulk Modulus (GPa) = 48.95453 59.19621 54.07537
# Shear Modulus (GPa) = 21.15544 24.08282 22.61913
#
# Velocity S-wave (km/s) = 3.34633 3.57035 3.46015
# Velocity P-wave (km/s) = 6.39085 6.95198 6.67731
#
# Compressibility (1/GPa) = 0.02042712
#
# Stress axis : x y z
#
# Youngs Moduli (GPa) = 64.89240 38.28410 75.74856
#
# Poissons Ratio (x) = 0.19599 0.20178
# Poissons Ratio (y) = 0.33220 0.70972
# Poissons Ratio (z) = 0.17286 0.35870
#
# Static dielectric constant tensor:
#      x y z
#    x 3.525030 0.000000 0.135570 
#    y 0.000000 3.300480 0.000000 
#    z 0.135570 0.000000 3.393510 
# 
# 
# High freq. dielectric constant tensor:
#      x y z
#    x 1.727710 0.000000 0.013500 
#    y 0.000000 1.719000 0.000000 
#    z 0.013500 0.000000 1.735950 
# 
# From -- ./inp_files/243679.got.cif
#   From: 2010.06.25/outbox.cif.g09.slc.cpg/sg12_122_cif.got.tgz:243679.got - 2010.06.28 00:19:55.
