data_PCOD8081279
_publ_section_title
;
Structure prediction by ZEFSAII (Michael W. Deem and Ramdas Pophale) SiO2 
 PCOD8081279
Probable space group: C 2/M
;
_chemical_formula_sum "Si O2"
_cell_formula_units_Z 64
_cell_length_a 28.341406
_cell_length_b 9.224591
_cell_length_c 21.214519
_cell_angle_alpha 90.000000
_cell_angle_beta 132.374157
_cell_angle_gamma 90.000000
_cell_volume 4097.365668
_symmetry_space_group_name_H-M "C 2/M"
_symmetry_group_IT_number 12
_symmetry_cell_setting 'monoclinic'
loop_
_space_group_symop_operation_xyz
x,y,z
-x,y,-z
-x,-y,-z
x,-y,z
1/2+x,1/2+y,z
1/2-x,1/2+y,-z
1/2-x,1/2-y,-z
1/2+x,1/2-y,z
loop_
_atom_site_type_symbol
_atom_site_label
_atom_site_fract_x
_atom_site_fract_y
_atom_site_fract_z
Si Si1 0.468300 0.328547 0.657212
Si Si2 0.298657 0.335255 0.002706
Si Si3 0.193952 0.832173 0.674868
Si Si4 0.850531 0.668230 0.590227
Si Si5 0.740045 0.665395 0.582116
Si Si6 0.786252 0.670219 0.181813
Si Si7 0.611147 0.330675 0.812278
Si Si8 0.555579 0.327969 0.505765
O O1 0.459987 0.500000 0.656340
O O2 0.417752 0.250869 0.657807
O O3 0.538731 0.277333 0.740671
O O4 0.455006 0.272028 0.574571
O O5 0.280957 0.500000 0.998933
O O6 0.368873 0.303444 0.095652
O O7 0.250000 0.250000 0.000000
O O8 0.282783 0.299485 0.915140
O O9 0.240929 0.807595 0.657786
O O10 0.221264 0.738370 0.756353
O O11 0.123465 0.775325 0.593287
O O12 0.191737 0.000000 0.693123
O O13 0.863339 0.500000 0.589615
O O14 0.810706 0.694866 0.618630
O O15 0.811332 0.729812 0.495781
O O16 0.718249 0.500000 0.548099
O O17 0.800404 0.500000 0.200548
O O18 0.844553 0.742482 0.196146
O O19 0.616724 0.500000 0.798860
O O20 0.500000 0.262900 0.500000
O O21 0.552376 0.500000 0.502676
#
# Coordination Sequence:
#
# PCOD8081279 Si02
#       8
#     8   8   8   8   8   8   8   8
#     4  10  18  30  47  66  88 117 153 186 217 260
#     4   8  15  28  44  64  88 115 147 185 223 259
#     4  10  18  30  46  62  86 119 156 185 208 258
#     4  10  19  30  47  68  90 113 143 187 235 271
#     4   9  18  33  49  64  84 117 154 187 221 262
#     4  10  19  29  43  66  97 121 143 185 233 263
#     4   9  17  30  49  67  86 120 160 184 209 263
#     4   9  16  26  41  60  83 114 150 182 206 237
#
# _framework density 15.619790999999999
#
# number of rings (size 3 to 8) (size 9 to 14) (size 15 to 20)
#    0.000    2.625    1.250    1.500    0.000    4.000 
#    0.000    0.000    0.000    1.500    0.000    0.875 
#    0.000    7.000    0.000    0.000    0.000    0.000 
#
# Total GULP energy -396558.565379 kJ/mol
# GULP energy per Si atom -12392.455168 kJ/mol
# Density = 1.558424 g / cm^3
# Si number density = 15.619791 Si / 1000 Ang^3
#
#
#
# Elastic Constant Matrix: (Units=GPa)
#
#
# Indices 1 2 3 4 5 6 
#
# 1 94.9498 35.6903 52.6258 0.0000 -4.6665 0.0000
# 2 35.6903 52.0993 40.3461 0.0000 -2.8575 0.0000
# 3 52.6258 40.3461 121.6442 0.0000 -9.5376 0.0000
# 4 0.0000 0.0000 0.0000 21.3495 0.0000 -1.0977
# 5 -4.6665 -2.8575 -9.5376 0.0000 13.3942 0.0000
# 6 0.0000 0.0000 0.0000 -1.0977 0.0000 23.2255
#
#
#
# Elastic Compliance Matrix: (Units=1/GPa)
#
#
# Indices 1 2 3 4 5 6 
#
# 1 0.015734 -0.007417 -0.004280 0.000000 0.000852 0.000000
# 2 -0.007417 0.029330 -0.006599 0.000000 -0.001026 0.000000
# 3 -0.004280 -0.006599 0.012745 0.000000 0.006177 0.000000
# 4 0.000000 0.000000 0.000000 0.046954 0.000000 0.002219
# 5 0.000852 -0.001026 0.006177 0.000000 0.079135 0.000000
# 6 0.000000 0.000000 0.000000 0.002219 0.000000 0.043161
#
#
# Mechanical properties :
#
#
# Convention : Reuss Voigt Hill
#
# Bulk Modulus (GPa) = 47.13500 58.44642 52.79071
# Shear Modulus (GPa) = 18.46897 20.92924 19.69910
#
# Velocity S-wave (km/s) = 3.44235 3.66446 3.55514
# Velocity P-wave (km/s) = 6.78540 7.44337 7.12199
#
# Compressibility (1/GPa) = 0.02121566
#
# Stress axis : x y z
#
# Youngs Moduli (GPa) = 63.55681 34.09515 78.45956
#
# Poissons Ratio (x) = 0.25290 0.33580
# Poissons Ratio (y) = 0.47142 0.51779
# Poissons Ratio (z) = 0.27202 0.22501
#
# Static dielectric constant tensor:
#      x y z
#    x 2.932840 0.000000 0.013870 
#    y 0.000000 2.897820 0.000000 
#    z 0.013870 0.000000 3.425460 
# 
# 
# High freq. dielectric constant tensor:
#      x y z
#    x 1.578170 0.000000 -0.001650 
#    y 0.000000 1.593230 0.000000 
#    z -0.001650 0.000000 1.593540 
# 
# From -- ./inp_files/326951.got.cif
#   From: 2010.06.25/outbox.cif.g09.slc.cpg/sg12_164_cif.got.tgz:326951.got - 2010.06.28 00:19:55.
