data_PCOD8081906
_publ_section_title
;
Structure prediction by ZEFSAII (Michael W. Deem and Ramdas Pophale) SiO2 
 PCOD8081906
Probable space group: C 2/M
;
_chemical_formula_sum "Si O2"
_cell_formula_units_Z 56
_cell_length_a 21.756384
_cell_length_b 15.033681
_cell_length_c 24.385981
_cell_angle_alpha 90.000000
_cell_angle_beta 157.477632
_cell_angle_gamma 90.000000
_cell_volume 3055.209765
_symmetry_space_group_name_H-M "C 2/M"
_symmetry_group_IT_number 12
_symmetry_cell_setting 'monoclinic'
loop_
_space_group_symop_operation_xyz
x,y,z
-x,y,-z
-x,-y,-z
x,-y,z
1/2+x,1/2+y,z
1/2-x,1/2+y,-z
1/2-x,1/2-y,-z
1/2+x,1/2-y,z
loop_
_atom_site_type_symbol
_atom_site_label
_atom_site_fract_x
_atom_site_fract_y
_atom_site_fract_z
Si Si1 0.469423 0.398707 0.915031
Si Si2 0.611530 0.899106 0.641062
Si Si3 0.041221 0.276968 0.399634
Si Si4 0.395368 0.344890 0.082220
Si Si5 0.178467 0.905780 0.379225
Si Si6 0.960134 0.322944 0.209084
Si Si7 0.804344 0.099417 0.480798
O O1 0.536565 0.500000 0.967142
O O2 0.280937 0.395163 0.750643
O O3 0.558954 0.338622 0.944207
O O4 0.500000 0.357489 0.000000
O O5 0.500000 0.869689 0.500000
O O6 0.593911 0.826638 0.675508
O O7 0.578202 0.000000 0.635423
O O8 0.209372 0.326889 0.548791
O O9 0.082830 0.175722 0.454044
O O10 0.989573 0.280186 0.293395
O O11 0.511713 0.413944 0.208551
O O12 0.434032 0.251137 0.141783
O O13 0.208938 0.376398 0.931203
O O14 0.139078 0.894704 0.410222
O O15 0.269123 0.000000 0.444576
O O16 0.112333 0.383162 0.317919
O O17 0.838047 0.000000 0.484380
#
# Coordination Sequence:
#
# PCOD8081906 Si02
#       7
#     8   8   8   8   8   8   8
#     4  10  21  35  49  75 111 144 175 208 259 328
#     4  10  21  34  53  82 109 139 180 215 257 323
#     4  11  18  36  53  76 110 144 180 227 269 318
#     4  11  19  33  53  78 111 140 178 223 260 327
#     4  10  18  30  52  78 106 143 175 212 270 325
#     4  10  21  33  52  80 107 141 184 218 273 328
#     4  10  20  34  51  75 108 141 179 223 269 317
#
# _framework density 18.329346000000001
#
# number of rings (size 3 to 8) (size 9 to 14) (size 15 to 20)
#    0.000    1.714    2.857    3.429    0.000    2.857 
#    0.000    0.000    0.000    0.429    0.000    0.000 
#    0.000    2.286    0.000    0.000    0.000    0.000 
#
# Total GULP energy -346890.380756 kJ/mol
# GULP energy per Si atom -12388.942170 kJ/mol
# Density = 1.828763 g / cm^3
# Si number density = 18.329346 Si / 1000 Ang^3
#
#
#
# Elastic Constant Matrix: (Units=GPa)
#
#
# Indices 1 2 3 4 5 6 
#
# 1 82.2907 31.7140 21.8115 0.0091 -3.6622 0.0034
# 2 31.7140 100.6345 4.0970 0.0219 3.5261 0.0307
# 3 21.8115 4.0970 81.6768 0.0327 -12.3068 0.0369
# 4 0.0091 0.0219 0.0327 7.4824 0.0098 -7.9314
# 5 -3.6622 3.5261 -12.3068 0.0098 23.3101 0.0193
# 6 0.0034 0.0307 0.0369 -7.9314 0.0193 18.6815
#
#
#
# Elastic Compliance Matrix: (Units=1/GPa)
#
#
# Indices 1 2 3 4 5 6 
#
# 1 0.014924 -0.004598 -0.003582 0.000038 0.001149 0.000027
# 2 -0.004598 0.011454 0.000308 -0.000079 -0.002292 -0.000050
# 3 -0.003582 0.000308 0.014224 -0.000191 0.006901 -0.000116
# 4 0.000038 -0.000079 -0.000191 0.243013 -0.000270 0.103173
# 5 0.001149 -0.002292 0.006901 -0.000270 0.047071 -0.000173
# 6 0.000027 -0.000050 -0.000116 0.103173 -0.000173 0.097332
#
#
# Mechanical properties :
#
#
# Convention : Reuss Voigt Hill
#
# Bulk Modulus (GPa) = 40.22634 42.20524 41.21579
# Shear Modulus (GPa) = 11.06078 23.69343 17.37711
#
# Velocity S-wave (km/s) = 2.45918 3.59925 3.08238
# Velocity P-wave (km/s) = 5.48247 6.35207 5.93322
#
# Compressibility (1/GPa) = 0.02485933
#
# Stress axis : x y z
#
# Youngs Moduli (GPa) = 67.00404 87.30799 70.30201
#
# Poissons Ratio (x) = 0.40142 0.25181
# Poissons Ratio (y) = 0.30807 -0.02165
# Poissons Ratio (z) = 0.23999 -0.02689
#
# Static dielectric constant tensor:
#      x y z
#    x 3.435590 -0.000240 0.065240 
#    y -0.000240 3.444900 -0.000170 
#    z 0.065240 -0.000170 3.724360 
# 
# 
# High freq. dielectric constant tensor:
#      x y z
#    x 1.680190 0.000000 -0.008430 
#    y 0.000000 1.691660 0.000000 
#    z -0.008430 0.000000 1.726570 
# 
# From -- ./inp_files/368095.got.cif
#   From: 2010.06.25/outbox.cif.g09.slc.cpg/sg12_185_cif.got.tgz:368095.got - 2010.06.28 00:19:55.
