data_PCOD8081492
_publ_section_title
;
Structure prediction by ZEFSAII (Michael W. Deem and Ramdas Pophale) SiO2 
 PCOD8081492
Probable space group: C 2/M
;
_chemical_formula_sum "Si O2"
_cell_formula_units_Z 56
_cell_length_a 15.165206
_cell_length_b 21.452263
_cell_length_c 23.151733
_cell_angle_alpha 90.000000
_cell_angle_beta 155.166452
_cell_angle_gamma 90.000000
_cell_volume 3163.276805
_symmetry_space_group_name_H-M "C 2/M"
_symmetry_group_IT_number 12
_symmetry_cell_setting 'monoclinic'
loop_
_space_group_symop_operation_xyz
x,y,z
-x,y,-z
-x,-y,-z
x,-y,z
1/2+x,1/2+y,z
1/2-x,1/2+y,-z
1/2-x,1/2-y,-z
1/2+x,1/2-y,z
loop_
_atom_site_type_symbol
_atom_site_label
_atom_site_fract_x
_atom_site_fract_y
_atom_site_fract_z
Si Si1 0.828288 0.605929 0.740972
Si Si2 0.204022 0.679021 0.979373
Si Si3 0.465077 0.000000 0.073105
Si Si4 0.258676 0.203885 0.873394
Si Si5 0.289365 0.349040 0.908252
Si Si6 0.498399 0.384233 0.355253
Si Si7 0.617697 0.925735 0.353703
Si Si8 0.166390 0.000000 0.799859
O O1 0.620102 0.602456 0.654930
O O2 0.772698 0.586775 0.642960
O O3 0.011360 0.560174 0.873036
O O4 0.950647 0.671738 0.819030
O O5 0.277790 0.664323 0.088910
O O6 0.250000 0.750000 0.000000
O O7 0.322705 0.642222 0.997631
O O8 0.636671 0.000000 0.125261
O O9 0.236304 0.000000 0.908179
O O10 0.218877 0.277746 0.854314
O O11 0.090864 0.179246 0.726178
O O12 0.500000 0.189744 0.000000
O O13 0.114880 0.397272 0.781927
O O14 0.500000 0.366517 0.000000
O O15 0.744659 0.386536 0.517709
O O16 0.468325 0.438713 0.291159
O O17 0.615262 0.000000 0.365561
#
# Coordination Sequence:
#
# PCOD8081492 Si02
#       8
#     8   8   4   8   8   8   8   4
#     4  10  18  30  48  75 109 146 172 214 269 327
#     4   9  17  31  53  79 107 136 179 223 269 318
#     4   9  16  25  43  67 103 135 175 205 247 320
#     4  10  18  33  56  83 113 141 172 222 278 335
#     4   9  21  38  58  79 100 139 195 243 272 303
#     4  11  20  30  50  77 117 148 167 210 280 340
#     4  11  22  36  51  76 111 148 191 226 269 327
#     4   9  18  25  39  73 105 141 172 195 254 338
#
# _framework density 17.703161999999999
#
# number of rings (size 3 to 8) (size 9 to 14) (size 15 to 20)
#    0.000    2.143    2.857    1.286    2.000    1.429 
#    0.000    0.000    0.000    0.857    0.000    1.000 
#    0.000    0.000    0.000    0.000    0.000    0.000 
#
# Total GULP energy -346890.246653 kJ/mol
# GULP energy per Si atom -12388.937380 kJ/mol
# Density = 1.766287 g / cm^3
# Si number density = 17.703162 Si / 1000 Ang^3
#
#
#
# Elastic Constant Matrix: (Units=GPa)
#
#
# Indices 1 2 3 4 5 6 
#
# 1 81.6358 17.9612 46.2602 -0.0070 -6.3114 -0.0019
# 2 17.9612 70.3227 41.5681 0.0401 -2.7513 -0.0134
# 3 46.2602 41.5681 108.7098 0.0314 -14.1768 0.0206
# 4 -0.0070 0.0401 0.0314 1.1901 -0.0012 24.3243
# 5 -6.3114 -2.7513 -14.1768 -0.0012 25.3895 0.0115
# 6 -0.0019 -0.0134 0.0206 24.3243 0.0115 -10.8849
#
#
#
# Elastic Compliance Matrix: (Units=1/GPa)
#
#
# Indices 1 2 3 4 5 6 
#
# 1 0.016143 -0.000091 -0.006809 0.000013 0.000201 0.000013
# 2 -0.000091 0.018476 -0.007300 0.000008 -0.002096 -0.000022
# 3 -0.006809 -0.007300 0.015707 -0.000025 0.006287 -0.000009
# 4 0.000013 0.000008 -0.000025 0.018003 -0.000027 0.040230
# 5 0.000201 -0.002096 0.006287 -0.000027 0.042720 -0.000001
# 6 0.000013 -0.000022 -0.000009 0.040230 -0.000001 -0.001968
#
#
# Mechanical properties :
#
#
# Convention : Reuss Voigt Hill
#
# Bulk Modulus (GPa) = 45.60227 52.47193 49.03710
# Shear Modulus (GPa) = 34.53312 13.46418 23.99865
#
# Velocity S-wave (km/s) = 4.42144 2.76080 3.68586
# Velocity P-wave (km/s) = 7.20283 6.31403 6.77302
#
# Compressibility (1/GPa) = 0.02192873
#
# Stress axis : x y z
#
# Youngs Moduli (GPa) = 61.94525 54.12377 63.66478
#
# Poissons Ratio (x) = 0.00491 0.43347
# Poissons Ratio (y) = 0.00562 0.46473
# Poissons Ratio (z) = 0.42177 0.39508
#
# Static dielectric constant tensor:
#      x y z
#    x 3.892820 0.000090 -0.493160 
#    y 0.000090 3.309040 -0.000060 
#    z -0.493160 -0.000060 3.262620 
# 
# 
# High freq. dielectric constant tensor:
#      x y z
#    x 1.672510 0.000000 -0.024610 
#    y 0.000000 1.679960 0.000000 
#    z -0.024610 0.000000 1.666170 
# 
# From -- ./inp_files/364689.got.cif
#   From: 2010.06.25/outbox.cif.g09.slc.cpg/sg12_183_cif.got.tgz:364689.got - 2010.06.28 00:19:55.
