data_PCOD8081184
_publ_section_title
;
Structure prediction by ZEFSAII (Michael W. Deem and Ramdas Pophale) SiO2 
 PCOD8081184
Probable space group: C 2/M
;
_chemical_formula_sum "Si O2"
_cell_formula_units_Z 64
_cell_length_a 12.196580
_cell_length_b 14.429488
_cell_length_c 27.130067
_cell_angle_alpha 90.000000
_cell_angle_beta 141.075249
_cell_angle_gamma 90.000000
_cell_volume 2999.897084
_symmetry_space_group_name_H-M "C 2/M"
_symmetry_group_IT_number 12
_symmetry_cell_setting 'monoclinic'
loop_
_space_group_symop_operation_xyz
x,y,z
-x,y,-z
-x,-y,-z
x,-y,z
1/2+x,1/2+y,z
1/2-x,1/2+y,-z
1/2-x,1/2-y,-z
1/2+x,1/2-y,z
loop_
_atom_site_type_symbol
_atom_site_label
_atom_site_fract_x
_atom_site_fract_y
_atom_site_fract_z
Si Si1 0.663364 0.890324 0.588445
Si Si2 0.098463 0.894034 0.862992
Si Si3 0.750064 0.299361 0.823057
Si Si4 0.020452 0.605087 0.382584
Si Si5 0.518552 0.609922 0.664122
Si Si6 0.406770 0.389894 0.516530
Si Si7 0.573222 0.897590 0.970794
Si Si8 0.756988 0.397609 0.208127
O O1 0.500000 0.855095 0.500000
O O2 0.619739 0.851510 0.628022
O O3 0.843781 0.851595 0.629579
O O4 0.683784 0.000000 0.593616
O O5 0.128881 0.839077 0.823442
O O6 0.898354 0.883603 0.807222
O O7 0.147415 0.000000 0.867992
O O8 0.226403 0.861101 0.952819
O O9 0.676449 0.332261 0.744180
O O10 0.748634 0.188047 0.831268
O O11 0.952573 0.330887 0.895778
O O12 0.049278 0.500000 0.410744
O O13 0.210707 0.653251 0.450059
O O14 0.941237 0.608792 0.300419
O O15 0.548120 0.500000 0.682111
O O16 0.510347 0.635585 0.603073
O O17 0.500000 0.349045 0.500000
O O18 0.394030 0.500000 0.506967
O O19 0.569517 0.000000 0.945275
O O20 0.500000 0.900635 0.000000
O O21 0.740147 0.500000 0.176673
#
# Coordination Sequence:
#
# PCOD8081184 Si02
#       8
#     8   8   8   8   8   8   8   8
#     4   9  14  24  49  79 103 131 174 234 294 343
#     4   9  18  37  63  89 117 151 187 228 287 353
#     4  11  20  33  56  86 118 146 188 241 290 336
#     4   9  16  30  50  71  99 142 192 231 280 342
#     4  10  18  29  50  83 115 142 184 243 302 343
#     4   9  17  30  48  70 103 154 197 224 276 354
#     4   8  15  30  57  90 120 148 180 225 288 353
#     4  10  22  38  56  79 111 156 200 235 280 344
#
# _framework density 21.334064999999999
#
# number of rings (size 3 to 8) (size 9 to 14) (size 15 to 20)
#    0.000    2.625    1.250    2.625    0.000    2.500 
#    2.250    0.625    0.000    4.875    0.000    0.000 
#    0.000    0.000    0.000    0.000    0.000    0.000 
#
# Total GULP energy -396509.105246 kJ/mol
# GULP energy per Si atom -12390.909539 kJ/mol
# Density = 2.128551 g / cm^3
# Si number density = 21.334065 Si / 1000 Ang^3
#
#
#
# Elastic Constant Matrix: (Units=GPa)
#
#
# Indices 1 2 3 4 5 6 
#
# 1 84.4541 21.0137 32.8740 0.0000 -3.9473 0.0000
# 2 21.0137 87.4078 39.0294 0.0000 -4.2042 0.0000
# 3 32.8740 39.0294 133.1425 0.0000 5.7204 0.0000
# 4 0.0000 0.0000 0.0000 9.8002 0.0000 -3.8755
# 5 -3.9473 -4.2042 5.7204 0.0000 18.4624 0.0000
# 6 0.0000 0.0000 0.0000 -3.8755 0.0000 10.9931
#
#
#
# Elastic Compliance Matrix: (Units=1/GPa)
#
#
# Indices 1 2 3 4 5 6 
#
# 1 0.013605 -0.001772 -0.002987 0.000000 0.003431 0.000000
# 2 -0.001772 0.013732 -0.003756 0.000000 0.003912 0.000000
# 3 -0.002987 -0.003756 0.009541 0.000000 -0.004450 0.000000
# 4 0.000000 0.000000 0.000000 0.118568 0.000000 0.041800
# 5 0.003431 0.003912 -0.004450 0.000000 0.057167 0.000000
# 6 0.000000 0.000000 0.000000 0.041800 0.000000 0.105702
#
#
# Mechanical properties :
#
#
# Convention : Reuss Voigt Hill
#
# Bulk Modulus (GPa) = 50.38489 54.53761 52.46125
# Shear Modulus (GPa) = 14.62160 21.99030 18.30595
#
# Velocity S-wave (km/s) = 2.62079 3.21403 2.93245
# Velocity P-wave (km/s) = 5.72943 6.27634 6.00911
#
# Compressibility (1/GPa) = 0.01984722
#
# Stress axis : x y z
#
# Youngs Moduli (GPa) = 73.50383 72.82330 104.81623
#
# Poissons Ratio (x) = 0.12903 0.31310
# Poissons Ratio (y) = 0.13024 0.39368
# Poissons Ratio (z) = 0.21956 0.27352
#
# Static dielectric constant tensor:
#      x y z
#    x 3.674480 0.000000 0.261830 
#    y 0.000000 3.686470 0.000000 
#    z 0.261830 0.000000 4.099420 
# 
# 
# High freq. dielectric constant tensor:
#      x y z
#    x 1.804520 0.000000 0.018360 
#    y 0.000000 1.815610 0.000000 
#    z 0.018360 0.000000 1.840340 
# 
# From -- ./inp_files/358461.got.cif
#   From: 2010.06.25/outbox.cif.g09.slc.cpg/sg12_180_cif.got.tgz:358461.got - 2010.06.28 00:19:55.
