data_PCOD8081513
_publ_section_title
;
Structure prediction by ZEFSAII (Michael W. Deem and Ramdas Pophale) SiO2 
 PCOD8081513
Probable space group: C 2/M
;
_chemical_formula_sum "Si O2"
_cell_formula_units_Z 56
_cell_length_a 25.370042
_cell_length_b 8.880548
_cell_length_c 20.389641
_cell_angle_alpha 90.000000
_cell_angle_beta 132.362819
_cell_angle_gamma 90.000000
_cell_volume 3394.313434
_symmetry_space_group_name_H-M "C 2/M"
_symmetry_group_IT_number 12
_symmetry_cell_setting 'monoclinic'
loop_
_space_group_symop_operation_xyz
x,y,z
-x,y,-z
-x,-y,-z
x,-y,z
1/2+x,1/2+y,z
1/2-x,1/2+y,-z
1/2-x,1/2-y,-z
1/2+x,1/2-y,z
loop_
_atom_site_type_symbol
_atom_site_label
_atom_site_fract_x
_atom_site_fract_y
_atom_site_fract_z
Si Si1 0.358884 0.833900 0.599994
Si Si2 0.597995 0.324073 0.916609
Si Si3 0.693854 0.819817 0.902383
Si Si4 0.793727 0.320991 0.893005
Si Si5 0.932719 0.826360 0.775084
Si Si6 0.315916 0.177911 0.762090
Si Si7 0.718081 0.333511 0.568463
O O1 0.415515 0.737235 0.688491
O O2 0.345033 0.765896 0.515830
O O3 0.284795 0.840155 0.575844
O O4 0.391029 0.000000 0.617576
O O5 0.618508 0.500000 0.931465
O O6 0.617902 0.245641 0.863275
O O7 0.515071 0.298982 0.860182
O O8 0.639840 0.244218 0.010805
O O9 0.718734 0.755472 0.852676
O O10 0.693563 0.000000 0.902422
O O11 0.750000 0.750000 0.000000
O O12 0.789817 0.500000 0.899289
O O13 0.804756 0.273559 0.827241
O O14 0.888726 0.748668 0.796261
O O15 0.912068 0.000000 0.756920
O O16 0.247288 0.233727 0.661986
O O17 0.323663 0.000000 0.759737
O O18 0.686335 0.500000 0.552431
#
# Coordination Sequence:
#
# PCOD8081513 Si02
#       7
#     8   8   8   8   8   8   8
#     4   9  16  26  42  63  87 115 148 185 223 264
#     4  10  20  33  47  66  91 120 154 189 226 266
#     4  10  18  30  49  69  87 112 148 191 232 265
#     4  10  19  32  49  68  91 120 152 187 226 265
#     4  10  20  31  45  65  92 124 154 186 223 266
#     4   9  19  32  46  66  93 124 154 183 219 268
#     4   8  14  26  42  61  86 115 148 183 218 259
#
# _framework density 16.498182
#
# number of rings (size 3 to 8) (size 9 to 14) (size 15 to 20)
#    0.000    2.571    0.000    5.571    0.000    7.429 
#    0.000    2.857    0.000    0.000    0.000    1.000 
#    0.000    8.000    0.000    0.000    0.000    0.000 
#
# Total GULP energy -347039.872123 kJ/mol
# GULP energy per Si atom -12394.281147 kJ/mol
# Density = 1.646063 g / cm^3
# Si number density = 16.498182 Si / 1000 Ang^3
#
#
#
# Elastic Constant Matrix: (Units=GPa)
#
#
# Indices 1 2 3 4 5 6 
#
# 1 79.2994 46.7623 51.7714 0.0000 -21.8423 0.0000
# 2 46.7623 97.6197 45.3550 0.0000 -12.9660 0.0000
# 3 51.7714 45.3550 98.6720 0.0000 -20.7052 0.0000
# 4 0.0000 0.0000 0.0000 26.3230 0.0000 -0.4375
# 5 -21.8423 -12.9660 -20.7052 0.0000 8.1362 0.0000
# 6 0.0000 0.0000 0.0000 -0.4375 0.0000 23.5196
#
#
#
# Elastic Compliance Matrix: (Units=1/GPa)
#
#
# Indices 1 2 3 4 5 6 
#
# 1 0.055376 -0.009761 0.007215 0.000000 0.151467 0.000000
# 2 -0.009761 0.015301 -0.004922 0.000000 -0.014345 0.000000
# 3 0.007215 -0.004922 0.023669 0.000000 0.071760 0.000000
# 4 0.000000 0.000000 0.000000 0.038001 0.000000 0.000707
# 5 0.151467 -0.014345 0.071760 0.000000 0.689284 0.000000
# 6 0.000000 0.000000 0.000000 0.000707 0.000000 0.042531
#
#
# Mechanical properties :
#
#
# Convention : Reuss Voigt Hill
#
# Bulk Modulus (GPa) = 12.59264 62.59649 37.59457
# Shear Modulus (GPa) = 5.52140 20.37594 12.94867
#
# Velocity S-wave (km/s) = 1.83138 3.51813 2.80456
# Velocity P-wave (km/s) = 3.48156 7.38423 5.77270
#
# Compressibility (1/GPa) = 0.07941145
#
# Stress axis : x y z
#
# Youngs Moduli (GPa) = 18.05850 65.35554 42.24903
#
# Poissons Ratio (x) = 0.63791 -0.30485
# Poissons Ratio (y) = 0.17626 0.20795
# Poissons Ratio (z) = -0.13030 0.32168
#
# Static dielectric constant tensor:
#      x y z
#    x 3.195280 0.000000 -0.178890 
#    y 0.000000 3.306580 0.000000 
#    z -0.178890 0.000000 3.183150 
# 
# 
# High freq. dielectric constant tensor:
#      x y z
#    x 1.601950 0.000000 -0.007600 
#    y 0.000000 1.650960 0.000000 
#    z -0.007600 0.000000 1.622270 
# 
# From -- ./inp_files/291970.got.cif
#   From: 2010.06.25/outbox.cif.g09.slc.cpg/sg12_146_cif.got.tgz:291970.got - 2010.06.28 00:19:55.
