data_PCOD8081970
_publ_section_title
;
Structure prediction by ZEFSAII (Michael W. Deem and Ramdas Pophale) SiO2 
 PCOD8081970
Probable space group: C 2/M
;
_chemical_formula_sum "Si O2"
_cell_formula_units_Z 64
_cell_length_a 14.853799
_cell_length_b 14.464739
_cell_length_c 18.240204
_cell_angle_alpha 90.000000
_cell_angle_beta 121.050672
_cell_angle_gamma 90.000000
_cell_volume 3357.472134
_symmetry_space_group_name_H-M "C 2/M"
_symmetry_group_IT_number 12
_symmetry_cell_setting 'monoclinic'
loop_
_space_group_symop_operation_xyz
x,y,z
-x,y,-z
-x,-y,-z
x,-y,z
1/2+x,1/2+y,z
1/2-x,1/2+y,-z
1/2-x,1/2-y,-z
1/2+x,1/2-y,z
loop_
_atom_site_type_symbol
_atom_site_label
_atom_site_fract_x
_atom_site_fract_y
_atom_site_fract_z
Si Si1 0.403530 0.898234 0.918588
Si Si2 0.498163 0.106728 0.581536
Si Si3 0.826507 0.604034 0.620212
Si Si4 0.105065 0.106488 0.583022
Si Si5 0.657987 0.758101 0.720695
Si Si6 0.885703 0.241885 0.128211
Si Si7 0.120912 0.726451 0.226010
Si Si8 0.731772 0.896039 0.001046
O O1 0.365636 0.850361 0.829962
O O2 0.306299 0.903937 0.932000
O O3 0.444126 0.000000 0.912831
O O4 0.500000 0.845401 0.000000
O O5 0.500000 0.147491 0.500000
O O6 0.379474 0.119371 0.562824
O O7 0.580073 0.159256 0.667699
O O8 0.532790 0.000000 0.595594
O O9 0.851490 0.500000 0.658384
O O10 0.700619 0.618724 0.564830
O O11 0.879781 0.677490 0.695962
O O12 0.126764 0.164319 0.665254
O O13 0.000000 0.143459 0.500000
O O14 0.091839 0.000000 0.601624
O O15 0.653513 0.735298 0.804831
O O16 0.775805 0.790238 0.744169
O O17 0.836653 0.165943 0.052111
O O18 0.010189 0.221210 0.173743
O O19 0.853953 0.344719 0.086536
O O20 0.753891 0.000000 0.979191
#
# Coordination Sequence:
#
# PCOD8081970 Si02
#       8
#     8   8   8   8   8   8   8   8
#     4  10  18  30  53  82 108 136 177 234 291 328
#     4  10  21  39  59  80 111 151 196 235 266 316
#     4   9  18  33  57  84 108 142 188 235 280 323
#     4   9  19  37  59  86 117 145 179 231 293 344
#     4  11  22  37  56  85 114 148 186 232 282 331
#     4  11  22  37  57  83 115 149 184 227 284 334
#     4  11  20  34  54  83 113 141 179 235 284 335
#     4  10  22  38  57  83 113 147 187 231 279 335
#
# _framework density 19.061959999999999
#
# number of rings (size 3 to 8) (size 9 to 14) (size 15 to 20)
#    0.000    1.875    3.750    0.750    0.000    2.000 
#    2.250    2.500    0.000    0.750    0.000    0.000 
#    0.000    0.000    0.000    0.000    0.000    0.000 
#
# Total GULP energy -396652.254288 kJ/mol
# GULP energy per Si atom -12395.382946 kJ/mol
# Density = 1.901857 g / cm^3
# Si number density = 19.061960 Si / 1000 Ang^3
#
#
#
# Elastic Constant Matrix: (Units=GPa)
#
#
# Indices 1 2 3 4 5 6 
#
# 1 115.8903 28.9287 37.2795 0.0000 9.4799 0.0000
# 2 28.9287 69.5548 21.6915 0.0000 5.3934 0.0000
# 3 37.2795 21.6915 75.1529 0.0000 1.8962 0.0000
# 4 0.0000 0.0000 0.0000 22.3548 0.0000 1.7234
# 5 9.4799 5.3934 1.8962 0.0000 40.2302 0.0000
# 6 0.0000 0.0000 0.0000 1.7234 0.0000 21.5453
#
#
#
# Elastic Compliance Matrix: (Units=1/GPa)
#
#
# Indices 1 2 3 4 5 6 
#
# 1 0.011001 -0.003007 -0.004539 0.000000 -0.001975 0.000000
# 2 -0.003007 0.016768 -0.003313 0.000000 -0.001383 0.000000
# 3 -0.004539 -0.003313 0.016496 0.000000 0.000736 0.000000
# 4 0.000000 0.000000 0.000000 0.045011 0.000000 -0.003600
# 5 -0.001975 -0.001383 0.000736 0.000000 0.025473 0.000000
# 6 0.000000 0.000000 0.000000 -0.003600 0.000000 0.046702
#
#
# Mechanical properties :
#
#
# Convention : Reuss Voigt Hill
#
# Bulk Modulus (GPa) = 44.35377 48.48861 46.42119
# Shear Modulus (GPa) = 26.22115 28.33927 27.28021
#
# Velocity S-wave (km/s) = 3.71290 3.85995 3.78714
# Velocity P-wave (km/s) = 6.45752 6.73485 6.59764
#
# Compressibility (1/GPa) = 0.02254600
#
# Stress axis : x y z
#
# Youngs Moduli (GPa) = 90.89906 59.63635 60.62153
#
# Poissons Ratio (x) = 0.17931 0.27519
# Poissons Ratio (y) = 0.27331 0.20087
# Poissons Ratio (z) = 0.41263 0.19760
#
# Static dielectric constant tensor:
#      x y z
#    x 3.681500 0.000000 0.122750 
#    y 0.000000 3.407200 0.000000 
#    z 0.122750 0.000000 3.456300 
# 
# 
# High freq. dielectric constant tensor:
#      x y z
#    x 1.746220 0.000000 0.005790 
#    y 0.000000 1.720150 0.000000 
#    z 0.005790 0.000000 1.738110 
# 
# From -- ./inp_files/270325.got.cif
#   From: 2010.06.25/outbox.cif.g09.slc.cpg/sg12_136_cif.got.tgz:270325.got - 2010.06.28 00:19:55.
