data_PCOD8081277
_publ_section_title
;
Structure prediction by ZEFSAII (Michael W. Deem and Ramdas Pophale) SiO2 
 PCOD8081277
Probable space group: C 2/M
;
_chemical_formula_sum "Si O2"
_cell_formula_units_Z 64
_cell_length_a 24.295509
_cell_length_b 8.966488
_cell_length_c 22.993282
_cell_angle_alpha 90.000000
_cell_angle_beta 51.073730
_cell_angle_gamma 90.000000
_cell_volume 3896.762147
_symmetry_space_group_name_H-M "C 2/M"
_symmetry_group_IT_number 12
_symmetry_cell_setting 'monoclinic'
loop_
_space_group_symop_operation_xyz
x,y,z
-x,y,-z
-x,-y,-z
x,-y,z
1/2+x,1/2+y,z
1/2-x,1/2+y,-z
1/2-x,1/2-y,-z
1/2+x,1/2-y,z
loop_
_atom_site_type_symbol
_atom_site_label
_atom_site_fract_x
_atom_site_fract_y
_atom_site_fract_z
Si Si1 0.216682 0.677275 0.465750
Si Si2 0.717954 0.330618 0.240706
Si Si3 0.576177 0.324280 0.384657
Si Si4 0.419115 0.323526 0.486907
Si Si5 0.420674 0.668532 0.169603
Si Si6 0.041684 0.332035 0.032635
Si Si7 0.200989 0.329657 0.692023
Si Si8 0.837865 0.167147 0.103842
O O1 0.219100 0.500000 0.468778
O O2 0.250000 0.750000 0.500000
O O3 0.135704 0.732553 0.515814
O O4 0.260026 0.729937 0.381098
O O5 0.716913 0.500000 0.218864
O O6 0.638217 0.264034 0.300886
O O7 0.754665 0.321030 0.278710
O O8 0.759954 0.235756 0.164821
O O9 0.585053 0.500000 0.384081
O O10 0.498476 0.285169 0.411394
O O11 0.586663 0.263755 0.443122
O O12 0.403258 0.500000 0.492937
O O13 0.429794 0.500000 0.186289
O O14 0.498003 0.740756 0.110005
O O15 0.377391 0.763721 0.245714
O O16 0.379724 0.670776 0.136177
O O17 0.051672 0.500000 0.048447
O O18 0.118932 0.259462 0.973124
O O19 0.000000 0.329601 0.000000
O O20 0.194496 0.500000 0.674499
O O21 0.829137 0.000000 0.086340
#
# Coordination Sequence:
#
# PCOD8081277 Si02
#       8
#     8   8   8   8   8   8   8   8
#     4  12  24  36  49  65  87 115 148 187 230 271
#     4   9  15  25  41  61  83 112 144 175 210 256
#     4   8  14  26  48  69  88 114 144 178 218 265
#     4   9  16  31  50  68  87 112 145 180 220 267
#     4   9  16  25  37  54  77 104 136 175 216 254
#     4   9  15  23  34  49  70 102 142 177 209 250
#     4  10  18  30  46  62  82 108 144 182 217 261
#     4   9  16  23  32  50  77 108 139 175 214 250
#
# _framework density 16.423891999999999
#
# number of rings (size 3 to 8) (size 9 to 14) (size 15 to 20)
#    0.000    2.625    1.250    3.375    0.000    5.000 
#    0.000    1.875    0.000    0.000    0.000    0.000 
#    0.000    0.000    0.000    1.125    0.000   14.375 
#
# Total GULP energy -396665.069531 kJ/mol
# GULP energy per Si atom -12395.783423 kJ/mol
# Density = 1.638651 g / cm^3
# Si number density = 16.423892 Si / 1000 Ang^3
#
#
#
# Elastic Constant Matrix: (Units=GPa)
#
#
# Indices 1 2 3 4 5 6 
#
# 1 56.9550 34.4056 36.7685 0.0000 -20.3140 -0.0003
# 2 34.4056 118.1795 50.1960 -0.0006 -20.6687 -0.0012
# 3 36.7685 50.1960 104.5600 0.0006 -47.3955 -0.0002
# 4 0.0000 -0.0006 0.0006 28.9478 -0.0002 -4.8776
# 5 -20.3140 -20.6687 -47.3955 -0.0002 26.9765 -0.0001
# 6 -0.0003 -0.0012 -0.0002 -4.8776 -0.0001 14.8153
#
#
#
# Elastic Compliance Matrix: (Units=1/GPa)
#
#
# Indices 1 2 3 4 5 6 
#
# 1 0.026263 -0.005106 0.001999 0.000000 0.019377 0.000000
# 2 -0.005106 0.011712 -0.007378 0.000000 -0.007835 0.000001
# 3 0.001999 -0.007378 0.051681 0.000000 0.086651 0.000001
# 4 0.000000 0.000000 0.000000 0.036574 0.000000 0.012041
# 5 0.019377 -0.007835 0.086651 0.000000 0.197897 0.000002
# 6 0.000000 0.000001 0.000001 0.012041 0.000002 0.071462
#
#
# Mechanical properties :
#
#
# Convention : Reuss Voigt Hill
#
# Bulk Modulus (GPa) = 14.55927 58.04829 36.30378
# Shear Modulus (GPa) = 11.37776 24.70288 18.04032
#
# Velocity S-wave (km/s) = 2.63488 3.88246 3.31784
# Velocity P-wave (km/s) = 4.25920 7.45107 6.06874
#
# Compressibility (1/GPa) = 0.06868477
#
# Stress axis : x y z
#
# Youngs Moduli (GPa) = 38.07681 85.38306 19.34958
#
# Poissons Ratio (x) = 0.43598 -0.03869
# Poissons Ratio (y) = 0.19443 0.14277
# Poissons Ratio (z) = -0.07613 0.62999
#
# Static dielectric constant tensor:
#      x y z
#    x 2.689180 0.000000 -0.395690 
#    y 0.000000 3.146490 0.000000 
#    z -0.395690 0.000000 3.591390 
# 
# 
# High freq. dielectric constant tensor:
#      x y z
#    x 1.564570 0.000000 -0.041730 
#    y 0.000000 1.632670 0.000000 
#    z -0.041730 0.000000 1.635060 
# 
# From -- ./inp_files/324276.got.cif
#   From: 2010.06.25/outbox.cif.g09.slc.cpg/sg12_163_cif.got.tgz:324276.got - 2010.06.28 00:19:55.
