data_PCOD8081029
_publ_section_title
;
Structure prediction by ZEFSAII (Michael W. Deem and Ramdas Pophale) SiO2 
 PCOD8081029
Probable space group: C 2/M
;
_chemical_formula_sum "Si O2"
_cell_formula_units_Z 48
_cell_length_a 11.785585
_cell_length_b 22.158009
_cell_length_c 20.669261
_cell_angle_alpha 90.000000
_cell_angle_beta 148.709619
_cell_angle_gamma 90.000000
_cell_volume 2803.421613
_symmetry_space_group_name_H-M "C 2/M"
_symmetry_group_IT_number 12
_symmetry_cell_setting 'monoclinic'
loop_
_space_group_symop_operation_xyz
x,y,z
-x,y,-z
-x,-y,-z
x,-y,z
1/2+x,1/2+y,z
1/2-x,1/2+y,-z
1/2-x,1/2-y,-z
1/2+x,1/2-y,z
loop_
_atom_site_type_symbol
_atom_site_label
_atom_site_fract_x
_atom_site_fract_y
_atom_site_fract_z
Si Si1 0.228409 0.070776 0.137169
Si Si2 0.871091 0.430869 0.348315
Si Si3 0.334142 0.875388 0.664922
Si Si4 0.008716 0.930638 0.413768
Si Si5 0.805289 0.884069 0.615913
Si Si6 0.727583 0.752295 0.568463
O O1 0.257168 0.087768 0.226272
O O2 0.429089 0.101349 0.197032
O O3 0.236073 0.000000 0.127914
O O4 0.000000 0.097706 0.000000
O O5 0.953489 0.500000 0.388099
O O6 0.687475 0.420737 0.313694
O O7 0.071412 0.387850 0.465106
O O8 0.167558 0.884935 0.642636
O O9 0.357673 0.805685 0.657384
O O10 0.245347 0.915692 0.561109
O O11 0.013293 0.916074 0.340187
O O12 0.946135 0.000000 0.396601
O O13 0.853584 0.813303 0.650302
O O14 0.500000 0.751603 0.500000
O O15 0.750000 0.750000 0.500000
#
# Coordination Sequence:
#
# PCOD8081029 Si02
#       6
#     8   8   8   8   8   8
#     4  10  20  35  54  75 102 137 178 219 258 309
#     4  10  18  29  48  77 106 131 169 215 263 315
#     4  11  20  32  48  76 105 138 173 214 261 323
#     4  11  19  30  49  77 112 136 162 214 279 328
#     4  11  19  30  50  78 107 142 164 211 274 324
#     4  12  20  33  48  76 112 145 178 209 270 329
#
# _framework density 17.121934
#
# number of rings (size 3 to 8) (size 9 to 14) (size 15 to 20)
#    0.000    1.167    6.667    4.000    0.000    0.000 
#    0.000    0.000    0.000    2.000    0.000    4.667 
#    0.000    0.000    0.000    0.000    0.000    0.000 
#
# Total GULP energy -297364.049189 kJ/mol
# GULP energy per Si atom -12390.168716 kJ/mol
# Density = 1.708296 g / cm^3
# Si number density = 17.121934 Si / 1000 Ang^3
#
#
#
# Elastic Constant Matrix: (Units=GPa)
#
#
# Indices 1 2 3 4 5 6 
#
# 1 92.1385 12.0309 16.6668 0.0007 -2.2379 -0.0001
# 2 12.0309 92.5045 21.0759 0.0047 0.8421 0.0004
# 3 16.6668 21.0759 78.6273 0.0333 8.2322 -0.0040
# 4 0.0007 0.0047 0.0333 13.4101 -0.0039 0.4045
# 5 -2.2379 0.8421 8.2322 -0.0039 18.5375 -0.0021
# 6 -0.0001 0.0004 -0.0040 0.4045 -0.0021 27.5510
#
#
#
# Elastic Compliance Matrix: (Units=1/GPa)
#
#
# Indices 1 2 3 4 5 6 
#
# 1 0.011481 -0.000960 -0.002439 0.000007 0.002513 0.000000
# 2 -0.000960 0.011608 -0.002979 0.000004 0.000680 -0.000001
# 3 -0.002439 -0.002979 0.014736 -0.000037 -0.006703 0.000002
# 4 0.000007 0.000004 -0.000037 0.074604 0.000033 -0.001095
# 5 0.002513 0.000680 -0.006703 0.000033 0.057194 0.000003
# 6 0.000000 -0.000001 0.000002 -0.001095 0.000003 0.036312
#
#
# Mechanical properties :
#
#
# Convention : Reuss Voigt Hill
#
# Bulk Modulus (GPa) = 39.89318 40.31307 40.10312
# Shear Modulus (GPa) = 22.02183 26.13284 24.07733
#
# Velocity S-wave (km/s) = 3.59022 3.91100 3.75404
# Velocity P-wave (km/s) = 6.36681 6.63252 6.50103
#
# Compressibility (1/GPa) = 0.02506694
#
# Stress axis : x y z
#
# Youngs Moduli (GPa) = 87.10124 86.14952 67.86271
#
# Poissons Ratio (x) = 0.08273 0.16554
# Poissons Ratio (y) = 0.08364 0.20217
# Poissons Ratio (z) = 0.21247 0.25664
#
# Static dielectric constant tensor:
#      x y z
#    x 3.717030 -0.000010 -0.040970 
#    y -0.000010 3.319690 -0.000010 
#    z -0.040970 -0.000010 2.756130 
# 
# 
# High freq. dielectric constant tensor:
#      x y z
#    x 1.689700 0.000000 0.000600 
#    y 0.000000 1.670300 0.000000 
#    z 0.000600 0.000000 1.582220 
# 
# From -- ./inp_files/132456.got.cif
#   From: 2010.06.25/outbox.cif.g09.slc.cpg/sg12_67_cif.got.tgz:132456.got - 2010.06.28 00:19:55.
