data_PCOD8081903
_publ_section_title
;
Structure prediction by ZEFSAII (Michael W. Deem and Ramdas Pophale) SiO2 
 PCOD8081903
Probable space group: C 2/M
;
_chemical_formula_sum "Si O2"
_cell_formula_units_Z 56
_cell_length_a 22.244610
_cell_length_b 14.225265
_cell_length_c 17.149690
_cell_angle_alpha 90.000000
_cell_angle_beta 32.920598
_cell_angle_gamma 90.000000
_cell_volume 2949.320803
_symmetry_space_group_name_H-M "C 2/M"
_symmetry_group_IT_number 12
_symmetry_cell_setting 'monoclinic'
loop_
_space_group_symop_operation_xyz
x,y,z
-x,y,-z
-x,-y,-z
x,-y,z
1/2+x,1/2+y,z
1/2-x,1/2+y,-z
1/2-x,1/2-y,-z
1/2+x,1/2-y,z
loop_
_atom_site_type_symbol
_atom_site_label
_atom_site_fract_x
_atom_site_fract_y
_atom_site_fract_z
Si Si1 0.457109 0.722175 0.376694
Si Si2 0.098193 0.893746 0.330983
Si Si3 0.415699 0.892682 0.156533
Si Si4 0.935888 0.605990 0.309740
Si Si5 0.727518 0.271944 0.301316
Si Si6 0.623184 0.607480 0.839071
Si Si7 0.821873 0.107376 0.398061
O O1 0.557536 0.656156 0.295654
O O2 0.503946 0.819386 0.288086
O O3 0.384118 0.751279 0.530786
O O4 0.387019 0.669725 0.387915
O O5 0.199776 0.832178 0.254127
O O6 0.000000 0.899063 0.500000
O O7 0.138848 0.000000 0.267700
O O8 0.470551 0.883008 0.181798
O O9 0.303812 0.833560 0.275450
O O10 0.383677 0.000000 0.173509
O O11 0.500000 0.853307 0.000000
O O12 0.960284 0.500000 0.312458
O O13 0.807181 0.632305 0.460347
O O14 0.790085 0.175115 0.210419
O O15 0.654649 0.500000 0.824825
O O16 0.629860 0.627557 0.739875
O O17 0.500000 0.632008 0.000000
O O18 0.839137 0.000000 0.404599
#
# Coordination Sequence:
#
# PCOD8081903 Si02
#       7
#     8   8   8   8   8   8   8
#     4  11  19  31  51  76 105 135 171 216 261 309
#     4   9  20  34  50  75 105 138 175 217 262 308
#     4  10  20  32  50  78 108 136 166 207 263 320
#     4  10  19  31  50  76 105 136 171 215 262 308
#     4  11  19  32  52  74 103 138 172 211 259 313
#     4  10  21  35  52  77 107 138 174 215 259 311
#     4  10  18  30  52  77 102 135 170 214 266 308
#
# _framework density 18.987421999999999
#
# number of rings (size 3 to 8) (size 9 to 14) (size 15 to 20)
#    0.000    1.857    2.857    2.571    0.000    1.143 
#    0.000    0.714    0.000    6.000    0.000    6.000 
#    0.000    0.000    0.000    0.000    0.000    0.000 
#
# Total GULP energy -347202.131981 kJ/mol
# GULP energy per Si atom -12400.076142 kJ/mol
# Density = 1.894421 g / cm^3
# Si number density = 18.987422 Si / 1000 Ang^3
#
#
#
# Elastic Constant Matrix: (Units=GPa)
#
#
# Indices 1 2 3 4 5 6 
#
# 1 75.7969 74.6839 14.5493 0.0000 5.9377 0.0000
# 2 74.6839 152.2618 22.0781 0.0000 1.0935 0.0000
# 3 14.5493 22.0781 74.4359 0.0000 12.9950 0.0000
# 4 0.0000 0.0000 0.0000 21.2035 0.0000 1.3332
# 5 5.9377 1.0935 12.9950 0.0000 18.0355 0.0000
# 6 0.0000 0.0000 0.0000 1.3332 0.0000 37.8427
#
#
#
# Elastic Compliance Matrix: (Units=1/GPa)
#
#
# Indices 1 2 3 4 5 6 
#
# 1 0.026634 -0.013014 0.000054 0.000000 -0.008018 0.000000
# 2 -0.013014 0.013245 -0.002279 0.000000 0.005124 0.000000
# 3 0.000054 -0.002279 0.016105 0.000000 -0.011483 0.000000
# 4 0.000000 0.000000 0.000000 0.047267 0.000000 -0.001665
# 5 -0.008018 0.005124 -0.011483 0.000000 0.066049 0.000000
# 6 0.000000 0.000000 0.000000 -0.001665 0.000000 0.026484
#
#
# Mechanical properties :
#
#
# Convention : Reuss Voigt Hill
#
# Bulk Modulus (GPa) = 39.20861 58.34634 48.77748
# Shear Modulus (GPa) = 21.29807 28.16190 24.72999
#
# Velocity S-wave (km/s) = 3.35280 3.85540 3.61285
# Velocity P-wave (km/s) = 5.97352 7.11438 6.56877
#
# Compressibility (1/GPa) = 0.02550460
#
# Stress axis : x y z
#
# Youngs Moduli (GPa) = 37.54614 75.50197 62.09411
#
# Poissons Ratio (x) = 0.98259 -0.00335
# Poissons Ratio (y) = 0.48863 0.14152
# Poissons Ratio (z) = -0.00203 0.17208
#
# Static dielectric constant tensor:
#      x y z
#    x 3.270120 0.000000 0.135660 
#    y 0.000000 3.870990 0.000000 
#    z 0.135660 0.000000 3.320620 
# 
# 
# High freq. dielectric constant tensor:
#      x y z
#    x 1.703780 0.000000 0.015550 
#    y 0.000000 1.760940 0.000000 
#    z 0.015550 0.000000 1.711310 
# 
# From -- ./inp_files/233672.got.cif
#   From: 2010.06.25/outbox.cif.g09.slc.cpg/sg12_117_cif.got.tgz:233672.got - 2010.06.28 00:19:55.
