data_PCOD8081271
_publ_section_title
;
Structure prediction by ZEFSAII (Michael W. Deem and Ramdas Pophale) SiO2 
 PCOD8081271
Probable space group: C 2/M
;
_chemical_formula_sum "Si O2"
_cell_formula_units_Z 56
_cell_length_a 5.273148
_cell_length_b 26.259201
_cell_length_c 22.528640
_cell_angle_alpha 90.000000
_cell_angle_beta 90.349552
_cell_angle_gamma 90.000000
_cell_volume 3119.452386
_symmetry_space_group_name_H-M "C 2/M"
_symmetry_group_IT_number 12
_symmetry_cell_setting 'monoclinic'
loop_
_space_group_symop_operation_xyz
x,y,z
-x,y,-z
-x,-y,-z
x,-y,z
1/2+x,1/2+y,z
1/2-x,1/2+y,-z
1/2-x,1/2-y,-z
1/2+x,1/2-y,z
loop_
_atom_site_type_symbol
_atom_site_label
_atom_site_fract_x
_atom_site_fract_y
_atom_site_fract_z
Si Si1 0.008565 0.556900 0.859506
Si Si2 0.996562 0.189473 0.382771
Si Si3 0.004912 0.883341 0.719218
Si Si4 0.497842 0.199686 0.431810
Si Si5 0.007861 0.116572 0.859582
Si Si6 0.005713 0.556901 0.718926
Si Si7 0.486423 0.718512 0.931791
O O1 0.014034 0.500000 0.886854
O O2 0.257311 0.587149 0.881484
O O3 0.010616 0.553279 0.789320
O O4 0.753257 0.584750 0.880564
O O5 0.995044 0.171208 0.314317
O O6 0.748004 0.167222 0.416161
O O7 0.996449 0.250657 0.388998
O O8 0.246614 0.167260 0.416294
O O9 0.005012 0.873530 0.789219
O O10 0.252118 0.914223 0.698263
O O11 0.757101 0.914118 0.697602
O O12 0.500000 0.217452 0.500000
O O13 0.021407 0.170602 0.890184
O O14 0.004300 0.500000 0.691793
O O15 0.213771 0.742835 0.917258
O O16 0.500000 0.700867 0.000000
#
# Coordination Sequence:
#
# PCOD8081271 Si02
#       7
#     8   8   8   8   8   8   8
#     4   9  17  30  52  76 101 132 166 199 253 319
#     4  10  18  30  45  69  97 124 153 197 235 272
#     4  10  19  30  46  74 104 124 156 199 244 301
#     4  10  19  33  50  66  94 129 164 193 227 284
#     4  10  19  33  51  75 103 134 167 210 258 303
#     4   9  17  30  47  67  97 134 162 191 233 289
#     4  10  21  38  56  74  95 133 187 226 246 284
#
# _framework density 17.951868999999999
#
# number of rings (size 3 to 8) (size 9 to 14) (size 15 to 20)
#    0.000    2.286    0.000    4.714    0.000    3.429 
#    5.143    0.000    0.000    2.571    0.000    0.000 
#    0.000   66.286    0.000    0.000    0.000    0.000 
#
# Total GULP energy -347043.681040 kJ/mol
# GULP energy per Si atom -12394.417180 kJ/mol
# Density = 1.791101 g / cm^3
# Si number density = 17.951869 Si / 1000 Ang^3
#
#
#
# Elastic Constant Matrix: (Units=GPa)
#
#
# Indices 1 2 3 4 5 6 
#
# 1 175.4037 34.2125 33.2599 0.0000 -3.2166 0.0000
# 2 34.2125 87.9370 50.2744 0.0000 -2.5932 0.0000
# 3 33.2599 50.2744 54.9110 0.0000 -1.6608 0.0000
# 4 0.0000 0.0000 0.0000 -0.0981 0.0000 -0.5486
# 5 -3.2166 -2.5932 -1.6608 0.0000 13.9294 0.0000
# 6 0.0000 0.0000 0.0000 -0.5486 0.0000 20.1377
#
#
#
# Elastic Compliance Matrix: (Units=1/GPa)
#
#
# Indices 1 2 3 4 5 6 
#
# 1 0.006468 -0.000555 -0.003380 0.000000 0.000987 0.000000
# 2 -0.000555 0.023957 -0.021544 0.000000 0.001763 0.000000
# 3 -0.003380 -0.021544 0.039983 0.000000 -0.000024 0.000000
# 4 0.000000 0.000000 0.000000 -8.846226 0.000000 -0.240988
# 5 0.000987 0.001763 -0.000024 0.000000 0.072344 0.000000
# 6 0.000000 0.000000 0.000000 -0.240988 0.000000 0.043093
#
#
# Mechanical properties :
#
#
# Convention : Reuss Voigt Hill
#
# Bulk Modulus (GPa) = 51.41520 61.52723 56.47122
# Shear Modulus (GPa) = -0.58120 20.16079 9.78980
#
# Velocity S-wave (km/s) = -0.56961 3.35482 2.33778
# Velocity P-wave (km/s) = 5.31697 7.02526 6.22995
#
# Compressibility (1/GPa) = 0.01944950
#
# Stress axis : x y z
#
# Youngs Moduli (GPa) = 154.59774 41.74160 25.01069
#
# Poissons Ratio (x) = 0.02318 0.08453
# Poissons Ratio (y) = 0.08584 0.53884
# Poissons Ratio (z) = 0.52250 0.89930
#
# Static dielectric constant tensor:
#      x y z
#    x 4.411770 0.000000 -0.009400 
#    y 0.000000 3.134650 0.000000 
#    z -0.009400 0.000000 2.968510 
# 
# 
# High freq. dielectric constant tensor:
#      x y z
#    x 1.733590 0.000000 -0.000980 
#    y 0.000000 1.669560 0.000000 
#    z -0.000980 0.000000 1.654920 
# 
# From -- ./inp_files/253657.got.cif
#   From: 2010.06.25/outbox.cif.g09.slc.cpg/sg12_127_cif.got.tgz:253657.got - 2010.06.28 00:19:55.
