data_PCOD8081416
_publ_section_title
;
Structure prediction by ZEFSAII (Michael W. Deem and Ramdas Pophale) SiO2 
 PCOD8081416
Probable space group: C 2/M
;
_chemical_formula_sum "Si O2"
_cell_formula_units_Z 56
_cell_length_a 23.945057
_cell_length_b 8.964395
_cell_length_c 16.602893
_cell_angle_alpha 90.000000
_cell_angle_beta 91.225995
_cell_angle_gamma 90.000000
_cell_volume 3563.044106
_symmetry_space_group_name_H-M "C 2/M"
_symmetry_group_IT_number 12
_symmetry_cell_setting 'monoclinic'
loop_
_space_group_symop_operation_xyz
x,y,z
-x,y,-z
-x,-y,-z
x,-y,z
1/2+x,1/2+y,z
1/2-x,1/2+y,-z
1/2-x,1/2-y,-z
1/2+x,1/2-y,z
loop_
_atom_site_type_symbol
_atom_site_label
_atom_site_fract_x
_atom_site_fract_y
_atom_site_fract_z
Si Si1 0.001533 0.823016 0.090186
Si Si2 0.879869 0.175927 0.847958
Si Si3 0.262307 0.669149 0.417778
Si Si4 0.188779 0.322985 0.721979
Si Si5 0.809719 0.175176 0.001111
Si Si6 0.702296 0.831188 0.261794
Si Si7 0.115900 0.823836 0.845621
O O1 0.056855 0.766790 0.137983
O O2 0.947258 0.772278 0.138009
O O3 0.003198 0.000000 0.082295
O O4 0.000000 0.754896 0.000000
O O5 0.843391 0.225954 0.923269
O O6 0.855164 0.255704 0.768030
O O7 0.877992 0.000000 0.834403
O O8 0.281911 0.500000 0.435322
O O9 0.250000 0.750000 0.500000
O O10 0.310898 0.756449 0.369401
O O11 0.206275 0.670697 0.359914
O O12 0.189276 0.500000 0.719105
O O13 0.244150 0.261715 0.770810
O O14 0.134256 0.263686 0.766172
O O15 0.801086 0.000000 0.001163
O O16 0.750000 0.250000 0.000000
O O17 0.845344 0.226409 0.079141
O O18 0.706181 0.000000 0.228893
O O19 0.119810 0.000000 0.830376
#
# Coordination Sequence:
#
# PCOD8081416 Si02
#       7
#     8   8   8   8   8   8   8
#     4   9  16  30  50  68  89 125 174 218 252 286
#     4  10  18  30  48  69  91 125 170 210 245 289
#     4   9  18  32  52  77 104 130 156 186 236 296
#     4  10  19  31  48  71 101 129 160 198 238 290
#     4  10  20  29  42  63  89 123 162 203 247 289
#     4   9  19  32  47  70 101 129 155 193 243 293
#     4  10  18  31  48  66  93 128 167 210 250 289
#
# _framework density 15.716896999999999
#
# number of rings (size 3 to 8) (size 9 to 14) (size 15 to 20)
#    0.857    1.571    1.429    2.571    0.000    3.429 
#    0.000    0.714    0.000    0.857    0.000    1.000 
#    0.000    8.000    0.000    0.000    0.000    0.000 
#
# Total GULP energy -347027.966896 kJ/mol
# GULP energy per Si atom -12393.855961 kJ/mol
# Density = 1.568112 g / cm^3
# Si number density = 15.716897 Si / 1000 Ang^3
#
#
#
# Elastic Constant Matrix: (Units=GPa)
#
#
# Indices 1 2 3 4 5 6 
#
# 1 124.3980 42.6713 52.1483 0.0000 -7.4705 0.0000
# 2 42.6713 81.8102 44.7667 0.0000 -7.5265 0.0000
# 3 52.1483 44.7667 93.7603 0.0000 -11.0501 0.0000
# 4 0.0000 0.0000 0.0000 24.8678 0.0000 -0.6630
# 5 -7.4705 -7.5265 -11.0501 0.0000 13.7700 0.0000
# 6 0.0000 0.0000 0.0000 -0.6630 0.0000 20.7845
#
#
#
# Elastic Compliance Matrix: (Units=1/GPa)
#
#
# Indices 1 2 3 4 5 6 
#
# 1 0.011095 -0.003241 -0.004554 0.000000 0.000594 0.000000
# 2 -0.003241 0.017605 -0.006269 0.000000 0.002834 0.000000
# 3 -0.004554 -0.006269 0.017115 0.000000 0.007837 0.000000
# 4 0.000000 0.000000 0.000000 0.040247 0.000000 0.001284
# 5 0.000594 0.002834 0.007837 0.000000 0.080782 0.000000
# 6 0.000000 0.000000 0.000000 0.001284 0.000000 0.048154
#
#
# Mechanical properties :
#
#
# Convention : Reuss Voigt Hill
#
# Bulk Modulus (GPa) = 56.53561 64.34900 60.44231
# Shear Modulus (GPa) = 20.07866 22.57660 21.32763
#
# Velocity S-wave (km/s) = 3.57812 3.79417 3.68773
# Velocity P-wave (km/s) = 7.28834 7.76052 7.52814
#
# Compressibility (1/GPa) = 0.01768797
#
# Stress axis : x y z
#
# Youngs Moduli (GPa) = 90.13183 56.80218 58.42769
#
# Poissons Ratio (x) = 0.18407 0.26606
# Poissons Ratio (y) = 0.29208 0.36630
# Poissons Ratio (z) = 0.41042 0.35611
#
# Static dielectric constant tensor:
#      x y z
#    x 2.931220 0.000000 -0.002250 
#    y 0.000000 2.850410 0.000000 
#    z -0.002250 0.000000 2.831360 
# 
# 
# High freq. dielectric constant tensor:
#      x y z
#    x 1.586380 0.000000 -0.002470 
#    y 0.000000 1.597170 0.000000 
#    z -0.002470 0.000000 1.584910 
# 
# From -- ./inp_files/318838.got.cif
#   From: 2010.06.25/outbox.cif.g09.slc.cpg/sg12_160_cif.got.tgz:318838.got - 2010.06.28 00:19:55.
