data_PCOD8081299
_publ_section_title
;
Structure prediction by ZEFSAII (Michael W. Deem and Ramdas Pophale) SiO2 
 PCOD8081299
Probable space group: C 2/M
;
_chemical_formula_sum "Si O2"
_cell_formula_units_Z 56
_cell_length_a 19.305118
_cell_length_b 9.606886
_cell_length_c 28.292591
_cell_angle_alpha 90.000000
_cell_angle_beta 39.486154
_cell_angle_gamma 90.000000
_cell_volume 3336.652644
_symmetry_space_group_name_H-M "C 2/M"
_symmetry_group_IT_number 12
_symmetry_cell_setting 'monoclinic'
loop_
_space_group_symop_operation_xyz
x,y,z
-x,y,-z
-x,-y,-z
x,-y,z
1/2+x,1/2+y,z
1/2-x,1/2+y,-z
1/2-x,1/2-y,-z
1/2+x,1/2-y,z
loop_
_atom_site_type_symbol
_atom_site_label
_atom_site_fract_x
_atom_site_fract_y
_atom_site_fract_z
Si Si1 0.391793 0.839562 0.959675
Si Si2 0.958549 0.663984 0.739534
Si Si3 0.124098 0.664381 0.814628
Si Si4 0.706104 0.840851 0.091125
Si Si5 0.863458 0.836543 0.706991
Si Si6 0.102618 0.164746 0.418436
Si Si7 0.339482 0.165496 0.308092
O O1 0.516780 0.785397 0.899708
O O2 0.360645 0.815624 0.921569
O O3 0.379170 0.000000 0.981087
O O4 0.315247 0.751480 0.034683
O O5 0.956665 0.500000 0.729768
O O6 0.869247 0.704138 0.825705
O O7 0.936988 0.748157 0.703419
O O8 0.077287 0.714616 0.695210
O O9 0.115829 0.500000 0.813154
O O10 0.236105 0.703538 0.782405
O O11 0.124405 0.728531 0.761617
O O12 0.742771 0.000000 0.076310
O O13 0.899115 0.792196 0.635554
O O14 0.882642 0.000000 0.705642
O O15 0.215420 0.215528 0.383804
O O16 0.000000 0.232818 0.500000
O O17 0.096324 0.000000 0.425294
O O18 0.343588 0.000000 0.302306
#
# Coordination Sequence:
#
# PCOD8081299 Si02
#       7
#     8   8   8   8   8   8   8
#     4   9  15  26  45  65  83 108 150 196 228 255
#     4  10  18  30  46  65  92 124 152 178 217 273
#     4   8  13  26  46  65  83 112 155 193 220 254
#     4   9  17  27  41  63  89 115 145 185 228 265
#     4   9  18  30  47  69  93 117 145 186 227 261
#     4   8  14  27  49  74  93 112 146 189 223 253
#     4   8  13  24  45  67  86 116 155 184 210 258
#
# _framework density 16.783287999999999
#
# number of rings (size 3 to 8) (size 9 to 14) (size 15 to 20)
#    0.000    3.286    1.429    1.714    0.000    0.571 
#    0.000    2.143    0.000    8.143    0.000    0.000 
#    0.000    0.000    0.000    0.000    0.000    0.000 
#
# Total GULP energy -346974.170274 kJ/mol
# GULP energy per Si atom -12391.934653 kJ/mol
# Density = 1.674509 g / cm^3
# Si number density = 16.783288 Si / 1000 Ang^3
#
#
#
# Elastic Constant Matrix: (Units=GPa)
#
#
# Indices 1 2 3 4 5 6 
#
# 1 114.7656 34.5121 66.1291 0.0000 -16.7400 0.0000
# 2 34.5121 30.9830 33.4048 -0.0001 -3.4617 -0.0001
# 3 66.1291 33.4048 130.9267 0.0000 -20.8984 0.0000
# 4 0.0000 -0.0001 0.0000 13.8962 0.0000 1.8506
# 5 -16.7400 -3.4617 -20.8984 0.0000 22.7122 0.0000
# 6 0.0000 -0.0001 0.0000 1.8506 0.0000 24.4422
#
#
#
# Elastic Compliance Matrix: (Units=1/GPa)
#
#
# Indices 1 2 3 4 5 6 
#
# 1 0.015513 -0.012698 -0.003610 0.000000 0.006177 0.000000
# 2 -0.012698 0.055278 -0.009189 0.000000 -0.009389 0.000000
# 3 -0.003610 -0.009189 0.013078 0.000000 0.007973 0.000000
# 4 0.000000 0.000000 0.000000 0.072695 0.000000 -0.005504
# 5 0.006177 -0.009389 0.007973 0.000000 0.054487 0.000000
# 6 0.000000 0.000000 0.000000 -0.005504 0.000000 0.041330
#
#
# Mechanical properties :
#
#
# Convention : Reuss Voigt Hill
#
# Bulk Modulus (GPa) = 30.41701 60.52969 45.47335
# Shear Modulus (GPa) = 15.90676 21.71874 18.81275
#
# Velocity S-wave (km/s) = 3.08193 3.60122 3.35165
# Velocity P-wave (km/s) = 5.55222 7.30996 6.49086
#
# Compressibility (1/GPa) = 0.03287634
#
# Stress axis : x y z
#
# Youngs Moduli (GPa) = 64.46320 18.09036 76.46421
#
# Poissons Ratio (x) = 0.22971 0.27600
# Poissons Ratio (y) = 0.81855 0.70262
# Poissons Ratio (z) = 0.23268 0.16623
#
# Static dielectric constant tensor:
#      x y z
#    x 3.098790 0.000000 -0.315100 
#    y 0.000000 2.703180 0.000000 
#    z -0.315100 0.000000 3.525730 
# 
# 
# High freq. dielectric constant tensor:
#      x y z
#    x 1.635360 0.000000 -0.016840 
#    y 0.000000 1.596460 0.000000 
#    z -0.016840 0.000000 1.647950 
# 
# From -- ./inp_files/342343.got.cif
#   From: 2010.06.25/outbox.cif.g09.slc.cpg/sg12_172_cif.got.tgz:342343.got - 2010.06.28 00:19:55.
