data_PCOD8081711
_publ_section_title
;
Structure prediction by ZEFSAII (Michael W. Deem and Ramdas Pophale) SiO2 
 PCOD8081711
Probable space group: C 2/M
;
_chemical_formula_sum "Si O2"
_cell_formula_units_Z 56
_cell_length_a 24.402215
_cell_length_b 12.526762
_cell_length_c 14.301733
_cell_angle_alpha 90.000000
_cell_angle_beta 137.141767
_cell_angle_gamma 90.000000
_cell_volume 2973.615881
_symmetry_space_group_name_H-M "C 2/M"
_symmetry_group_IT_number 12
_symmetry_cell_setting 'monoclinic'
loop_
_space_group_symop_operation_xyz
x,y,z
-x,y,-z
-x,-y,-z
x,-y,z
1/2+x,1/2+y,z
1/2-x,1/2+y,-z
1/2-x,1/2-y,-z
1/2+x,1/2-y,z
loop_
_atom_site_type_symbol
_atom_site_label
_atom_site_fract_x
_atom_site_fract_y
_atom_site_fract_z
Si Si1 0.459945 0.627453 0.115716
Si Si2 0.860227 0.879820 0.675719
Si Si3 0.312979 0.694713 0.809949
Si Si4 0.784473 0.126664 0.393334
Si Si5 0.136346 0.177893 0.833905
Si Si6 0.286780 0.879087 0.144934
Si Si7 0.583159 0.382310 0.578844
O O1 0.448902 0.500000 0.085763
O O2 0.549843 0.670860 0.206199
O O3 0.442968 0.661123 0.201940
O O4 0.398065 0.690410 0.970528
O O5 0.817169 0.876765 0.721926
O O6 0.801445 0.833861 0.520925
O O7 0.876241 0.000000 0.663959
O O8 0.293682 0.814546 0.748407
O O9 0.240226 0.652720 0.783908
O O10 0.862840 0.169235 0.434439
O O11 0.769433 0.000000 0.363433
O O12 0.144883 0.301772 0.812149
O O13 0.133999 0.108299 0.737534
O O14 0.209990 0.131328 0.983363
O O15 0.319693 0.000000 0.185763
O O16 0.500000 0.318128 0.500000
O O17 0.559363 0.500000 0.512991
#
# Coordination Sequence:
#
# PCOD8081711 Si02
#       7
#     8   8   8   8   8   8   8
#     4  10  20  34  55  84 108 133 176 224 272 320
#     4  10  20  35  56  80 108 137 173 225 272 312
#     4  11  19  34  53  80 110 141 172 217 270 313
#     4  10  21  34  50  80 109 138 180 215 262 319
#     4  10  18  32  49  74 104 131 165 209 264 305
#     4  10  20  32  50  76 103 133 172 210 254 314
#     4  10  18  30  50  75 103 133 166 211 263 312
#
# _framework density 18.83229
#
# number of rings (size 3 to 8) (size 9 to 14) (size 15 to 20)
#    0.000    1.857    1.429    5.143    0.000    3.429 
#    0.000    0.000    0.000    3.000    0.000    0.000 
#    0.000    0.000    0.000    0.000    0.000    0.000 
#
# Total GULP energy -346935.061848 kJ/mol
# GULP energy per Si atom -12390.537923 kJ/mol
# Density = 1.878943 g / cm^3
# Si number density = 18.832290 Si / 1000 Ang^3
#
#
#
# Elastic Constant Matrix: (Units=GPa)
#
#
# Indices 1 2 3 4 5 6 
#
# 1 83.5141 20.0669 27.7964 0.0000 -18.9712 0.0000
# 2 20.0669 79.6774 32.4202 0.0000 8.2442 0.0000
# 3 27.7964 32.4202 70.1508 0.0000 -12.6557 0.0000
# 4 0.0000 0.0000 0.0000 24.7697 0.0000 -4.3291
# 5 -18.9712 8.2442 -12.6557 0.0000 31.9955 0.0000
# 6 0.0000 0.0000 0.0000 -4.3291 0.0000 22.6184
#
#
#
# Elastic Compliance Matrix: (Units=1/GPa)
#
#
# Indices 1 2 3 4 5 6 
#
# 1 0.015964 -0.003809 -0.002886 0.000000 0.009305 0.000000
# 2 -0.003809 0.018147 -0.008753 0.000000 -0.010397 0.000000
# 3 -0.002886 -0.008753 0.021044 0.000000 0.008868 0.000000
# 4 0.000000 0.000000 0.000000 0.041769 0.000000 0.007995
# 5 0.009305 -0.010397 0.008868 0.000000 0.042958 0.000000
# 6 0.000000 0.000000 0.000000 0.007995 0.000000 0.045742
#
#
# Mechanical properties :
#
#
# Convention : Reuss Voigt Hill
#
# Bulk Modulus (GPa) = 41.22381 43.76770 42.49576
# Shear Modulus (GPa) = 22.26114 26.08064 24.17089
#
# Velocity S-wave (km/s) = 3.44186 3.72545 3.58646
# Velocity P-wave (km/s) = 6.14269 6.46502 6.30592
#
# Compressibility (1/GPa) = 0.02425783
#
# Stress axis : x y z
#
# Youngs Moduli (GPa) = 62.64216 55.10495 47.51995
#
# Poissons Ratio (x) = 0.20988 0.13717
# Poissons Ratio (y) = 0.23859 0.41595
# Poissons Ratio (z) = 0.18082 0.48234
#
# Static dielectric constant tensor:
#      x y z
#    x 3.666020 0.000000 -0.134660 
#    y 0.000000 3.250140 0.000000 
#    z -0.134660 0.000000 3.492550 
# 
# 
# High freq. dielectric constant tensor:
#      x y z
#    x 1.738020 0.000000 -0.022680 
#    y 0.000000 1.694300 0.000000 
#    z -0.022680 0.000000 1.731350 
# 
# From -- ./inp_files/245688.got.cif
#   From: 2010.06.25/outbox.cif.g09.slc.cpg/sg12_123_cif.got.tgz:245688.got - 2010.06.28 00:19:55.
