data_PCOD8081815
_publ_section_title
;
Structure prediction by ZEFSAII (Michael W. Deem and Ramdas Pophale) SiO2 
 PCOD8081815
Probable space group: C 2/M
;
_chemical_formula_sum "Si O2"
_cell_formula_units_Z 56
_cell_length_a 32.215589
_cell_length_b 14.479106
_cell_length_c 9.906686
_cell_angle_alpha 90.000000
_cell_angle_beta 137.577266
_cell_angle_gamma 90.000000
_cell_volume 3117.306887
_symmetry_space_group_name_H-M "C 2/M"
_symmetry_group_IT_number 12
_symmetry_cell_setting 'monoclinic'
loop_
_space_group_symop_operation_xyz
x,y,z
-x,y,-z
-x,-y,-z
x,-y,z
1/2+x,1/2+y,z
1/2-x,1/2+y,-z
1/2-x,1/2-y,-z
1/2+x,1/2-y,z
loop_
_atom_site_type_symbol
_atom_site_label
_atom_site_fract_x
_atom_site_fract_y
_atom_site_fract_z
Si Si1 0.492772 0.294067 0.643003
Si Si2 0.976397 0.400897 0.292529
Si Si3 0.789615 0.105854 0.357840
Si Si4 0.320134 0.275561 0.667259
Si Si5 0.873059 0.893729 0.319094
Si Si6 0.383428 0.391149 0.038467
Si Si7 0.154213 0.603277 0.126900
O O1 0.500000 0.290191 0.500000
O O2 0.493978 0.189360 0.707207
O O3 0.428013 0.339211 0.525758
O O4 0.548680 0.354148 0.837142
O O5 0.993249 0.500000 0.261472
O O6 0.000000 0.406222 0.500000
O O7 0.902188 0.388555 0.113345
O O8 0.831984 0.172143 0.554100
O O9 0.810521 0.123247 0.253364
O O10 0.716800 0.126817 0.195155
O O11 0.803289 0.000000 0.432347
O O12 0.250000 0.250000 0.500000
O O13 0.356358 0.178324 0.777752
O O14 0.333787 0.345863 0.821329
O O15 0.863733 0.861294 0.142713
O O16 0.893320 0.000000 0.367547
O O17 0.382341 0.500000 0.015726
O O18 0.157751 0.500000 0.198371
#
# Coordination Sequence:
#
# PCOD8081815 Si02
#       7
#     8   8   8   8   8   8   8
#     4   9  16  28  49  73 104 130 166 205 247 296
#     4   9  16  27  48  74  97 124 168 218 254 286
#     4   9  18  33  52  76 107 134 160 202 255 305
#     4  10  19  32  50  72  98 133 173 206 243 294
#     4   9  18  32  51  78 108 135 159 198 259 310
#     4  10  18  30  51  76 101 133 172 208 245 299
#     4   9  17  31  51  73  96 129 171 212 250 296
#
# _framework density 17.964224000000002
#
# number of rings (size 3 to 8) (size 9 to 14) (size 15 to 20)
#    0.000    2.714    1.429    0.857    0.000    2.286 
#    0.000    3.571    0.000    3.429    0.000    2.000 
#    0.000    0.000    0.000    0.000    0.000    0.000 
#
# Total GULP energy -346868.485489 kJ/mol
# GULP energy per Si atom -12388.160196 kJ/mol
# Density = 1.792334 g / cm^3
# Si number density = 17.964224 Si / 1000 Ang^3
#
#
#
# Elastic Constant Matrix: (Units=GPa)
#
#
# Indices 1 2 3 4 5 6 
#
# 1 34.6664 15.6175 16.2200 0.0000 -0.0464 0.0000
# 2 15.6175 110.0196 41.3239 0.0000 2.8242 0.0000
# 3 16.2200 41.3239 98.9727 0.0000 8.5441 0.0000
# 4 0.0000 0.0000 0.0000 31.2173 0.0000 5.6321
# 5 -0.0464 2.8242 8.5441 0.0000 17.5461 0.0000
# 6 0.0000 0.0000 0.0000 5.6321 0.0000 16.0628
#
#
#
# Elastic Compliance Matrix: (Units=1/GPa)
#
#
# Indices 1 2 3 4 5 6 
#
# 1 0.032204 -0.003050 -0.004232 0.000000 0.002637 0.000000
# 2 -0.003050 0.011072 -0.004143 0.000000 0.000227 0.000000
# 3 -0.004232 -0.004143 0.013018 0.000000 -0.005683 0.000000
# 4 0.000000 0.000000 0.000000 0.034197 0.000000 -0.011990
# 5 0.002637 0.000227 -0.005683 0.000000 0.059731 0.000000
# 6 0.000000 0.000000 0.000000 -0.011990 0.000000 0.066460
#
#
# Mechanical properties :
#
#
# Convention : Reuss Voigt Hill
#
# Bulk Modulus (GPa) = 29.89972 43.33126 36.61549
# Shear Modulus (GPa) = 19.94586 24.33172 22.13879
#
# Velocity S-wave (km/s) = 3.33575 3.68428 3.51434
# Velocity P-wave (km/s) = 5.61395 6.50168 6.07405
#
# Compressibility (1/GPa) = 0.03344513
#
# Stress axis : x y z
#
# Youngs Moduli (GPa) = 31.05223 90.31436 76.81812
#
# Poissons Ratio (x) = 0.27541 0.32510
# Poissons Ratio (y) = 0.09469 0.31825
# Poissons Ratio (z) = 0.13141 0.37416
#
# Static dielectric constant tensor:
#      x y z
#    x 3.002260 0.000000 0.066950 
#    y 0.000000 4.161200 0.000000 
#    z 0.066950 0.000000 3.488250 
# 
# 
# High freq. dielectric constant tensor:
#      x y z
#    x 1.637270 0.000000 0.020210 
#    y 0.000000 1.721940 0.000000 
#    z 0.020210 0.000000 1.694300 
# 
# From -- ./inp_files/96743.got.cif
#   From: 2010.06.25/outbox.cif.g09.slc.cpg/sg12_49_cif.got.tgz:96743.got - 2010.06.28 00:19:55.
