data_PCOD8081421
_publ_section_title
;
Structure prediction by ZEFSAII (Michael W. Deem and Ramdas Pophale) SiO2 
 PCOD8081421
Probable space group: C 2/M
;
_chemical_formula_sum "Si O2"
_cell_formula_units_Z 64
_cell_length_a 28.553746
_cell_length_b 9.202381
_cell_length_c 16.648706
_cell_angle_alpha 90.000000
_cell_angle_beta 115.055142
_cell_angle_gamma 90.000000
_cell_volume 3963.002539
_symmetry_space_group_name_H-M "C 2/M"
_symmetry_group_IT_number 12
_symmetry_cell_setting 'monoclinic'
loop_
_space_group_symop_operation_xyz
x,y,z
-x,y,-z
-x,-y,-z
x,-y,z
1/2+x,1/2+y,z
1/2-x,1/2+y,-z
1/2-x,1/2-y,-z
1/2+x,1/2-y,z
loop_
_atom_site_type_symbol
_atom_site_label
_atom_site_fract_x
_atom_site_fract_y
_atom_site_fract_z
Si Si1 0.484500 0.667744 0.283948
Si Si2 0.084404 0.338051 0.354087
Si Si3 0.255268 0.326957 0.417742
Si Si4 0.944508 0.831952 0.423269
Si Si5 0.645932 0.835064 0.555929
Si Si6 0.080759 0.171649 0.093106
Si Si7 0.150660 0.330038 0.254279
Si Si8 0.476206 0.672004 0.101435
O O1 0.496986 0.500000 0.281764
O O2 0.538291 0.737449 0.350043
O O3 0.443973 0.692955 0.326278
O O4 0.464778 0.731282 0.183609
O O5 0.062349 0.500000 0.326693
O O6 0.129817 0.336730 0.451759
O O7 0.109295 0.279275 0.290653
O O8 0.259935 0.500000 0.434740
O O9 0.250000 0.250000 0.500000
O O10 0.303721 0.266101 0.402487
O O11 0.207221 0.286158 0.325859
O O12 0.899634 0.730063 0.423213
O O13 0.000000 0.785654 0.500000
O O14 0.933214 0.000000 0.436697
O O15 0.657730 0.000000 0.593523
O O16 0.134003 0.246760 0.160877
O O17 0.032877 0.223729 0.114186
O O18 0.088706 0.000000 0.103043
O O19 0.068053 0.225558 0.992812
O O20 0.147805 0.500000 0.235545
O O21 0.475313 0.500000 0.097958
#
# Coordination Sequence:
#
# PCOD8081421 Si02
#       8
#     8   8   8   8   8   8   8   8
#     4  10  18  30  48  69  96 131 167 197 234 282
#     4  10  19  30  44  66  98 128 160 197 235 280
#     4  11  22  36  52  71  98 129 164 203 241 287
#     4  10  20  32  48  73  98 126 167 204 238 287
#     4  11  22  36  50  68  97 132 167 203 244 282
#     4   9  16  28  47  69  94 125 162 196 232 282
#     4  10  20  33  46  68  99 128 158 195 239 285
#     4   8  15  27  44  69  97 125 158 197 235 277
#
# _framework density 16.149372
#
# number of rings (size 3 to 8) (size 9 to 14) (size 15 to 20)
#    0.000    2.125    3.750    1.500    0.000    2.250 
#    0.000    1.875    0.000    0.000    0.000    0.875 
#    0.000    0.000    0.000    0.000    0.000    0.000 
#
# Total GULP energy -396647.075404 kJ/mol
# GULP energy per Si atom -12395.221106 kJ/mol
# Density = 1.611261 g / cm^3
# Si number density = 16.149372 Si / 1000 Ang^3
#
#
#
# Elastic Constant Matrix: (Units=GPa)
#
#
# Indices 1 2 3 4 5 6 
#
# 1 76.3513 43.0811 40.3058 0.0000 9.1397 0.0000
# 2 43.0811 61.6168 36.6822 0.0000 8.0321 0.0000
# 3 40.3058 36.6822 107.7123 0.0000 8.0833 0.0000
# 4 0.0000 0.0000 0.0000 22.5203 0.0000 3.1865
# 5 9.1397 8.0321 8.0833 0.0000 24.2718 0.0000
# 6 0.0000 0.0000 0.0000 3.1865 0.0000 24.9631
#
#
#
# Elastic Compliance Matrix: (Units=1/GPa)
#
#
# Indices 1 2 3 4 5 6 
#
# 1 0.023069 -0.013467 -0.003824 0.000000 -0.002957 0.000000
# 2 -0.013467 0.028718 -0.004521 0.000000 -0.002927 0.000000
# 3 -0.003824 -0.004521 0.012343 0.000000 -0.001174 0.000000
# 4 0.000000 0.000000 0.000000 0.045221 0.000000 -0.005772
# 5 -0.002957 -0.002927 -0.001174 0.000000 0.043673 0.000000
# 6 0.000000 0.000000 0.000000 -0.005772 0.000000 0.040796
#
#
# Mechanical properties :
#
#
# Convention : Reuss Voigt Hill
#
# Bulk Modulus (GPa) = 48.76849 53.97982 51.37416
# Shear Modulus (GPa) = 20.46827 22.72512 21.59670
#
# Velocity S-wave (km/s) = 3.56397 3.75531 3.66089
# Velocity P-wave (km/s) = 6.87021 7.23195 7.05340
#
# Compressibility (1/GPa) = 0.02050504
#
# Stress axis : x y z
#
# Youngs Moduli (GPa) = 43.34843 34.82077 81.01869
#
# Poissons Ratio (x) = 0.46894 0.30982
# Poissons Ratio (y) = 0.58378 0.36630
# Poissons Ratio (z) = 0.16577 0.15743
#
# Static dielectric constant tensor:
#      x y z
#    x 2.850400 0.000000 -0.050810 
#    y 0.000000 2.966050 0.000000 
#    z -0.050810 0.000000 3.320860 
# 
# 
# High freq. dielectric constant tensor:
#      x y z
#    x 1.591540 0.000000 -0.000140 
#    y 0.000000 1.614510 0.000000 
#    z -0.000140 0.000000 1.618520 
# 
# From -- ./inp_files/294587.got.cif
#   From: 2010.06.25/outbox.cif.g09.slc.cpg/sg12_148_cif.got.tgz:294587.got - 2010.06.28 00:19:55.
