data_PCOD8081388
_publ_section_title
;
Structure prediction by ZEFSAII (Michael W. Deem and Ramdas Pophale) SiO2 
 PCOD8081388
Probable space group: C 2/M
;
_chemical_formula_sum "Si O2"
_cell_formula_units_Z 60
_cell_length_a 22.467299
_cell_length_b 10.168294
_cell_length_c 15.501960
_cell_angle_alpha 90.000000
_cell_angle_beta 99.264760
_cell_angle_gamma 90.000000
_cell_volume 3495.287390
_symmetry_space_group_name_H-M "C 2/M"
_symmetry_group_IT_number 12
_symmetry_cell_setting 'monoclinic'
loop_
_space_group_symop_operation_xyz
x,y,z
-x,y,-z
-x,-y,-z
x,-y,z
1/2+x,1/2+y,z
1/2-x,1/2+y,-z
1/2-x,1/2-y,-z
1/2+x,1/2-y,z
loop_
_atom_site_type_symbol
_atom_site_label
_atom_site_fract_x
_atom_site_fract_y
_atom_site_fract_z
Si Si1 0.916158 0.650396 0.244779
Si Si2 0.285708 0.846731 0.891134
Si Si3 0.237730 0.851729 0.570743
Si Si4 0.817927 0.350384 0.089215
Si Si5 0.500000 0.272418 0.500000
Si Si6 0.112572 0.142662 0.625550
Si Si7 0.838625 0.653751 0.726904
Si Si8 0.043575 0.652906 0.335163
O O1 0.909911 0.500000 0.275484
O O2 0.884986 0.669729 0.144356
O O3 0.881760 0.741170 0.304788
O O4 0.986629 0.691316 0.260733
O O5 0.226738 0.754748 0.878035
O O6 0.328921 0.798438 0.823331
O O7 0.265923 0.000000 0.874545
O O8 0.322985 0.826761 0.988063
O O9 0.250000 0.750000 0.500000
O O10 0.167611 0.839995 0.573916
O O11 0.277703 0.810625 0.662126
O O12 0.254593 0.000000 0.545049
O O13 0.795158 0.500000 0.102649
O O14 0.448727 0.359417 0.443877
O O15 0.532178 0.188227 0.432338
O O16 0.116702 0.000000 0.673182
O O17 0.850192 0.500000 0.732043
O O18 0.896982 0.721240 0.693835
O O19 0.055170 0.500000 0.337100
#
# Coordination Sequence:
#
# PCOD8081388 Si02
#       8
#     8   8   8   8   4   8   8   8
#     4   9  18  31  47  68  93 119 151 191 230 271
#     4   9  17  30  50  72  94 124 155 185 229 279
#     4  10  20  32  46  66  91 119 152 189 228 273
#     4   9  17  30  48  72  98 120 150 192 231 271
#     4  10  18  30  48  66  91 124 159 196 233 272
#     4  10  20  32  47  68  93 121 154 192 234 276
#     4   9  17  30  47  67  93 122 154 190 227 274
#     4   9  17  29  46  68  93 123 157 192 232 276
#
# _framework density 17.165970999999999
#
# number of rings (size 3 to 8) (size 9 to 14) (size 15 to 20)
#    0.000    2.667    0.000    2.000    0.000    2.667 
#    0.000    1.333    0.000    8.000    0.000    0.000 
#    0.000    8.533    0.000    0.000    0.000    0.000 
#
# Total GULP energy -371768.388130 kJ/mol
# GULP energy per Si atom -12392.279604 kJ/mol
# Density = 1.712690 g / cm^3
# Si number density = 17.165971 Si / 1000 Ang^3
#
#
#
# Elastic Constant Matrix: (Units=GPa)
#
#
# Indices 1 2 3 4 5 6 
#
# 1 97.2038 31.1681 56.8507 0.0000 -8.5726 0.0000
# 2 31.1681 54.4033 35.8994 0.0000 -0.1860 0.0000
# 3 56.8507 35.8994 109.6879 0.0000 -6.3852 0.0000
# 4 0.0000 0.0000 0.0000 21.6047 0.0000 -0.8282
# 5 -8.5726 -0.1860 -6.3852 0.0000 28.4574 0.0000
# 6 0.0000 0.0000 0.0000 -0.8282 0.0000 20.4679
#
#
#
# Elastic Compliance Matrix: (Units=1/GPa)
#
#
# Indices 1 2 3 4 5 6 
#
# 1 0.015917 -0.004835 -0.006474 0.000000 0.003310 0.000000
# 2 -0.004835 0.024984 -0.005822 0.000000 -0.002600 0.000000
# 3 -0.006474 -0.005822 0.014451 0.000000 0.001254 0.000000
# 4 0.000000 0.000000 0.000000 0.046358 0.000000 0.001876
# 5 0.003310 -0.002600 0.001254 0.000000 0.036402 0.000000
# 6 0.000000 0.000000 0.000000 0.001876 0.000000 0.048933
#
#
# Mechanical properties :
#
#
# Convention : Reuss Voigt Hill
#
# Bulk Modulus (GPa) = 47.41961 56.57016 51.99488
# Shear Modulus (GPa) = 21.89737 23.26446 22.58092
#
# Velocity S-wave (km/s) = 3.57547 3.68539 3.63084
# Velocity P-wave (km/s) = 6.68801 7.15093 6.92334
#
# Compressibility (1/GPa) = 0.02108832
#
# Stress axis : x y z
#
# Youngs Moduli (GPa) = 62.82765 40.02483 69.19973
#
# Poissons Ratio (x) = 0.19353 0.44802
# Poissons Ratio (y) = 0.30379 0.40290
# Poissons Ratio (z) = 0.40676 0.23304
#
# Static dielectric constant tensor:
#      x y z
#    x 4.198960 0.000000 0.981800 
#    y 0.000000 3.168960 0.000000 
#    z 0.981800 0.000000 4.387860 
# 
# 
# High freq. dielectric constant tensor:
#      x y z
#    x 1.660760 0.000000 0.011750 
#    y 0.000000 1.648330 0.000000 
#    z 0.011750 0.000000 1.659650 
# 
# From -- ./inp_files/231929.got.cif
#   From: 2010.06.25/outbox.cif.g09.slc.cpg/sg12_116_cif.got.tgz:231929.got - 2010.06.28 00:19:55.
