data_PCOD8081211
_publ_section_title
;
Structure prediction by ZEFSAII (Michael W. Deem and Ramdas Pophale) SiO2 
 PCOD8081211
Probable space group: C 2/M
;
_chemical_formula_sum "Si O2"
_cell_formula_units_Z 56
_cell_length_a 19.900184
_cell_length_b 8.939826
_cell_length_c 29.454530
_cell_angle_alpha 90.000000
_cell_angle_beta 148.916202
_cell_angle_gamma 90.000000
_cell_volume 2705.409162
_symmetry_space_group_name_H-M "C 2/M"
_symmetry_group_IT_number 12
_symmetry_cell_setting 'monoclinic'
loop_
_space_group_symop_operation_xyz
x,y,z
-x,y,-z
-x,-y,-z
x,-y,z
1/2+x,1/2+y,z
1/2-x,1/2+y,-z
1/2-x,1/2-y,-z
1/2+x,1/2-y,z
loop_
_atom_site_type_symbol
_atom_site_label
_atom_site_fract_x
_atom_site_fract_y
_atom_site_fract_z
Si Si1 0.938623 0.168971 0.650635
Si Si2 0.531434 0.332365 0.604510
Si Si3 0.081408 0.327109 0.226031
Si Si4 0.147872 0.323417 0.092456
Si Si5 0.213815 0.824887 0.224796
Si Si6 0.631695 0.824876 0.826580
Si Si7 0.732480 0.327545 0.584787
O O1 0.796093 0.222507 0.583334
O O2 0.948673 0.177503 0.602660
O O3 0.045515 0.278847 0.733693
O O4 0.963322 0.000000 0.682360
O O5 0.588963 0.500000 0.630920
O O6 0.649955 0.216679 0.672176
O O7 0.423212 0.295890 0.503163
O O8 0.078645 0.500000 0.210121
O O9 0.096238 0.227930 0.189440
O O10 0.203976 0.292785 0.329671
O O11 0.945762 0.282501 0.172153
O O12 0.161975 0.500000 0.102802
O O13 0.204919 0.257318 0.171735
O O14 0.230696 0.261497 0.097499
O O15 0.000000 0.271873 0.000000
O O16 0.204201 0.000000 0.211074
O O17 0.659005 0.000000 0.839946
O O18 0.759686 0.500000 0.587312
#
# Coordination Sequence:
#
# PCOD8081211 Si02
#       7
#     8   8   8   8   8   8   8
#     4  10  18  29  51  81 116 157 197 244 295 346
#     4  10  20  34  53  79 116 159 202 247 299 347
#     4   9  20  39  60  83 120 163 201 242 290 344
#     4  11  24  43  68  95 121 149 185 235 296 358
#     4  12  25  39  60  88 119 157 199 245 293 349
#     4  10  20  37  63  91 119 156 197 239 289 349
#     4   9  19  34  53  79 113 159 207 250 292 340
#
# _framework density 20.699272000000001
#
# number of rings (size 3 to 8) (size 9 to 14) (size 15 to 20)
#    0.000    1.857    1.429    3.857    0.000    5.714 
#    0.000    3.571    0.000    0.000    0.000    0.000 
#    0.000    0.000    0.000    0.000    0.000    0.000 
#
# Total GULP energy -347207.663105 kJ/mol
# GULP energy per Si atom -12400.273682 kJ/mol
# Density = 2.065216 g / cm^3
# Si number density = 20.699272 Si / 1000 Ang^3
#
#
#
# Elastic Constant Matrix: (Units=GPa)
#
#
# Indices 1 2 3 4 5 6 
#
# 1 96.8918 36.6086 25.8068 0.0000 17.5754 0.0000
# 2 36.6086 76.2485 21.8419 0.0000 12.2370 -0.0003
# 3 25.8068 21.8419 61.1426 -0.0014 28.0374 -0.0001
# 4 0.0000 0.0000 -0.0014 20.9304 -0.0003 8.6854
# 5 17.5754 12.2370 28.0374 -0.0003 23.2948 0.0000
# 6 0.0000 -0.0003 -0.0001 8.6854 0.0000 35.5307
#
#
#
# Elastic Compliance Matrix: (Units=1/GPa)
#
#
# Indices 1 2 3 4 5 6 
#
# 1 0.013742 -0.005290 -0.000960 0.000000 -0.006433 0.000000
# 2 -0.005290 0.016748 -0.003450 0.000000 -0.000654 0.000000
# 3 -0.000960 -0.003450 0.037559 0.000002 -0.042669 0.000000
# 4 0.000000 0.000000 0.000002 0.053171 -0.000002 -0.012998
# 5 -0.006433 -0.000654 -0.042669 -0.000002 0.099482 0.000000
# 6 0.000000 0.000000 0.000000 -0.012998 0.000000 0.031322
#
#
# Mechanical properties :
#
#
# Convention : Reuss Voigt Hill
#
# Bulk Modulus (GPa) = 20.55570 44.75526 32.65548
# Shear Modulus (GPa) = 17.38266 25.95289 21.66778
#
# Velocity S-wave (km/s) = 2.90102 3.54476 3.23892
# Velocity P-wave (km/s) = 4.60146 6.19857 5.45874
#
# Compressibility (1/GPa) = 0.04864830
#
# Stress axis : x y z
#
# Youngs Moduli (GPa) = 72.76731 59.70738 26.62450
#
# Poissons Ratio (x) = 0.31588 0.02557
# Poissons Ratio (y) = 0.38497 0.09186
# Poissons Ratio (z) = 0.06988 0.20600
#
# Static dielectric constant tensor:
#      x y z
#    x 3.839670 0.000000 0.219040 
#    y 0.000000 3.716930 0.000000 
#    z 0.219040 0.000000 3.598490 
# 
# 
# High freq. dielectric constant tensor:
#      x y z
#    x 1.814430 0.000000 0.014850 
#    y 0.000000 1.804450 0.000000 
#    z 0.014850 0.000000 1.786990 
# 
# From -- ./inp_files/380737.got.cif
#   From: 2010.06.25/outbox.cif.g09.slc.cpg/sg12_191_cif.got.tgz:380737.got - 2010.06.28 00:19:55.
