data_PCOD8081286
_publ_section_title
;
Structure prediction by ZEFSAII (Michael W. Deem and Ramdas Pophale) SiO2 
 PCOD8081286
Probable space group: C 2/M
;
_chemical_formula_sum "Si O2"
_cell_formula_units_Z 56
_cell_length_a 23.839950
_cell_length_b 9.081704
_cell_length_c 17.590757
_cell_angle_alpha 90.000000
_cell_angle_beta 117.035089
_cell_angle_gamma 90.000000
_cell_volume 3392.364230
_symmetry_space_group_name_H-M "C 2/M"
_symmetry_group_IT_number 12
_symmetry_cell_setting 'monoclinic'
loop_
_space_group_symop_operation_xyz
x,y,z
-x,y,-z
-x,-y,-z
x,-y,z
1/2+x,1/2+y,z
1/2-x,1/2+y,-z
1/2-x,1/2-y,-z
1/2+x,1/2-y,z
loop_
_atom_site_type_symbol
_atom_site_label
_atom_site_fract_x
_atom_site_fract_y
_atom_site_fract_z
Si Si1 0.425833 0.168481 0.946802
Si Si2 0.335106 0.166608 0.608530
Si Si3 0.858137 0.826899 0.771229
Si Si4 0.342731 0.328823 0.014109
Si Si5 0.812539 0.165735 0.449964
Si Si6 0.296676 0.830913 0.125354
Si Si7 0.785760 0.669558 0.289318
O O1 0.406316 0.256434 0.859795
O O2 0.402931 0.000000 0.925848
O O3 0.500000 0.178984 0.000000
O O4 0.396407 0.240160 0.003773
O O5 0.370653 0.256612 0.696265
O O6 0.261034 0.170098 0.577535
O O7 0.350090 0.242252 0.536836
O O8 0.360662 0.000000 0.622833
O O9 0.787913 0.790236 0.756111
O O10 0.870592 0.000000 0.774140
O O11 0.360263 0.500000 0.024331
O O12 0.339434 0.272636 0.098986
O O13 0.276882 0.297187 0.931941
O O14 0.824424 0.235195 0.374245
O O15 0.838560 0.000000 0.466265
O O16 0.313638 0.796556 0.223241
O O17 0.310895 0.000000 0.113327
O O18 0.794311 0.500000 0.317297
#
# Coordination Sequence:
#
# PCOD8081286 Si02
#       7
#     8   8   8   8   8   8   8
#     4  11  23  36  49  66  90 121 157 196 236 277
#     4   9  16  26  39  57  83 117 150 182 223 269
#     4  10  18  30  46  64  86 115 153 192 229 272
#     4  10  19  32  48  68  89 117 154 192 233 273
#     4   9  16  24  36  58  85 116 151 184 219 261
#     4   9  17  30  46  67  93 121 151 187 229 277
#     4   9  16  27  42  62  90 120 150 183 223 272
#
# _framework density 16.507662
#
# number of rings (size 3 to 8) (size 9 to 14) (size 15 to 20)
#    0.000    2.429    1.429    2.143    0.000    6.286 
#    0.000    0.000    0.000    0.000    0.000    0.000 
#    0.000    1.143    0.000   12.000    0.000    6.286 
#
# Total GULP energy -347221.735578 kJ/mol
# GULP energy per Si atom -12400.776271 kJ/mol
# Density = 1.647009 g / cm^3
# Si number density = 16.507662 Si / 1000 Ang^3
#
#
#
# Elastic Constant Matrix: (Units=GPa)
#
#
# Indices 1 2 3 4 5 6 
#
# 1 45.5283 38.4686 34.0146 0.0000 -13.7212 0.0000
# 2 38.4686 127.4276 65.7371 0.0000 -15.1633 0.0000
# 3 34.0146 65.7371 108.9804 0.0000 -28.8636 0.0000
# 4 0.0000 0.0000 0.0000 34.1123 0.0000 -7.7433
# 5 -13.7212 -15.1633 -28.8636 0.0000 19.9221 0.0000
# 6 0.0000 0.0000 0.0000 -7.7433 0.0000 18.9502
#
#
#
# Elastic Compliance Matrix: (Units=1/GPa)
#
#
# Indices 1 2 3 4 5 6 
#
# 1 0.034422 -0.007413 -0.002414 0.000000 0.014569 0.000000
# 2 -0.007413 0.013043 -0.006940 0.000000 -0.005232 0.000000
# 3 -0.002414 -0.006940 0.019920 0.000000 0.021916 0.000000
# 4 0.000000 0.000000 0.000000 0.032312 0.000000 0.013203
# 5 0.014569 -0.005232 0.021916 0.000000 0.087999 0.000000
# 6 0.000000 0.000000 0.000000 0.013203 0.000000 0.058165
#
#
# Mechanical properties :
#
#
# Convention : Reuss Voigt Hill
#
# Bulk Modulus (GPa) = 29.54023 62.04187 45.79105
# Shear Modulus (GPa) = 17.20128 24.17798 20.68963
#
# Velocity S-wave (km/s) = 3.23153 3.83123 3.54409
# Velocity P-wave (km/s) = 5.64424 7.56547 6.67435
#
# Compressibility (1/GPa) = 0.03385214
#
# Stress axis : x y z
#
# Youngs Moduli (GPa) = 29.05160 76.67140 50.20155
#
# Poissons Ratio (x) = 0.56833 0.12117
# Poissons Ratio (y) = 0.21535 0.34838
# Poissons Ratio (z) = 0.07012 0.53207
#
# Static dielectric constant tensor:
#      x y z
#    x 2.646100 0.000000 -0.315070 
#    y 0.000000 3.283350 0.000000 
#    z -0.315070 0.000000 3.152390 
# 
# 
# High freq. dielectric constant tensor:
#      x y z
#    x 1.574290 0.000000 -0.035610 
#    y 0.000000 1.652160 0.000000 
#    z -0.035610 0.000000 1.634900 
# 
# From -- ./inp_files/287880.got.cif
#   From: 2010.06.25/outbox.cif.g09.slc.cpg/sg12_144_cif.got.tgz:287880.got - 2010.06.28 00:19:55.
