data_PCOD8081965
_publ_section_title
;
Structure prediction by ZEFSAII (Michael W. Deem and Ramdas Pophale) SiO2 
 PCOD8081965
Probable space group: C 2/M
;
_chemical_formula_sum "Si O2"
_cell_formula_units_Z 40
_cell_length_a 18.538287
_cell_length_b 8.967953
_cell_length_c 15.119180
_cell_angle_alpha 90.000000
_cell_angle_beta 72.187632
_cell_angle_gamma 90.000000
_cell_volume 2393.078938
_symmetry_space_group_name_H-M "C 2/M"
_symmetry_group_IT_number 12
_symmetry_cell_setting 'monoclinic'
loop_
_space_group_symop_operation_xyz
x,y,z
-x,y,-z
-x,-y,-z
x,-y,z
1/2+x,1/2+y,z
1/2-x,1/2+y,-z
1/2-x,1/2-y,-z
1/2+x,1/2-y,z
loop_
_atom_site_type_symbol
_atom_site_label
_atom_site_fract_x
_atom_site_fract_y
_atom_site_fract_z
Si Si1 0.969668 0.825036 0.414765
Si Si2 0.774624 0.324909 0.900710
Si Si3 0.267273 0.833202 0.247763
Si Si4 0.815742 0.323079 0.419138
Si Si5 0.609285 0.666825 0.247327
O O1 0.895930 0.728479 0.425278
O O2 0.000000 0.786356 0.500000
O O3 0.032554 0.772719 0.319935
O O4 0.951572 0.000000 0.412375
O O5 0.771243 0.500000 0.912900
O O6 0.716960 0.271615 0.843884
O O7 0.860863 0.272698 0.843816
O O8 0.750000 0.250000 0.000000
O O9 0.307292 0.769599 0.320381
O O10 0.175705 0.837231 0.297509
O O11 0.297194 0.000000 0.215504
O O12 0.807852 0.500000 0.428800
O O13 0.750000 0.250000 0.500000
O O14 0.596496 0.500000 0.214411
#
# Coordination Sequence:
#
# PCOD8081965 Si02
#       5
#     8   8   8   8   8
#     4  10  20  35  53  74 105 144 178 214 264 313
#     4  10  18  30  53  81 106 132 171 217 261 310
#     4   8  17  34  51  71 102 136 171 211 260 307
#     4  11  22  35  52  75 106 141 179 220 262 311
#     4   8  16  32  51  72 103 136 172 210 257 311
#
# _framework density 16.714867999999999
#
# number of rings (size 3 to 8) (size 9 to 14) (size 15 to 20)
#    1.200    1.400    0.000    3.000    0.000    6.000 
#    0.000    0.000    0.000    1.200    0.000    8.400 
#    0.000    0.000    0.000    0.000    0.000    0.000 
#
# Total GULP energy -247787.149937 kJ/mol
# GULP energy per Si atom -12389.357497 kJ/mol
# Density = 1.667682 g / cm^3
# Si number density = 16.714868 Si / 1000 Ang^3
#
#
#
# Elastic Constant Matrix: (Units=GPa)
#
#
# Indices 1 2 3 4 5 6 
#
# 1 81.4920 39.2929 54.4104 0.0000 -0.9764 0.0000
# 2 39.2929 104.1295 73.2368 0.0000 0.3332 0.0000
# 3 54.4104 73.2368 141.4973 0.0000 -1.4410 0.0000
# 4 0.0000 0.0000 0.0000 29.2336 0.0000 -0.6832
# 5 -0.9764 0.3332 -1.4410 0.0000 26.2346 0.0000
# 6 0.0000 0.0000 0.0000 -0.6832 0.0000 26.1318
#
#
#
# Elastic Compliance Matrix: (Units=1/GPa)
#
#
# Indices 1 2 3 4 5 6 
#
# 1 0.017040 -0.002871 -0.005063 0.000000 0.000393 0.000000
# 2 -0.002871 0.015594 -0.006974 0.000000 -0.000688 0.000000
# 3 -0.005063 -0.006974 0.012630 0.000000 0.000594 0.000000
# 4 0.000000 0.000000 0.000000 0.034228 0.000000 0.000895
# 5 0.000393 -0.000688 0.000594 0.000000 0.038174 0.000000
# 6 0.000000 0.000000 0.000000 0.000895 0.000000 0.038291
#
#
# Mechanical properties :
#
#
# Convention : Reuss Voigt Hill
#
# Bulk Modulus (GPa) = 64.73004 73.44433 69.08718
# Shear Modulus (GPa) = 26.18867 26.99858 26.59362
#
# Velocity S-wave (km/s) = 3.96256 4.02337 3.99308
# Velocity P-wave (km/s) = 7.72955 8.10051 7.91720
#
# Compressibility (1/GPa) = 0.01544878
#
# Stress axis : x y z
#
# Youngs Moduli (GPa) = 58.68459 64.12667 79.17646
#
# Poissons Ratio (x) = 0.18408 0.40085
# Poissons Ratio (y) = 0.16846 0.55221
# Poissons Ratio (z) = 0.29711 0.44725
#
# Static dielectric constant tensor:
#      x y z
#    x 3.039050 0.000000 0.015910 
#    y 0.000000 3.199270 0.000000 
#    z 0.015910 0.000000 3.074860 
# 
# 
# High freq. dielectric constant tensor:
#      x y z
#    x 1.619000 0.000000 -0.001280 
#    y 0.000000 1.644710 0.000000 
#    z -0.001280 0.000000 1.637860 
# 
# From -- ./inp_files/220192.got.cif
#   From: 2010.06.25/outbox.cif.g09.slc.cpg/sg12_111_cif.got.tgz:220192.got - 2010.06.28 00:19:55.
