data_PCOD8081882
_publ_section_title
;
Structure prediction by ZEFSAII (Michael W. Deem and Ramdas Pophale) SiO2 
 PCOD8081882
Probable space group: C 2/M
;
_chemical_formula_sum "Si O2"
_cell_formula_units_Z 56
_cell_length_a 21.239783
_cell_length_b 13.065816
_cell_length_c 11.998297
_cell_angle_alpha 90.000000
_cell_angle_beta 117.714704
_cell_angle_gamma 90.000000
_cell_volume 2947.705415
_symmetry_space_group_name_H-M "C 2/M"
_symmetry_group_IT_number 12
_symmetry_cell_setting 'monoclinic'
loop_
_space_group_symop_operation_xyz
x,y,z
-x,y,-z
-x,-y,-z
x,-y,z
1/2+x,1/2+y,z
1/2-x,1/2+y,-z
1/2-x,1/2-y,-z
1/2+x,1/2-y,z
loop_
_atom_site_type_symbol
_atom_site_label
_atom_site_fract_x
_atom_site_fract_y
_atom_site_fract_z
Si Si1 0.425106 0.257004 0.489340
Si Si2 0.461514 0.886386 0.721619
Si Si3 0.207654 0.190372 0.308283
Si Si4 0.794324 0.117522 0.447076
Si Si5 0.830431 0.616934 0.263318
Si Si6 0.576681 0.771142 0.097910
Si Si7 0.618827 0.113940 0.921262
O O1 0.500000 0.295966 0.500000
O O2 0.430989 0.195958 0.610293
O O3 0.373465 0.353069 0.469961
O O4 0.391089 0.183366 0.370732
O O5 0.435645 0.863575 0.826002
O O6 0.546048 0.882080 0.791201
O O7 0.434182 0.000000 0.666386
O O8 0.211819 0.127756 0.425402
O O9 0.235221 0.307803 0.344140
O O10 0.254122 0.132491 0.255422
O O11 0.126448 0.187228 0.197898
O O12 0.778779 0.000000 0.400121
O O13 0.854859 0.500000 0.294828
O O14 0.823510 0.645667 0.125658
O O15 0.500000 0.723353 0.000000
O O16 0.619685 0.809614 0.025391
O O17 0.632848 0.000000 0.979403
#
# Coordination Sequence:
#
# PCOD8081882 Si02
#       7
#     8   8   8   8   8   8   8
#     4  11  20  33  56  84 112 143 187 226 282 335
#     4  10  18  30  51  82 114 142 176 228 281 329
#     4  10  21  38  57  84 107 150 192 226 278 334
#     4  10  22  39  57  81 115 148 184 231 279 330
#     4  10  20  33  53  82 116 149 183 229 279 328
#     4  10  20  35  55  81 112 147 185 229 275 333
#     4   9  18  31  49  79 113 146 178 221 279 326
#
# _framework density 18.997827999999998
#
# number of rings (size 3 to 8) (size 9 to 14) (size 15 to 20)
#    0.000    2.000    2.857    1.286    0.000    4.286 
#    0.000    0.000    0.000    1.714    0.000    1.000 
#    0.000    0.000    0.000    0.000    0.000    0.000 
#
# Total GULP energy -347112.797096 kJ/mol
# GULP energy per Si atom -12396.885611 kJ/mol
# Density = 1.895459 g / cm^3
# Si number density = 18.997828 Si / 1000 Ang^3
#
#
#
# Elastic Constant Matrix: (Units=GPa)
#
#
# Indices 1 2 3 4 5 6 
#
# 1 105.9818 12.5779 25.4346 0.0000 -14.5470 0.0000
# 2 12.5779 60.5849 8.7379 0.0000 -7.1910 0.0000
# 3 25.4346 8.7379 64.0938 0.0000 -10.8170 0.0000
# 4 0.0000 0.0000 0.0000 15.8315 0.0000 -0.4132
# 5 -14.5470 -7.1910 -10.8170 0.0000 37.9266 0.0000
# 6 0.0000 0.0000 0.0000 -0.4132 0.0000 17.2848
#
#
#
# Elastic Compliance Matrix: (Units=1/GPa)
#
#
# Indices 1 2 3 4 5 6 
#
# 1 0.010868 -0.001391 -0.003639 0.000000 0.002867 0.000000
# 2 -0.001391 0.017275 -0.001408 0.000000 0.002340 0.000000
# 3 -0.003639 -0.001408 0.017815 0.000000 0.003418 0.000000
# 4 0.000000 0.000000 0.000000 0.063205 0.000000 0.001511
# 5 0.002867 0.002340 0.003418 0.000000 0.028885 0.000000
# 6 0.000000 0.000000 0.000000 0.001511 0.000000 0.057890
#
#
# Mechanical properties :
#
#
# Convention : Reuss Voigt Hill
#
# Bulk Modulus (GPa) = 30.22857 36.01792 33.12324
# Shear Modulus (GPa) = 22.74364 26.46926 24.60645
#
# Velocity S-wave (km/s) = 3.46377 3.73671 3.60283
# Velocity P-wave (km/s) = 5.65182 6.13331 5.89748
#
# Compressibility (1/GPa) = 0.03308129
#
# Stress axis : x y z
#
# Youngs Moduli (GPa) = 92.01744 57.88563 56.13205
#
# Poissons Ratio (x) = 0.08052 0.20427
# Poissons Ratio (y) = 0.12800 0.07904
# Poissons Ratio (z) = 0.33486 0.08151
#
# Static dielectric constant tensor:
#      x y z
#    x 3.717670 0.000000 -0.140830 
#    y 0.000000 3.116580 0.000000 
#    z -0.140830 0.000000 3.396340 
# 
# 
# High freq. dielectric constant tensor:
#      x y z
#    x 1.750130 0.000000 -0.018170 
#    y 0.000000 1.700920 0.000000 
#    z -0.018170 0.000000 1.735720 
# 
# From -- ./inp_files/165713.got.cif
#   From: 2010.06.25/outbox.cif.g09.slc.cpg/sg12_83_cif.got.tgz:165713.got - 2010.06.28 00:19:55.
