data_PCOD8081957
_publ_section_title
;
Structure prediction by ZEFSAII (Michael W. Deem and Ramdas Pophale) SiO2 
 PCOD8081957
Probable space group: C 2/M
;
_chemical_formula_sum "Si O2"
_cell_formula_units_Z 56
_cell_length_a 13.367247
_cell_length_b 13.498859
_cell_length_c 31.375721
_cell_angle_alpha 90.000000
_cell_angle_beta 31.626053
_cell_angle_gamma 90.000000
_cell_volume 2968.746993
_symmetry_space_group_name_H-M "C 2/M"
_symmetry_group_IT_number 12
_symmetry_cell_setting 'monoclinic'
loop_
_space_group_symop_operation_xyz
x,y,z
-x,y,-z
-x,-y,-z
x,-y,z
1/2+x,1/2+y,z
1/2-x,1/2+y,-z
1/2-x,1/2-y,-z
1/2+x,1/2-y,z
loop_
_atom_site_type_symbol
_atom_site_label
_atom_site_fract_x
_atom_site_fract_y
_atom_site_fract_z
Si Si1 0.286029 0.885885 0.162934
Si Si2 0.446695 0.288876 0.826018
Si Si3 0.776409 0.614402 0.265200
Si Si4 0.855729 0.609281 0.013519
Si Si5 0.588253 0.272928 0.593386
Si Si6 0.711543 0.890234 0.407127
Si Si7 0.684115 0.887469 0.320670
O O1 0.152523 0.814895 0.182998
O O2 0.231963 0.870208 0.231411
O O3 0.250684 0.000000 0.161553
O O4 0.511833 0.859380 0.074816
O O5 0.533571 0.177640 0.791883
O O6 0.301298 0.306623 0.918346
O O7 0.617641 0.365134 0.774493
O O8 0.816499 0.500000 0.262336
O O9 0.584654 0.653037 0.359233
O O10 0.761983 0.500000 0.039880
O O11 0.000000 0.600790 0.000000
O O12 0.750000 0.250000 0.500000
O O13 0.677511 0.313220 0.604145
O O14 0.488273 0.168719 0.640073
O O15 0.500000 0.901169 0.500000
O O16 0.708695 0.849135 0.360310
O O17 0.809504 0.000000 0.373343
O O18 0.624311 0.000000 0.340613
#
# Coordination Sequence:
#
# PCOD8081957 Si02
#       7
#     8   8   8   8   8   8   8
#     4   9  17  33  56  80 105 135 173 215 255 298
#     4  10  18  30  53  79 105 136 171 211 254 302
#     4  10  22  36  52  76 104 138 174 211 256 306
#     4   8  14  26  49  80 109 134 166 212 258 296
#     4  11  21  33  52  76 100 127 165 215 259 303
#     4  10  19  33  54  76  96 125 166 210 251 298
#     4  10  20  33  52  77 102 130 166 209 255 303
#
# _framework density 18.863177
#
# number of rings (size 3 to 8) (size 9 to 14) (size 15 to 20)
#    0.000    2.286    1.429    3.429    0.000    3.429 
#    0.000    0.000    0.000   20.571    0.000    0.000 
#    0.000    0.000    0.000    0.000    0.000    0.000 
#
# Total GULP energy -346939.136778 kJ/mol
# GULP energy per Si atom -12390.683456 kJ/mol
# Density = 1.882024 g / cm^3
# Si number density = 18.863177 Si / 1000 Ang^3
#
#
#
# Elastic Constant Matrix: (Units=GPa)
#
#
# Indices 1 2 3 4 5 6 
#
# 1 58.6636 52.2386 18.4775 -0.0021 -10.2611 0.0006
# 2 52.2386 132.6052 48.0901 -0.0019 -15.7005 -0.0001
# 3 18.4775 48.0901 126.0830 -0.0129 -10.6661 0.0042
# 4 -0.0021 -0.0019 -0.0129 27.0828 0.0025 -6.2936
# 5 -10.2611 -15.7005 -10.6661 0.0025 21.4964 -0.0008
# 6 0.0006 -0.0001 0.0042 -6.2936 -0.0008 32.6251
#
#
#
# Elastic Compliance Matrix: (Units=1/GPa)
#
#
# Indices 1 2 3 4 5 6 
#
# 1 0.026869 -0.010049 0.000375 0.000001 0.005672 0.000000
# 2 -0.010049 0.013044 -0.003238 -0.000002 0.003124 0.000000
# 3 0.000375 -0.003238 0.009318 0.000004 0.002437 0.000000
# 4 0.000001 -0.000002 0.000004 0.038657 -0.000003 0.007457
# 5 0.005672 0.003124 0.002437 -0.000003 0.052717 0.000000
# 6 0.000000 0.000000 0.000000 0.007457 0.000000 0.032090
#
#
# Mechanical properties :
#
#
# Convention : Reuss Voigt Hill
#
# Bulk Modulus (GPa) = 42.72430 61.66269 52.19349
# Shear Modulus (GPa) = 24.23402 29.47724 26.85563
#
# Velocity S-wave (km/s) = 3.58820 3.95737 3.77730
# Velocity P-wave (km/s) = 6.31392 7.32403 6.83766
#
# Compressibility (1/GPa) = 0.02340589
#
# Stress axis : x y z
#
# Youngs Moduli (GPa) = 37.21773 76.66238 107.32356
#
# Poissons Ratio (x) = 0.77040 -0.04026
# Poissons Ratio (y) = 0.37401 0.34755
# Poissons Ratio (z) = -0.01396 0.24826
#
# Static dielectric constant tensor:
#      x y z
#    x 3.133400 0.000000 0.106930 
#    y 0.000000 3.472950 0.000000 
#    z 0.106930 0.000000 4.058140 
# 
# 
# High freq. dielectric constant tensor:
#      x y z
#    x 1.690520 0.000000 -0.002150 
#    y 0.000000 1.719410 0.000000 
#    z -0.002150 0.000000 1.758920 
# 
# From -- ./inp_files/374177.got.cif
#   From: 2010.06.25/outbox.cif.g09.slc.cpg/sg12_188_cif.got.tgz:374177.got - 2010.06.28 00:19:55.
