data_PCOD8081134
_publ_section_title
;
Structure prediction by ZEFSAII (Michael W. Deem and Ramdas Pophale) SiO2 
 PCOD8081134
Probable space group: C 2/M
;
_chemical_formula_sum "Si O2"
_cell_formula_units_Z 48
_cell_length_a 12.899166
_cell_length_b 13.464628
_cell_length_c 24.039406
_cell_angle_alpha 90.000000
_cell_angle_beta 140.724494
_cell_angle_gamma 90.000000
_cell_volume 2643.125195
_symmetry_space_group_name_H-M "C 2/M"
_symmetry_group_IT_number 12
_symmetry_cell_setting 'monoclinic'
loop_
_space_group_symop_operation_xyz
x,y,z
-x,y,-z
-x,-y,-z
x,-y,z
1/2+x,1/2+y,z
1/2-x,1/2+y,-z
1/2-x,1/2-y,-z
1/2+x,1/2-y,z
loop_
_atom_site_type_symbol
_atom_site_label
_atom_site_fract_x
_atom_site_fract_y
_atom_site_fract_z
Si Si1 0.998817 0.805541 0.127454
Si Si2 0.174216 0.116285 0.301645
Si Si3 0.672065 0.888601 0.938896
Si Si4 0.345803 0.613042 0.903673
Si Si5 0.491651 0.228544 0.560491
Si Si6 0.660018 0.615505 0.423680
O O1 0.969698 0.688538 0.105375
O O2 0.031566 0.836554 0.204430
O O3 0.161757 0.830113 0.158503
O O4 0.840519 0.867159 0.041226
O O5 0.341506 0.172313 0.355647
O O6 0.116587 0.133373 0.340998
O O7 0.198924 0.000000 0.299451
O O8 0.690331 0.876608 0.879261
O O9 0.614739 0.000000 0.929981
O O10 0.383525 0.500000 0.904185
O O11 0.500000 0.660242 0.000000
O O12 0.500000 0.265331 0.500000
O O13 0.466403 0.323706 0.590020
O O14 0.345893 0.150575 0.510782
O O15 0.646246 0.500000 0.434068
#
# Coordination Sequence:
#
# PCOD8081134 Si02
#       6
#     8   8   8   8   8   8
#     4  10  18  29  50  72  94 124 163 201 238 281
#     4  10  19  31  49  73  98 124 158 199 239 281
#     4   9  18  32  49  68  93 127 164 201 239 279
#     4   8  14  27  46  65  85 115 156 195 229 270
#     4   9  18  33  52  72  96 128 162 192 229 283
#     4   9  18  33  52  74 100 127 155 192 238 284
#
# _framework density 18.160321
#
# number of rings (size 3 to 8) (size 9 to 14) (size 15 to 20)
#    0.000    2.833    0.000    3.000    0.000    3.667 
#    0.000    0.833    0.000   18.500    0.000    0.000 
#    0.000    0.000    0.000    0.000    0.000    0.000 
#
# Total GULP energy -297414.544245 kJ/mol
# GULP energy per Si atom -12392.272677 kJ/mol
# Density = 1.811899 g / cm^3
# Si number density = 18.160321 Si / 1000 Ang^3
#
#
#
# Elastic Constant Matrix: (Units=GPa)
#
#
# Indices 1 2 3 4 5 6 
#
# 1 77.0838 58.7486 36.5326 0.0000 -9.6056 0.0000
# 2 58.7486 145.3207 48.6002 0.0000 -11.1796 0.0000
# 3 36.5326 48.6002 77.1719 0.0000 -16.5917 0.0000
# 4 0.0000 0.0000 0.0000 17.4983 0.0000 -4.3348
# 5 -9.6056 -11.1796 -16.5917 0.0000 17.4842 0.0000
# 6 0.0000 0.0000 0.0000 -4.3348 0.0000 33.9111
#
#
#
# Elastic Compliance Matrix: (Units=1/GPa)
#
#
# Indices 1 2 3 4 5 6 
#
# 1 0.020624 -0.006412 -0.005240 0.000000 0.002259 0.000000
# 2 -0.006412 0.010713 -0.003764 0.000000 -0.000244 0.000000
# 3 -0.005240 -0.003764 0.020946 0.000000 0.014591 0.000000
# 4 0.000000 0.000000 0.000000 0.059017 0.000000 0.007544
# 5 0.002259 -0.000244 0.014591 0.000000 0.072126 0.000000
# 6 0.000000 0.000000 0.000000 0.007544 0.000000 0.030453
#
#
# Mechanical properties :
#
#
# Convention : Reuss Voigt Hill
#
# Bulk Modulus (GPa) = 46.61485 65.25990 55.93738
# Shear Modulus (GPa) = 19.85209 24.15839 22.00524
#
# Velocity S-wave (km/s) = 3.30988 3.65126 3.48475
# Velocity P-wave (km/s) = 6.35069 7.33410 6.86004
#
# Compressibility (1/GPa) = 0.02145239
#
# Stress axis : x y z
#
# Youngs Moduli (GPa) = 48.48665 93.34080 47.74097
#
# Poissons Ratio (x) = 0.59846 0.25016
# Poissons Ratio (y) = 0.31087 0.17971
# Poissons Ratio (z) = 0.25407 0.35136
#
# Static dielectric constant tensor:
#      x y z
#    x 3.392960 0.000000 -0.297670 
#    y 0.000000 3.345470 0.000000 
#    z -0.297670 0.000000 3.182110 
# 
# 
# High freq. dielectric constant tensor:
#      x y z
#    x 1.694000 0.000000 -0.022620 
#    y 0.000000 1.703580 0.000000 
#    z -0.022620 0.000000 1.680040 
# 
# From -- ./inp_files/305112.got.cif
#   From: 2010.06.25/outbox.cif.g09.slc.cpg/sg12_153_cif.got.tgz:305112.got - 2010.06.28 00:19:55.
