data_PCOD8081183
_publ_section_title
;
Structure prediction by ZEFSAII (Michael W. Deem and Ramdas Pophale) SiO2 
 PCOD8081183
Probable space group: C 2/M
;
_chemical_formula_sum "Si O2"
_cell_formula_units_Z 64
_cell_length_a 23.423859
_cell_length_b 8.977198
_cell_length_c 16.361136
_cell_angle_alpha 90.000000
_cell_angle_beta 103.240757
_cell_angle_gamma 90.000000
_cell_volume 3348.970197
_symmetry_space_group_name_H-M "C 2/M"
_symmetry_group_IT_number 12
_symmetry_cell_setting 'monoclinic'
loop_
_space_group_symop_operation_xyz
x,y,z
-x,y,-z
-x,-y,-z
x,-y,z
1/2+x,1/2+y,z
1/2-x,1/2+y,-z
1/2-x,1/2-y,-z
1/2+x,1/2-y,z
loop_
_atom_site_type_symbol
_atom_site_label
_atom_site_fract_x
_atom_site_fract_y
_atom_site_fract_z
Si Si1 0.591837 0.177727 0.340336
Si Si2 0.863781 0.825841 0.295421
Si Si3 0.187573 0.174371 0.893470
Si Si4 0.011108 0.823682 0.598253
Si Si5 0.639159 0.323074 0.193720
Si Si6 0.757082 0.658768 0.298317
Si Si7 0.303177 0.337843 0.554981
Si Si8 0.324095 0.174415 0.945385
O O1 0.529970 0.232420 0.354171
O O2 0.601455 0.243639 0.252506
O O3 0.638582 0.237369 0.422807
O O4 0.595155 0.000000 0.337250
O O5 0.848757 0.771348 0.198678
O O6 0.924509 0.767939 0.352862
O O7 0.810362 0.769825 0.335177
O O8 0.863211 0.000000 0.299623
O O9 0.255953 0.212339 0.904078
O O10 0.178154 0.000000 0.906372
O O11 0.160278 0.265076 0.959597
O O12 0.000000 0.780758 0.500000
O O13 0.001912 0.000000 0.608643
O O14 0.626765 0.500000 0.192125
O O15 0.708713 0.280365 0.219668
O O16 0.628507 0.252975 0.100480
O O17 0.783948 0.500000 0.278081
O O18 0.715381 0.627943 0.360284
O O19 0.315414 0.500000 0.515971
O O20 0.250000 0.250000 0.500000
O O21 0.335940 0.000000 0.945576
#
# Coordination Sequence:
#
# PCOD8081183 Si02
#       8
#     8   8   8   8   8   8   8   8
#     4  11  23  39  58  81 110 146 189 236 283 338
#     4  10  20  35  56  79 108 148 189 232 278 332
#     4   9  18  31  48  77 116 152 188 226 272 336
#     4  10  23  42  61  82 108 146 193 240 289 338
#     4  10  19  34  56  81 114 151 184 225 278 336
#     4   9  19  32  49  77 109 140 177 221 274 328
#     4  10  21  36  54  80 110 143 179 228 286 344
#     4  10  18  29  50  82 118 151 185 225 275 336
#
# _framework density 19.110351999999999
#
# number of rings (size 3 to 8) (size 9 to 14) (size 15 to 20)
#    0.000    2.125    1.250    3.000    1.750    4.250 
#    0.000    0.000    0.000    0.750    0.000    5.250 
#    0.000    0.000    0.000    0.000    0.000    0.000 
#
# Total GULP energy -396468.101799 kJ/mol
# GULP energy per Si atom -12389.628181 kJ/mol
# Density = 1.906686 g / cm^3
# Si number density = 19.110352 Si / 1000 Ang^3
#
#
#
# Elastic Constant Matrix: (Units=GPa)
#
#
# Indices 1 2 3 4 5 6 
#
# 1 85.9798 32.7366 29.7783 0.0000 1.6089 0.0000
# 2 32.7366 80.7647 28.2949 0.0000 -9.5057 0.0000
# 3 29.7783 28.2949 68.5273 0.0000 4.2976 0.0000
# 4 0.0000 0.0000 0.0000 28.3680 0.0000 -4.7226
# 5 1.6089 -9.5057 4.2976 0.0000 26.5388 0.0000
# 6 0.0000 0.0000 0.0000 -4.7226 0.0000 28.6152
#
#
#
# Elastic Compliance Matrix: (Units=1/GPa)
#
#
# Indices 1 2 3 4 5 6 
#
# 1 0.015014 -0.004752 -0.004444 0.000000 -0.001893 0.000000
# 2 -0.004752 0.017071 -0.005441 0.000000 0.007284 0.000000
# 3 -0.004444 -0.005441 0.019069 0.000000 -0.004767 0.000000
# 4 0.000000 0.000000 0.000000 0.036247 0.000000 0.005982
# 5 -0.001893 0.007284 -0.004767 0.000000 0.041176 0.000000
# 6 0.000000 0.000000 0.000000 0.005982 0.000000 0.035934
#
#
# Mechanical properties :
#
#
# Convention : Reuss Voigt Hill
#
# Bulk Modulus (GPa) = 45.69887 46.32126 46.01007
# Shear Modulus (GPa) = 24.86606 26.33521 25.60064
#
# Velocity S-wave (km/s) = 3.61110 3.71625 3.66405
# Velocity P-wave (km/s) = 6.43054 6.53494 6.48295
#
# Compressibility (1/GPa) = 0.02188238
#
# Stress axis : x y z
#
# Youngs Moduli (GPa) = 66.60308 58.57900 52.44092
#
# Poissons Ratio (x) = 0.27835 0.23303
# Poissons Ratio (y) = 0.31648 0.28531
# Poissons Ratio (z) = 0.29597 0.31870
#
# Static dielectric constant tensor:
#      x y z
#    x 3.252670 0.000000 0.564440 
#    y 0.000000 3.546450 0.000000 
#    z 0.564440 0.000000 0.663720 
# 
# 
# High freq. dielectric constant tensor:
#      x y z
#    x 1.712220 0.000000 -0.014300 
#    y 0.000000 1.748400 0.000000 
#    z -0.014300 0.000000 1.744820 
# 
# From -- ./inp_files/287708.got.cif
#   From: 2010.06.25/outbox.cif.g09.slc.cpg/sg12_144_cif.got.tgz:287708.got - 2010.06.28 00:19:55.
