data_PCOD8081451
_publ_section_title
;
Structure prediction by ZEFSAII (Michael W. Deem and Ramdas Pophale) SiO2 
 PCOD8081451
Probable space group: C 2/M
;
_chemical_formula_sum "Si O2"
_cell_formula_units_Z 48
_cell_length_a 25.941413
_cell_length_b 9.095974
_cell_length_c 11.891628
_cell_angle_alpha 90.000000
_cell_angle_beta 103.534341
_cell_angle_gamma 90.000000
_cell_volume 2728.054824
_symmetry_space_group_name_H-M "C 2/M"
_symmetry_group_IT_number 12
_symmetry_cell_setting 'monoclinic'
loop_
_space_group_symop_operation_xyz
x,y,z
-x,y,-z
-x,-y,-z
x,-y,z
1/2+x,1/2+y,z
1/2-x,1/2+y,-z
1/2-x,1/2-y,-z
1/2+x,1/2-y,z
loop_
_atom_site_type_symbol
_atom_site_label
_atom_site_fract_x
_atom_site_fract_y
_atom_site_fract_z
Si Si1 0.064494 0.668945 0.781273
Si Si2 0.874312 0.163310 0.750851
Si Si3 0.031039 0.163746 0.374089
Si Si4 0.102181 0.331862 0.566377
Si Si5 0.940395 0.174490 0.995945
Si Si6 0.804828 0.327740 0.551544
O O1 0.057128 0.500000 0.811670
O O2 0.108450 0.687350 0.704483
O O3 0.081910 0.758587 0.899833
O O4 0.009435 0.728236 0.706059
O O5 0.919437 0.152854 0.681952
O O6 0.828337 0.270544 0.682240
O O7 0.850475 0.000000 0.759100
O O8 0.899760 0.226402 0.878616
O O9 0.052307 0.230781 0.502802
O O10 0.007260 0.000000 0.381657
O O11 0.087898 0.500000 0.528058
O O12 0.156434 0.286534 0.532488
O O13 0.941513 0.000000 0.007429
O O14 0.000000 0.231935 0.000000
O O15 0.795354 0.500000 0.557131
O O16 0.750000 0.250000 0.500000
#
# Coordination Sequence:
#
# PCOD8081451 Si02
#       6
#     8   8   8   8   8   8
#     4  11  21  31  46  70 104 141 173 204 245 298
#     4   9  18  33  52  74 103 135 169 209 252 296
#     4  10  18  30  48  71 100 136 174 209 246 295
#     4   9  20  35  48  70 103 134 164 207 259 306
#     4  10  19  34  51  71 104 142 177 211 245 288
#     4  10  20  36  58  79 100 126 163 212 264 310
#
# _framework density 17.594954000000001
#
# number of rings (size 3 to 8) (size 9 to 14) (size 15 to 20)
#    0.000    2.167    1.667    2.000    0.000    5.667 
#    0.000    0.000    0.000    1.000    0.000    0.000 
#    0.000    0.000    0.000    0.000    0.000    0.000 
#
# Total GULP energy -297559.621064 kJ/mol
# GULP energy per Si atom -12398.317544 kJ/mol
# Density = 1.755491 g / cm^3
# Si number density = 17.594954 Si / 1000 Ang^3
#
#
#
# Elastic Constant Matrix: (Units=GPa)
#
#
# Indices 1 2 3 4 5 6 
#
# 1 63.4837 38.2493 45.6789 0.0000 15.8883 0.0000
# 2 38.2493 65.0380 49.4845 0.0000 7.0579 0.0000
# 3 45.6789 49.4845 147.0020 0.0000 6.1515 0.0000
# 4 0.0000 0.0000 0.0000 31.1153 0.0000 2.5513
# 5 15.8883 7.0579 6.1515 0.0000 21.3290 0.0000
# 6 0.0000 0.0000 0.0000 2.5513 0.0000 23.7756
#
#
#
# Elastic Compliance Matrix: (Units=1/GPa)
#
#
# Indices 1 2 3 4 5 6 
#
# 1 0.031339 -0.012990 -0.004624 0.000000 -0.017713 0.000000
# 2 -0.012990 0.026571 -0.005005 0.000000 0.002328 0.000000
# 3 -0.004624 -0.005005 0.009830 0.000000 0.002266 0.000000
# 4 0.000000 0.000000 0.000000 0.032424 0.000000 -0.003479
# 5 -0.017713 0.002328 0.002266 0.000000 0.058655 0.000000
# 6 0.000000 0.000000 0.000000 -0.003479 0.000000 0.042433
#
#
# Mechanical properties :
#
#
# Convention : Reuss Voigt Hill
#
# Bulk Modulus (GPa) = 44.44389 60.26100 52.35244
# Shear Modulus (GPa) = 19.68569 24.71804 22.20187
#
# Velocity S-wave (km/s) = 3.34851 3.75218 3.55608
# Velocity P-wave (km/s) = 6.34542 7.28665 6.83226
#
# Compressibility (1/GPa) = 0.02250028
#
# Stress axis : x y z
#
# Youngs Moduli (GPa) = 31.90905 37.63504 101.73341
#
# Poissons Ratio (x) = 0.48889 0.47043
# Poissons Ratio (y) = 0.41451 0.50921
# Poissons Ratio (z) = 0.14755 0.18838
#
# Static dielectric constant tensor:
#      x y z
#    x 3.031480 0.000000 -0.122320 
#    y 0.000000 3.501120 0.000000 
#    z -0.122320 0.000000 3.456910 
# 
# 
# High freq. dielectric constant tensor:
#      x y z
#    x 1.644570 0.000000 -0.011630 
#    y 0.000000 1.688300 0.000000 
#    z -0.011630 0.000000 1.682530 
# 
# From -- ./inp_files/172077.got.cif
#   From: 2010.06.25/outbox.cif.g09.slc.cpg/sg12_87_cif.got.tgz:172077.got - 2010.06.28 00:19:55.
