data_PCOD8081636
_publ_section_title
;
Structure prediction by ZEFSAII (Michael W. Deem and Ramdas Pophale) SiO2 
 PCOD8081636
Probable space group: C 2/M
;
_chemical_formula_sum "Si O2"
_cell_formula_units_Z 60
_cell_length_a 25.273248
_cell_length_b 9.844408
_cell_length_c 16.512365
_cell_angle_alpha 90.000000
_cell_angle_beta 121.217763
_cell_angle_gamma 90.000000
_cell_volume 3513.415182
_symmetry_space_group_name_H-M "C 2/M"
_symmetry_group_IT_number 12
_symmetry_cell_setting 'monoclinic'
loop_
_space_group_symop_operation_xyz
x,y,z
-x,y,-z
-x,-y,-z
x,-y,z
1/2+x,1/2+y,z
1/2-x,1/2+y,-z
1/2-x,1/2-y,-z
1/2+x,1/2-y,z
loop_
_atom_site_type_symbol
_atom_site_label
_atom_site_fract_x
_atom_site_fract_y
_atom_site_fract_z
Si Si1 0.064315 0.337946 0.514491
Si Si2 0.393363 0.650243 0.023012
Si Si3 0.099272 0.660611 0.821196
Si Si4 0.460914 0.160642 0.681555
Si Si5 0.667901 0.838900 0.716774
Si Si6 0.000000 0.744906 0.000000
Si Si7 0.598555 0.845430 0.201707
Si Si8 0.306802 0.344108 0.806921
O O1 0.063952 0.500000 0.517872
O O2 0.070818 0.287038 0.426633
O O3 0.121601 0.278941 0.611798
O O4 0.000000 0.282492 0.500000
O O5 0.393532 0.500000 0.062490
O O6 0.384280 0.764309 0.083021
O O7 0.456770 0.663025 0.022481
O O8 0.334491 0.667235 0.918380
O O9 0.102198 0.500000 0.840611
O O10 0.146922 0.707647 0.789572
O O11 0.031821 0.708488 0.738620
O O12 0.425497 0.216255 0.732251
O O13 0.459589 0.000000 0.684021
O O14 0.736939 0.787314 0.753978
O O15 0.665201 0.000000 0.711611
O O16 0.956489 0.653591 0.908153
O O17 0.655682 0.750294 0.224527
O O18 0.622034 0.000000 0.228996
O O19 0.309643 0.500000 0.778347
#
# Coordination Sequence:
#
# PCOD8081636 Si02
#       8
#     8   8   8   8   8   4   8   8
#     4   9  14  24  47  76 100 121 154 202 252 291
#     4  10  20  32  46  68 100 136 168 196 236 289
#     4  10  18  30  50  76 102 125 157 205 250 287
#     4   9  16  27  44  75 106 120 147 204 257 288
#     4   9  17  31  51  72  98 131 164 201 244 289
#     4  10  18  30  50  70  96 128 170 206 240 278
#     4  10  19  31  49  73 100 129 162 203 248 288
#     4   9  20  36  49  67  99 137 171 198 231 288
#
# _framework density 17.077400999999998
#
# number of rings (size 3 to 8) (size 9 to 14) (size 15 to 20)
#    0.000    2.533    2.667    0.400    0.000    3.200 
#    0.000    1.333    0.000    0.000    0.000    3.733 
#    0.000    0.000    0.000    0.000    0.000    0.000 
#
# Total GULP energy -371893.848457 kJ/mol
# GULP energy per Si atom -12396.461615 kJ/mol
# Density = 1.703853 g / cm^3
# Si number density = 17.077401 Si / 1000 Ang^3
#
#
#
# Elastic Constant Matrix: (Units=GPa)
#
#
# Indices 1 2 3 4 5 6 
#
# 1 147.2902 38.3329 76.5866 0.0000 1.2910 0.0000
# 2 38.3329 47.5892 28.8443 0.0000 -2.0917 0.0000
# 3 76.5866 28.8443 99.3410 0.0000 -3.9074 0.0000
# 4 0.0000 0.0000 0.0000 10.2736 0.0000 0.9141
# 5 1.2910 -2.0917 -3.9074 0.0000 33.7089 0.0000
# 6 0.0000 0.0000 0.0000 0.9141 0.0000 16.9958
#
#
#
# Elastic Compliance Matrix: (Units=1/GPa)
#
#
# Indices 1 2 3 4 5 6 
#
# 1 0.012348 -0.005111 -0.008104 0.000000 -0.001729 0.000000
# 2 -0.005111 0.027634 -0.004027 0.000000 0.001444 0.000000
# 3 -0.008104 -0.004027 0.017566 0.000000 0.002097 0.000000
# 4 0.000000 0.000000 0.000000 0.097805 0.000000 -0.005260
# 5 -0.001729 0.001444 0.002097 0.000000 0.030065 0.000000
# 6 0.000000 0.000000 0.000000 -0.005260 0.000000 0.059121
#
#
# Mechanical properties :
#
#
# Convention : Reuss Voigt Hill
#
# Bulk Modulus (GPa) = 43.35571 64.63867 53.99719
# Shear Modulus (GPa) = 17.43918 22.22609 19.83263
#
# Velocity S-wave (km/s) = 3.19906 3.61153 3.41154
# Velocity P-wave (km/s) = 6.25206 7.43798 6.87065
#
# Compressibility (1/GPa) = 0.02306501
#
# Stress axis : x y z
#
# Youngs Moduli (GPa) = 80.98191 36.18730 56.92862
#
# Poissons Ratio (x) = 0.18494 0.46135
# Poissons Ratio (y) = 0.41387 0.22925
# Poissons Ratio (z) = 0.65628 0.14572
#
# Static dielectric constant tensor:
#      x y z
#    x 3.322010 0.000000 -0.023040 
#    y 0.000000 2.784160 0.000000 
#    z -0.023040 0.000000 3.363530 
# 
# 
# High freq. dielectric constant tensor:
#      x y z
#    x 1.661190 0.000000 -0.005270 
#    y 0.000000 1.613210 0.000000 
#    z -0.005270 0.000000 1.658710 
# 
# From -- ./inp_files/288334.got.cif
#   From: 2010.06.25/outbox.cif.g09.slc.cpg/sg12_145_cif.got.tgz:288334.got - 2010.06.28 00:19:55.
