data_PCOD8081323
_publ_section_title
;
Structure prediction by ZEFSAII (Michael W. Deem and Ramdas Pophale) SiO2 
 PCOD8081323
Probable space group: C 2/M
;
_chemical_formula_sum "Si O2"
_cell_formula_units_Z 56
_cell_length_a 27.940579
_cell_length_b 9.150542
_cell_length_c 17.666521
_cell_angle_alpha 90.000000
_cell_angle_beta 129.105264
_cell_angle_gamma 90.000000
_cell_volume 3505.003997
_symmetry_space_group_name_H-M "C 2/M"
_symmetry_group_IT_number 12
_symmetry_cell_setting 'monoclinic'
loop_
_space_group_symop_operation_xyz
x,y,z
-x,y,-z
-x,-y,-z
x,-y,z
1/2+x,1/2+y,z
1/2-x,1/2+y,-z
1/2-x,1/2-y,-z
1/2+x,1/2-y,z
loop_
_atom_site_type_symbol
_atom_site_label
_atom_site_fract_x
_atom_site_fract_y
_atom_site_fract_z
Si Si1 0.040519 0.166828 0.200993
Si Si2 0.528693 0.671120 0.356389
Si Si3 0.071513 0.335135 0.091620
Si Si4 0.185539 0.329977 0.941181
Si Si5 0.092366 0.332348 0.716586
Si Si6 0.572237 0.338078 0.554643
Si Si7 0.398756 0.669952 0.022597
O O1 0.059545 0.206634 0.306107
O O2 0.079747 0.268560 0.183833
O O3 0.056457 0.000000 0.196623
O O4 0.967693 0.193640 0.121102
O O5 0.512172 0.500000 0.346200
O O6 0.464469 0.754707 0.299405
O O7 0.577130 0.714680 0.471571
O O8 0.097392 0.500000 0.116586
O O9 0.108804 0.237035 0.068955
O O10 0.000000 0.331596 0.000000
O O11 0.194639 0.500000 0.969956
O O12 0.146454 0.256383 0.968098
O O13 0.250000 0.250000 0.000000
O O14 0.152546 0.310530 0.827508
O O15 0.074396 0.500000 0.688583
O O16 0.107155 0.267925 0.647770
O O17 0.500000 0.338883 0.500000
O O18 0.600458 0.500000 0.592564
O O19 0.380415 0.500000 0.002008
#
# Coordination Sequence:
#
# PCOD8081323 Si02
#       7
#     8   8   8   8   8   8   8
#     4   9  16  26  42  63  87 116 149 178 210 256
#     4   9  16  27  42  62  87 117 148 176 209 256
#     4   9  17  27  40  60  87 115 144 178 215 258
#     4  11  23  35  47  64  85 113 151 191 227 263
#     4  10  19  29  42  60  84 111 143 183 223 258
#     4   8  15  26  41  59  82 113 146 174 208 257
#     4  10  18  30  47  62  82 114 148 183 222 260
#
# _framework density 15.977157999999999
#
# number of rings (size 3 to 8) (size 9 to 14) (size 15 to 20)
#    0.000    2.571    1.429    2.571    0.000    7.143 
#    0.000    0.000    0.000    0.000    0.000    0.000 
#    0.000    1.143    0.000    3.429    0.000    5.286 
#
# Total GULP energy -347096.543959 kJ/mol
# GULP energy per Si atom -12396.305141 kJ/mol
# Density = 1.594079 g / cm^3
# Si number density = 15.977158 Si / 1000 Ang^3
#
#
#
# Elastic Constant Matrix: (Units=GPa)
#
#
# Indices 1 2 3 4 5 6 
#
# 1 66.9814 51.5705 48.7095 0.0000 -30.5581 0.0000
# 2 51.5705 114.1611 53.1749 0.0000 -18.5307 0.0000
# 3 48.7095 53.1749 74.6719 0.0000 -30.6080 0.0000
# 4 0.0000 0.0000 0.0000 23.1323 0.0000 -6.5111
# 5 -30.5581 -18.5307 -30.6080 0.0000 31.2789 0.0000
# 6 0.0000 0.0000 0.0000 -6.5111 0.0000 25.5333
#
#
#
# Elastic Compliance Matrix: (Units=1/GPa)
#
#
# Indices 1 2 3 4 5 6 
#
# 1 0.040674 -0.010061 -0.009222 0.000000 0.024752 0.000000
# 2 -0.010061 0.015694 -0.008067 0.000000 -0.008425 0.000000
# 3 -0.009222 -0.008067 0.032560 0.000000 0.018073 0.000000
# 4 0.000000 0.000000 0.000000 0.046572 0.000000 0.011876
# 5 0.024752 -0.008425 0.018073 0.000000 0.068847 0.000000
# 6 0.000000 0.000000 0.000000 0.011876 0.000000 0.042193
#
#
# Mechanical properties :
#
#
# Convention : Reuss Voigt Hill
#
# Bulk Modulus (GPa) = 29.21402 62.52492 45.86947
# Shear Modulus (GPa) = 15.99234 22.81286 19.40260
#
# Velocity S-wave (km/s) = 3.16721 3.78278 3.48860
# Velocity P-wave (km/s) = 5.63023 7.63532 6.70812
#
# Compressibility (1/GPa) = 0.03423014
#
# Stress axis : x y z
#
# Youngs Moduli (GPa) = 24.58557 63.71815 30.71238
#
# Poissons Ratio (x) = 0.64104 0.28323
# Poissons Ratio (y) = 0.24735 0.24774
# Poissons Ratio (z) = 0.22673 0.51399
#
# Static dielectric constant tensor:
#      x y z
#    x 3.015320 0.000000 -0.419740 
#    y 0.000000 3.189920 0.000000 
#    z -0.419740 0.000000 3.196050 
# 
# 
# High freq. dielectric constant tensor:
#      x y z
#    x 1.581990 0.000000 -0.048260 
#    y 0.000000 1.626280 0.000000 
#    z -0.048260 0.000000 1.588230 
# 
# From -- ./inp_files/288457.got.cif
#   From: 2010.06.25/outbox.cif.g09.slc.cpg/sg12_145_cif.got.tgz:288457.got - 2010.06.28 00:19:55.
