data_PCOD8081575
_publ_section_title
;
Structure prediction by ZEFSAII (Michael W. Deem and Ramdas Pophale) SiO2 
 PCOD8081575
Probable space group: C 2/M
;
_chemical_formula_sum "Si O2"
_cell_formula_units_Z 64
_cell_length_a 13.813402
_cell_length_b 14.619005
_cell_length_c 17.598582
_cell_angle_alpha 90.000000
_cell_angle_beta 87.355858
_cell_angle_gamma 90.000000
_cell_volume 3550.042176
_symmetry_space_group_name_H-M "C 2/M"
_symmetry_group_IT_number 12
_symmetry_cell_setting 'monoclinic'
loop_
_space_group_symop_operation_xyz
x,y,z
-x,y,-z
-x,-y,-z
x,-y,z
1/2+x,1/2+y,z
1/2-x,1/2+y,-z
1/2-x,1/2-y,-z
1/2+x,1/2-y,z
loop_
_atom_site_type_symbol
_atom_site_label
_atom_site_fract_x
_atom_site_fract_y
_atom_site_fract_z
Si Si1 0.862414 0.246111 0.160965
Si Si2 0.210613 0.105293 0.121089
Si Si3 0.606317 0.604640 0.969725
Si Si4 0.228622 0.273361 0.301523
Si Si5 0.788992 0.893135 0.431655
Si Si6 0.944239 0.214595 0.778894
Si Si7 0.009823 0.103227 0.638439
Si Si8 0.797161 0.103847 0.600297
O O1 0.808192 0.337521 0.134675
O O2 0.853203 0.166719 0.099192
O O3 0.815207 0.207178 0.240191
O O4 0.976744 0.267142 0.171628
O O5 0.119483 0.142902 0.171267
O O6 0.228942 0.000000 0.143695
O O7 0.184760 0.113556 0.033683
O O8 0.598880 0.500000 0.941203
O O9 0.500000 0.638298 0.000000
O O10 0.222657 0.341932 0.372587
O O11 0.127355 0.285795 0.260041
O O12 0.243275 0.169694 0.332561
O O13 0.900224 0.862531 0.415382
O O14 0.757246 0.867018 0.518651
O O15 0.774234 0.000000 0.419361
O O16 0.006062 0.160717 0.714961
O O17 0.913392 0.112234 0.591532
O O18 0.027471 0.000000 0.663920
O O19 0.766025 0.000000 0.621799
#
# Coordination Sequence:
#
# PCOD8081575 Si02
#       8
#     8   8   8   8   8   8   8   8
#     4  11  21  35  56  83 112 145 181 225 273 323
#     4  10  21  37  58  84 111 147 188 224 268 323
#     4  10  20  35  59  88 113 141 177 223 273 322
#     4  10  21  33  50  77 107 141 178 218 268 323
#     4  10  18  30  49  73 103 138 175 220 273 322
#     4  10  19  33  52  78 112 142 183 221 271 317
#     4   9  16  27  47  75 104 131 167 220 276 322
#     4   9  18  32  51  74 101 133 175 225 272 321
#
# _framework density 18.027956
#
# number of rings (size 3 to 8) (size 9 to 14) (size 15 to 20)
#    0.000    2.125    2.500    1.500    0.000    5.500 
#    0.000    0.625    0.000    1.125    0.000    1.750 
#    0.000    0.000    0.000    0.000    0.000    0.000 
#
# Total GULP energy -396705.008845 kJ/mol
# GULP energy per Si atom -12397.031526 kJ/mol
# Density = 1.798692 g / cm^3
# Si number density = 18.027956 Si / 1000 Ang^3
#
#
#
# Elastic Constant Matrix: (Units=GPa)
#
#
# Indices 1 2 3 4 5 6 
#
# 1 83.6171 46.1772 38.2569 0.0000 14.6240 0.0000
# 2 46.1772 66.5118 41.3700 0.0000 3.8949 0.0000
# 3 38.2569 41.3700 92.7079 0.0000 7.5325 0.0000
# 4 0.0000 0.0000 0.0000 28.5369 0.0000 -1.0193
# 5 14.6240 3.8949 7.5325 0.0000 30.9847 0.0000
# 6 0.0000 0.0000 0.0000 -1.0193 0.0000 24.2524
#
#
#
# Elastic Compliance Matrix: (Units=1/GPa)
#
#
# Indices 1 2 3 4 5 6 
#
# 1 0.021704 -0.013058 -0.002479 0.000000 -0.007999 0.000000
# 2 -0.013058 0.028671 -0.007767 0.000000 0.004447 0.000000
# 3 -0.002479 -0.007767 0.015406 0.000000 -0.001599 0.000000
# 4 0.000000 0.000000 0.000000 0.035095 0.000000 0.001475
# 5 -0.007999 0.004447 -0.001599 0.000000 0.035879 0.000000
# 6 0.000000 0.000000 0.000000 0.001475 0.000000 0.041295
#
#
# Mechanical properties :
#
#
# Convention : Reuss Voigt Hill
#
# Bulk Modulus (GPa) = 52.15934 54.93832 53.54883
# Shear Modulus (GPa) = 21.64040 24.55697 23.09868
#
# Velocity S-wave (km/s) = 3.46841 3.69475 3.58337
# Velocity P-wave (km/s) = 6.71082 6.98152 6.84751
#
# Compressibility (1/GPa) = 0.01917202
#
# Stress axis : x y z
#
# Youngs Moduli (GPa) = 46.07491 34.87818 64.91108
#
# Poissons Ratio (x) = 0.45543 0.16095
# Poissons Ratio (y) = 0.60163 0.50418
# Poissons Ratio (z) = 0.11424 0.27091
#
# Static dielectric constant tensor:
#      x y z
#    x 3.270070 0.000000 0.165800 
#    y 0.000000 3.188390 0.000000 
#    z 0.165800 0.000000 3.493530 
# 
# 
# High freq. dielectric constant tensor:
#      x y z
#    x 1.681930 0.000000 0.011080 
#    y 0.000000 1.677000 0.000000 
#    z 0.011080 0.000000 1.713920 
# 
# From -- ./inp_files/269840.got.cif
#   From: 2010.06.25/outbox.cif.g09.slc.cpg/sg12_135_cif.got.tgz:269840.got - 2010.06.28 00:19:55.
