data_PCOD8081801
_publ_section_title
;
Structure prediction by ZEFSAII (Michael W. Deem and Ramdas Pophale) SiO2 
 PCOD8081801
Probable space group: C 2/M
;
_chemical_formula_sum "Si O2"
_cell_formula_units_Z 56
_cell_length_a 24.466176
_cell_length_b 9.248294
_cell_length_c 14.261489
_cell_angle_alpha 90.000000
_cell_angle_beta 82.046074
_cell_angle_gamma 90.000000
_cell_volume 3195.908289
_symmetry_space_group_name_H-M "C 2/M"
_symmetry_group_IT_number 12
_symmetry_cell_setting 'monoclinic'
loop_
_space_group_symop_operation_xyz
x,y,z
-x,y,-z
-x,-y,-z
x,-y,z
1/2+x,1/2+y,z
1/2-x,1/2+y,-z
1/2-x,1/2-y,-z
1/2+x,1/2-y,z
loop_
_atom_site_type_symbol
_atom_site_label
_atom_site_fract_x
_atom_site_fract_y
_atom_site_fract_z
Si Si1 0.802327 0.831320 0.029117
Si Si2 0.461468 0.333024 0.685287
Si Si3 0.201561 0.332389 0.299203
Si Si4 0.637179 0.665052 0.165477
Si Si5 0.913059 0.169552 0.349953
Si Si6 0.821730 0.830385 0.231541
Si Si7 0.603748 0.170954 0.453171
O O1 0.819177 0.766181 0.126596
O O2 0.786730 0.000000 0.041329
O O3 0.750000 0.750000 0.000000
O O4 0.854935 0.807721 0.947427
O O5 0.453938 0.500000 0.657124
O O6 0.424590 0.293656 0.785480
O O7 0.524448 0.299988 0.697072
O O8 0.444180 0.234903 0.601418
O O9 0.194585 0.500000 0.279685
O O10 0.182882 0.255765 0.208922
O O11 0.265552 0.292262 0.301941
O O12 0.163755 0.287550 0.396336
O O13 0.649427 0.500000 0.188207
O O14 0.873512 0.231743 0.277334
O O15 0.898946 0.257277 0.445774
O O16 0.902735 0.000000 0.371748
O O17 0.830110 0.000000 0.220408
O O18 0.594932 0.000000 0.463503
#
# Coordination Sequence:
#
# PCOD8081801 Si02
#       7
#     8   8   8   8   8   8   8
#     4  10  18  30  51  75  98 124 156 194 236 282
#     4   9  18  33  51  71  96 126 162 198 234 281
#     4   9  17  31  49  70  97 127 156 192 241 290
#     4   9  17  29  48  75  99 119 154 202 238 271
#     4  10  20  34  50  67  94 134 166 192 234 285
#     4   9  18  32  49  70  98 129 160 191 234 291
#     4  10  20  32  50  74  96 122 161 205 243 278
#
# _framework density 17.522404999999999
#
# number of rings (size 3 to 8) (size 9 to 14) (size 15 to 20)
#    0.000    2.571    1.429    0.857    0.000    3.429 
#    0.000    2.143    0.000    4.286    0.000    0.000 
#    0.000    6.857    0.000    0.000    0.000    0.000 
#
# Total GULP energy -347094.683998 kJ/mol
# GULP energy per Si atom -12396.238714 kJ/mol
# Density = 1.748252 g / cm^3
# Si number density = 17.522405 Si / 1000 Ang^3
#
#
#
# Elastic Constant Matrix: (Units=GPa)
#
#
# Indices 1 2 3 4 5 6 
#
# 1 141.3481 37.1440 82.1178 0.0000 10.2698 0.0000
# 2 37.1440 41.1842 36.2299 0.0000 1.3999 0.0000
# 3 82.1178 36.2299 113.7783 0.0000 -1.9746 0.0000
# 4 0.0000 0.0000 0.0000 19.3071 0.0000 -1.4373
# 5 10.2698 1.3999 -1.9746 0.0000 21.4270 0.0000
# 6 0.0000 0.0000 0.0000 -1.4373 0.0000 19.9888
#
#
#
# Elastic Compliance Matrix: (Units=1/GPa)
#
#
# Indices 1 2 3 4 5 6 
#
# 1 0.013818 -0.004638 -0.008620 0.000000 -0.007114 0.000000
# 2 -0.004638 0.035506 -0.007973 0.000000 -0.000832 0.000000
# 3 -0.008620 -0.007973 0.017658 0.000000 0.006279 0.000000
# 4 0.000000 0.000000 0.000000 0.052073 0.000000 0.003744
# 5 -0.007114 -0.000832 0.006279 0.000000 0.050713 0.000000
# 6 0.000000 0.000000 0.000000 0.003744 0.000000 0.050297
#
#
# Mechanical properties :
#
#
# Convention : Reuss Voigt Hill
#
# Bulk Modulus (GPa) = 40.78151 67.47711 54.12931
# Shear Modulus (GPa) = 18.47058 21.53252 20.00155
#
# Velocity S-wave (km/s) = 3.25023 3.50931 3.38225
# Velocity P-wave (km/s) = 6.11635 7.41707 6.79789
#
# Compressibility (1/GPa) = 0.02452092
#
# Stress axis : x y z
#
# Youngs Moduli (GPa) = 72.36898 28.16389 56.63180
#
# Poissons Ratio (x) = 0.13062 0.48814
# Poissons Ratio (y) = 0.33565 0.45153
# Poissons Ratio (z) = 0.62379 0.22456
#
# Static dielectric constant tensor:
#      x y z
#    x 3.484640 0.000000 -0.167430 
#    y 0.000000 3.148760 0.000000 
#    z -0.167430 0.000000 3.455710 
# 
# 
# High freq. dielectric constant tensor:
#      x y z
#    x 1.674560 0.000000 -0.019540 
#    y 0.000000 1.660990 0.000000 
#    z -0.019540 0.000000 1.674400 
# 
# From -- ./inp_files/230931.got.cif
#   From: 2010.06.25/outbox.cif.g09.slc.cpg/sg12_116_cif.got.tgz:230931.got - 2010.06.28 00:19:55.
