data_PCOD8081383
_publ_section_title
;
Structure prediction by ZEFSAII (Michael W. Deem and Ramdas Pophale) SiO2 
 PCOD8081383
Probable space group: C 2/M
;
_chemical_formula_sum "Si O2"
_cell_formula_units_Z 64
_cell_length_a 20.597657
_cell_length_b 9.610649
_cell_length_c 24.634418
_cell_angle_alpha 90.000000
_cell_angle_beta 127.568644
_cell_angle_gamma 90.000000
_cell_volume 3865.269267
_symmetry_space_group_name_H-M "C 2/M"
_symmetry_group_IT_number 12
_symmetry_cell_setting 'monoclinic'
loop_
_space_group_symop_operation_xyz
x,y,z
-x,y,-z
-x,-y,-z
x,-y,z
1/2+x,1/2+y,z
1/2-x,1/2+y,-z
1/2-x,1/2-y,-z
1/2+x,1/2-y,z
loop_
_atom_site_type_symbol
_atom_site_label
_atom_site_fract_x
_atom_site_fract_y
_atom_site_fract_z
Si Si1 0.096501 0.334815 0.143218
Si Si2 0.481150 0.835419 0.705291
Si Si3 0.306916 0.834749 0.913253
Si Si4 0.842916 0.665751 0.713109
Si Si5 0.354658 0.164787 0.156073
Si Si6 0.222390 0.844657 0.564450
Si Si7 0.915101 0.664516 0.069198
Si Si8 0.628546 0.155314 0.443594
O O1 0.090723 0.500000 0.141032
O O2 0.136465 0.284930 0.107671
O O3 0.152609 0.282312 0.222329
O O4 0.004871 0.272053 0.102257
O O5 0.422511 0.773228 0.722436
O O6 0.574593 0.793787 0.764848
O O7 0.450453 0.784989 0.629948
O O8 0.470910 0.000000 0.701843
O O9 0.222998 0.752091 0.865116
O O10 0.290312 0.000000 0.903566
O O11 0.351588 0.786458 0.990987
O O12 0.845349 0.500000 0.711513
O O13 0.759218 0.714877 0.640245
O O14 0.382463 0.215512 0.110644
O O15 0.335772 0.000000 0.147149
O O16 0.295451 0.845479 0.558544
O O17 0.147372 0.750006 0.505557
O O18 0.187486 0.000000 0.554324
O O19 0.922847 0.500000 0.073115
O O20 0.611543 0.000000 0.456612
#
# Coordination Sequence:
#
# PCOD8081383 Si02
#       8
#     8   8   8   8   8   8   8   8
#     4   9  15  26  45  67  88 113 147 185 218 250
#     4   8  13  23  40  61  81 107 147 183 203 237
#     4  10  20  30  43  68  96 113 136 183 232 262
#     4   8  12  21  39  62  83 106 143 182 208 241
#     4  10  18  30  48  65  85 118 153 180 209 256
#     4   8  13  20  33  56  83 106 130 166 210 252
#     4   9  16  28  47  68  86 111 150 187 215 251
#     4   8  13  21  34  54  81 108 133 166 208 249
#
# _framework density 16.557707000000001
#
# number of rings (size 3 to 8) (size 9 to 14) (size 15 to 20)
#    0.000    3.250    1.250    2.250    0.000    1.500 
#    0.000    0.625    0.000    3.750    0.000    0.875 
#    0.000    7.000    0.000    0.000    0.000    0.000 
#
# Total GULP energy -396512.459366 kJ/mol
# GULP energy per Si atom -12391.014355 kJ/mol
# Density = 1.652002 g / cm^3
# Si number density = 16.557707 Si / 1000 Ang^3
#
#
#
# Elastic Constant Matrix: (Units=GPa)
#
#
# Indices 1 2 3 4 5 6 
#
# 1 64.6387 18.5619 31.9941 0.0000 13.1049 0.0000
# 2 18.5619 29.3964 28.7694 0.0000 7.0527 0.0000
# 3 31.9941 28.7694 124.8702 0.0000 25.5766 0.0000
# 4 0.0000 0.0000 0.0000 20.8885 0.0000 5.7542
# 5 13.1049 7.0527 25.5766 0.0000 13.5976 0.0000
# 6 0.0000 0.0000 0.0000 5.7542 0.0000 16.2134
#
#
#
# Elastic Compliance Matrix: (Units=1/GPa)
#
#
# Indices 1 2 3 4 5 6 
#
# 1 0.021445 -0.009753 -0.000082 0.000000 -0.015455 0.000000
# 2 -0.009753 0.048670 -0.008897 0.000000 0.000890 0.000000
# 3 -0.000082 -0.008897 0.014832 0.000000 -0.023205 0.000000
# 4 0.000000 0.000000 0.000000 0.053061 0.000000 -0.018832
# 5 -0.015455 0.000890 -0.023205 0.000000 0.131624 0.000000
# 6 0.000000 0.000000 0.000000 -0.018832 0.000000 0.068361
#
#
# Mechanical properties :
#
#
# Convention : Reuss Voigt Hill
#
# Bulk Modulus (GPa) = 21.05991 41.95068 31.50530
# Shear Modulus (GPa) = 12.77846 19.44523 16.11185
#
# Velocity S-wave (km/s) = 2.78106 3.43066 3.12279
# Velocity P-wave (km/s) = 4.80199 6.40965 5.66316
#
# Compressibility (1/GPa) = 0.04748357
#
# Stress axis : x y z
#
# Youngs Moduli (GPa) = 46.63013 20.54675 67.42161
#
# Poissons Ratio (x) = 0.20039 0.00553
# Poissons Ratio (y) = 0.45479 0.59982
# Poissons Ratio (z) = 0.00382 0.18280
#
# Static dielectric constant tensor:
#      x y z
#    x 2.838700 0.000000 0.063940 
#    y 0.000000 2.693280 0.000000 
#    z 0.063940 0.000000 3.688040 
# 
# 
# High freq. dielectric constant tensor:
#      x y z
#    x 1.596550 0.000000 0.008260 
#    y 0.000000 1.581230 0.000000 
#    z 0.008260 0.000000 1.661700 
# 
# From -- ./inp_files/276513.got.cif
#   From: 2010.06.25/outbox.cif.g09.slc.cpg/sg12_139_cif.got.tgz:276513.got - 2010.06.28 00:19:55.
