data_PCOD8081923
_publ_section_title
;
Structure prediction by ZEFSAII (Michael W. Deem and Ramdas Pophale) SiO2 
 PCOD8081923
Probable space group: C 2/M
;
_chemical_formula_sum "Si O2"
_cell_formula_units_Z 52
_cell_length_a 27.615355
_cell_length_b 7.676513
_cell_length_c 23.919334
_cell_angle_alpha 90.000000
_cell_angle_beta 33.713295
_cell_angle_gamma 90.000000
_cell_volume 2814.401145
_symmetry_space_group_name_H-M "C 2/M"
_symmetry_group_IT_number 12
_symmetry_cell_setting 'monoclinic'
loop_
_space_group_symop_operation_xyz
x,y,z
-x,y,-z
-x,-y,-z
x,-y,z
1/2+x,1/2+y,z
1/2-x,1/2+y,-z
1/2-x,1/2-y,-z
1/2+x,1/2-y,z
loop_
_atom_site_type_symbol
_atom_site_label
_atom_site_fract_x
_atom_site_fract_y
_atom_site_fract_z
Si Si1 0.157308 0.000000 0.759630
Si Si2 0.624574 0.296641 0.599904
Si Si3 0.571043 0.702815 0.223882
Si Si4 0.110427 0.692125 0.066025
Si Si5 0.290208 0.803233 0.372233
Si Si6 0.539108 0.500000 0.068164
Si Si7 0.718546 0.299984 0.164782
Si Si8 0.211219 0.000000 0.831883
O O1 0.181927 0.825491 0.703306
O O2 0.209757 0.000000 0.766827
O O3 0.054347 0.000000 0.871687
O O4 0.632827 0.500000 0.605239
O O5 0.529363 0.245137 0.668358
O O6 0.641362 0.199127 0.642221
O O7 0.695343 0.241397 0.485621
O O8 0.581114 0.500000 0.200769
O O9 0.608319 0.804210 0.134890
O O10 0.626036 0.752120 0.226118
O O11 0.081917 0.500000 0.072775
O O12 0.044375 0.830259 0.102532
O O13 0.208894 0.731940 0.952401
O O14 0.286784 0.000000 0.351576
O O15 0.613153 0.500000 0.949956
O O16 0.718415 0.500000 0.186271
O O17 0.737003 0.173117 0.198948
#
# Coordination Sequence:
#
# PCOD8081923 Si02
#       8
#     4   8   8   8   8   4   8   4
#     4  12  23  38  59  80 101 141 191 219 262 318
#     4   9  18  34  54  81 115 142 168 208 270 328
#     4  10  18  30  52  80 109 144 178 213 260 324
#     4  10  19  31  50  80 113 143 170 210 268 327
#     4  10  21  36  55  80 112 141 169 218 270 321
#     4  10  21  38  54  78 112 136 175 227 265 315
#     4   9  20  36  52  74 108 143 181 222 262 308
#     4  10  23  40  57  74 103 147 184 226 264 299
#
# _framework density 18.476399000000001
#
# number of rings (size 3 to 8) (size 9 to 14) (size 15 to 20)
#    0.000    2.154    1.538    1.615    2.154    3.077 
#    0.000    0.000    0.000    6.462    0.000    4.308 
#    0.000    0.000    0.000    0.000    0.000    0.000 
#
# Total GULP energy -322445.517982 kJ/mol
# GULP energy per Si atom -12401.750692 kJ/mol
# Density = 1.843435 g / cm^3
# Si number density = 18.476399 Si / 1000 Ang^3
#
#
#
# Elastic Constant Matrix: (Units=GPa)
#
#
# Indices 1 2 3 4 5 6 
#
# 1 127.1724 54.6598 58.6059 -0.0010 -11.1815 -0.0021
# 2 54.6598 100.6211 35.4396 -0.0186 1.7544 0.0094
# 3 58.6059 35.4396 68.3542 0.0050 -8.9518 -0.0109
# 4 -0.0010 -0.0186 0.0050 13.9107 -0.0021 -3.4018
# 5 -11.1815 1.7544 -8.9518 -0.0021 28.2095 0.0035
# 6 -0.0021 0.0094 -0.0109 -3.4018 0.0035 16.1947
#
#
#
# Elastic Compliance Matrix: (Units=1/GPa)
#
#
# Indices 1 2 3 4 5 6 
#
# 1 0.014564 -0.004529 -0.009751 -0.000002 0.002960 -0.000003
# 2 -0.004529 0.013794 -0.003774 0.000017 -0.003850 -0.000007
# 3 -0.009751 -0.003774 0.025532 -0.000011 0.004472 0.000015
# 4 -0.000002 0.000017 -0.000011 0.075780 -0.000001 0.015918
# 5 0.002960 -0.003850 0.004472 -0.000001 0.038281 -0.000003
# 6 -0.000003 -0.000007 0.000015 0.015918 -0.000003 0.065092
#
#
# Mechanical properties :
#
#
# Convention : Reuss Voigt Hill
#
# Bulk Modulus (GPa) = 56.23046 65.95093 61.09070
# Shear Modulus (GPa) = 18.17668 21.49247 19.83457
#
# Velocity S-wave (km/s) = 3.13993 3.41433 3.28000
# Velocity P-wave (km/s) = 6.60646 7.16350 6.89061
#
# Compressibility (1/GPa) = 0.01778395
#
# Stress axis : x y z
#
# Youngs Moduli (GPa) = 68.66383 72.49267 39.16607
#
# Poissons Ratio (x) = 0.32828 0.38191
# Poissons Ratio (y) = 0.31095 0.14780
# Poissons Ratio (z) = 0.66955 0.27356
#
# Static dielectric constant tensor:
#      x y z
#    x 3.210620 -0.000060 -0.287640 
#    y -0.000060 3.543530 0.000060 
#    z -0.287640 0.000060 3.314830 
# 
# 
# High freq. dielectric constant tensor:
#      x y z
#    x 1.690890 -0.000010 -0.023460 
#    y -0.000010 1.729390 0.000010 
#    z -0.023460 0.000010 1.699770 
# 
# From -- ./inp_files/324069.got.cif
#   From: 2010.06.25/outbox.cif.g09.slc.cpg/sg12_163_cif.got.tgz:324069.got - 2010.06.28 00:19:55.
