data_PCOD8081305
_publ_section_title
;
Structure prediction by ZEFSAII (Michael W. Deem and Ramdas Pophale) SiO2 
 PCOD8081305
Probable space group: C 2/M
;
_chemical_formula_sum "Si O2"
_cell_formula_units_Z 64
_cell_length_a 24.364046
_cell_length_b 9.318953
_cell_length_c 16.123644
_cell_angle_alpha 90.000000
_cell_angle_beta 78.723771
_cell_angle_gamma 90.000000
_cell_volume 3590.162271
_symmetry_space_group_name_H-M "C 2/M"
_symmetry_group_IT_number 12
_symmetry_cell_setting 'monoclinic'
loop_
_space_group_symop_operation_xyz
x,y,z
-x,y,-z
-x,-y,-z
x,-y,z
1/2+x,1/2+y,z
1/2-x,1/2+y,-z
1/2-x,1/2-y,-z
1/2+x,1/2-y,z
loop_
_atom_site_type_symbol
_atom_site_label
_atom_site_fract_x
_atom_site_fract_y
_atom_site_fract_z
Si Si1 0.706160 0.169827 0.785111
Si Si2 0.408074 0.169294 0.251953
Si Si3 0.168732 0.829293 0.266658
Si Si4 0.113444 0.664232 0.133051
Si Si5 0.999267 0.330851 0.093275
Si Si6 0.042416 0.170085 0.606698
Si Si7 0.797705 0.663223 0.029821
Si Si8 0.076800 0.169530 0.418875
O O1 0.655953 0.224052 0.740836
O O2 0.767376 0.222385 0.736370
O O3 0.694124 0.228094 0.880942
O O4 0.703625 0.000000 0.786656
O O5 0.442483 0.209540 0.158453
O O6 0.432321 0.250679 0.322858
O O7 0.411822 0.000000 0.267707
O O8 0.144741 0.761920 0.190171
O O9 0.132219 0.774343 0.355675
O O10 0.165447 0.000000 0.257401
O O11 0.112882 0.500000 0.165705
O O12 0.051280 0.725111 0.133773
O O13 0.144340 0.675020 0.035823
O O14 0.006793 0.500000 0.081941
O O15 0.000000 0.262959 0.000000
O O16 0.076626 0.220622 0.514489
O O17 0.978317 0.222153 0.614091
O O18 0.046588 0.000000 0.619165
O O19 0.776685 0.500000 0.041727
O O20 0.750000 0.750000 0.000000
O O21 0.074547 0.000000 0.420018
#
# Coordination Sequence:
#
# PCOD8081305 Si02
#       8
#     8   8   8   8   8   8   8   8
#     4   9  18  31  47  67  94 128 162 193 226 278
#     4  10  19  32  50  71  96 127 162 194 230 279
#     4  10  18  31  50  70  92 123 160 192 232 284
#     4  10  19  29  46  72  97 119 153 201 241 272
#     4   9  17  30  48  69  94 127 161 191 228 278
#     4   9  17  33  53  73  95 121 156 195 239 285
#     4  10  18  30  46  66  93 125 159 193 230 271
#     4   8  16  31  53  74  93 121 156 194 235 288
#
# _framework density 17.826491000000001
#
# number of rings (size 3 to 8) (size 9 to 14) (size 15 to 20)
#    0.000    2.625    1.250    2.250    0.000    3.000 
#    0.000    3.750    0.000    3.000    0.000    0.000 
#    0.000    0.000    0.000    0.000    0.000    0.000 
#
# Total GULP energy -396640.550711 kJ/mol
# GULP energy per Si atom -12395.017210 kJ/mol
# Density = 1.778592 g / cm^3
# Si number density = 17.826491 Si / 1000 Ang^3
#
#
#
# Elastic Constant Matrix: (Units=GPa)
#
#
# Indices 1 2 3 4 5 6 
#
# 1 143.1765 28.8248 71.8838 0.0000 -1.2950 0.0000
# 2 28.8248 28.6614 29.5643 0.0000 2.5131 0.0000
# 3 71.8838 29.5643 131.3491 0.0000 0.0013 0.0000
# 4 0.0000 0.0000 0.0000 22.5407 0.0000 6.8143
# 5 -1.2950 2.5131 0.0013 0.0000 33.1912 0.0000
# 6 0.0000 0.0000 0.0000 6.8143 0.0000 20.2525
#
#
#
# Elastic Compliance Matrix: (Units=1/GPa)
#
#
# Indices 1 2 3 4 5 6 
#
# 1 0.010380 -0.006063 -0.004316 0.000000 0.000864 0.000000
# 2 -0.006063 0.049378 -0.007796 0.000000 -0.003975 0.000000
# 3 -0.004316 -0.007796 0.011730 0.000000 0.000421 0.000000
# 4 0.000000 0.000000 0.000000 0.049388 0.000000 -0.016617
# 5 0.000864 -0.003975 0.000421 0.000000 0.030463 0.000000
# 6 0.000000 0.000000 0.000000 -0.016617 0.000000 0.054968
#
#
# Mechanical properties :
#
#
# Convention : Reuss Voigt Hill
#
# Bulk Modulus (GPa) = 28.45920 62.63696 45.54808
# Shear Modulus (GPa) = 19.65656 26.72449 23.19053
#
# Velocity S-wave (km/s) = 3.32424 3.87608 3.61072
# Velocity P-wave (km/s) = 5.54376 7.43272 6.55662
#
# Compressibility (1/GPa) = 0.03513802
#
# Stress axis : x y z
#
# Youngs Moduli (GPa) = 96.34265 20.25208 85.25155
#
# Poissons Ratio (x) = 0.12278 0.36794
# Poissons Ratio (y) = 0.58410 0.66462
# Poissons Ratio (z) = 0.41580 0.15789
#
# Static dielectric constant tensor:
#      x y z
#    x 3.652360 0.000000 -0.304950 
#    y 0.000000 2.912200 0.000000 
#    z -0.304950 0.000000 3.657010 
# 
# 
# High freq. dielectric constant tensor:
#      x y z
#    x 1.698700 0.000000 -0.007110 
#    y 0.000000 1.643620 0.000000 
#    z -0.007110 0.000000 1.691690 
# 
# From -- ./inp_files/287535.got.cif
#   From: 2010.06.25/outbox.cif.g09.slc.cpg/sg12_144_cif.got.tgz:287535.got - 2010.06.28 00:19:55.
