data_PCOD8081308
_publ_section_title
;
Structure prediction by ZEFSAII (Michael W. Deem and Ramdas Pophale) SiO2 
 PCOD8081308
Probable space group: C 2/M
;
_chemical_formula_sum "Si O2"
_cell_formula_units_Z 56
_cell_length_a 14.069753
_cell_length_b 27.710947
_cell_length_c 13.673077
_cell_angle_alpha 90.000000
_cell_angle_beta 139.654754
_cell_angle_gamma 90.000000
_cell_volume 3451.209544
_symmetry_space_group_name_H-M "C 2/M"
_symmetry_group_IT_number 12
_symmetry_cell_setting 'monoclinic'
loop_
_space_group_symop_operation_xyz
x,y,z
-x,y,-z
-x,-y,-z
x,-y,z
1/2+x,1/2+y,z
1/2-x,1/2+y,-z
1/2-x,1/2-y,-z
1/2+x,1/2-y,z
loop_
_atom_site_type_symbol
_atom_site_label
_atom_site_fract_x
_atom_site_fract_y
_atom_site_fract_z
Si Si1 0.606049 0.090767 0.230380
Si Si2 0.286281 0.500000 0.410126
Si Si3 0.143145 0.191036 0.832562
Si Si4 0.121007 0.305957 0.316265
Si Si5 0.587576 0.747334 0.973499
Si Si6 0.420772 0.742294 0.536319
Si Si7 0.285888 0.090911 0.903398
Si Si8 0.394502 0.500000 0.274373
O O1 0.683896 0.046543 0.347105
O O2 0.636687 0.136530 0.323838
O O3 0.678440 0.099921 0.181899
O O4 0.433098 0.080157 0.080702
O O5 0.344278 0.500000 0.346183
O O6 0.427455 0.500000 0.593370
O O7 0.101645 0.201693 0.912774
O O8 0.204209 0.137590 0.879386
O O9 0.000247 0.197276 0.652672
O O10 0.253508 0.231432 0.875209
O O11 0.261215 0.277628 0.384660
O O12 0.087142 0.289417 0.400492
O O13 0.989664 0.292262 0.140759
O O14 0.500000 0.729916 0.000000
O O15 0.500000 0.758954 0.500000
O O16 0.173485 0.046879 0.831237
#
# Coordination Sequence:
#
# PCOD8081308 Si02
#       8
#     8   4   8   8   8   8   8   4
#     4  10  18  30  47  65  93 124 153 189 230 278
#     4   9  19  31  45  67  90 121 154 187 232 279
#     4  10  20  29  48  71  92 127 163 188 231 279
#     4  10  20  31  46  69  94 127 163 189 229 281
#     4  10  18  32  47  68  98 125 156 196 229 272
#     4  10  20  32  45  66  98 129 158 196 231 267
#     4  10  18  30  46  67  93 122 153 190 231 276
#     4   9  19  31  45  67  92 117 154 191 230 281
#
# _framework density 16.226195000000001
#
# number of rings (size 3 to 8) (size 9 to 14) (size 15 to 20)
#    0.000    2.143    1.429    3.000    2.000    1.714 
#    0.000    0.000    0.000    0.000    0.000    1.000 
#    0.000    0.000    0.000    0.000    0.000    0.000 
#
# Total GULP energy -347209.029246 kJ/mol
# GULP energy per Si atom -12400.322473 kJ/mol
# Density = 1.618926 g / cm^3
# Si number density = 16.226195 Si / 1000 Ang^3
#
#
#
# Elastic Constant Matrix: (Units=GPa)
#
#
# Indices 1 2 3 4 5 6 
#
# 1 93.7415 47.4081 26.0766 0.0000 -0.6470 0.0000
# 2 47.4081 123.6003 47.7225 0.0000 3.5928 0.0000
# 3 26.0766 47.7225 68.6704 0.0000 9.6370 0.0000
# 4 0.0000 0.0000 0.0000 19.5236 0.0000 7.3841
# 5 -0.6470 3.5928 9.6370 0.0000 17.4812 0.0000
# 6 0.0000 0.0000 0.0000 7.3841 0.0000 23.8417
#
#
#
# Elastic Compliance Matrix: (Units=1/GPa)
#
#
# Indices 1 2 3 4 5 6 
#
# 1 0.013573 -0.004299 -0.002559 0.000000 0.002797 0.000000
# 2 -0.004299 0.012493 -0.007226 0.000000 0.001257 0.000000
# 3 -0.002559 -0.007226 0.022068 0.000000 -0.010775 0.000000
# 4 0.000000 0.000000 0.000000 0.058016 0.000000 -0.017968
# 5 0.002797 0.001257 -0.010775 0.000000 0.062989 0.000000
# 6 0.000000 0.000000 0.000000 -0.017968 0.000000 0.047508
#
#
# Mechanical properties :
#
#
# Convention : Reuss Voigt Hill
#
# Bulk Modulus (GPa) = 50.08543 58.71405 54.39974
# Shear Modulus (GPa) = 19.88302 23.15631 21.51967
#
# Velocity S-wave (km/s) = 3.50432 3.78179 3.64569
# Velocity P-wave (km/s) = 6.87806 7.43858 7.16381
#
# Compressibility (1/GPa) = 0.01996589
#
# Stress axis : x y z
#
# Youngs Moduli (GPa) = 73.67525 80.04454 45.31526
#
# Poissons Ratio (x) = 0.34415 0.11595
# Poissons Ratio (y) = 0.31676 0.32744
# Poissons Ratio (z) = 0.18852 0.57838
#
# Static dielectric constant tensor:
#      x y z
#    x 2.919770 0.000000 0.247670 
#    y 0.000000 2.945120 0.000000 
#    z 0.247670 0.000000 3.227220 
# 
# 
# High freq. dielectric constant tensor:
#      x y z
#    x 1.595240 0.000000 0.025550 
#    y 0.000000 1.609550 0.000000 
#    z 0.025550 0.000000 1.636970 
# 
# From -- ./inp_files/65805.got.cif
#   From: 2010.06.25/outbox.cif.g09.slc.cpg/sg12_33_cif.got.tgz:65805.got - 2010.06.28 00:19:55.
