data_PCOD8081403
_publ_section_title
;
Structure prediction by ZEFSAII (Michael W. Deem and Ramdas Pophale) SiO2 
 PCOD8081403
Probable space group: C 2/M
;
_chemical_formula_sum "Si O2"
_cell_formula_units_Z 64
_cell_length_a 20.308184
_cell_length_b 9.148900
_cell_length_c 20.255719
_cell_angle_alpha 90.000000
_cell_angle_beta 98.996826
_cell_angle_gamma 90.000000
_cell_volume 3717.160990
_symmetry_space_group_name_H-M "C 2/M"
_symmetry_group_IT_number 12
_symmetry_cell_setting 'monoclinic'
loop_
_space_group_symop_operation_xyz
x,y,z
-x,y,-z
-x,-y,-z
x,-y,z
1/2+x,1/2+y,z
1/2-x,1/2+y,-z
1/2-x,1/2-y,-z
1/2+x,1/2-y,z
loop_
_atom_site_type_symbol
_atom_site_label
_atom_site_fract_x
_atom_site_fract_y
_atom_site_fract_z
Si Si1 0.587587 0.836163 0.076126
Si Si2 0.961668 0.327119 0.329465
Si Si3 0.103409 0.162867 0.201905
Si Si4 0.945807 0.164892 0.197382
Si Si5 0.930236 0.335246 0.070840
Si Si6 0.318685 0.170884 0.524581
Si Si7 0.071091 0.170885 0.544273
Si Si8 0.612762 0.833480 0.329481
O O1 0.624959 0.737490 0.136268
O O2 0.509413 0.835145 0.077393
O O3 0.615371 0.000000 0.087536
O O4 0.601185 0.778527 0.003519
O O5 0.949392 0.500000 0.333068
O O6 0.928527 0.266241 0.257220
O O7 0.926369 0.244230 0.383741
O O8 0.039825 0.286039 0.343659
O O9 0.136614 0.241812 0.269916
O O10 0.024328 0.166663 0.197298
O O11 0.131750 0.000000 0.204699
O O12 0.908030 0.230039 0.127241
O O13 0.920428 0.000000 0.205676
O O14 0.905729 0.500000 0.081801
O O15 0.250000 0.250000 0.500000
O O16 0.375155 0.248275 0.491407
O O17 0.334350 0.191221 0.604325
O O18 0.315097 0.000000 0.505237
O O19 0.000000 0.196369 0.500000
O O20 0.088616 0.000000 0.553058
O O21 0.609415 0.000000 0.305309
#
# Coordination Sequence:
#
# PCOD8081403 Si02
#       8
#     8   8   8   8   8   8   8   8
#     4   8  13  21  32  46  69 103 145 186 225 273
#     4  10  18  30  48  68  91 121 159 200 240 288
#     4   9  16  23  35  55  79 107 145 190 234 277
#     4   9  16  24  34  54  82 111 145 189 237 281
#     4   8  13  21  32  46  68 105 147 184 224 275
#     4  11  23  39  56  76 101 131 166 203 250 302
#     4  11  22  35  54  78 102 128 161 205 251 295
#     4   9  18  31  47  65  89 121 156 194 239 290
#
# _framework density 17.21744
#
# number of rings (size 3 to 8) (size 9 to 14) (size 15 to 20)
#    0.000    2.625    1.250    2.625    0.000    5.500 
#    0.000    2.500    0.000    0.000    0.000    0.000 
#    0.000    0.000    0.000    1.125    0.000   15.250 
#
# Total GULP energy -396691.279453 kJ/mol
# GULP energy per Si atom -12396.602483 kJ/mol
# Density = 1.717825 g / cm^3
# Si number density = 17.217440 Si / 1000 Ang^3
#
#
#
# Elastic Constant Matrix: (Units=GPa)
#
#
# Indices 1 2 3 4 5 6 
#
# 1 37.6169 33.8542 25.6168 0.0000 3.3897 0.0000
# 2 33.8542 129.2168 81.4672 0.0000 1.2912 0.0000
# 3 25.6168 81.4672 142.2006 0.0000 2.8602 0.0000
# 4 0.0000 0.0000 0.0000 33.3346 0.0000 -2.3591
# 5 3.3897 1.2912 2.8602 0.0000 7.5193 0.0000
# 6 0.0000 0.0000 0.0000 -2.3591 0.0000 15.6525
#
#
#
# Elastic Compliance Matrix: (Units=1/GPa)
#
#
# Indices 1 2 3 4 5 6 
#
# 1 0.036529 -0.008548 -0.001392 0.000000 -0.014470 0.000000
# 2 -0.008548 0.014117 -0.006627 0.000000 0.003950 0.000000
# 3 -0.001392 -0.006627 0.011130 0.000000 -0.002468 0.000000
# 4 0.000000 0.000000 0.000000 0.030322 0.000000 0.004570
# 5 -0.014470 0.003950 -0.002468 0.000000 0.139774 0.000000
# 6 0.000000 0.000000 0.000000 0.004570 0.000000 0.064576
#
#
# Mechanical properties :
#
#
# Convention : Reuss Voigt Hill
#
# Bulk Modulus (GPa) = 34.91574 65.65677 50.28625
# Shear Modulus (GPa) = 14.74356 22.50770 18.62563
#
# Velocity S-wave (km/s) = 2.92946 3.61953 3.29262
# Velocity P-wave (km/s) = 5.63610 7.46221 6.61250
#
# Compressibility (1/GPa) = 0.02864038
#
# Stress axis : x y z
#
# Youngs Moduli (GPa) = 27.37563 70.83443 89.84986
#
# Poissons Ratio (x) = 0.60549 0.12510
# Poissons Ratio (y) = 0.23401 0.59548
# Poissons Ratio (z) = 0.03811 0.46945
#
# Static dielectric constant tensor:
#      x y z
#    x 2.522900 0.000000 0.007120 
#    y 0.000000 3.407440 0.000000 
#    z 0.007120 0.000000 3.527360 
# 
# 
# High freq. dielectric constant tensor:
#      x y z
#    x 1.578950 0.000000 0.001770 
#    y 0.000000 1.676670 0.000000 
#    z 0.001770 0.000000 1.685850 
# 
# From -- ./inp_files/314195.got.cif
#   From: 2010.06.25/outbox.cif.g09.slc.cpg/sg12_158_cif.got.tgz:314195.got - 2010.06.28 00:19:55.
