data_PCOD8081550
_publ_section_title
;
Structure prediction by ZEFSAII (Michael W. Deem and Ramdas Pophale) SiO2 
 PCOD8081550
Probable space group: C 2/M
;
_chemical_formula_sum "Si O2"
_cell_formula_units_Z 40
_cell_length_a 25.009680
_cell_length_b 8.949645
_cell_length_c 21.558467
_cell_angle_alpha 90.000000
_cell_angle_beta 150.871217
_cell_angle_gamma 90.000000
_cell_volume 2348.872424
_symmetry_space_group_name_H-M "C 2/M"
_symmetry_group_IT_number 12
_symmetry_cell_setting 'monoclinic'
loop_
_space_group_symop_operation_xyz
x,y,z
-x,y,-z
-x,-y,-z
x,-y,z
1/2+x,1/2+y,z
1/2-x,1/2+y,-z
1/2-x,1/2-y,-z
1/2+x,1/2-y,z
loop_
_atom_site_type_symbol
_atom_site_label
_atom_site_fract_x
_atom_site_fract_y
_atom_site_fract_z
Si Si1 0.607512 0.672920 0.897233
Si Si2 0.602896 0.325291 0.643872
Si Si3 0.150351 0.675089 0.819292
Si Si4 0.339153 0.175922 0.835154
Si Si5 0.508824 0.324723 0.098273
O O1 0.614243 0.500000 0.885434
O O2 0.582237 0.766716 0.809847
O O3 0.510636 0.703833 0.848434
O O4 0.722753 0.723937 0.044688
O O5 0.500000 0.266751 0.500000
O O6 0.594173 0.500000 0.648346
O O7 0.600379 0.245272 0.707157
O O8 0.711655 0.286272 0.714906
O O9 0.136181 0.500000 0.800041
O O10 0.378894 0.242953 0.809189
O O11 0.362610 0.000000 0.861174
O O12 0.406675 0.256511 0.957565
O O13 0.515608 0.500000 0.090482
#
# Coordination Sequence:
#
# PCOD8081550 Si02
#       5
#     8   8   8   8   8
#     4   9  18  31  48  72 102 132 158 195 250 302
#     4  10  21  36  52  70  99 137 170 203 244 291
#     4  10  19  31  49  74 100 128 165 205 246 291
#     4  10  19  30  47  72  99 128 166 203 242 290
#     4  10  18  30  49  72 102 131 157 197 249 298
#
# _framework density 17.029447999999999
#
# number of rings (size 3 to 8) (size 9 to 14) (size 15 to 20)
#    0.000    2.200    2.000    3.000    0.000    3.600 
#    0.000    0.000    0.000    1.200    0.000    0.000 
#    0.000    0.000    0.000    0.000    0.000    0.000 
#
# Total GULP energy -247997.028571 kJ/mol
# GULP energy per Si atom -12399.851429 kJ/mol
# Density = 1.699069 g / cm^3
# Si number density = 17.029448 Si / 1000 Ang^3
#
#
#
# Elastic Constant Matrix: (Units=GPa)
#
#
# Indices 1 2 3 4 5 6 
#
# 1 143.7777 50.5108 61.2175 0.0000 -8.5009 0.0000
# 2 50.5108 65.3811 39.2735 0.0000 -6.5567 0.0000
# 3 61.2175 39.2735 90.6915 0.0000 -5.3465 0.0000
# 4 0.0000 0.0000 0.0000 16.8983 0.0000 -5.9190
# 5 -8.5009 -6.5567 -5.3465 0.0000 24.4702 0.0000
# 6 0.0000 0.0000 0.0000 -5.9190 0.0000 31.3442
#
#
#
# Elastic Compliance Matrix: (Units=1/GPa)
#
#
# Indices 1 2 3 4 5 6 
#
# 1 0.011084 -0.005385 -0.005073 0.000000 0.001299 0.000000
# 2 -0.005385 0.023612 -0.006410 0.000000 0.003055 0.000000
# 3 -0.005073 -0.006410 0.017243 0.000000 0.000288 0.000000
# 4 0.000000 0.000000 0.000000 0.063369 0.000000 0.011967
# 5 0.001299 0.003055 0.000288 0.000000 0.042199 0.000000
# 6 0.000000 0.000000 0.000000 0.011967 0.000000 0.034164
#
#
# Mechanical properties :
#
#
# Convention : Reuss Voigt Hill
#
# Bulk Modulus (GPa) = 54.93595 66.87267 60.90431
# Shear Modulus (GPa) = 21.60055 24.46575 23.03315
#
# Velocity S-wave (km/s) = 3.56536 3.79446 3.68169
# Velocity P-wave (km/s) = 7.01986 7.65188 7.34268
#
# Compressibility (1/GPa) = 0.01820301
#
# Stress axis : x y z
#
# Youngs Moduli (GPa) = 90.22052 42.35101 57.99305
#
# Poissons Ratio (x) = 0.22808 0.29420
# Poissons Ratio (y) = 0.48587 0.37173
# Poissons Ratio (z) = 0.45769 0.27146
#
# Static dielectric constant tensor:
#      x y z
#    x 3.450220 0.000000 0.098000 
#    y 0.000000 3.233680 0.000000 
#    z 0.098000 0.000000 2.881010 
# 
# 
# High freq. dielectric constant tensor:
#      x y z
#    x 1.672590 0.000000 0.001420 
#    y 0.000000 1.667770 0.000000 
#    z 0.001420 0.000000 1.607320 
# 
# From -- ./inp_files/171392.got.cif
#   From: 2010.06.25/outbox.cif.g09.slc.cpg/sg12_86_cif.got.tgz:171392.got - 2010.06.28 00:19:55.
