data_PCOD8081458
_publ_section_title
;
Structure prediction by ZEFSAII (Michael W. Deem and Ramdas Pophale) SiO2 
 PCOD8081458
Probable space group: C 2/M
;
_chemical_formula_sum "Si O2"
_cell_formula_units_Z 64
_cell_length_a 24.843396
_cell_length_b 9.212721
_cell_length_c 17.342675
_cell_angle_alpha 90.000000
_cell_angle_beta 103.182835
_cell_angle_gamma 90.000000
_cell_volume 3864.707385
_symmetry_space_group_name_H-M "C 2/M"
_symmetry_group_IT_number 12
_symmetry_cell_setting 'monoclinic'
loop_
_space_group_symop_operation_xyz
x,y,z
-x,y,-z
-x,-y,-z
x,-y,z
1/2+x,1/2+y,z
1/2-x,1/2+y,-z
1/2-x,1/2-y,-z
1/2+x,1/2-y,z
loop_
_atom_site_type_symbol
_atom_site_label
_atom_site_fract_x
_atom_site_fract_y
_atom_site_fract_z
Si Si1 0.570453 0.168937 0.917999
Si Si2 0.236515 0.832275 0.073091
Si Si3 0.614707 0.328556 0.076952
Si Si4 0.652543 0.167955 0.809532
Si Si5 0.027468 0.667460 0.344497
Si Si6 0.050763 0.665430 0.179820
Si Si7 0.914252 0.828432 0.333698
Si Si8 0.437268 0.660011 0.507268
O O1 0.617137 0.215868 0.872306
O O2 0.511457 0.208011 0.863085
O O3 0.575667 0.000000 0.940691
O O4 0.577405 0.260256 0.997768
O O5 0.178266 0.779835 0.088375
O O6 0.283197 0.802345 0.152450
O O7 0.234669 0.000000 0.049971
O O8 0.250000 0.750000 0.000000
O O9 0.607673 0.500000 0.072326
O O10 0.594121 0.269866 0.152283
O O11 0.636867 0.265460 0.731159
O O12 0.640532 0.000000 0.786198
O O13 0.013607 0.500000 0.356754
O O14 0.058601 0.686635 0.273716
O O15 0.068766 0.727097 0.424436
O O16 0.970386 0.754535 0.322856
O O17 0.062977 0.500000 0.159579
O O18 0.902175 0.793150 0.420208
O O19 0.920086 0.000000 0.322607
O O20 0.500000 0.654919 0.500000
O O21 0.419038 0.500000 0.530168
#
# Coordination Sequence:
#
# PCOD8081458 Si02
#       8
#     8   8   8   8   8   8   8   8
#     4  10  19  34  52  69  95 132 165 197 243 290
#     4  10  21  36  53  72  95 124 163 207 248 292
#     4  11  23  35  49  73  97 124 166 207 244 288
#     4  10  19  33  52  72  96 129 165 202 244 287
#     4  10  18  30  48  71  97 130 169 199 232 286
#     4  10  21  35  49  69  98 132 167 198 236 289
#     4  10  19  30  46  71 103 131 159 197 243 293
#     4   8  16  29  43  66 100 133 158 189 240 293
#
# _framework density 16.560115
#
# number of rings (size 3 to 8) (size 9 to 14) (size 15 to 20)
#    0.000    2.125    2.500    2.250    0.000    7.250 
#    0.000    0.000    0.000    0.000    0.000    0.875 
#    0.000    0.000    0.000    0.000    0.000    0.000 
#
# Total GULP energy -396826.573881 kJ/mol
# GULP energy per Si atom -12400.830434 kJ/mol
# Density = 1.652242 g / cm^3
# Si number density = 16.560115 Si / 1000 Ang^3
#
#
#
# Elastic Constant Matrix: (Units=GPa)
#
#
# Indices 1 2 3 4 5 6 
#
# 1 66.0525 35.3416 34.2567 0.0000 -7.1819 0.0000
# 2 35.3416 82.2180 60.2251 0.0000 -1.4649 0.0000
# 3 34.2567 60.2251 116.5212 0.0000 -1.1065 0.0000
# 4 0.0000 0.0000 0.0000 32.1999 0.0000 -0.2765
# 5 -7.1819 -1.4649 -1.1065 0.0000 14.7506 0.0000
# 6 0.0000 0.0000 0.0000 -0.2765 0.0000 20.4971
#
#
#
# Elastic Compliance Matrix: (Units=1/GPa)
#
#
# Indices 1 2 3 4 5 6 
#
# 1 0.021285 -0.007182 -0.002456 0.000000 0.009466 0.000000
# 2 -0.007182 0.022017 -0.009287 0.000000 -0.002007 0.000000
# 3 -0.002456 -0.009287 0.014094 0.000000 -0.001061 0.000000
# 4 0.000000 0.000000 0.000000 0.031060 0.000000 0.000419
# 5 0.009466 -0.002007 -0.001061 0.000000 0.072124 0.000000
# 6 0.000000 0.000000 0.000000 0.000419 0.000000 0.048793
#
#
# Mechanical properties :
#
#
# Convention : Reuss Voigt Hill
#
# Bulk Modulus (GPa) = 51.16025 58.27093 54.71559
# Shear Modulus (GPa) = 19.70528 22.48740 21.09634
#
# Velocity S-wave (km/s) = 3.45327 3.68900 3.57308
# Velocity P-wave (km/s) = 6.84550 7.30814 7.08060
#
# Compressibility (1/GPa) = 0.01954642
#
# Stress axis : x y z
#
# Youngs Moduli (GPa) = 46.98131 45.41883 70.95042
#
# Poissons Ratio (x) = 0.32619 0.17424
# Poissons Ratio (y) = 0.33742 0.65895
# Poissons Ratio (z) = 0.11538 0.42183
#
# Static dielectric constant tensor:
#      x y z
#    x 2.939260 0.000000 0.075560 
#    y 0.000000 3.177040 0.000000 
#    z 0.075560 0.000000 3.354550 
# 
# 
# High freq. dielectric constant tensor:
#      x y z
#    x 1.599680 0.000000 0.004390 
#    y 0.000000 1.644190 0.000000 
#    z 0.004390 0.000000 1.642550 
# 
# From -- ./inp_files/287545.got.cif
#   From: 2010.06.25/outbox.cif.g09.slc.cpg/sg12_144_cif.got.tgz:287545.got - 2010.06.28 00:19:55.
