data_PCOD8081407
_publ_section_title
;
Structure prediction by ZEFSAII (Michael W. Deem and Ramdas Pophale) SiO2 
 PCOD8081407
Probable space group: C 2/M
;
_chemical_formula_sum "Si O2"
_cell_formula_units_Z 56
_cell_length_a 27.655585
_cell_length_b 8.840734
_cell_length_c 18.011062
_cell_angle_alpha 90.000000
_cell_angle_beta 130.295296
_cell_angle_gamma 90.000000
_cell_volume 3358.740435
_symmetry_space_group_name_H-M "C 2/M"
_symmetry_group_IT_number 12
_symmetry_cell_setting 'monoclinic'
loop_
_space_group_symop_operation_xyz
x,y,z
-x,y,-z
-x,-y,-z
x,-y,z
1/2+x,1/2+y,z
1/2-x,1/2+y,-z
1/2-x,1/2-y,-z
1/2+x,1/2-y,z
loop_
_atom_site_type_symbol
_atom_site_label
_atom_site_fract_x
_atom_site_fract_y
_atom_site_fract_z
Si Si1 0.123222 0.176108 0.711380
Si Si2 0.934463 0.669904 0.478345
Si Si3 0.062908 0.166088 0.110312
Si Si4 0.372470 0.321005 0.970635
Si Si5 0.749445 0.178663 0.079971
Si Si6 0.006163 0.322945 0.835775
Si Si7 0.004345 0.176714 0.329781
O O1 0.119318 0.263314 0.629175
O O2 0.186719 0.228936 0.815184
O O3 0.064884 0.216877 0.707166
O O4 0.123166 0.000000 0.692365
O O5 0.915604 0.500000 0.482782
O O6 0.000000 0.672978 0.500000
O O7 0.941227 0.772661 0.558363
O O8 0.117090 0.219851 0.106196
O O9 0.052146 0.283558 0.166507
O O10 0.079458 0.000000 0.159766
O O11 0.000000 0.152026 0.000000
O O12 0.366718 0.500000 0.977277
O O13 0.308782 0.238775 0.930417
O O14 0.430140 0.264526 0.078804
O O15 0.744889 0.000000 0.067244
O O16 0.750000 0.250000 0.000000
O O17 0.019621 0.500000 0.851888
O O18 0.984940 0.272623 0.733475
O O19 0.011598 0.000000 0.319904
#
# Coordination Sequence:
#
# PCOD8081407 Si02
#       7
#     8   8   8   8   8   8   8
#     4   9  19  33  47  65  91 126 161 191 228 276
#     4   9  17  29  46  68  92 118 152 194 235 275
#     4   8  16  31  48  65  89 122 156 191 234 284
#     4  10  20  34  49  66  93 128 163 195 233 281
#     4  11  22  34  49  70  97 128 164 200 232 271
#     4  11  20  29  46  72  98 122 154 196 239 281
#     4  10  18  30  48  68  95 127 156 189 233 282
#
# _framework density 16.672916000000001
#
# number of rings (size 3 to 8) (size 9 to 14) (size 15 to 20)
#    0.000    2.286    0.000    4.714    0.000    7.714 
#    0.000    0.000    0.000    0.000    0.000    1.000 
#    0.000    0.000    0.000    0.000    0.000    0.000 
#
# Total GULP energy -347181.265778 kJ/mol
# GULP energy per Si atom -12399.330921 kJ/mol
# Density = 1.663497 g / cm^3
# Si number density = 16.672916 Si / 1000 Ang^3
#
#
#
# Elastic Constant Matrix: (Units=GPa)
#
#
# Indices 1 2 3 4 5 6 
#
# 1 86.6485 30.7570 48.4975 0.0000 -5.6629 0.0000
# 2 30.7570 72.3974 45.8511 0.0000 -3.4388 0.0000
# 3 48.4975 45.8511 112.1181 0.0000 -8.1259 0.0000
# 4 0.0000 0.0000 0.0000 28.4632 0.0000 -3.7917
# 5 -5.6629 -3.4388 -8.1259 0.0000 17.9154 0.0000
# 6 0.0000 0.0000 0.0000 -3.7917 0.0000 24.6049
#
#
#
# Elastic Compliance Matrix: (Units=1/GPa)
#
#
# Indices 1 2 3 4 5 6 
#
# 1 0.015826 -0.003218 -0.005389 0.000000 0.001941 0.000000
# 2 -0.003218 0.019295 -0.006518 0.000000 -0.000270 0.000000
# 3 -0.005389 -0.006518 0.014167 0.000000 0.003471 0.000000
# 4 0.000000 0.000000 0.000000 0.035869 0.000000 0.005528
# 5 0.001941 -0.000270 0.003471 0.000000 0.057954 0.000000
# 6 0.000000 0.000000 0.000000 0.005528 0.000000 0.041494
#
#
# Mechanical properties :
#
#
# Convention : Reuss Voigt Hill
#
# Bulk Modulus (GPa) = 52.52732 57.93058 55.22895
# Shear Modulus (GPa) = 22.60355 23.93393 23.26874
#
# Velocity S-wave (km/s) = 3.68598 3.79291 3.73983
# Velocity P-wave (km/s) = 7.04899 7.34862 7.20037
#
# Compressibility (1/GPa) = 0.01903771
#
# Stress axis : x y z
#
# Youngs Moduli (GPa) = 63.18572 51.82604 70.58414
#
# Poissons Ratio (x) = 0.16680 0.38038
# Poissons Ratio (y) = 0.20336 0.46009
# Poissons Ratio (z) = 0.34051 0.33782
#
# Static dielectric constant tensor:
#      x y z
#    x 3.104350 0.000000 -0.073150 
#    y 0.000000 3.231950 0.000000 
#    z -0.073150 0.000000 3.030400 
# 
# 
# High freq. dielectric constant tensor:
#      x y z
#    x 1.621000 0.000000 -0.020900 
#    y 0.000000 1.654880 0.000000 
#    z -0.020900 0.000000 1.625640 
# 
# From -- ./inp_files/291943.got.cif
#   From: 2010.06.25/outbox.cif.g09.slc.cpg/sg12_146_cif.got.tgz:291943.got - 2010.06.28 00:19:55.
