data_PCOD8081423
_publ_section_title
;
Structure prediction by ZEFSAII (Michael W. Deem and Ramdas Pophale) SiO2 
 PCOD8081423
Probable space group: C 2/M
;
_chemical_formula_sum "Si O2"
_cell_formula_units_Z 56
_cell_length_a 16.162711
_cell_length_b 13.741768
_cell_length_c 19.756657
_cell_angle_alpha 90.000000
_cell_angle_beta 41.601963
_cell_angle_gamma 90.000000
_cell_volume 2913.445199
_symmetry_space_group_name_H-M "C 2/M"
_symmetry_group_IT_number 12
_symmetry_cell_setting 'monoclinic'
loop_
_space_group_symop_operation_xyz
x,y,z
-x,y,-z
-x,-y,-z
x,-y,z
1/2+x,1/2+y,z
1/2-x,1/2+y,-z
1/2-x,1/2-y,-z
1/2+x,1/2-y,z
loop_
_atom_site_type_symbol
_atom_site_label
_atom_site_fract_x
_atom_site_fract_y
_atom_site_fract_z
Si Si1 0.440538 0.724247 0.101916
Si Si2 0.133436 0.237417 0.710172
Si Si3 0.670629 0.607826 0.001856
Si Si4 0.089263 0.890288 0.198823
Si Si5 0.429136 0.110729 0.361574
Si Si6 0.687204 0.794335 0.192472
Si Si7 0.634038 0.111513 0.447779
O O1 0.422792 0.781100 0.184317
O O2 0.533671 0.635169 0.058061
O O3 0.304679 0.681682 0.167415
O O4 0.500000 0.783766 0.000000
O O5 0.140471 0.325264 0.652611
O O6 0.267206 0.188491 0.642519
O O7 0.047039 0.151580 0.733871
O O8 0.698918 0.500000 0.958003
O O9 0.675737 0.611149 0.079607
O O10 0.778521 0.677759 0.906307
O O11 0.154820 0.820991 0.214306
O O12 0.076412 0.000000 0.235505
O O13 0.571274 0.142316 0.287600
O O14 0.359199 0.122283 0.475349
O O15 0.425746 0.000000 0.338280
O O16 0.500000 0.141382 0.500000
O O17 0.665168 0.000000 0.407604
#
# Coordination Sequence:
#
# PCOD8081423 Si02
#       7
#     8   8   8   8   8   8   8
#     4   9  19  32  49  73 101 133 170 208 249 292
#     4  10  19  35  55  72 101 137 165 203 251 297
#     4   9  17  29  47  70  96 127 163 204 251 301
#     4   9  18  31  48  70  93 125 168 206 244 294
#     4  10  21  34  51  77 104 133 168 203 245 299
#     4  10  18  30  48  69  98 129 160 205 252 290
#     4  10  20  34  55  82 105 126 160 206 254 302
#
# _framework density 19.221231
#
# number of rings (size 3 to 8) (size 9 to 14) (size 15 to 20)
#    0.000    2.429    0.000    2.571    0.000    4.857 
#    0.000    0.714    0.000    4.714    0.000    0.000 
#    0.000    0.000    0.000    0.000    0.000    0.000 
#
# Total GULP energy -346977.834156 kJ/mol
# GULP energy per Si atom -12392.065506 kJ/mol
# Density = 1.917748 g / cm^3
# Si number density = 19.221231 Si / 1000 Ang^3
#
#
#
# Elastic Constant Matrix: (Units=GPa)
#
#
# Indices 1 2 3 4 5 6 
#
# 1 50.3522 17.4766 21.3569 0.0000 0.2135 0.0000
# 2 17.4766 104.5708 31.2315 0.0000 5.8519 0.0000
# 3 21.3569 31.2315 71.1695 0.0000 5.9654 0.0000
# 4 0.0000 0.0000 0.0000 23.3644 0.0000 -0.3750
# 5 0.2135 5.8519 5.9654 0.0000 30.4199 0.0000
# 6 0.0000 0.0000 0.0000 -0.3750 0.0000 21.1536
#
#
#
# Elastic Compliance Matrix: (Units=1/GPa)
#
#
# Indices 1 2 3 4 5 6 
#
# 1 0.023200 -0.002121 -0.006153 0.000000 0.001452 0.000000
# 2 -0.002121 0.011242 -0.004186 0.000000 -0.001327 0.000000
# 3 -0.006153 -0.004186 0.017958 0.000000 -0.002673 0.000000
# 4 0.000000 0.000000 0.000000 0.042812 0.000000 0.000759
# 5 0.001452 -0.001327 -0.002673 0.000000 0.033642 0.000000
# 6 0.000000 0.000000 0.000000 0.000759 0.000000 0.047287
#
#
# Mechanical properties :
#
#
# Convention : Reuss Voigt Hill
#
# Bulk Modulus (GPa) = 36.38875 40.69138 38.54006
# Shear Modulus (GPa) = 23.78459 25.38943 24.58701
#
# Velocity S-wave (km/s) = 3.52150 3.63837 3.58041
# Velocity P-wave (km/s) = 5.95880 6.23428 6.09810
#
# Compressibility (1/GPa) = 0.02748102
#
# Stress axis : x y z
#
# Youngs Moduli (GPa) = 43.10375 88.95461 55.68501
#
# Poissons Ratio (x) = 0.18867 0.34262
# Poissons Ratio (y) = 0.09142 0.23307
# Poissons Ratio (z) = 0.26521 0.37232
#
# Static dielectric constant tensor:
#      x y z
#    x 3.361140 0.000000 0.078180 
#    y 0.000000 3.309410 0.000000 
#    z 0.078180 0.000000 3.671420 
# 
# 
# High freq. dielectric constant tensor:
#      x y z
#    x 1.736150 0.000000 -0.001670 
#    y 0.000000 1.717900 0.000000 
#    z -0.001670 0.000000 1.755030 
# 
# From -- ./inp_files/270201.got.cif
#   From: 2010.06.25/outbox.cif.g09.slc.cpg/sg12_136_cif.got.tgz:270201.got - 2010.06.28 00:19:55.
