data_PCOD8081679
_publ_section_title
;
Structure prediction by ZEFSAII (Michael W. Deem and Ramdas Pophale) SiO2 
 PCOD8081679
Probable space group: C 2/M
;
_chemical_formula_sum "Si O2"
_cell_formula_units_Z 48
_cell_length_a 18.203771
_cell_length_b 8.584549
_cell_length_c 16.376963
_cell_angle_alpha 90.000000
_cell_angle_beta 92.126724
_cell_angle_gamma 90.000000
_cell_volume 2557.484247
_symmetry_space_group_name_H-M "C 2/M"
_symmetry_group_IT_number 12
_symmetry_cell_setting 'monoclinic'
loop_
_space_group_symop_operation_xyz
x,y,z
-x,y,-z
-x,-y,-z
x,-y,z
1/2+x,1/2+y,z
1/2-x,1/2+y,-z
1/2-x,1/2-y,-z
1/2+x,1/2-y,z
loop_
_atom_site_type_symbol
_atom_site_label
_atom_site_fract_x
_atom_site_fract_y
_atom_site_fract_z
Si Si1 0.945647 0.322094 0.240228
Si Si2 0.714145 0.683198 0.417976
Si Si3 0.036921 0.683005 0.083903
Si Si4 0.168292 0.180116 0.171925
Si Si5 0.207219 0.819814 0.733699
Si Si6 0.092333 0.320285 0.321397
O O1 0.917779 0.500000 0.234239
O O2 0.878203 0.209090 0.253554
O O3 0.984841 0.272596 0.157597
O O4 0.003883 0.301996 0.317761
O O5 0.704182 0.500000 0.425940
O O6 0.750000 0.750000 0.500000
O O7 0.765969 0.721800 0.343202
O O8 0.632938 0.763436 0.405571
O O9 0.049124 0.500000 0.079889
O O10 0.118049 0.758286 0.095422
O O11 0.000000 0.748164 0.000000
O O12 0.246440 0.269467 0.183695
O O13 0.124005 0.208787 0.253065
O O14 0.185098 0.000000 0.159269
O O15 0.219777 0.000000 0.715264
O O16 0.112657 0.500000 0.302651
#
# Coordination Sequence:
#
# PCOD8081679 Si02
#       6
#     8   8   8   8   8   8
#     4   9  18  33  53  77 104 133 167 209 256 303
#     4  11  21  35  55  78 105 134 169 210 253 301
#     4   9  18  34  55  77 103 135 170 210 257 307
#     4  10  18  30  50  74 101 133 171 210 250 301
#     4  11  21  34  53  76 103 135 173 211 251 300
#     4   9  17  32  53  75 101 134 171 207 249 303
#
# _framework density 18.768443999999999
#
# number of rings (size 3 to 8) (size 9 to 14) (size 15 to 20)
#    0.000    2.167    0.000    8.000    0.000    3.667 
#    0.000    1.667    0.000    5.000    0.000    0.000 
#    0.000    0.000    0.000    0.000    0.000    0.000 
#
# Total GULP energy -297493.083560 kJ/mol
# GULP energy per Si atom -12395.545148 kJ/mol
# Density = 1.872573 g / cm^3
# Si number density = 18.768444 Si / 1000 Ang^3
#
#
#
# Elastic Constant Matrix: (Units=GPa)
#
#
# Indices 1 2 3 4 5 6 
#
# 1 136.5326 43.5113 49.8281 0.0000 32.3510 0.0000
# 2 43.5113 85.8344 24.7952 0.0000 12.7559 0.0000
# 3 49.8281 24.7952 86.5996 0.0000 37.4547 0.0000
# 4 0.0000 0.0000 0.0000 23.3244 0.0000 6.6269
# 5 32.3510 12.7559 37.4547 0.0000 35.2220 0.0000
# 6 0.0000 0.0000 0.0000 6.6269 0.0000 34.0442
#
#
#
# Elastic Compliance Matrix: (Units=1/GPa)
#
#
# Indices 1 2 3 4 5 6 
#
# 1 0.010907 -0.003902 -0.002661 0.000000 -0.005776 0.000000
# 2 -0.003902 0.014132 -0.002106 0.000000 0.000706 0.000000
# 3 -0.002661 -0.002106 0.022764 0.000000 -0.021001 0.000000
# 4 0.000000 0.000000 0.000000 0.045384 0.000000 -0.008834
# 5 -0.005776 0.000706 -0.021001 0.000000 0.055773 0.000000
# 6 0.000000 0.000000 0.000000 -0.008834 0.000000 0.031093
#
#
# Mechanical properties :
#
#
# Convention : Reuss Voigt Hill
#
# Bulk Modulus (GPa) = 32.82423 60.58176 46.70300
# Shear Modulus (GPa) = 24.09100 31.24026 27.66563
#
# Velocity S-wave (km/s) = 3.58661 4.08427 3.84350
# Velocity P-wave (km/s) = 5.88886 7.38852 6.68090
#
# Compressibility (1/GPa) = 0.03046530
#
# Stress axis : x y z
#
# Youngs Moduli (GPa) = 91.68053 70.76127 43.92865
#
# Poissons Ratio (x) = 0.27613 0.11688
# Poissons Ratio (y) = 0.35776 0.09253
# Poissons Ratio (z) = 0.24392 0.14905
#
# Static dielectric constant tensor:
#      x y z
#    x 3.731350 0.000000 0.577090 
#    y 0.000000 3.402900 0.000000 
#    z 0.577090 0.000000 3.407910 
# 
# 
# High freq. dielectric constant tensor:
#      x y z
#    x 1.732710 0.000000 0.039440 
#    y 0.000000 1.735020 0.000000 
#    z 0.039440 0.000000 1.694400 
# 
# From -- ./inp_files/273660.got.cif
#   From: 2010.06.25/outbox.cif.g09.slc.cpg/sg12_137_cif.got.tgz:273660.got - 2010.06.28 00:19:55.
