data_PCOD8081035
_publ_section_title
;
Structure prediction by ZEFSAII (Michael W. Deem and Ramdas Pophale) SiO2 
 PCOD8081035
Probable space group: C 2/M
;
_chemical_formula_sum "Si O2"
_cell_formula_units_Z 64
_cell_length_a 17.177928
_cell_length_b 14.431221
_cell_length_c 14.974638
_cell_angle_alpha 90.000000
_cell_angle_beta 131.986782
_cell_angle_gamma 90.000000
_cell_volume 2759.267702
_symmetry_space_group_name_H-M "C 2/M"
_symmetry_group_IT_number 12
_symmetry_cell_setting 'monoclinic'
loop_
_space_group_symop_operation_xyz
x,y,z
-x,y,-z
-x,-y,-z
x,-y,z
1/2+x,1/2+y,z
1/2-x,1/2+y,-z
1/2-x,1/2-y,-z
1/2+x,1/2-y,z
loop_
_atom_site_type_symbol
_atom_site_label
_atom_site_fract_x
_atom_site_fract_y
_atom_site_fract_z
Si Si1 0.653894 0.106317 0.006545
Si Si2 0.515071 0.223056 0.344908
Si Si3 0.851423 0.104953 0.815811
Si Si4 0.040311 0.725105 0.157079
Si Si5 0.781741 0.394462 0.463060
Si Si6 0.318261 0.892702 0.173130
Si Si7 0.267922 0.895389 0.749038
Si Si8 0.611651 0.605413 0.481814
O O1 0.554671 0.168373 0.960350
O O2 0.699630 0.133846 0.944834
O O3 0.615779 0.000000 0.974987
O O4 0.741155 0.122785 0.150715
O O5 0.515247 0.239905 0.240410
O O6 0.615539 0.167270 0.455323
O O7 0.409872 0.167581 0.289153
O O8 0.515650 0.323566 0.393907
O O9 0.949627 0.174358 0.882439
O O10 0.772956 0.121463 0.673610
O O11 0.789945 0.128377 0.859837
O O12 0.895027 0.000000 0.849566
O O13 0.148950 0.671208 0.233142
O O14 0.817856 0.500000 0.503181
O O15 0.702132 0.367348 0.480803
O O16 0.350166 0.000000 0.208631
O O17 0.155669 0.881384 0.616034
O O18 0.307245 0.000000 0.761433
O O19 0.571642 0.500000 0.436153
#
# Coordination Sequence:
#
# PCOD8081035 Si02
#       8
#     8   8   8   8   8   8   8   8
#     4   9  19  35  57  86 114 140 180 238 291 332
#     4  11  19  31  52  81 114 146 186 230 280 330
#     4  10  21  36  53  79 114 151 187 224 277 339
#     4  11  19  30  54  83 111 144 184 231 284 333
#     4  10  18  29  48  77 113 142 174 222 277 333
#     4   9  20  37  56  81 114 147 184 233 284 334
#     4  10  19  32  53  83 113 141 179 234 292 332
#     4  10  19  30  49  82 117 145 177 227 283 338
#
# _framework density 23.194559999999999
#
# number of rings (size 3 to 8) (size 9 to 14) (size 15 to 20)
#    0.000    2.000    2.500    2.250    0.000    2.500 
#    0.000    2.500    0.000    3.000    3.250    2.625 
#    0.000    0.000    0.000    0.000    0.000    0.000 
#
# Total GULP energy -396827.938139 kJ/mol
# GULP energy per Si atom -12400.873067 kJ/mol
# Density = 2.314177 g / cm^3
# Si number density = 23.194560 Si / 1000 Ang^3
#
#
#
# Elastic Constant Matrix: (Units=GPa)
#
#
# Indices 1 2 3 4 5 6 
#
# 1 66.6209 29.7981 22.3866 0.0000 -20.0780 0.0000
# 2 29.7981 104.9805 34.7592 0.0000 -4.7226 0.0000
# 3 22.3866 34.7592 90.1150 0.0000 -22.3151 0.0000
# 4 0.0000 0.0000 0.0000 23.9509 0.0000 1.4009
# 5 -20.0780 -4.7226 -22.3151 0.0000 17.2431 0.0000
# 6 0.0000 0.0000 0.0000 1.4009 0.0000 25.6159
#
#
#
# Elastic Compliance Matrix: (Units=1/GPa)
#
#
# Indices 1 2 3 4 5 6 
#
# 1 0.028127 -0.008094 0.005439 0.000000 0.037573 0.000000
# 2 -0.008094 0.013405 -0.006747 0.000000 -0.014485 0.000000
# 3 0.005439 -0.006747 0.019806 0.000000 0.030117 0.000000
# 4 0.000000 0.000000 0.000000 0.041886 0.000000 -0.002291
# 5 0.037573 -0.014485 0.030117 0.000000 0.136754 0.000000
# 6 0.000000 0.000000 0.000000 -0.002291 0.000000 0.039164
#
#
# Mechanical properties :
#
#
# Convention : Reuss Voigt Hill
#
# Bulk Modulus (GPa) = 23.51063 48.40045 35.95554
# Shear Modulus (GPa) = 16.01931 25.01348 20.51639
#
# Velocity S-wave (km/s) = 2.63087 3.28749 2.97734
# Velocity P-wave (km/s) = 4.40306 5.94328 5.23018
#
# Compressibility (1/GPa) = 0.04253396
#
# Stress axis : x y z
#
# Youngs Moduli (GPa) = 35.55349 74.59718 50.48968
#
# Poissons Ratio (x) = 0.60380 -0.27461
# Poissons Ratio (y) = 0.28778 0.34064
# Poissons Ratio (z) = -0.19337 0.50329
#
# Static dielectric constant tensor:
#      x y z
#    x 3.851560 0.000000 -0.331210 
#    y 0.000000 4.514780 0.000000 
#    z -0.331210 0.000000 4.211620 
# 
# 
# High freq. dielectric constant tensor:
#      x y z
#    x 1.889680 0.000000 -0.025480 
#    y 0.000000 1.932030 0.000000 
#    z -0.025480 0.000000 1.916690 
# 
# From -- ./inp_files/225726.got.cif
#   From: 2010.06.25/outbox.cif.g09.slc.cpg/sg12_113_cif.got.tgz:225726.got - 2010.06.28 00:19:55.
