data_PCOD8081669
_publ_section_title
;
Structure prediction by ZEFSAII (Michael W. Deem and Ramdas Pophale) SiO2 
 PCOD8081669
Probable space group: C 2/M
;
_chemical_formula_sum "Si O2"
_cell_formula_units_Z 48
_cell_length_a 18.348457
_cell_length_b 8.810093
_cell_length_c 18.892429
_cell_angle_alpha 90.000000
_cell_angle_beta 60.716945
_cell_angle_gamma 90.000000
_cell_volume 2663.734141
_symmetry_space_group_name_H-M "C 2/M"
_symmetry_group_IT_number 12
_symmetry_cell_setting 'monoclinic'
loop_
_space_group_symop_operation_xyz
x,y,z
-x,y,-z
-x,-y,-z
x,-y,z
1/2+x,1/2+y,z
1/2-x,1/2+y,-z
1/2-x,1/2-y,-z
1/2+x,1/2-y,z
loop_
_atom_site_type_symbol
_atom_site_label
_atom_site_fract_x
_atom_site_fract_y
_atom_site_fract_z
Si Si1 0.992088 0.330133 0.919978
Si Si2 0.589493 0.678308 0.489424
Si Si3 0.323538 0.321433 0.009570
Si Si4 0.746812 0.176689 0.342750
Si Si5 0.841653 0.174916 0.160341
Si Si6 0.169365 0.680842 0.575893
O O1 0.980842 0.500000 0.895992
O O2 0.911606 0.233186 0.934997
O O3 0.077088 0.261148 0.847968
O O4 0.000000 0.326609 0.000000
O O5 0.500000 0.717280 0.500000
O O6 0.604380 0.500000 0.491313
O O7 0.659781 0.742819 0.403028
O O8 0.591856 0.758033 0.565938
O O9 0.317779 0.500000 0.005465
O O10 0.250000 0.250000 0.000000
O O11 0.314147 0.266737 0.095762
O O12 0.764962 0.200230 0.250856
O O13 0.825732 0.251791 0.347157
O O14 0.740157 0.000000 0.366172
O O15 0.867599 0.000000 0.142762
O O16 0.169522 0.500000 0.577624
O O17 0.250000 0.750000 0.500000
#
# Coordination Sequence:
#
# PCOD8081669 Si02
#       6
#     8   8   8   8   8   8
#     4   9  17  30  50  74  97 125 163 203 242 290
#     4  10  20  34  52  74 101 133 168 206 248 297
#     4  10  19  33  52  74 102 135 170 206 249 301
#     4  10  19  33  53  75 100 129 165 209 253 297
#     4   9  19  34  52  74 100 131 165 206 254 299
#     4  10  18  30  50  73  97 127 163 200 240 291
#
# _framework density 18.019815999999999
#
# number of rings (size 3 to 8) (size 9 to 14) (size 15 to 20)
#    0.000    2.333    0.000    5.500    0.000    5.333 
#    0.000    1.667    0.000    4.000    0.000    0.000 
#    0.000    0.000    0.000    0.000    0.000    0.000 
#
# Total GULP energy -297508.163308 kJ/mol
# GULP energy per Si atom -12396.173471 kJ/mol
# Density = 1.797880 g / cm^3
# Si number density = 18.019816 Si / 1000 Ang^3
#
#
#
# Elastic Constant Matrix: (Units=GPa)
#
#
# Indices 1 2 3 4 5 6 
#
# 1 139.8997 62.9759 44.3194 0.0000 -2.0498 -0.0001
# 2 62.9759 115.4298 33.4592 0.0001 -0.1015 -0.0002
# 3 44.3194 33.4592 73.7863 0.0000 -0.4462 0.0000
# 4 0.0000 0.0001 0.0000 23.2047 0.0000 -2.3958
# 5 -2.0498 -0.1015 -0.4462 0.0000 20.2018 0.0000
# 6 -0.0001 -0.0002 0.0000 -2.3958 0.0000 34.6772
#
#
#
# Elastic Compliance Matrix: (Units=1/GPa)
#
#
# Indices 1 2 3 4 5 6 
#
# 1 0.010551 -0.004514 -0.004285 0.000000 0.000953 0.000000
# 2 -0.004514 0.011905 -0.002690 0.000000 -0.000458 0.000000
# 3 -0.004285 -0.002690 0.017346 0.000000 -0.000065 0.000000
# 4 0.000000 0.000000 0.000000 0.043404 0.000000 0.002999
# 5 0.000953 -0.000458 -0.000065 0.000000 0.049593 0.000000
# 6 0.000000 0.000000 0.000000 0.002999 0.000000 0.029045
#
#
# Mechanical properties :
#
#
# Convention : Reuss Voigt Hill
#
# Bulk Modulus (GPa) = 59.43661 67.84719 63.64190
# Shear Modulus (GPa) = 26.25626 28.17415 27.21521
#
# Velocity S-wave (km/s) = 3.82131 3.95841 3.89047
# Velocity P-wave (km/s) = 7.24745 7.65671 7.45489
#
# Compressibility (1/GPa) = 0.01682465
#
# Stress axis : x y z
#
# Youngs Moduli (GPa) = 94.77581 83.99705 57.65026
#
# Poissons Ratio (x) = 0.37913 0.24703
# Poissons Ratio (y) = 0.42778 0.15509
# Poissons Ratio (z) = 0.40612 0.22597
#
# Static dielectric constant tensor:
#      x y z
#    x 3.580120 0.000000 0.243590 
#    y 0.000000 3.495630 0.000000 
#    z 0.243590 0.000000 3.312500 
# 
# 
# High freq. dielectric constant tensor:
#      x y z
#    x 1.690000 0.000000 0.004350 
#    y 0.000000 1.714460 0.000000 
#    z 0.004350 0.000000 1.674170 
# 
# From -- ./inp_files/313233.got.cif
#   From: 2010.06.25/outbox.cif.g09.slc.cpg/sg12_157_cif.got.tgz:313233.got - 2010.06.28 00:19:55.
