data_PCOD8081057
_publ_section_title
;
Structure prediction by ZEFSAII (Michael W. Deem and Ramdas Pophale) SiO2 
 PCOD8081057
Probable space group: C 2/M
;
_chemical_formula_sum "Si O2"
_cell_formula_units_Z 64
_cell_length_a 25.964282
_cell_length_b 9.659653
_cell_length_c 13.886486
_cell_angle_alpha 90.000000
_cell_angle_beta 93.600308
_cell_angle_gamma 90.000000
_cell_volume 3475.939664
_symmetry_space_group_name_H-M "C 2/M"
_symmetry_group_IT_number 12
_symmetry_cell_setting 'monoclinic'
loop_
_space_group_symop_operation_xyz
x,y,z
-x,y,-z
-x,-y,-z
x,-y,z
1/2+x,1/2+y,z
1/2-x,1/2+y,-z
1/2-x,1/2-y,-z
1/2+x,1/2-y,z
loop_
_atom_site_type_symbol
_atom_site_label
_atom_site_fract_x
_atom_site_fract_y
_atom_site_fract_z
Si Si1 0.182230 0.348029 0.745842
Si Si2 0.942049 0.158511 0.981936
Si Si3 0.366725 0.657660 0.809282
Si Si4 0.017042 0.663708 0.676195
Si Si5 0.901097 0.663780 0.643123
Si Si6 0.418727 0.848582 0.139920
Si Si7 0.262815 0.335622 0.905383
Si Si8 0.114418 0.664539 0.573772
O O1 0.203903 0.500000 0.722159
O O2 0.132552 0.360543 0.805744
O O3 0.227232 0.274889 0.813408
O O4 0.162462 0.274131 0.643906
O O5 0.907558 0.244508 0.052024
O O6 0.938552 0.000000 0.013558
O O7 0.920626 0.179800 0.871986
O O8 0.000000 0.215379 0.000000
O O9 0.361443 0.500000 0.771682
O O10 0.366106 0.759278 0.717995
O O11 0.321272 0.692367 0.879244
O O12 0.014771 0.500000 0.663830
O O13 0.035008 0.705457 0.785781
O O14 0.058721 0.722789 0.603647
O O15 0.959699 0.722545 0.651605
O O16 0.899112 0.500000 0.663082
O O17 0.877066 0.702116 0.536512
O O18 0.433095 0.000000 0.099881
O O19 0.252564 0.500000 0.922725
O O20 0.250000 0.250000 0.000000
O O21 0.113898 0.500000 0.590378
#
# Coordination Sequence:
#
# PCOD8081057 Si02
#       8
#     8   8   8   8   8   8   8   8
#     4   8  15  29  49  72  94 116 147 189 236 279
#     4  10  20  32  44  60  88 126 158 182 219 275
#     4  10  22  36  47  65  96 129 156 188 237 287
#     4   8  14  25  44  73 102 123 149 190 237 275
#     4  10  18  29  49  73  95 124 161 196 226 265
#     4   9  16  27  46  70  92 114 145 189 234 273
#     4  10  20  35  55  74  93 121 155 193 238 283
#     4   8  14  26  47  74  99 122 154 195 233 271
#
# _framework density 18.412288
#
# number of rings (size 3 to 8) (size 9 to 14) (size 15 to 20)
#    0.000    2.875    0.000    3.375    0.000    2.750 
#    0.000    0.625    0.000    5.250    0.000    0.000 
#    0.000    0.000    0.000    0.000    0.000    0.000 
#
# Total GULP energy -396502.459355 kJ/mol
# GULP energy per Si atom -12390.701855 kJ/mol
# Density = 1.837038 g / cm^3
# Si number density = 18.412288 Si / 1000 Ang^3
#
#
#
# Elastic Constant Matrix: (Units=GPa)
#
#
# Indices 1 2 3 4 5 6 
#
# 1 79.3201 20.5098 46.7115 0.0000 14.9195 0.0000
# 2 20.5098 44.5280 48.4761 0.0000 -4.2606 0.0000
# 3 46.7115 48.4761 122.3209 0.0000 3.0916 0.0000
# 4 0.0000 0.0000 0.0000 22.0406 0.0000 -1.3123
# 5 14.9195 -4.2606 3.0916 0.0000 26.9247 0.0000
# 6 0.0000 0.0000 0.0000 -1.3123 0.0000 12.7738
#
#
#
# Elastic Compliance Matrix: (Units=1/GPa)
#
#
# Indices 1 2 3 4 5 6 
#
# 1 0.018693 -0.003712 -0.005406 0.000000 -0.010325 0.000000
# 2 -0.003712 0.042067 -0.015519 0.000000 0.010496 0.000000
# 3 -0.005406 -0.015519 0.016424 0.000000 -0.001346 0.000000
# 4 0.000000 0.000000 0.000000 0.045650 0.000000 0.004690
# 5 -0.010325 0.010496 -0.001346 0.000000 0.044677 0.000000
# 6 0.000000 0.000000 0.000000 0.004690 0.000000 0.078767
#
#
# Mechanical properties :
#
#
# Convention : Reuss Voigt Hill
#
# Bulk Modulus (GPa) = 35.83103 53.06265 44.44684
# Shear Modulus (GPa) = 16.40123 21.04591 18.72357
#
# Velocity S-wave (km/s) = 2.98783 3.38455 3.19236
# Velocity P-wave (km/s) = 5.60406 6.64494 6.14657
#
# Compressibility (1/GPa) = 0.02790877
#
# Stress axis : x y z
#
# Youngs Moduli (GPa) = 53.49670 23.77175 60.88705
#
# Poissons Ratio (x) = 0.08825 0.32917
# Poissons Ratio (y) = 0.19860 0.94489
# Poissons Ratio (z) = 0.28921 0.36891
#
# Static dielectric constant tensor:
#      x y z
#    x 3.521270 0.000000 0.365210 
#    y 0.000000 2.982380 0.000000 
#    z 0.365210 0.000000 3.561690 
# 
# 
# High freq. dielectric constant tensor:
#      x y z
#    x 1.708950 0.000000 0.016490 
#    y 0.000000 1.662770 0.000000 
#    z 0.016490 0.000000 1.716880 
# 
# From -- ./inp_files/174646.got.cif
#   From: 2010.06.25/outbox.cif.g09.slc.cpg/sg12_88_cif.got.tgz:174646.got - 2010.06.28 00:19:55.
