data_PCOD8081985
_publ_section_title
;
Structure prediction by ZEFSAII (Michael W. Deem and Ramdas Pophale) SiO2 
 PCOD8081985
Probable space group: C 2/M
;
_chemical_formula_sum "Si O2"
_cell_formula_units_Z 64
_cell_length_a 27.743778
_cell_length_b 18.590448
_cell_length_c 10.060162
_cell_angle_alpha 90.000000
_cell_angle_beta 132.802168
_cell_angle_gamma 90.000000
_cell_volume 3806.987133
_symmetry_space_group_name_H-M "C 2/M"
_symmetry_group_IT_number 12
_symmetry_cell_setting 'monoclinic'
loop_
_space_group_symop_operation_xyz
x,y,z
-x,y,-z
-x,-y,-z
x,-y,z
1/2+x,1/2+y,z
1/2-x,1/2+y,-z
1/2-x,1/2-y,-z
1/2+x,1/2-y,z
loop_
_atom_site_type_symbol
_atom_site_label
_atom_site_fract_x
_atom_site_fract_y
_atom_site_fract_z
Si Si1 0.192915 0.691675 0.771482
Si Si2 0.439613 0.689156 0.215294
Si Si3 0.085155 0.812435 0.534934
Si Si4 0.319679 0.217235 0.960814
Si Si5 0.383781 0.580813 0.913690
Si Si6 0.363750 0.416208 0.581271
Si Si7 0.236739 0.327910 0.409366
Si Si8 0.769931 0.415965 0.360383
O O1 0.139183 0.749571 0.619695
O O2 0.265390 0.720663 0.873952
O O3 0.188476 0.616791 0.683844
O O4 0.185004 0.670839 0.911893
O O5 0.416064 0.660197 0.315308
O O6 0.513980 0.718768 0.359992
O O7 0.393214 0.753961 0.084646
O O8 0.433197 0.626744 0.094786
O O9 0.096386 0.883321 0.467014
O O10 0.309811 0.173974 0.806644
O O11 0.394865 0.500000 0.981763
O O12 0.403054 0.589708 0.794314
O O13 0.307689 0.602314 0.794358
O O14 0.345763 0.500000 0.519633
O O15 0.301172 0.365873 0.476036
O O16 0.250000 0.250000 0.500000
O O17 0.202341 0.378567 0.454198
O O18 0.783687 0.500000 0.392706
#
# Coordination Sequence:
#
# PCOD8081985 Si02
#       8
#     8   8   8   8   8   8   8   8
#     4  10  18  33  52  76  99 128 169 212 251 293
#     4  10  20  34  49  73  98 130 169 208 245 296
#     4  10  21  34  50  71 102 132 167 207 249 294
#     4  10  18  30  54  74  98 125 169 214 250 282
#     4   9  18  31  47  67 100 136 167 199 240 291
#     4  10  20  33  47  71 103 137 169 203 244 296
#     4  11  17  30  52  75  98 131 166 212 255 292
#     4  10  19  32  51  78 105 132 164 205 256 307
#
# _framework density 16.811195000000001
#
# number of rings (size 3 to 8) (size 9 to 14) (size 15 to 20)
#    0.000    2.000    3.750    1.875    0.000    1.500 
#    0.000    5.000    0.000    0.000    0.000    9.625 
#    0.000    0.000    0.000    0.000    0.000    0.000 
#
# Total GULP energy -396582.258043 kJ/mol
# GULP energy per Si atom -12393.195564 kJ/mol
# Density = 1.677293 g / cm^3
# Si number density = 16.811195 Si / 1000 Ang^3
#
#
#
# Elastic Constant Matrix: (Units=GPa)
#
#
# Indices 1 2 3 4 5 6 
#
# 1 58.2058 40.3574 39.0603 0.0000 -10.8576 0.0000
# 2 40.3574 88.9501 48.4093 0.0000 -12.8880 0.0000
# 3 39.0603 48.4093 111.7930 0.0000 -14.5806 0.0000
# 4 0.0000 0.0000 0.0000 23.6320 0.0000 -4.6266
# 5 -10.8576 -12.8880 -14.5806 0.0000 28.3940 0.0000
# 6 0.0000 0.0000 0.0000 -4.6266 0.0000 22.3074
#
#
#
# Elastic Compliance Matrix: (Units=1/GPa)
#
#
# Indices 1 2 3 4 5 6 
#
# 1 0.027776 -0.009215 -0.005225 0.000000 0.003756 0.000000
# 2 -0.009215 0.018127 -0.004305 0.000000 0.002494 0.000000
# 3 -0.005225 -0.004305 0.012989 0.000000 0.002718 0.000000
# 4 0.000000 0.000000 0.000000 0.044106 0.000000 0.009148
# 5 0.003756 0.002494 0.002718 0.000000 0.039183 0.000000
# 6 0.000000 0.000000 0.000000 0.009148 0.000000 0.046726
#
#
# Mechanical properties :
#
#
# Convention : Reuss Voigt Hill
#
# Bulk Modulus (GPa) = 46.71984 57.17810 51.94897
# Shear Modulus (GPa) = 21.41045 23.60812 22.50928
#
# Velocity S-wave (km/s) = 3.57260 3.75148 3.66313
# Velocity P-wave (km/s) = 6.69845 7.26984 6.98998
#
# Compressibility (1/GPa) = 0.02140418
#
# Stress axis : x y z
#
# Youngs Moduli (GPa) = 36.00172 55.16615 76.98652
#
# Poissons Ratio (x) = 0.50833 0.40226
# Poissons Ratio (y) = 0.33174 0.33140
# Poissons Ratio (z) = 0.18811 0.23747
#
# Static dielectric constant tensor:
#      x y z
#    x 3.187470 0.000000 -0.240170 
#    y 0.000000 2.969250 0.000000 
#    z -0.240170 0.000000 3.371130 
# 
# 
# High freq. dielectric constant tensor:
#      x y z
#    x 1.640740 0.000000 -0.023000 
#    y 0.000000 1.623360 0.000000 
#    z -0.023000 0.000000 1.652180 
# 
# From -- ./inp_files/106408.got.cif
#   From: 2010.06.25/outbox.cif.g09.slc.cpg/sg12_54_cif.got.tgz:106408.got - 2010.06.28 00:19:55.
