data_PCOD8081522
_publ_section_title
;
Structure prediction by ZEFSAII (Michael W. Deem and Ramdas Pophale) SiO2 
 PCOD8081522
Probable space group: C 2/M
;
_chemical_formula_sum "Si O2"
_cell_formula_units_Z 56
_cell_length_a 14.325888
_cell_length_b 9.402197
_cell_length_c 27.877548
_cell_angle_alpha 90.000000
_cell_angle_beta 58.045732
_cell_angle_gamma 90.000000
_cell_volume 3185.975031
_symmetry_space_group_name_H-M "C 2/M"
_symmetry_group_IT_number 12
_symmetry_cell_setting 'monoclinic'
loop_
_space_group_symop_operation_xyz
x,y,z
-x,y,-z
-x,-y,-z
x,-y,z
1/2+x,1/2+y,z
1/2-x,1/2+y,-z
1/2-x,1/2-y,-z
1/2+x,1/2-y,z
loop_
_atom_site_type_symbol
_atom_site_label
_atom_site_fract_x
_atom_site_fract_y
_atom_site_fract_z
Si Si1 0.984708 0.168095 0.426982
Si Si2 0.808098 0.663854 0.942899
Si Si3 0.752673 0.166678 0.147642
Si Si4 0.555508 0.166957 0.851640
Si Si5 0.010818 0.668396 0.233315
Si Si6 0.088214 0.330732 0.639959
Si Si7 0.170609 0.832105 0.448242
O O1 0.992310 0.254977 0.375676
O O2 0.875462 0.212782 0.486950
O O3 0.089567 0.220298 0.428585
O O4 0.986811 0.000000 0.416038
O O5 0.792276 0.500000 0.959489
O O6 0.749943 0.699733 0.908260
O O7 0.937211 0.701712 0.906822
O O8 0.750000 0.750000 0.000000
O O9 0.851705 0.250299 0.144876
O O10 0.637020 0.222183 0.201417
O O11 0.769746 0.000000 0.152713
O O12 0.552684 0.221836 0.797069
O O13 0.581787 0.000000 0.847177
O O14 0.016507 0.500000 0.228101
O O15 0.944817 0.720211 0.297954
O O16 0.079039 0.500000 0.637077
O O17 0.209253 0.269753 0.595039
O O18 0.174580 0.000000 0.444785
#
# Coordination Sequence:
#
# PCOD8081522 Si02
#       7
#     8   8   8   8   8   8   8
#     4   9  17  31  47  66  93 122 152 191 235 282
#     4   9  19  34  51  73 103 131 158 192 232 276
#     4   9  18  34  52  70  95 128 158 192 238 279
#     4   9  18  34  53  72  95 128 163 194 229 276
#     4   8  17  33  49  66  94 126 156 191 235 283
#     4  10  18  30  49  70  90 120 158 193 232 281
#     4   8  16  30  47  65  91 125 154 183 233 291
#
# _framework density 17.577036
#
# number of rings (size 3 to 8) (size 9 to 14) (size 15 to 20)
#    0.000    3.143    0.000    3.000    0.000    2.857 
#    0.000   10.000    0.000    0.000    0.000    0.000 
#    0.000    0.000    0.000    0.000    0.000    0.000 
#
# Total GULP energy -347063.597105 kJ/mol
# GULP energy per Si atom -12395.128468 kJ/mol
# Density = 1.753703 g / cm^3
# Si number density = 17.577036 Si / 1000 Ang^3
#
#
#
# Elastic Constant Matrix: (Units=GPa)
#
#
# Indices 1 2 3 4 5 6 
#
# 1 121.9699 43.1637 52.9021 0.0000 9.8113 0.0000
# 2 43.1637 39.4658 40.8749 0.0000 5.6332 0.0000
# 3 52.9021 40.8749 116.8706 0.0000 10.9818 0.0000
# 4 0.0000 0.0000 0.0000 24.6054 0.0000 5.1093
# 5 9.8113 5.6332 10.9818 0.0000 18.0142 0.0000
# 6 0.0000 0.0000 0.0000 5.1093 0.0000 32.2293
#
#
#
# Elastic Compliance Matrix: (Units=1/GPa)
#
#
# Indices 1 2 3 4 5 6 
#
# 1 0.013643 -0.013190 -0.001328 0.000000 -0.002497 0.000000
# 2 -0.013190 0.052782 -0.012320 0.000000 -0.001811 0.000000
# 3 -0.001328 -0.012320 0.013829 0.000000 -0.003854 0.000000
# 4 0.000000 0.000000 0.000000 0.042025 0.000000 -0.006662
# 5 -0.002497 -0.001811 -0.003854 0.000000 0.059788 0.000000
# 6 0.000000 0.000000 0.000000 -0.006662 0.000000 0.032084
#
#
# Mechanical properties :
#
#
# Convention : Reuss Voigt Hill
#
# Bulk Modulus (GPa) = 37.62377 61.35420 49.48898
# Shear Modulus (GPa) = 18.07109 24.39415 21.23262
#
# Velocity S-wave (km/s) = 3.20989 3.72942 3.47936
# Velocity P-wave (km/s) = 5.93207 7.31617 6.66017
#
# Compressibility (1/GPa) = 0.02657894
#
# Stress axis : x y z
#
# Youngs Moduli (GPa) = 73.29593 18.94579 72.31433
#
# Poissons Ratio (x) = 0.24989 0.09604
# Poissons Ratio (y) = 0.96676 0.89088
# Poissons Ratio (z) = 0.09734 0.23340
#
# Static dielectric constant tensor:
#      x y z
#    x 3.386830 0.000000 -0.091860 
#    y 0.000000 2.877890 0.000000 
#    z -0.091860 0.000000 3.469090 
# 
# 
# High freq. dielectric constant tensor:
#      x y z
#    x 1.685160 0.000000 0.002660 
#    y 0.000000 1.646190 0.000000 
#    z 0.002660 0.000000 1.683920 
# 
# From -- ./inp_files/357683.got.cif
#   From: 2010.06.25/outbox.cif.g09.slc.cpg/sg12_179_cif.got.tgz:357683.got - 2010.06.28 00:19:55.
