data_PCOD8081188
_publ_section_title
;
Structure prediction by ZEFSAII (Michael W. Deem and Ramdas Pophale) SiO2 
 PCOD8081188
Probable space group: C 2/M
;
_chemical_formula_sum "Si O2"
_cell_formula_units_Z 64
_cell_length_a 20.847194
_cell_length_b 21.317915
_cell_length_c 18.351294
_cell_angle_alpha 90.000000
_cell_angle_beta 152.344295
_cell_angle_gamma 90.000000
_cell_volume 3785.509319
_symmetry_space_group_name_H-M "C 2/M"
_symmetry_group_IT_number 12
_symmetry_cell_setting 'monoclinic'
loop_
_space_group_symop_operation_xyz
x,y,z
-x,y,-z
-x,-y,-z
x,-y,z
1/2+x,1/2+y,z
1/2-x,1/2+y,-z
1/2-x,1/2-y,-z
1/2+x,1/2-y,z
loop_
_atom_site_type_symbol
_atom_site_label
_atom_site_fract_x
_atom_site_fract_y
_atom_site_fract_z
Si Si1 0.890574 0.831649 0.109642
Si Si2 0.020348 0.930403 0.344401
Si Si3 0.725350 0.072708 0.303139
Si Si4 0.902593 0.264808 0.335734
Si Si5 0.088676 0.692427 0.809636
Si Si6 0.525423 0.848694 0.894780
Si Si7 0.180301 0.874644 0.752807
Si Si8 0.080903 0.215435 0.012200
O O1 0.984794 0.880602 0.246739
O O2 0.892149 0.763311 0.145839
O O3 0.946869 0.830476 0.083683
O O4 0.728833 0.848989 0.948735
O O5 0.917964 0.926780 0.310557
O O6 0.176131 0.918375 0.528294
O O7 0.008255 0.000000 0.298801
O O8 0.577781 0.101889 0.173762
O O9 0.791210 0.109742 0.302087
O O10 0.704555 0.000000 0.261633
O O11 0.964895 0.301906 0.327715
O O12 0.904632 0.190206 0.325155
O O13 0.000000 0.285147 0.500000
O O14 0.744094 0.282512 0.192942
O O15 0.992172 0.659519 0.774143
O O16 0.515952 0.783401 0.928713
O O17 0.680577 0.873910 0.059778
O O18 0.000000 0.187718 0.000000
#
# Coordination Sequence:
#
# PCOD8081188 Si02
#       8
#     8   8   8   8   8   8   8   8
#     4   9  16  33  52  71  98 129 165 208 246 293
#     4  11  21  34  50  72 100 133 174 210 244 287
#     4  11  24  35  45  72 110 139 169 209 246 287
#     4  10  18  29  51  77 106 126 160 206 253 295
#     4   9  16  32  53  73  97 133 166 203 251 297
#     4  10  19  34  51  70 103 135 171 204 246 295
#     4  11  19  32  54  70  97 139 174 203 238 288
#     4   9  18  32  51  74 100 129 162 203 253 305
#
# _framework density 16.906576000000001
#
# number of rings (size 3 to 8) (size 9 to 14) (size 15 to 20)
#    0.000    2.000    2.500    4.875    0.000    2.500 
#    2.250    1.250    0.000    0.375    0.000    0.000 
#    0.000    3.000    0.000    0.000    0.000    0.000 
#
# Total GULP energy -396590.887971 kJ/mol
# GULP energy per Si atom -12393.465249 kJ/mol
# Density = 1.686810 g / cm^3
# Si number density = 16.906576 Si / 1000 Ang^3
#
#
#
# Elastic Constant Matrix: (Units=GPa)
#
#
# Indices 1 2 3 4 5 6 
#
# 1 99.2199 18.4804 31.2409 0.0008 -18.9927 0.0003
# 2 18.4804 46.0736 23.7552 0.0002 -7.1698 0.0000
# 3 31.2409 23.7552 69.7628 0.0012 -19.0168 0.0006
# 4 0.0008 0.0002 0.0012 24.4699 0.0008 -1.6192
# 5 -18.9927 -7.1698 -19.0168 0.0008 21.9756 0.0004
# 6 0.0003 0.0000 0.0006 -1.6192 0.0004 16.6612
#
#
#
# Elastic Compliance Matrix: (Units=1/GPa)
#
#
# Indices 1 2 3 4 5 6 
#
# 1 0.012946 -0.002527 -0.002763 -0.000001 0.007972 0.000000
# 2 -0.002527 0.026840 -0.008135 0.000000 -0.000467 0.000000
# 3 -0.002763 -0.008135 0.022205 -0.000002 0.014173 -0.000001
# 4 -0.000001 0.000000 -0.000002 0.041131 -0.000003 0.003997
# 5 0.007972 -0.000467 0.014173 -0.000003 0.064508 -0.000003
# 6 0.000000 0.000000 -0.000001 0.003997 -0.000003 0.060408
#
#
# Mechanical properties :
#
#
# Convention : Reuss Voigt Hill
#
# Bulk Modulus (GPa) = 28.45783 40.22324 34.34054
# Shear Modulus (GPa) = 18.75457 22.05999 20.40728
#
# Velocity S-wave (km/s) = 3.33424 3.61614 3.47805
# Velocity P-wave (km/s) = 5.62955 6.42483 6.04029
#
# Compressibility (1/GPa) = 0.03513971
#
# Stress axis : x y z
#
# Youngs Moduli (GPa) = 77.24675 37.25828 45.03421
#
# Poissons Ratio (x) = 0.09415 0.12445
# Poissons Ratio (y) = 0.19521 0.36635
# Poissons Ratio (z) = 0.21347 0.30309
#
# Static dielectric constant tensor:
#      x y z
#    x 3.275420 0.000000 -0.143190 
#    y 0.000000 2.939100 0.000000 
#    z -0.143190 0.000000 3.128910 
# 
# 
# High freq. dielectric constant tensor:
#      x y z
#    x 1.656000 0.000000 -0.006550 
#    y 0.000000 1.612900 0.000000 
#    z -0.006550 0.000000 1.644270 
# 
# From -- ./inp_files/90369.got.cif
#   From: 2010.06.25/outbox.cif.g09.slc.cpg/sg12_46_cif.got.tgz:90369.got - 2010.06.28 00:19:55.
