data_PCOD8081385
_publ_section_title
;
Structure prediction by ZEFSAII (Michael W. Deem and Ramdas Pophale) SiO2 
 PCOD8081385
Probable space group: C 2/M
;
_chemical_formula_sum "Si O2"
_cell_formula_units_Z 56
_cell_length_a 20.641398
_cell_length_b 9.513077
_cell_length_c 22.056207
_cell_angle_alpha 90.000000
_cell_angle_beta 52.075672
_cell_angle_gamma 90.000000
_cell_volume 3416.414970
_symmetry_space_group_name_H-M "C 2/M"
_symmetry_group_IT_number 12
_symmetry_cell_setting 'monoclinic'
loop_
_space_group_symop_operation_xyz
x,y,z
-x,y,-z
-x,-y,-z
x,-y,z
1/2+x,1/2+y,z
1/2-x,1/2+y,-z
1/2-x,1/2-y,-z
1/2+x,1/2-y,z
loop_
_atom_site_type_symbol
_atom_site_label
_atom_site_fract_x
_atom_site_fract_y
_atom_site_fract_z
Si Si1 0.664790 0.844435 0.856187
Si Si2 0.906149 0.335719 0.544942
Si Si3 0.080788 0.158272 0.994610
Si Si4 0.504648 0.157594 0.865396
Si Si5 0.384188 0.164554 0.300519
Si Si6 0.832458 0.336277 0.459274
Si Si7 0.229557 0.164932 0.316221
O O1 0.583276 0.846547 0.863159
O O2 0.741674 0.803884 0.769209
O O3 0.677975 0.000000 0.876499
O O4 0.655596 0.733414 0.916049
O O5 0.891919 0.500000 0.564909
O O6 0.881066 0.292102 0.491264
O O7 0.853598 0.249930 0.624054
O O8 0.000000 0.292585 0.500000
O O9 0.064201 0.240133 0.067093
O O10 0.107901 0.000000 0.994483
O O11 0.000000 0.159506 0.000000
O O12 0.535758 0.220617 0.782376
O O13 0.467529 0.000000 0.880778
O O14 0.391048 0.198860 0.367883
O O15 0.298406 0.224705 0.323344
O O16 0.381953 0.000000 0.287434
O O17 0.808752 0.500000 0.473038
O O18 0.750000 0.250000 0.500000
O O19 0.213088 0.000000 0.335845
#
# Coordination Sequence:
#
# PCOD8081385 Si02
#       7
#     8   8   8   8   8   8   8
#     4   8  14  23  36  53  74 104 140 176 211 251
#     4  10  21  33  44  64  94 123 147 178 228 279
#     4   9  15  21  30  49  78 109 138 167 202 252
#     4   8  13  22  35  50  73 105 136 170 211 252
#     4   8  14  25  42  62  81 105 144 187 220 252
#     4  10  18  30  48  66  87 115 150 190 223 262
#     4   9  16  28  45  63  82 108 149 191 221 255
#
# _framework density 16.391452000000001
#
# number of rings (size 3 to 8) (size 9 to 14) (size 15 to 20)
#    0.000    3.143    1.429    2.143    0.000    2.571 
#    0.000    2.857    0.000    0.000    0.000    0.000 
#    0.000    1.143    0.000    2.286    0.000    3.000 
#
# Total GULP energy -347021.490963 kJ/mol
# GULP energy per Si atom -12393.624677 kJ/mol
# Density = 1.635414 g / cm^3
# Si number density = 16.391452 Si / 1000 Ang^3
#
#
#
# Elastic Constant Matrix: (Units=GPa)
#
#
# Indices 1 2 3 4 5 6 
#
# 1 49.0774 25.7893 39.4980 0.0000 -1.4720 0.0004
# 2 25.7893 81.8968 74.8841 0.0001 -0.4035 0.0011
# 3 39.4980 74.8841 160.2307 0.0000 4.5974 -0.0001
# 4 0.0000 0.0001 0.0000 27.7862 0.0000 -3.1327
# 5 -1.4720 -0.4035 4.5974 0.0000 12.2913 -0.0001
# 6 0.0004 0.0011 -0.0001 -3.1327 -0.0001 10.3264
#
#
#
# Elastic Compliance Matrix: (Units=1/GPa)
#
#
# Indices 1 2 3 4 5 6 
#
# 1 0.026462 -0.003871 -0.004853 0.000000 0.004857 -0.000001
# 2 -0.003871 0.022135 -0.009500 0.000000 0.003816 -0.000002
# 3 -0.004853 -0.009500 0.012032 0.000000 -0.005393 0.000001
# 4 0.000000 0.000000 0.000000 0.037264 0.000000 0.011305
# 5 0.004857 0.003816 -0.005393 0.000000 0.084082 0.000000
# 6 -0.000001 -0.000002 0.000001 0.011305 0.000000 0.100269
#
#
# Mechanical properties :
#
#
# Convention : Reuss Voigt Hill
#
# Bulk Modulus (GPa) = 41.35691 63.50530 52.43111
# Shear Modulus (GPa) = 15.30210 20.14967 17.72589
#
# Velocity S-wave (km/s) = 3.05871 3.50991 3.29205
# Velocity P-wave (km/s) = 6.14490 7.43324 6.81956
#
# Compressibility (1/GPa) = 0.02417975
#
# Stress axis : x y z
#
# Youngs Moduli (GPa) = 37.79031 45.17762 83.11251
#
# Poissons Ratio (x) = 0.17490 0.40335
# Poissons Ratio (y) = 0.14630 0.78956
# Poissons Ratio (z) = 0.18340 0.42918
#
# Static dielectric constant tensor:
#      x y z
#    x 2.548870 0.000000 0.171740 
#    y 0.000000 3.065300 0.000000 
#    z 0.171740 0.000000 3.490200 
# 
# 
# High freq. dielectric constant tensor:
#      x y z
#    x 1.556280 0.000000 0.012450 
#    y 0.000000 1.619230 0.000000 
#    z 0.012450 0.000000 1.650610 
# 
# From -- ./inp_files/323419.got.cif
#   From: 2010.06.25/outbox.cif.g09.slc.cpg/sg12_162_cif.got.tgz:323419.got - 2010.06.28 00:19:55.
