data_PCOD8081400
_publ_section_title
;
Structure prediction by ZEFSAII (Michael W. Deem and Ramdas Pophale) SiO2 
 PCOD8081400
Probable space group: C 2/M
;
_chemical_formula_sum "Si O2"
_cell_formula_units_Z 64
_cell_length_a 25.144901
_cell_length_b 9.081839
_cell_length_c 23.833275
_cell_angle_alpha 90.000000
_cell_angle_beta 132.913181
_cell_angle_gamma 90.000000
_cell_volume 3986.095062
_symmetry_space_group_name_H-M "C 2/M"
_symmetry_group_IT_number 12
_symmetry_cell_setting 'monoclinic'
loop_
_space_group_symop_operation_xyz
x,y,z
-x,y,-z
-x,-y,-z
x,-y,z
1/2+x,1/2+y,z
1/2-x,1/2+y,-z
1/2-x,1/2-y,-z
1/2+x,1/2-y,z
loop_
_atom_site_type_symbol
_atom_site_label
_atom_site_fract_x
_atom_site_fract_y
_atom_site_fract_z
Si Si1 0.832894 0.825985 0.344920
Si Si2 0.058272 0.824564 0.669953
Si Si3 0.692131 0.172020 0.185792
Si Si4 0.226135 0.825633 0.094946
Si Si5 0.972504 0.672499 0.920188
Si Si6 0.915156 0.828295 0.074420
Si Si7 0.941432 0.162425 0.507335
Si Si8 0.127898 0.173142 0.832880
O O1 0.874603 0.766523 0.319589
O O2 0.747639 0.788229 0.276596
O O3 0.869384 0.757913 0.428566
O O4 0.845203 0.000000 0.357540
O O5 0.072873 0.773816 0.744172
O O6 0.981602 0.759096 0.589651
O O7 0.053960 0.000000 0.663119
O O8 0.715043 0.266176 0.149102
O O9 0.611820 0.213339 0.148302
O O10 0.697813 0.000000 0.173497
O O11 0.296549 0.757764 0.116569
O O12 0.234577 0.000000 0.102724
O O13 0.157691 0.775019 0.008712
O O14 0.986885 0.500000 0.927013
O O15 0.015238 0.747191 0.900463
O O16 0.000000 0.733506 0.000000
O O17 0.910453 0.786928 0.136393
O O18 0.927038 0.000000 0.073652
O O19 0.000000 0.152048 0.500000
O O20 0.918170 0.000000 0.510671
O O21 0.144882 0.000000 0.840218
#
# Coordination Sequence:
#
# PCOD8081400 Si02
#       8
#     8   8   8   8   8   8   8   8
#     4   8  12  20  37  62  90 114 137 174 218 257
#     4   8  12  20  38  62  88 115 139 172 215 257
#     4  10  18  30  48  68  88 117 151 182 221 266
#     4  11  21  31  44  66  92 119 148 182 222 262
#     4  10  20  33  50  68  85 112 152 192 227 263
#     4  10  22  35  47  64  88 119 153 187 223 262
#     4   7  10  16  30  59  91 111 133 169 215 256
#     4  10  19  32  48  66  89 120 153 181 216 264
#
# _framework density 16.055814000000002
#
# number of rings (size 3 to 8) (size 9 to 14) (size 15 to 20)
#    0.000    2.750    2.500    2.250    0.000    1.750 
#    0.000    0.000    0.000    0.000    0.000    2.625 
#    0.000    0.000    0.000    0.000    0.000    0.000 
#
# Total GULP energy -396467.293699 kJ/mol
# GULP energy per Si atom -12389.602928 kJ/mol
# Density = 1.601927 g / cm^3
# Si number density = 16.055814 Si / 1000 Ang^3
#
#
#
# Elastic Constant Matrix: (Units=GPa)
#
#
# Indices 1 2 3 4 5 6 
#
# 1 93.2532 25.4730 61.0401 0.0000 8.2053 0.0000
# 2 25.4730 21.7152 16.2674 0.0000 4.7306 0.0000
# 3 61.0401 16.2674 155.4309 0.0000 20.7822 0.0000
# 4 0.0000 0.0000 0.0000 7.9614 0.0000 -0.8795
# 5 8.2053 4.7306 20.7822 0.0000 15.7069 0.0000
# 6 0.0000 0.0000 0.0000 -0.8795 0.0000 22.0387
#
#
#
# Elastic Compliance Matrix: (Units=1/GPa)
#
#
# Indices 1 2 3 4 5 6 
#
# 1 0.019752 -0.019315 -0.006237 0.000000 0.003751 0.000000
# 2 -0.019315 0.070150 0.002089 0.000000 -0.013801 0.000000
# 3 -0.006237 0.002089 0.010100 0.000000 -0.010734 0.000000
# 4 0.000000 0.000000 0.000000 0.126163 0.000000 0.005035
# 5 0.003751 -0.013801 -0.010734 0.000000 0.080066 0.000000
# 6 0.000000 0.000000 0.000000 0.005035 0.000000 0.045576
#
#
# Mechanical properties :
#
#
# Convention : Reuss Voigt Hill
#
# Bulk Modulus (GPa) = 18.84119 52.88449 35.86284
# Shear Modulus (GPa) = 12.00699 20.31598 16.16148
#
# Velocity S-wave (km/s) = 2.73761 3.56101 3.17611
# Velocity P-wave (km/s) = 4.66401 7.06521 5.98624
#
# Compressibility (1/GPa) = 0.05307519
#
# Stress axis : x y z
#
# Youngs Moduli (GPa) = 50.62786 14.25518 99.01292
#
# Poissons Ratio (x) = 0.27534 0.61754
# Poissons Ratio (y) = 0.97787 -0.20681
# Poissons Ratio (z) = 0.31576 -0.02977
#
# Static dielectric constant tensor:
#      x y z
#    x 2.785320 0.000000 0.093570 
#    y 0.000000 2.687820 0.000000 
#    z 0.093570 0.000000 3.627240 
# 
# 
# High freq. dielectric constant tensor:
#      x y z
#    x 1.578740 0.000000 0.007550 
#    y 0.000000 1.576990 0.000000 
#    z 0.007550 0.000000 1.637970 
# 
# From -- ./inp_files/348590.got.cif
#   From: 2010.06.25/outbox.cif.g09.slc.cpg/sg12_175_cif.got.tgz:348590.got - 2010.06.28 00:19:55.
