data_PCOD8081954
_publ_section_title
;
Structure prediction by ZEFSAII (Michael W. Deem and Ramdas Pophale) SiO2 
 PCOD8081954
Probable space group: C 2/M
;
_chemical_formula_sum "Si O2"
_cell_formula_units_Z 56
_cell_length_a 11.000671
_cell_length_b 18.152475
_cell_length_c 15.604471
_cell_angle_alpha 90.000000
_cell_angle_beta 109.134072
_cell_angle_gamma 90.000000
_cell_volume 2943.898867
_symmetry_space_group_name_H-M "C 2/M"
_symmetry_group_IT_number 12
_symmetry_cell_setting 'monoclinic'
loop_
_space_group_symop_operation_xyz
x,y,z
-x,y,-z
-x,-y,-z
x,-y,z
1/2+x,1/2+y,z
1/2-x,1/2+y,-z
1/2-x,1/2-y,-z
1/2+x,1/2-y,z
loop_
_atom_site_type_symbol
_atom_site_label
_atom_site_fract_x
_atom_site_fract_y
_atom_site_fract_z
Si Si1 0.112186 0.650443 0.683430
Si Si2 0.349924 0.727474 0.948961
Si Si3 0.804057 0.917172 0.848175
Si Si4 0.788058 0.197619 0.234705
Si Si5 0.504380 0.416400 0.743183
Si Si6 0.309680 0.343532 0.582581
Si Si7 0.328511 0.173271 0.615439
O O1 0.167598 0.597994 0.770941
O O2 0.122906 0.735277 0.714707
O O3 0.185827 0.637409 0.611555
O O4 0.963410 0.631016 0.635029
O O5 0.330113 0.639839 0.930920
O O6 0.318166 0.773112 0.856001
O O7 0.500000 0.745070 0.000000
O O8 0.250000 0.750000 0.000000
O O9 0.913277 0.904921 0.802930
O O10 0.805630 0.000000 0.886149
O O11 0.718928 0.160023 0.299442
O O12 0.873893 0.135172 0.210170
O O13 0.551250 0.500000 0.744468
O O14 0.430381 0.393240 0.638933
O O15 0.350624 0.259111 0.601915
O O16 0.274057 0.360515 0.475621
#
# Coordination Sequence:
#
# PCOD8081954 Si02
#       7
#     8   8   8   8   8   8   8
#     4   9  17  31  55  78 112 148 186 236 274 333
#     4  11  24  39  65  92 116 146 189 249 298 347
#     4   9  20  37  61  86 111 148 187 228 282 347
#     4  10  21  34  55  79 112 145 191 230 293 345
#     4  10  19  37  58  81 118 154 191 233 277 335
#     4   9  18  30  49  84 110 148 198 236 277 318
#     4  10  18  30  53  78 114 149 190 241 279 333
#
# _framework density 19.022393000000001
#
# number of rings (size 3 to 8) (size 9 to 14) (size 15 to 20)
#    0.000    2.286    1.429    2.143    4.000    0.857 
#    0.000    3.571    0.000    4.286    0.000    0.000 
#    0.000    0.000    0.000    0.000    0.000    0.000 
#
# Total GULP energy -347203.288497 kJ/mol
# GULP energy per Si atom -12400.117446 kJ/mol
# Density = 1.897910 g / cm^3
# Si number density = 19.022393 Si / 1000 Ang^3
#
#
#
# Elastic Constant Matrix: (Units=GPa)
#
#
# Indices 1 2 3 4 5 6 
#
# 1 82.6766 31.8973 34.4736 0.0000 12.5378 0.0000
# 2 31.8973 92.7177 29.9507 0.0000 2.6935 0.0000
# 3 34.4736 29.9507 90.3903 0.0000 1.7062 0.0000
# 4 0.0000 0.0000 0.0000 23.7040 0.0000 -0.8758
# 5 12.5378 2.6935 1.7062 0.0000 29.0106 0.0000
# 6 0.0000 0.0000 0.0000 -0.8758 0.0000 23.3542
#
#
#
# Elastic Compliance Matrix: (Units=1/GPa)
#
#
# Indices 1 2 3 4 5 6 
#
# 1 0.016666 -0.003953 -0.004923 0.000000 -0.006546 0.000000
# 2 -0.003953 0.013039 -0.002825 0.000000 0.000664 0.000000
# 3 -0.004923 -0.002825 0.013847 0.000000 0.001575 0.000000
# 4 0.000000 0.000000 0.000000 0.042246 0.000000 0.001584
# 5 -0.006546 0.000664 0.001575 0.000000 0.037145 0.000000
# 6 0.000000 0.000000 0.000000 0.001584 0.000000 0.042878
#
#
# Mechanical properties :
#
#
# Convention : Reuss Voigt Hill
#
# Bulk Modulus (GPa) = 49.62917 50.93642 50.28280
# Shear Modulus (GPa) = 25.51817 26.51128 26.01473
#
# Velocity S-wave (km/s) = 3.66660 3.73726 3.70210
# Velocity P-wave (km/s) = 6.63866 6.74226 6.69066
#
# Compressibility (1/GPa) = 0.02014944
#
# Stress axis : x y z
#
# Youngs Moduli (GPa) = 60.00328 76.69444 72.21797
#
# Poissons Ratio (x) = 0.30318 0.35550
# Poissons Ratio (y) = 0.23720 0.20403
# Poissons Ratio (z) = 0.29538 0.21668
#
# Static dielectric constant tensor:
#      x y z
#    x 3.343360 0.000000 0.028620 
#    y 0.000000 3.340520 0.000000 
#    z 0.028620 0.000000 3.510470 
# 
# 
# High freq. dielectric constant tensor:
#      x y z
#    x 1.732250 0.000000 0.006560 
#    y 0.000000 1.713560 0.000000 
#    z 0.006560 0.000000 1.739290 
# 
# From -- ./inp_files/206265.got.cif
#   From: 2010.06.25/outbox.cif.g09.slc.cpg/sg12_104_cif.got.tgz:206265.got - 2010.06.28 00:19:55.
