data_PCOD8081821
_publ_section_title
;
Structure prediction by ZEFSAII (Michael W. Deem and Ramdas Pophale) SiO2 
 PCOD8081821
Probable space group: C 2/M
;
_chemical_formula_sum "Si O2"
_cell_formula_units_Z 64
_cell_length_a 23.218165
_cell_length_b 15.416501
_cell_length_c 9.228222
_cell_angle_alpha 90.000000
_cell_angle_beta 80.796022
_cell_angle_gamma 90.000000
_cell_volume 3260.648354
_symmetry_space_group_name_H-M "C 2/M"
_symmetry_group_IT_number 12
_symmetry_cell_setting 'monoclinic'
loop_
_space_group_symop_operation_xyz
x,y,z
-x,y,-z
-x,-y,-z
x,-y,z
1/2+x,1/2+y,z
1/2-x,1/2+y,-z
1/2-x,1/2-y,-z
1/2+x,1/2-y,z
loop_
_atom_site_type_symbol
_atom_site_label
_atom_site_fract_x
_atom_site_fract_y
_atom_site_fract_z
Si Si1 0.209168 0.843421 0.798875
Si Si2 0.941760 0.245759 0.433003
Si Si3 0.061095 0.405969 0.397151
Si Si4 0.277846 0.325260 0.739928
Si Si5 0.634035 0.735832 0.068882
Si Si6 0.017047 0.307938 0.152394
Si Si7 0.653362 0.597632 0.540372
Si Si8 0.297873 0.904273 0.989716
O O1 0.234264 0.753992 0.722231
O O2 0.182259 0.902844 0.686210
O O3 0.261261 0.893740 0.856714
O O4 0.156868 0.825168 0.932059
O O5 0.907525 0.326560 0.527639
O O6 0.901179 0.162310 0.445117
O O7 0.000000 0.223404 0.500000
O O8 0.960278 0.271990 0.261310
O O9 0.094336 0.500000 0.391056
O O10 0.049518 0.382224 0.233765
O O11 0.000000 0.416966 0.500000
O O12 0.336827 0.291298 0.791820
O O13 0.295264 0.374927 0.588408
O O14 0.245301 0.392074 0.857924
O O15 0.563990 0.729693 0.111307
O O16 0.650101 0.835559 0.026095
O O17 0.000000 0.344029 0.000000
O O18 0.631749 0.500000 0.514126
O O19 0.325294 0.000000 0.984190
#
# Coordination Sequence:
#
# PCOD8081821 Si02
#       8
#     8   8   8   8   8   8   8   8
#     4   9  19  34  53  75 104 135 165 210 265 313
#     4   9  20  36  52  71 104 144 176 214 257 306
#     4   8  16  32  51  69  94 132 172 207 251 304
#     4   9  18  34  54  74 101 136 172 210 255 310
#     4   9  18  33  53  73  98 140 175 201 253 313
#     4  10  18  30  51  76 103 134 172 216 258 298
#     4  12  22  33  54  81 105 135 177 220 263 306
#     4   9  17  32  52  77 105 130 163 207 255 313
#
# _framework density 19.627998000000002
#
# number of rings (size 3 to 8) (size 9 to 14) (size 15 to 20)
#    0.000    2.875    0.000    4.875    0.000    1.000 
#    0.000    0.000    0.000   16.125    0.000    3.500 
#    0.000    0.000    0.000    0.000    0.000    0.000 
#
# Total GULP energy -396564.479466 kJ/mol
# GULP energy per Si atom -12392.639983 kJ/mol
# Density = 1.958332 g / cm^3
# Si number density = 19.627998 Si / 1000 Ang^3
#
#
#
# Elastic Constant Matrix: (Units=GPa)
#
#
# Indices 1 2 3 4 5 6 
#
# 1 36.4038 7.0392 19.7525 0.0000 -3.3385 0.0000
# 2 7.0392 102.8947 25.6713 0.0000 -6.7414 0.0000
# 3 19.7525 25.6713 113.8883 0.0000 -0.8199 0.0000
# 4 0.0000 0.0000 0.0000 7.1473 0.0000 10.1901
# 5 -3.3385 -6.7414 -0.8199 0.0000 19.0443 0.0000
# 6 0.0000 0.0000 0.0000 10.1901 0.0000 2.3406
#
#
#
# Elastic Compliance Matrix: (Units=1/GPa)
#
#
# Indices 1 2 3 4 5 6 
#
# 1 0.030847 -0.000483 -0.005205 0.000000 0.005012 0.000000
# 2 -0.000483 0.010551 -0.002269 0.000000 0.003552 0.000000
# 3 -0.005205 -0.002269 0.010185 0.000000 -0.001277 0.000000
# 4 0.000000 0.000000 0.000000 -0.026870 0.000000 0.116981
# 5 0.005012 0.003552 -0.001277 0.000000 0.054590 0.000000
# 6 0.000000 0.000000 0.000000 0.116981 0.000000 -0.082049
#
#
# Mechanical properties :
#
#
# Convention : Reuss Voigt Hill
#
# Bulk Modulus (GPa) = 28.03566 39.79031 33.91299
# Shear Modulus (GPa) = 199.53902 19.08804 109.31353
#
# Velocity S-wave (km/s) = 10.09362 3.12186 7.47085
# Velocity P-wave (km/s) = 12.25381 5.77156 9.57776
#
# Compressibility (1/GPa) = 0.03566886
#
# Stress axis : x y z
#
# Youngs Moduli (GPa) = 32.41809 94.78213 98.17902
#
# Poissons Ratio (x) = 0.04581 0.51102
# Poissons Ratio (y) = 0.01567 0.22275
# Poissons Ratio (z) = 0.16874 0.21504
#
# Static dielectric constant tensor:
#      x y z
#    x 3.275470 0.000000 -0.182320 
#    y 0.000000 3.756540 0.000000 
#    z -0.182320 0.000000 3.760420 
# 
# 
# High freq. dielectric constant tensor:
#      x y z
#    x 1.735850 0.000000 -0.012520 
#    y 0.000000 1.747550 0.000000 
#    z -0.012520 0.000000 1.778650 
# 
# From -- ./inp_files/104576.got.cif
#   From: 2010.06.25/outbox.cif.g09.slc.cpg/sg12_53_cif.got.tgz:104576.got - 2010.06.28 00:19:55.
