data_PCOD8081764
_publ_section_title
;
Structure prediction by ZEFSAII (Michael W. Deem and Ramdas Pophale) SiO2 
 PCOD8081764
Probable space group: C 2/M
;
_chemical_formula_sum "Si O2"
_cell_formula_units_Z 64
_cell_length_a 26.757980
_cell_length_b 11.239115
_cell_length_c 19.750931
_cell_angle_alpha 90.000000
_cell_angle_beta 148.269122
_cell_angle_gamma 90.000000
_cell_volume 3123.928142
_symmetry_space_group_name_H-M "C 2/M"
_symmetry_group_IT_number 12
_symmetry_cell_setting 'monoclinic'
loop_
_space_group_symop_operation_xyz
x,y,z
-x,y,-z
-x,-y,-z
x,-y,z
1/2+x,1/2+y,z
1/2-x,1/2+y,-z
1/2-x,1/2-y,-z
1/2+x,1/2-y,z
loop_
_atom_site_type_symbol
_atom_site_label
_atom_site_fract_x
_atom_site_fract_y
_atom_site_fract_z
Si Si1 0.209062 0.777163 0.855197
Si Si2 0.082867 0.368644 0.137137
Si Si3 0.617474 0.137301 0.862795
Si Si4 0.607082 0.363439 0.607536
Si Si5 0.984845 0.255997 0.818410
Si Si6 0.709315 0.637667 0.410514
Si Si7 0.745173 0.786212 0.684200
Si Si8 0.341278 0.370416 0.923405
O O1 0.127227 0.723167 0.809012
O O2 0.166058 0.855224 0.745218
O O3 0.262492 0.662701 0.887699
O O4 0.284377 0.859576 0.981833
O O5 0.083465 0.500000 0.109958
O O6 0.065465 0.361872 0.197820
O O7 0.187026 0.326156 0.240582
O O8 0.000000 0.298866 0.000000
O O9 0.526345 0.191945 0.796809
O O10 0.596093 0.000000 0.818972
O O11 0.500000 0.324955 0.500000
O O12 0.612129 0.500000 0.587084
O O13 0.645067 0.269894 0.594399
O O14 0.905392 0.152449 0.718429
O O15 0.068599 0.214244 0.964782
O O16 0.731061 0.500000 0.460745
O O17 0.750000 0.750000 0.500000
O O18 0.756998 0.647423 0.390627
O O19 0.792279 0.873600 0.793327
O O20 0.378968 0.500000 0.984781
#
# Coordination Sequence:
#
# PCOD8081764 Si02
#       8
#     8   8   8   8   8   8   8   8
#     4   9  20  34  52  83 116 152 197 244 300 361
#     4  10  18  30  50  82 119 149 183 235 300 362
#     4  10  19  34  56  82 118 159 198 250 310 369
#     4  10  21  38  60  86 117 155 199 248 297 354
#     4  10  21  36  56  88 115 150 197 245 306 365
#     4  11  26  45  64  86 122 164 209 250 300 366
#     4  10  21  38  60  88 115 151 195 244 306 357
#     4  10  18  33  58  84 112 140 179 237 305 363
#
# _framework density 20.487027000000001
#
# number of rings (size 3 to 8) (size 9 to 14) (size 15 to 20)
#    0.000    2.000    1.250    2.250    0.000    4.000 
#    0.000    5.000    0.000   12.750    0.000    0.000 
#    0.000    0.000    0.000    0.000    0.000    0.000 
#
# Total GULP energy -396428.586799 kJ/mol
# GULP energy per Si atom -12388.393337 kJ/mol
# Density = 2.044040 g / cm^3
# Si number density = 20.487027 Si / 1000 Ang^3
#
#
#
# Elastic Constant Matrix: (Units=GPa)
#
#
# Indices 1 2 3 4 5 6 
#
# 1 112.1177 29.6510 21.2732 0.0000 15.6053 0.0000
# 2 29.6510 101.4422 17.9888 0.0000 8.1434 0.0000
# 3 21.2732 17.9888 56.0556 0.0000 11.7698 0.0000
# 4 0.0000 0.0000 0.0000 48.0478 0.0000 25.2975
# 5 15.6053 8.1434 11.7698 0.0000 34.7114 0.0000
# 6 0.0000 0.0000 0.0000 25.2975 0.0000 41.8276
#
#
#
# Elastic Compliance Matrix: (Units=1/GPa)
#
#
# Indices 1 2 3 4 5 6 
#
# 1 0.010480 -0.002350 -0.002530 0.000000 -0.003303 0.000000
# 2 -0.002350 0.011044 -0.002509 0.000000 -0.000684 0.000000
# 3 -0.002530 -0.002509 0.020717 0.000000 -0.005299 0.000000
# 4 0.000000 0.000000 0.000000 0.030536 0.000000 -0.018469
# 5 -0.003303 -0.000684 -0.005299 0.000000 0.032251 0.000000
# 6 0.000000 0.000000 0.000000 -0.018469 0.000000 0.035078
#
#
# Mechanical properties :
#
#
# Convention : Reuss Voigt Hill
#
# Bulk Modulus (GPa) = 36.40982 45.27127 40.84055
# Shear Modulus (GPa) = 30.48065 38.29754 34.38909
#
# Velocity S-wave (km/s) = 3.86139 4.32829 4.10149
# Velocity P-wave (km/s) = 6.13931 6.86472 6.51212
#
# Compressibility (1/GPa) = 0.02746512
#
# Stress axis : x y z
#
# Youngs Moduli (GPa) = 95.41744 90.54344 48.26904
#
# Poissons Ratio (x) = 0.21274 0.12211
# Poissons Ratio (y) = 0.22419 0.12111
# Poissons Ratio (z) = 0.24139 0.22717
#
# Static dielectric constant tensor:
#      x y z
#    x 3.947550 0.000000 0.079560 
#    y 0.000000 3.478110 0.000000 
#    z 0.079560 0.000000 3.601600 
# 
# 
# High freq. dielectric constant tensor:
#      x y z
#    x 1.810580 0.000000 0.009150 
#    y 0.000000 1.791660 0.000000 
#    z 0.009150 0.000000 1.781640 
# 
# From -- ./inp_files/327854.got.cif
#   From: 2010.06.25/outbox.cif.g09.slc.cpg/sg12_164_cif.got.tgz:327854.got - 2010.06.28 00:19:55.
