data_PCOD8081303
_publ_section_title
;
Structure prediction by ZEFSAII (Michael W. Deem and Ramdas Pophale) SiO2 
 PCOD8081303
Probable space group: C 2/M
;
_chemical_formula_sum "Si O2"
_cell_formula_units_Z 64
_cell_length_a 24.204995
_cell_length_b 9.285968
_cell_length_c 29.227158
_cell_angle_alpha 90.000000
_cell_angle_beta 30.914972
_cell_angle_gamma 90.000000
_cell_volume 3375.076862
_symmetry_space_group_name_H-M "C 2/M"
_symmetry_group_IT_number 12
_symmetry_cell_setting 'monoclinic'
loop_
_space_group_symop_operation_xyz
x,y,z
-x,y,-z
-x,-y,-z
x,-y,z
1/2+x,1/2+y,z
1/2-x,1/2+y,-z
1/2-x,1/2-y,-z
1/2+x,1/2-y,z
loop_
_atom_site_type_symbol
_atom_site_label
_atom_site_fract_x
_atom_site_fract_y
_atom_site_fract_z
Si Si1 0.684877 0.327135 0.505637
Si Si2 0.357122 0.667122 0.825738
Si Si3 0.216658 0.330357 0.659841
Si Si4 0.866846 0.330454 0.979664
Si Si5 0.478038 0.167491 0.810525
Si Si6 0.546458 0.171739 0.919134
Si Si7 0.228482 0.827543 0.279948
Si Si8 0.556513 0.333043 0.332614
O O1 0.693986 0.500000 0.505714
O O2 0.750000 0.250000 0.500000
O O3 0.730365 0.272878 0.424455
O O4 0.561836 0.268554 0.592626
O O5 0.365854 0.500000 0.831902
O O6 0.455873 0.745987 0.780116
O O7 0.366197 0.694067 0.765449
O O8 0.245326 0.735918 0.923001
O O9 0.229060 0.500000 0.651886
O O10 0.271658 0.269552 0.667396
O O11 0.092328 0.284411 0.749474
O O12 0.863107 0.500000 0.990757
O O13 0.885926 0.293901 0.912942
O O14 0.965930 0.266873 0.937943
O O15 0.479195 0.000000 0.797364
O O16 0.666116 0.229033 0.822397
O O17 0.548515 0.000000 0.917954
O O18 0.500000 0.231119 0.000000
O O19 0.120790 0.768637 0.330849
O O20 0.229935 0.000000 0.278247
O O21 0.537536 0.500000 0.355277
#
# Coordination Sequence:
#
# PCOD8081303 Si02
#       8
#     8   8   8   8   8   8   8   8
#     4  10  20  34  51  73  98 125 157 192 232 279
#     4  10  19  30  44  66  95 124 153 190 234 276
#     4   9  17  29  47  69  94 123 156 194 235 280
#     4   9  16  26  40  62  92 121 152 189 229 275
#     4  10  18  30  46  66  92 122 157 193 227 272
#     4   9  14  21  37  61  92 126 153 183 231 283
#     4   9  15  26  43  66  96 124 150 189 240 282
#     4   9  18  30  45  68  98 123 149 191 238 278
#
# _framework density 18.962530999999998
#
# number of rings (size 3 to 8) (size 9 to 14) (size 15 to 20)
#    0.000    2.625    1.250    1.875    0.000    3.500 
#    0.000    2.500    0.000    0.000    0.000    4.375 
#    0.000    2.000    0.000    0.000    0.000    0.000 
#
# Total GULP energy -396581.612464 kJ/mol
# GULP energy per Si atom -12393.175390 kJ/mol
# Density = 1.891937 g / cm^3
# Si number density = 18.962531 Si / 1000 Ang^3
#
#
#
# Elastic Constant Matrix: (Units=GPa)
#
#
# Indices 1 2 3 4 5 6 
#
# 1 170.1823 26.1389 61.7614 -0.0006 -8.5434 0.0033
# 2 26.1389 13.8910 16.7428 -0.0041 -1.8072 0.0196
# 3 61.7614 16.7428 118.5999 0.0018 -7.6552 -0.0031
# 4 -0.0006 -0.0041 0.0018 8.7508 0.0000 -0.5902
# 5 -8.5434 -1.8072 -7.6552 0.0000 19.4973 -0.0046
# 6 0.0033 0.0196 -0.0031 -0.5902 -0.0046 18.7958
#
#
#
# Elastic Compliance Matrix: (Units=1/GPa)
#
#
# Indices 1 2 3 4 5 6 
#
# 1 0.009004 -0.013503 -0.002677 -0.000004 0.001643 0.000012
# 2 -0.013503 0.107210 -0.008048 0.000044 0.000861 -0.000109
# 3 -0.002677 -0.008048 0.011120 -0.000006 0.002447 0.000011
# 4 -0.000004 0.000044 -0.000006 0.114518 0.000001 0.003596
# 5 0.001643 0.000861 0.002447 0.000001 0.053050 0.000012
# 6 0.000012 -0.000109 0.000011 0.003596 0.000012 0.053316
#
#
# Mechanical properties :
#
#
# Convention : Reuss Voigt Hill
#
# Bulk Modulus (GPa) = 12.67766 56.88439 34.78103
# Shear Modulus (GPa) = 11.82134 22.61078 17.21606
#
# Velocity S-wave (km/s) = 2.49952 3.45685 3.01640
# Velocity P-wave (km/s) = 3.87689 6.78207 5.52389
#
# Compressibility (1/GPa) = 0.07887889
#
# Stress axis : x y z
#
# Youngs Moduli (GPa) = 111.06377 9.32752 89.93157
#
# Poissons Ratio (x) = 0.12595 0.24070
# Poissons Ratio (y) = 1.49969 0.72373
# Poissons Ratio (z) = 0.29726 0.07506
#
# Static dielectric constant tensor:
#      x y z
#    x 3.725430 -0.000010 -0.018130 
#    y -0.000010 2.728660 0.000000 
#    z -0.018130 0.000000 3.700060 
# 
# 
# High freq. dielectric constant tensor:
#      x y z
#    x 1.754390 0.000000 0.000800 
#    y 0.000000 1.648220 0.000000 
#    z 0.000800 0.000000 1.748450 
# 
# From -- ./inp_files/367788.got.cif
#   From: 2010.06.25/outbox.cif.g09.slc.cpg/sg12_184_cif.got.tgz:367788.got - 2010.06.28 00:19:55.
