data_PCOD8081651
_publ_section_title
;
Structure prediction by ZEFSAII (Michael W. Deem and Ramdas Pophale) SiO2 
 PCOD8081651
Probable space group: C 2/M
;
_chemical_formula_sum "Si O2"
_cell_formula_units_Z 48
_cell_length_a 19.357473
_cell_length_b 9.142850
_cell_length_c 27.540303
_cell_angle_alpha 90.000000
_cell_angle_beta 33.832653
_cell_angle_gamma 90.000000
_cell_volume 2713.776638
_symmetry_space_group_name_H-M "C 2/M"
_symmetry_group_IT_number 12
_symmetry_cell_setting 'monoclinic'
loop_
_space_group_symop_operation_xyz
x,y,z
-x,y,-z
-x,-y,-z
x,-y,z
1/2+x,1/2+y,z
1/2-x,1/2+y,-z
1/2-x,1/2-y,-z
1/2+x,1/2-y,z
loop_
_atom_site_type_symbol
_atom_site_label
_atom_site_fract_x
_atom_site_fract_y
_atom_site_fract_z
Si Si1 0.060833 0.673867 0.241037
Si Si2 0.798217 0.326506 0.366251
Si Si3 0.832850 0.673655 0.720093
Si Si4 0.971930 0.832471 0.459879
Si Si5 0.865580 0.670376 0.220921
Si Si6 0.361167 0.829799 0.909092
O O1 0.057721 0.500000 0.241412
O O2 0.134846 0.730707 0.244628
O O3 0.125394 0.730675 0.153879
O O4 0.917593 0.731313 0.326730
O O5 0.801187 0.500000 0.361563
O O6 0.669642 0.275962 0.466081
O O7 0.807333 0.271090 0.305372
O O8 0.826848 0.500000 0.721354
O O9 0.698948 0.739419 0.784657
O O10 0.938728 0.727895 0.621983
O O11 0.000000 0.819669 0.500000
O O12 0.989654 0.000000 0.432136
O O13 0.835978 0.500000 0.230496
O O14 0.012698 0.699853 0.134583
O O15 0.330247 0.000000 0.926053
O O16 0.250000 0.750000 0.000000
#
# Coordination Sequence:
#
# PCOD8081651 Si02
#       6
#     8   8   8   8   8   8
#     4   8  17  33  50  71 101 135 163 195 251 306
#     4   8  14  29  51  68  89 131 179 206 228 285
#     4  11  21  31  47  74 106 133 161 206 254 291
#     4  10  18  30  50  72  95 132 179 211 238 287
#     4   9  17  33  54  73  95 132 172 200 238 295
#     4   9  18  35  60  80  97 125 164 205 244 296
#
# _framework density 17.687529000000001
#
# number of rings (size 3 to 8) (size 9 to 14) (size 15 to 20)
#    0.000    2.833    1.667    2.500    0.000    1.667 
#    0.000    2.500    0.000    8.000    0.000    0.000 
#    0.000    0.000    0.000    0.000    0.000    0.000 
#
# Total GULP energy -297465.901885 kJ/mol
# GULP energy per Si atom -12394.412579 kJ/mol
# Density = 1.764727 g / cm^3
# Si number density = 17.687529 Si / 1000 Ang^3
#
#
#
# Elastic Constant Matrix: (Units=GPa)
#
#
# Indices 1 2 3 4 5 6 
#
# 1 140.3214 44.0428 55.8051 0.0000 -8.5854 -0.0001
# 2 44.0428 46.3784 34.7571 0.0001 -6.4269 -0.0002
# 3 55.8051 34.7571 101.7147 -0.0001 -14.7063 0.0001
# 4 0.0000 0.0001 -0.0001 28.5040 0.0000 -4.2491
# 5 -8.5854 -6.4269 -14.7063 0.0000 19.9761 0.0000
# 6 -0.0001 -0.0002 0.0001 -4.2491 0.0000 23.6864
#
#
#
# Elastic Compliance Matrix: (Units=1/GPa)
#
#
# Indices 1 2 3 4 5 6 
#
# 1 0.010915 -0.007913 -0.003329 0.000000 -0.000305 0.000000
# 2 -0.007913 0.034814 -0.007193 0.000000 0.002505 0.000000
# 3 -0.003329 -0.007193 0.015191 0.000000 0.007439 0.000000
# 4 0.000000 0.000000 0.000000 0.036047 0.000000 0.006466
# 5 -0.000305 0.002505 0.007439 0.000000 0.056211 0.000000
# 6 0.000000 0.000000 0.000000 0.006466 0.000000 0.043378
#
#
# Mechanical properties :
#
#
# Convention : Reuss Voigt Hill
#
# Bulk Modulus (GPa) = 41.57824 61.95825 51.76825
# Shear Modulus (GPa) = 20.70883 24.68728 22.69805
#
# Velocity S-wave (km/s) = 3.42543 3.74002 3.58618
# Velocity P-wave (km/s) = 6.26122 7.33183 6.81757
#
# Compressibility (1/GPa) = 0.02405104
#
# Stress axis : x y z
#
# Youngs Moduli (GPa) = 91.61360 28.72405 65.82823
#
# Poissons Ratio (x) = 0.22730 0.21912
# Poissons Ratio (y) = 0.72498 0.47348
# Poissons Ratio (z) = 0.30496 0.20660
#
# Static dielectric constant tensor:
#      x y z
#    x 3.646760 0.000000 -0.145580 
#    y 0.000000 2.925390 0.000000 
#    z -0.145580 0.000000 3.321210 
# 
# 
# High freq. dielectric constant tensor:
#      x y z
#    x 1.690600 0.000000 -0.015140 
#    y 0.000000 1.648070 0.000000 
#    z -0.015140 0.000000 1.673440 
# 
# From -- ./inp_files/249369.got.cif
#   From: 2010.06.25/outbox.cif.g09.slc.cpg/sg12_125_cif.got.tgz:249369.got - 2010.06.28 00:19:55.
