data_PCOD8081935
_publ_section_title
;
Structure prediction by ZEFSAII (Michael W. Deem and Ramdas Pophale) SiO2 
 PCOD8081935
Probable space group: C 2/M
;
_chemical_formula_sum "Si O2"
_cell_formula_units_Z 64
_cell_length_a 23.541221
_cell_length_b 20.788753
_cell_length_c 13.620052
_cell_angle_alpha 90.000000
_cell_angle_beta 29.665606
_cell_angle_gamma 90.000000
_cell_volume 3299.029828
_symmetry_space_group_name_H-M "C 2/M"
_symmetry_group_IT_number 12
_symmetry_cell_setting 'monoclinic'
loop_
_space_group_symop_operation_xyz
x,y,z
-x,y,-z
-x,-y,-z
x,-y,z
1/2+x,1/2+y,z
1/2-x,1/2+y,-z
1/2-x,1/2-y,-z
1/2+x,1/2-y,z
loop_
_atom_site_type_symbol
_atom_site_label
_atom_site_fract_x
_atom_site_fract_y
_atom_site_fract_z
Si Si1 0.579992 0.806055 0.970667
Si Si2 0.141243 0.070812 0.101151
Si Si3 0.099228 0.597138 0.281482
Si Si4 0.079311 0.571645 0.094354
Si Si5 0.561319 0.704127 0.166919
Si Si6 0.168254 0.189476 0.391670
Si Si7 0.350923 0.430312 0.687639
Si Si8 0.121602 0.745406 0.275962
O O1 0.710247 0.816813 0.734708
O O2 0.500000 0.789500 0.000000
O O3 0.533689 0.871883 0.091278
O O4 0.580341 0.743635 0.039835
O O5 0.279375 0.062057 0.888028
O O6 0.093302 0.000000 0.141346
O O7 0.090107 0.127910 0.108763
O O8 0.104020 0.086099 0.270278
O O9 0.042199 0.589331 0.260181
O O10 0.127341 0.669766 0.266562
O O11 0.000000 0.568336 0.500000
O O12 0.032659 0.500000 0.134279
O O13 0.214952 0.571379 0.890953
O O14 0.428989 0.721480 0.394547
O O15 0.645887 0.727264 0.129432
O O16 0.108987 0.121237 0.452597
O O17 0.205823 0.226631 0.233641
O O18 0.397358 0.500000 0.585237
O O19 0.000000 0.770617 0.500000
#
# Coordination Sequence:
#
# PCOD8081935 Si02
#       8
#     8   8   8   8   8   8   8   8
#     4  11  24  40  58  79 104 144 192 234 274 317
#     4  10  20  31  49  81 117 150 181 215 265 331
#     4  10  18  30  52  81 119 154 178 212 265 332
#     4   9  18  33  52  78 110 141 175 221 271 319
#     4  11  21  36  57  81 112 144 181 229 272 331
#     4  10  20  34  56  82 110 145 175 222 283 329
#     4   8  15  28  48  78 114 143 169 208 265 333
#     4   9  17  29  51  84 110 139 176 212 271 333
#
# _framework density 19.399643999999999
#
# number of rings (size 3 to 8) (size 9 to 14) (size 15 to 20)
#    0.000    2.250    2.500    1.875    0.000    3.250 
#    0.000    1.250    0.000    0.375    0.000    0.000 
#    0.000    0.000    0.000    0.000    0.000    0.000 
#
# Total GULP energy -396533.126344 kJ/mol
# GULP energy per Si atom -12391.660198 kJ/mol
# Density = 1.935549 g / cm^3
# Si number density = 19.399644 Si / 1000 Ang^3
#
#
#
# Elastic Constant Matrix: (Units=GPa)
#
#
# Indices 1 2 3 4 5 6 
#
# 1 90.4599 41.0573 22.1834 0.0002 -3.9608 -0.0001
# 2 41.0573 128.5259 3.2631 0.0002 3.1635 -0.0001
# 3 22.1834 3.2631 42.2336 0.0006 -0.4288 -0.0003
# 4 0.0002 0.0002 0.0006 2.0389 -0.0002 -5.7234
# 5 -3.9608 3.1635 -0.4288 -0.0002 17.2345 0.0000
# 6 -0.0001 -0.0001 -0.0003 -5.7234 0.0000 13.5132
#
#
#
# Elastic Compliance Matrix: (Units=1/GPa)
#
#
# Indices 1 2 3 4 5 6 
#
# 1 0.015280 -0.004791 -0.007613 -0.000008 0.004202 -0.000004
# 2 -0.004791 0.009334 0.001767 0.000005 -0.002771 0.000002
# 3 -0.007613 0.001767 0.027526 0.000037 -0.001389 0.000016
# 4 -0.000008 0.000005 0.000037 -2.596063 -0.000024 -1.099545
# 5 0.004202 -0.002771 -0.001389 -0.000024 0.059463 -0.000011
# 6 -0.000004 0.000002 0.000016 -1.099545 -0.000011 -0.391703
#
#
# Mechanical properties :
#
#
# Convention : Reuss Voigt Hill
#
# Bulk Modulus (GPa) = 32.39775 43.80301 38.10038
# Shear Modulus (GPa) = -1.75772 19.53835 8.89032
#
# Velocity S-wave (km/s) = -0.95290 3.17701 2.14305
# Velocity P-wave (km/s) = 3.94027 6.00717 5.07995
#
# Compressibility (1/GPa) = 0.03086634
#
# Stress axis : x y z
#
# Youngs Moduli (GPa) = 65.44401 107.13002 36.32926
#
# Poissons Ratio (x) = 0.51330 0.27658
# Poissons Ratio (y) = 0.31357 -0.06421
# Poissons Ratio (z) = 0.49824 -0.18934
#
# Static dielectric constant tensor:
#      x y z
#    x 3.071260 0.000000 -0.075410 
#    y 0.000000 3.977010 0.000000 
#    z -0.075410 0.000000 3.616480 
# 
# 
# High freq. dielectric constant tensor:
#      x y z
#    x 1.687560 0.000000 -0.017830 
#    y 0.000000 1.773890 0.000000 
#    z -0.017830 0.000000 1.760910 
# 
# From -- ./inp_files/169672.got.cif
#   From: 2010.06.25/outbox.cif.g09.slc.cpg/sg12_85_cif.got.tgz:169672.got - 2010.06.28 00:19:55.
