data_PCOD8081932
_publ_section_title
;
Structure prediction by ZEFSAII (Michael W. Deem and Ramdas Pophale) SiO2 
 PCOD8081932
Probable space group: C 2/M
;
_chemical_formula_sum "Si O2"
_cell_formula_units_Z 64
_cell_length_a 28.113355
_cell_length_b 13.325958
_cell_length_c 14.973680
_cell_angle_alpha 90.000000
_cell_angle_beta 38.723788
_cell_angle_gamma 90.000000
_cell_volume 3509.241299
_symmetry_space_group_name_H-M "C 2/M"
_symmetry_group_IT_number 12
_symmetry_cell_setting 'monoclinic'
loop_
_space_group_symop_operation_xyz
x,y,z
-x,y,-z
-x,-y,-z
x,-y,z
1/2+x,1/2+y,z
1/2-x,1/2+y,-z
1/2-x,1/2-y,-z
1/2+x,1/2-y,z
loop_
_atom_site_type_symbol
_atom_site_label
_atom_site_fract_x
_atom_site_fract_y
_atom_site_fract_z
Si Si1 0.128425 0.115648 0.132193
Si Si2 0.999753 0.753068 0.602457
Si Si3 0.993235 0.616354 0.245764
Si Si4 0.677800 0.117321 0.566003
Si Si5 0.354822 0.385452 0.589136
Si Si6 0.771856 0.279847 0.331787
Si Si7 0.870140 0.264010 0.013562
Si Si8 0.750728 0.112270 0.907731
O O1 0.214328 0.131035 0.044814
O O2 0.072324 0.176288 0.278376
O O3 0.104834 0.000000 0.169874
O O4 0.120803 0.152352 0.040517
O O5 0.072981 0.815084 0.525077
O O6 0.000000 0.717016 0.500000
O O7 0.995514 0.653682 0.669282
O O8 0.014878 0.500000 0.208758
O O9 0.907509 0.635966 0.341192
O O10 0.049353 0.678319 0.097615
O O11 0.737110 0.173772 0.414205
O O12 0.683036 0.163338 0.656834
O O13 0.698960 0.000000 0.534595
O O14 0.379128 0.500000 0.535755
O O15 0.294269 0.353915 0.602941
O O16 0.319349 0.371284 0.738303
O O17 0.831966 0.258068 0.165547
O O18 0.819569 0.316917 0.010916
O O19 0.718509 0.000000 0.946384
#
# Coordination Sequence:
#
# PCOD8081932 Si02
#       8
#     8   8   8   8   8   8   8   8
#     4  10  20  32  49  76 108 148 192 228 274 328
#     4  11  20  33  54  80 113 151 189 230 276 326
#     4  10  22  39  57  83 116 151 188 231 282 334
#     4  10  21  39  63  86 111 142 185 237 287 339
#     4  10  18  30  52  81 110 140 183 230 277 323
#     4  10  21  38  59  86 111 141 187 233 287 335
#     4  10  21  35  55  77 114 149 183 231 278 337
#     4   9  17  30  49  74 104 142 188 231 269 317
#
# _framework density 18.237560999999999
#
# number of rings (size 3 to 8) (size 9 to 14) (size 15 to 20)
#    0.000    2.000    2.500    1.500    0.000    3.250 
#    0.000    1.250    0.000    0.000    0.000    3.500 
#    0.000    0.000    0.000    0.000    0.000    0.000 
#
# Total GULP energy -396803.451837 kJ/mol
# GULP energy per Si atom -12400.107870 kJ/mol
# Density = 1.819605 g / cm^3
# Si number density = 18.237561 Si / 1000 Ang^3
#
#
#
# Elastic Constant Matrix: (Units=GPa)
#
#
# Indices 1 2 3 4 5 6 
#
# 1 88.4524 47.0935 44.0940 0.0000 8.7146 0.0000
# 2 47.0935 86.7874 33.6947 0.0000 3.1775 0.0000
# 3 44.0940 33.6947 94.1421 0.0000 11.1592 0.0000
# 4 0.0000 0.0000 0.0000 17.1507 0.0000 -4.6816
# 5 8.7146 3.1775 11.1592 0.0000 27.3996 0.0000
# 6 0.0000 0.0000 0.0000 -4.6816 0.0000 26.1076
#
#
#
# Elastic Compliance Matrix: (Units=1/GPa)
#
#
# Indices 1 2 3 4 5 6 
#
# 1 0.018478 -0.007772 -0.005551 0.000000 -0.002715 0.000000
# 2 -0.007772 0.016656 -0.002506 0.000000 0.001561 0.000000
# 3 -0.005551 -0.002506 0.014579 0.000000 -0.003882 0.000000
# 4 0.000000 0.000000 0.000000 0.061307 0.000000 0.010994
# 5 -0.002715 0.001561 -0.003882 0.000000 0.038760 0.000000
# 6 0.000000 0.000000 0.000000 0.010994 0.000000 0.040274
#
#
# Mechanical properties :
#
#
# Convention : Reuss Voigt Hill
#
# Bulk Modulus (GPa) = 55.38814 57.68291 56.53553
# Shear Modulus (GPa) = 21.95556 23.76489 22.86022
#
# Velocity S-wave (km/s) = 3.47344 3.61373 3.54428
# Velocity P-wave (km/s) = 6.82075 7.00781 6.91491
#
# Compressibility (1/GPa) = 0.01805441
#
# Stress axis : x y z
#
# Youngs Moduli (GPa) = 54.11712 60.03966 68.59022
#
# Poissons Ratio (x) = 0.46665 0.38076
# Poissons Ratio (y) = 0.42062 0.17188
# Poissons Ratio (z) = 0.30042 0.15046
#
# Static dielectric constant tensor:
#      x y z
#    x 3.369150 0.000000 -0.039980 
#    y 0.000000 3.386460 0.000000 
#    z -0.039980 0.000000 3.287630 
# 
# 
# High freq. dielectric constant tensor:
#      x y z
#    x 1.707730 0.000000 -0.008530 
#    y 0.000000 1.709430 0.000000 
#    z -0.008530 0.000000 1.700930 
# 
# From -- ./inp_files/232476.got.cif
#   From: 2010.06.25/outbox.cif.g09.slc.cpg/sg12_117_cif.got.tgz:232476.got - 2010.06.28 00:19:55.
