data_PCOD8081355
_publ_section_title
;
Structure prediction by ZEFSAII (Michael W. Deem and Ramdas Pophale) SiO2 
 PCOD8081355
Probable space group: C 2/M
;
_chemical_formula_sum "Si O2"
_cell_formula_units_Z 48
_cell_length_a 22.886102
_cell_length_b 8.581562
_cell_length_c 20.061295
_cell_angle_alpha 90.000000
_cell_angle_beta 137.086921
_cell_angle_gamma 90.000000
_cell_volume 2682.704655
_symmetry_space_group_name_H-M "C 2/M"
_symmetry_group_IT_number 12
_symmetry_cell_setting 'monoclinic'
loop_
_space_group_symop_operation_xyz
x,y,z
-x,y,-z
-x,-y,-z
x,-y,z
1/2+x,1/2+y,z
1/2-x,1/2+y,-z
1/2-x,1/2-y,-z
1/2+x,1/2-y,z
loop_
_atom_site_type_symbol
_atom_site_label
_atom_site_fract_x
_atom_site_fract_y
_atom_site_fract_z
Si Si1 0.806545 0.684339 0.987507
Si Si2 0.444962 0.318215 0.183533
Si Si3 0.095297 0.314667 0.590279
Si Si4 0.874657 0.320011 0.648807
Si Si5 0.793361 0.682318 0.440613
Si Si6 0.335336 0.184256 0.210818
O O1 0.812098 0.500000 0.993795
O O2 0.759091 0.741014 0.880578
O O3 0.750000 0.750000 0.000000
O O4 0.901306 0.756255 0.078145
O O5 0.427093 0.500000 0.176483
O O6 0.545462 0.284695 0.262668
O O7 0.405022 0.231238 0.213832
O O8 0.091137 0.500000 0.586378
O O9 0.156240 0.255822 0.581776
O O10 0.132389 0.252753 0.691076
O O11 0.000000 0.245746 0.500000
O O12 0.898599 0.500000 0.678217
O O13 0.852227 0.281436 0.553648
O O14 0.795046 0.277045 0.629524
O O15 0.771578 0.500000 0.418309
O O16 0.325641 0.000000 0.202451
#
# Coordination Sequence:
#
# PCOD8081355 Si02
#       6
#     8   8   8   8   8   8
#     4  10  18  30  47  69  98 128 160 199 245 290
#     4  11  20  31  49  73  99 127 163 203 245 290
#     4   9  17  30  50  74 100 132 165 195 231 283
#     4  10  19  32  51  73  98 128 163 204 246 285
#     4   9  18  33  51  72  99 131 166 199 236 285
#     4  10  18  30  49  73 101 131 163 199 241 286
#
# _framework density 17.892389999999999
#
# number of rings (size 3 to 8) (size 9 to 14) (size 15 to 20)
#    0.000    2.167    0.000    7.000    0.000    3.333 
#    0.000    1.667    0.000    4.500    0.000    7.000 
#    0.000    0.000    0.000    0.000    0.000    0.000 
#
# Total GULP energy -297589.966288 kJ/mol
# GULP energy per Si atom -12399.581929 kJ/mol
# Density = 1.785167 g / cm^3
# Si number density = 17.892390 Si / 1000 Ang^3
#
#
#
# Elastic Constant Matrix: (Units=GPa)
#
#
# Indices 1 2 3 4 5 6 
#
# 1 87.6418 12.4887 58.9188 0.0000 -0.6423 0.0000
# 2 12.4887 70.8474 37.2916 0.0000 4.7138 0.0000
# 3 58.9188 37.2916 154.5354 0.0000 4.8228 0.0000
# 4 0.0000 0.0000 0.0000 28.0775 0.0000 5.1644
# 5 -0.6423 4.7138 4.8228 0.0000 23.9434 0.0000
# 6 0.0000 0.0000 0.0000 5.1644 0.0000 21.7725
#
#
#
# Elastic Compliance Matrix: (Units=1/GPa)
#
#
# Indices 1 2 3 4 5 6 
#
# 1 0.015411 0.000342 -0.006007 0.000000 0.001556 0.000000
# 2 0.000342 0.016316 -0.003993 0.000000 -0.002399 0.000000
# 3 -0.006007 -0.003993 0.009766 0.000000 -0.001342 0.000000
# 4 0.000000 0.000000 0.000000 0.037241 0.000000 -0.008833
# 5 0.001556 -0.002399 -0.001342 0.000000 0.042549 0.000000
# 6 0.000000 0.000000 0.000000 -0.008833 0.000000 0.048025
#
#
# Mechanical properties :
#
#
# Convention : Reuss Voigt Hill
#
# Bulk Modulus (GPa) = 45.08999 58.93587 52.01293
# Shear Modulus (GPa) = 25.50815 28.38039 26.94427
#
# Velocity S-wave (km/s) = 3.77986 3.98700 3.88481
# Velocity P-wave (km/s) = 6.65621 7.36243 7.01821
#
# Compressibility (1/GPa) = 0.02217787
#
# Stress axis : x y z
#
# Youngs Moduli (GPa) = 64.88935 61.29028 102.39112
#
# Poissons Ratio (x) = -0.02093 0.61502
# Poissons Ratio (y) = -0.02216 0.40881
# Poissons Ratio (z) = 0.38976 0.24471
#
# Static dielectric constant tensor:
#      x y z
#    x 3.095380 0.000000 0.050970 
#    y 0.000000 3.200300 0.000000 
#    z 0.050970 0.000000 3.907340 
# 
# 
# High freq. dielectric constant tensor:
#      x y z
#    x 1.656690 0.000000 0.011570 
#    y 0.000000 1.689800 0.000000 
#    z 0.011570 0.000000 1.706620 
# 
# From -- ./inp_files/323872.got.cif
#   From: 2010.06.25/outbox.cif.g09.slc.cpg/sg12_162_cif.got.tgz:323872.got - 2010.06.28 00:19:55.
