data_PCOD8081427
_publ_section_title
;
Structure prediction by ZEFSAII (Michael W. Deem and Ramdas Pophale) SiO2 
 PCOD8081427
Probable space group: C 2/M
;
_chemical_formula_sum "Si O2"
_cell_formula_units_Z 48
_cell_length_a 27.608228
_cell_length_b 9.082203
_cell_length_c 11.863496
_cell_angle_alpha 90.000000
_cell_angle_beta 70.530937
_cell_angle_gamma 90.000000
_cell_volume 2804.606566
_symmetry_space_group_name_H-M "C 2/M"
_symmetry_group_IT_number 12
_symmetry_cell_setting 'monoclinic'
loop_
_space_group_symop_operation_xyz
x,y,z
-x,y,-z
-x,-y,-z
x,-y,z
1/2+x,1/2+y,z
1/2-x,1/2+y,-z
1/2-x,1/2-y,-z
1/2+x,1/2-y,z
loop_
_atom_site_type_symbol
_atom_site_label
_atom_site_fract_x
_atom_site_fract_y
_atom_site_fract_z
Si Si1 0.457925 0.833868 0.861567
Si Si2 0.870120 0.331344 0.103872
Si Si3 0.556939 0.174814 0.495257
Si Si4 0.607327 0.328249 0.260054
Si Si5 0.070469 0.672285 0.735998
Si Si6 0.696314 0.326762 0.022146
O O1 0.439376 0.718791 0.783012
O O2 0.516851 0.793772 0.841200
O O3 0.454108 0.000000 0.813364
O O4 0.424881 0.821677 0.999531
O O5 0.850089 0.500000 0.120347
O O6 0.882595 0.269894 0.220717
O O7 0.827823 0.231180 0.076155
O O8 0.500000 0.226042 0.500000
O O9 0.601533 0.242330 0.382019
O O10 0.569288 0.238402 0.610691
O O11 0.560818 0.000000 0.488114
O O12 0.604255 0.500000 0.286920
O O13 0.660488 0.285602 0.156446
O O14 0.078836 0.500000 0.719194
O O15 0.703935 0.500000 0.004564
O O16 0.750000 0.250000 0.000000
#
# Coordination Sequence:
#
# PCOD8081427 Si02
#       6
#     8   8   8   8   8   8
#     4   9  15  27  46  68  97 133 169 200 233 284
#     4   9  17  29  49  74  99 128 162 202 249 294
#     4  10  18  30  48  70 101 140 177 205 228 273
#     4  10  20  32  47  72 102 129 163 206 249 291
#     4   9  16  27  45  71 101 134 170 202 232 277
#     4  10  21  37  56  76  97 122 158 208 259 304
#
# _framework density 17.114699000000002
#
# number of rings (size 3 to 8) (size 9 to 14) (size 15 to 20)
#    0.000    2.500    1.667    1.500    0.000    4.333 
#    0.000    1.667    0.000    5.000    0.000    0.000 
#    0.000    0.000    0.000    0.000    0.000    0.000 
#
# Total GULP energy -297437.292558 kJ/mol
# GULP energy per Si atom -12393.220523 kJ/mol
# Density = 1.707575 g / cm^3
# Si number density = 17.114699 Si / 1000 Ang^3
#
#
#
# Elastic Constant Matrix: (Units=GPa)
#
#
# Indices 1 2 3 4 5 6 
#
# 1 121.3194 43.4909 65.6848 0.0000 15.8639 0.0000
# 2 43.4909 47.8195 37.0682 0.0000 3.6525 0.0000
# 3 65.6848 37.0682 95.5727 0.0000 20.0431 0.0000
# 4 0.0000 0.0000 0.0000 22.7930 0.0000 -2.2548
# 5 15.8639 3.6525 20.0431 0.0000 22.1400 0.0000
# 6 0.0000 0.0000 0.0000 -2.2548 0.0000 20.6039
#
#
#
# Elastic Compliance Matrix: (Units=1/GPa)
#
#
# Indices 1 2 3 4 5 6 
#
# 1 0.015289 -0.008702 -0.006340 0.000000 -0.003780 0.000000
# 2 -0.008702 0.035726 -0.009810 0.000000 0.009222 0.000000
# 3 -0.006340 -0.009810 0.021395 0.000000 -0.013208 0.000000
# 4 0.000000 0.000000 0.000000 0.044353 0.000000 0.004854
# 5 -0.003780 0.009222 -0.013208 0.000000 0.058311 0.000000
# 6 0.000000 0.000000 0.000000 0.004854 0.000000 0.049066
#
#
# Mechanical properties :
#
#
# Convention : Reuss Voigt Hill
#
# Bulk Modulus (GPa) = 44.03971 61.91105 52.97538
# Shear Modulus (GPa) = 17.76747 21.00522 19.38634
#
# Velocity S-wave (km/s) = 3.22551 3.50711 3.36926
# Velocity P-wave (km/s) = 6.29761 7.25621 6.79384
#
# Compressibility (1/GPa) = 0.02270678
#
# Stress axis : x y z
#
# Youngs Moduli (GPa) = 65.40633 27.99070 46.73907
#
# Poissons Ratio (x) = 0.24357 0.29633
# Poissons Ratio (y) = 0.56915 0.45851
# Poissons Ratio (z) = 0.41468 0.27459
#
# Static dielectric constant tensor:
#      x y z
#    x 3.075680 0.000000 0.191380 
#    y 0.000000 3.042010 0.000000 
#    z 0.191380 0.000000 3.459330 
# 
# 
# High freq. dielectric constant tensor:
#      x y z
#    x 1.638440 0.000000 0.013790 
#    y 0.000000 1.640420 0.000000 
#    z 0.013790 0.000000 1.657770 
# 
# From -- ./inp_files/173076.got.cif
#   From: 2010.06.25/outbox.cif.g09.slc.cpg/sg12_87_cif.got.tgz:173076.got - 2010.06.28 00:19:55.
