data_PCOD8081588
_publ_section_title
;
Structure prediction by ZEFSAII (Michael W. Deem and Ramdas Pophale) SiO2 
 PCOD8081588
Probable space group: C 2/M
;
_chemical_formula_sum "Si O2"
_cell_formula_units_Z 52
_cell_length_a 22.775810
_cell_length_b 13.287641
_cell_length_c 18.278988
_cell_angle_alpha 90.000000
_cell_angle_beta 146.622569
_cell_angle_gamma 90.000000
_cell_volume 3043.381814
_symmetry_space_group_name_H-M "C 2/M"
_symmetry_group_IT_number 12
_symmetry_cell_setting 'monoclinic'
loop_
_space_group_symop_operation_xyz
x,y,z
-x,y,-z
-x,-y,-z
x,-y,z
1/2+x,1/2+y,z
1/2-x,1/2+y,-z
1/2-x,1/2-y,-z
1/2+x,1/2-y,z
loop_
_atom_site_type_symbol
_atom_site_label
_atom_site_fract_x
_atom_site_fract_y
_atom_site_fract_z
Si Si1 0.731645 0.612376 0.248684
Si Si2 0.027284 0.228242 0.868158
Si Si3 0.337165 0.799749 0.492418
Si Si4 0.000000 0.187110 0.000000
Si Si5 0.243749 0.116468 0.096502
Si Si6 0.158276 0.116785 0.404570
Si Si7 0.043851 0.382116 0.763240
O O1 0.763448 0.500000 0.307565
O O2 0.784534 0.693760 0.357629
O O3 0.603410 0.617070 0.115019
O O4 0.776510 0.635084 0.214809
O O5 0.019217 0.332241 0.816020
O O6 0.936097 0.150746 0.747886
O O7 0.012538 0.253643 0.939140
O O8 0.140817 0.179857 0.967538
O O9 0.270121 0.865641 0.480464
O O10 0.342283 0.682548 0.521528
O O11 0.455508 0.846211 0.612951
O O12 0.341634 0.152192 0.148228
O O13 0.216280 0.000000 0.055071
O O14 0.144819 0.000000 0.411495
O O15 0.039058 0.500000 0.770036
#
# Coordination Sequence:
#
# PCOD8081588 Si02
#       7
#     8   8   8   4   8   8   8
#     4  10  18  30  49  74 102 127 155 200 250 293
#     4  10  19  32  52  73  98 127 165 205 246 283
#     4  10  20  31  48  74 100 130 160 194 245 291
#     4  10  19  30  47  74 100 124 159 204 247 294
#     4   9  19  32  50  75  99 128 164 202 248 289
#     4  10  19  32  50  73 100 128 162 200 242 289
#     4  10  20  34  49  70 101 134 166 199 238 293
#
# _framework density 17.086255999999999
#
# number of rings (size 3 to 8) (size 9 to 14) (size 15 to 20)
#    0.000    2.154    1.538    2.538    0.000    1.846 
#    0.000    2.692    0.000    3.692    0.000    4.308 
#    0.000    0.000    0.000    0.000    0.000    0.000 
#
# Total GULP energy -322388.381031 kJ/mol
# GULP energy per Si atom -12399.553117 kJ/mol
# Density = 1.704737 g / cm^3
# Si number density = 17.086256 Si / 1000 Ang^3
#
#
#
# Elastic Constant Matrix: (Units=GPa)
#
#
# Indices 1 2 3 4 5 6 
#
# 1 72.0842 36.9212 25.0705 0.0000 1.7630 0.0000
# 2 36.9212 86.5038 38.5986 0.0000 -3.8228 0.0000
# 3 25.0705 38.5986 87.8161 0.0000 -2.6744 0.0000
# 4 0.0000 0.0000 0.0000 18.7669 0.0000 1.8172
# 5 1.7630 -3.8228 -2.6744 0.0000 30.6674 0.0000
# 6 0.0000 0.0000 0.0000 1.8172 0.0000 19.1178
#
#
#
# Elastic Compliance Matrix: (Units=1/GPa)
#
#
# Indices 1 2 3 4 5 6 
#
# 1 0.018224 -0.006868 -0.002248 0.000000 -0.002100 0.000000
# 2 -0.006868 0.017016 -0.005457 0.000000 0.002040 0.000000
# 3 -0.002248 -0.005457 0.014449 0.000000 0.000709 0.000000
# 4 0.000000 0.000000 0.000000 0.053780 0.000000 -0.005112
# 5 -0.002100 0.002040 0.000709 0.000000 0.033045 0.000000
# 6 0.000000 0.000000 0.000000 -0.005112 0.000000 0.052793
#
#
# Mechanical properties :
#
#
# Convention : Reuss Voigt Hill
#
# Bulk Modulus (GPa) = 48.67481 49.73163 49.20322
# Shear Modulus (GPa) = 22.19262 23.43133 22.81197
#
# Velocity S-wave (km/s) = 3.60788 3.70720 3.65788
# Velocity P-wave (km/s) = 6.77534 6.89158 6.83371
#
# Compressibility (1/GPa) = 0.02054451
#
# Stress axis : x y z
#
# Youngs Moduli (GPa) = 54.87416 58.76679 69.20837
#
# Poissons Ratio (x) = 0.40360 0.15557
# Poissons Ratio (y) = 0.37687 0.37764
# Poissons Ratio (z) = 0.12335 0.32066
#
# Static dielectric constant tensor:
#      x y z
#    x 3.265920 0.000000 0.094850 
#    y 0.000000 2.954360 0.000000 
#    z 0.094850 0.000000 3.263250 
# 
# 
# High freq. dielectric constant tensor:
#      x y z
#    x 1.657730 0.000000 0.011660 
#    y 0.000000 1.635010 0.000000 
#    z 0.011660 0.000000 1.667440 
# 
# From -- ./inp_files/233741.got.cif
#   From: 2010.06.25/outbox.cif.g09.slc.cpg/sg12_117_cif.got.tgz:233741.got - 2010.06.28 00:19:55.
