data_PCOD8081473
_publ_section_title
;
Structure prediction by ZEFSAII (Michael W. Deem and Ramdas Pophale) SiO2 
 PCOD8081473
Probable space group: C 2/M
;
_chemical_formula_sum "Si O2"
_cell_formula_units_Z 48
_cell_length_a 19.413458
_cell_length_b 8.734415
_cell_length_c 27.923530
_cell_angle_alpha 90.000000
_cell_angle_beta 33.756759
_cell_angle_gamma 90.000000
_cell_volume 2631.011075
_symmetry_space_group_name_H-M "C 2/M"
_symmetry_group_IT_number 12
_symmetry_cell_setting 'monoclinic'
loop_
_space_group_symop_operation_xyz
x,y,z
-x,y,-z
-x,-y,-z
x,-y,z
1/2+x,1/2+y,z
1/2-x,1/2+y,-z
1/2-x,1/2-y,-z
1/2+x,1/2-y,z
loop_
_atom_site_type_symbol
_atom_site_label
_atom_site_fract_x
_atom_site_fract_y
_atom_site_fract_z
Si Si1 0.621657 0.179870 0.283551
Si Si2 0.130400 0.818592 0.593568
Si Si3 0.846792 0.818270 0.215719
Si Si4 0.797140 0.178080 0.860071
Si Si5 0.065392 0.178329 0.735084
Si Si6 0.048944 0.819925 0.024063
O O1 0.491973 0.267691 0.364602
O O2 0.709664 0.227832 0.277152
O O3 0.693912 0.224628 0.193659
O O4 0.595485 0.000000 0.298227
O O5 0.250000 0.750000 0.500000
O O6 0.121274 0.753781 0.653321
O O7 0.137574 0.000000 0.588552
O O8 0.870012 0.747602 0.255339
O O9 0.951299 0.755325 0.119086
O O10 0.859993 0.000000 0.208964
O O11 0.918159 0.209054 0.822624
O O12 0.788114 0.000000 0.851536
O O13 0.678457 0.233351 0.958512
O O14 0.094450 0.000000 0.718125
O O15 0.071239 0.000000 0.016546
O O16 0.000000 0.776833 0.000000
#
# Coordination Sequence:
#
# PCOD8081473 Si02
#       6
#     8   8   8   8   8   8
#     4  10  18  32  55  78 100 132 171 208 251 299
#     4  10  20  36  58  81 103 129 164 204 249 305
#     4   9  17  31  51  73 101 135 171 212 252 295
#     4  10  19  31  48  72 103 138 175 214 252 296
#     4   8  17  33  51  73 101 132 167 208 253 300
#     4  10  18  30  48  73 100 134 179 217 249 291
#
# _framework density 18.243938
#
# number of rings (size 3 to 8) (size 9 to 14) (size 15 to 20)
#    0.000    2.500    1.667    2.500    0.000    1.000 
#    0.000    0.833    0.000   22.000    0.000    0.000 
#    0.000    0.000    0.000    0.000    0.000    0.000 
#
# Total GULP energy -297539.009511 kJ/mol
# GULP energy per Si atom -12397.458730 kJ/mol
# Density = 1.820241 g / cm^3
# Si number density = 18.243938 Si / 1000 Ang^3
#
#
#
# Elastic Constant Matrix: (Units=GPa)
#
#
# Indices 1 2 3 4 5 6 
#
# 1 147.4488 30.3244 73.4001 0.0115 -9.1700 -0.0162
# 2 30.3244 44.9297 32.5024 0.0115 -4.8035 -0.0061
# 3 73.4001 32.5024 154.9162 0.0053 -9.4516 -0.0096
# 4 0.0115 0.0115 0.0053 31.4305 -0.0078 -5.9143
# 5 -9.1700 -4.8035 -9.4516 -0.0078 20.4430 0.0133
# 6 -0.0162 -0.0061 -0.0096 -5.9143 0.0133 17.4955
#
#
#
# Elastic Compliance Matrix: (Units=1/GPa)
#
#
# Indices 1 2 3 4 5 6 
#
# 1 0.009419 -0.003561 -0.003611 0.000000 0.001719 0.000004
# 2 -0.003561 0.027865 -0.003969 -0.000008 0.003115 -0.000001
# 3 -0.003611 -0.003969 0.009099 0.000002 0.001655 0.000000
# 4 0.000000 -0.000008 0.000002 0.033978 0.000004 0.011486
# 5 0.001719 0.003115 0.001655 0.000004 0.051185 -0.000034
# 6 0.000004 -0.000001 0.000000 0.011486 -0.000034 0.061040
#
#
# Mechanical properties :
#
#
# Convention : Reuss Voigt Hill
#
# Bulk Modulus (GPa) = 41.49113 68.86095 55.17604
# Shear Modulus (GPa) = 22.43154 27.94498 25.18826
#
# Velocity S-wave (km/s) = 3.51027 3.91799 3.71972
# Velocity P-wave (km/s) = 6.26268 7.63505 6.98266
#
# Compressibility (1/GPa) = 0.02410154
#
# Stress axis : x y z
#
# Youngs Moduli (GPa) = 106.17215 35.88772 109.89667
#
# Poissons Ratio (x) = 0.12781 0.39679
# Poissons Ratio (y) = 0.37811 0.43616
# Poissons Ratio (z) = 0.38334 0.14243
#
# Static dielectric constant tensor:
#      x y z
#    x 3.727400 -0.000020 0.027630 
#    y -0.000020 3.096900 -0.000020 
#    z 0.027630 -0.000020 3.423580 
# 
# 
# High freq. dielectric constant tensor:
#      x y z
#    x 1.703200 0.000000 -0.012650 
#    y 0.000000 1.682260 0.000000 
#    z -0.012650 0.000000 1.702290 
# 
# From -- ./inp_files/273595.got.cif
#   From: 2010.06.25/outbox.cif.g09.slc.cpg/sg12_137_cif.got.tgz:273595.got - 2010.06.28 00:19:55.
