data_PCOD8081706
_publ_section_title
;
Structure prediction by ZEFSAII (Michael W. Deem and Ramdas Pophale) SiO2 
 PCOD8081706
Probable space group: C 2/M
;
_chemical_formula_sum "Si O2"
_cell_formula_units_Z 56
_cell_length_a 29.636055
_cell_length_b 9.111343
_cell_length_c 21.722857
_cell_angle_alpha 90.000000
_cell_angle_beta 31.114776
_cell_angle_gamma 90.000000
_cell_volume 3031.123917
_symmetry_space_group_name_H-M "C 2/M"
_symmetry_group_IT_number 12
_symmetry_cell_setting 'monoclinic'
loop_
_space_group_symop_operation_xyz
x,y,z
-x,y,-z
-x,-y,-z
x,-y,z
1/2+x,1/2+y,z
1/2-x,1/2+y,-z
1/2-x,1/2-y,-z
1/2+x,1/2-y,z
loop_
_atom_site_type_symbol
_atom_site_label
_atom_site_fract_x
_atom_site_fract_y
_atom_site_fract_z
Si Si1 0.421546 0.829073 0.357465
Si Si2 0.770032 0.174598 0.192556
Si Si3 0.726025 0.328389 0.122800
Si Si4 0.776155 0.328824 0.619495
Si Si5 0.466160 0.673402 0.975454
Si Si6 0.875264 0.173525 0.291886
Si Si7 0.118265 0.328543 0.148130
O O1 0.371594 0.795941 0.479963
O O2 0.368425 0.746049 0.366566
O O3 0.520877 0.773512 0.246379
O O4 0.418568 0.000000 0.344931
O O5 0.718429 0.251671 0.197727
O O6 0.729149 0.232571 0.304774
O O7 0.761941 0.000000 0.194282
O O8 0.869788 0.231020 0.072827
O O9 0.709707 0.500000 0.149532
O O10 0.649704 0.262877 0.169963
O O11 0.820216 0.294913 0.982181
O O12 0.755794 0.500000 0.647791
O O13 0.700789 0.262444 0.663383
O O14 0.462799 0.500000 0.987046
O O15 0.531303 0.720093 0.845177
O O16 0.500000 0.742736 0.000000
O O17 0.866185 0.000000 0.310411
O O18 0.120014 0.500000 0.163375
#
# Coordination Sequence:
#
# PCOD8081706 Si02
#       7
#     8   8   8   8   8   8   8
#     4  10  20  34  51  72 100 132 167 206 247 289
#     4  10  18  31  52  75 101 134 169 201 241 290
#     4  10  20  34  54  78 101 123 156 206 258 301
#     4   9  18  32  50  72 100 136 173 203 232 285
#     4   9  15  26  47  73  99 128 164 203 236 275
#     4  10  18  30  50  75 101 132 171 207 241 284
#     4   9  19  36  55  74  98 128 163 202 247 300
#
# _framework density 18.474995
#
# number of rings (size 3 to 8) (size 9 to 14) (size 15 to 20)
#    0.000    2.429    1.429    1.714    0.000    1.143 
#    0.000    2.143    0.000    5.143    0.000    0.000 
#    0.000    0.000    0.000    0.000    0.000    0.000 
#
# Total GULP energy -347192.236372 kJ/mol
# GULP energy per Si atom -12399.722728 kJ/mol
# Density = 1.843295 g / cm^3
# Si number density = 18.474995 Si / 1000 Ang^3
#
#
#
# Elastic Constant Matrix: (Units=GPa)
#
#
# Indices 1 2 3 4 5 6 
#
# 1 135.0108 43.2415 52.2028 -0.0007 18.1040 0.0001
# 2 43.2415 40.0006 25.1530 0.0096 7.1310 -0.0009
# 3 52.2028 25.1530 88.8754 0.0044 8.9504 -0.0013
# 4 -0.0007 0.0096 0.0044 14.1508 -0.0004 3.5428
# 5 18.1040 7.1310 8.9504 -0.0004 27.5299 -0.0007
# 6 0.0001 -0.0009 -0.0013 3.5428 -0.0007 26.8138
#
#
#
# Elastic Compliance Matrix: (Units=1/GPa)
#
#
# Indices 1 2 3 4 5 6 
#
# 1 0.013042 -0.010668 -0.004193 0.000010 -0.004450 -0.000002
# 2 -0.010668 0.039891 -0.004848 -0.000027 -0.001741 0.000005
# 3 -0.004193 -0.004848 0.015179 -0.000002 -0.000922 0.000001
# 4 0.000010 -0.000027 -0.000002 0.073085 0.000002 -0.009656
# 5 -0.004450 -0.001741 -0.000922 0.000002 0.040001 0.000001
# 6 -0.000002 0.000005 0.000001 -0.009656 0.000001 0.038570
#
#
# Mechanical properties :
#
#
# Convention : Reuss Voigt Hill
#
# Bulk Modulus (GPa) = 34.85104 56.12015 45.48560
# Shear Modulus (GPa) = 18.60453 23.25153 20.92803
#
# Velocity S-wave (km/s) = 3.17679 3.55144 3.36933
# Velocity P-wave (km/s) = 5.68866 6.87453 6.30952
#
# Compressibility (1/GPa) = 0.02869355
#
# Stress axis : x y z
#
# Youngs Moduli (GPa) = 76.67776 25.06803 65.87882
#
# Poissons Ratio (x) = 0.26744 0.27622
# Poissons Ratio (y) = 0.81804 0.31939
# Poissons Ratio (z) = 0.32149 0.12153
#
# Static dielectric constant tensor:
#      x y z
#    x 3.387350 0.000000 0.031630 
#    y 0.000000 2.999910 0.000010 
#    z 0.031630 0.000010 3.475090 
# 
# 
# High freq. dielectric constant tensor:
#      x y z
#    x 1.718530 0.000000 0.005450 
#    y 0.000000 1.678990 0.000000 
#    z 0.005450 0.000000 1.717300 
# 
# From -- ./inp_files/329444.got.cif
#   From: 2010.06.25/outbox.cif.g09.slc.cpg/sg12_165_cif.got.tgz:329444.got - 2010.06.28 00:19:55.
