data_PCOD8081553
_publ_section_title
;
Structure prediction by ZEFSAII (Michael W. Deem and Ramdas Pophale) SiO2 
 PCOD8081553
Probable space group: C 2/M
;
_chemical_formula_sum "Si O2"
_cell_formula_units_Z 56
_cell_length_a 18.538813
_cell_length_b 13.747315
_cell_length_c 14.654936
_cell_angle_alpha 90.000000
_cell_angle_beta 69.362800
_cell_angle_gamma 90.000000
_cell_volume 3495.273106
_symmetry_space_group_name_H-M "C 2/M"
_symmetry_group_IT_number 12
_symmetry_cell_setting 'monoclinic'
loop_
_space_group_symop_operation_xyz
x,y,z
-x,y,-z
-x,-y,-z
x,-y,z
1/2+x,1/2+y,z
1/2-x,1/2+y,-z
1/2-x,1/2-y,-z
1/2+x,1/2-y,z
loop_
_atom_site_type_symbol
_atom_site_label
_atom_site_fract_x
_atom_site_fract_y
_atom_site_fract_z
Si Si1 0.918142 0.386073 0.507024
Si Si2 0.417328 0.778264 0.989267
Si Si3 0.407416 0.886928 0.821658
Si Si4 0.006065 0.105899 0.105454
Si Si5 0.299544 0.115902 0.710413
Si Si6 0.358112 0.724448 0.200188
Si Si7 0.920626 0.385446 0.297595
O O1 0.925901 0.500000 0.519944
O O2 0.849480 0.347975 0.601653
O O3 0.898030 0.362180 0.411658
O O4 0.000000 0.338121 0.500000
O O5 0.388598 0.864345 0.936214
O O6 0.425754 0.685651 0.915306
O O7 0.500000 0.802888 0.000000
O O8 0.354941 0.758816 0.095681
O O9 0.342781 0.845419 0.782178
O O10 0.492280 0.848770 0.757989
O O11 0.407522 0.000000 0.805623
O O12 0.927677 0.147931 0.183994
O O13 0.024931 0.000000 0.141407
O O14 0.000000 0.092793 0.000000
O O15 0.218774 0.169476 0.738536
O O16 0.285934 0.000000 0.717276
O O17 0.365706 0.821004 0.258244
O O18 0.909923 0.500000 0.279098
#
# Coordination Sequence:
#
# PCOD8081553 Si02
#       7
#     8   8   8   8   8   8   8
#     4   9  16  29  49  72  95 119 152 195 241 285
#     4   9  17  29  44  69  94 126 161 191 228 274
#     4  10  18  30  49  72  95 123 160 196 234 281
#     4   8  14  26  43  62  87 121 158 188 219 262
#     4  10  20  32  49  72  97 122 152 200 248 278
#     4  10  19  30  45  70  99 127 154 194 235 277
#     4  10  18  30  50  72  95 125 160 194 234 284
#
# _framework density 16.021637999999999
#
# number of rings (size 3 to 8) (size 9 to 14) (size 15 to 20)
#    0.000    2.857    4.286    0.429    0.000    2.571 
#    0.000    0.000    0.000    0.857    0.000    0.000 
#    0.000    4.000    0.000    0.000    0.000    0.000 
#
# Total GULP energy -346919.126083 kJ/mol
# GULP energy per Si atom -12389.968789 kJ/mol
# Density = 1.598517 g / cm^3
# Si number density = 16.021638 Si / 1000 Ang^3
#
#
#
# Elastic Constant Matrix: (Units=GPa)
#
#
# Indices 1 2 3 4 5 6 
#
# 1 74.6545 39.3304 46.9791 0.0000 -10.6685 0.0000
# 2 39.3304 43.4017 33.7881 0.0000 4.5359 0.0000
# 3 46.9791 33.7881 103.8068 0.0000 -12.2953 0.0000
# 4 0.0000 0.0000 0.0000 11.1813 0.0000 -1.0176
# 5 -10.6685 4.5359 -12.2953 0.0000 22.2519 0.0000
# 6 0.0000 0.0000 0.0000 -1.0176 0.0000 11.7052
#
#
#
# Elastic Compliance Matrix: (Units=1/GPa)
#
#
# Indices 1 2 3 4 5 6 
#
# 1 0.035081 -0.031725 -0.002987 0.000000 0.021635 0.000000
# 2 -0.031725 0.063295 -0.010244 0.000000 -0.033773 0.000000
# 3 -0.002987 -0.010244 0.015406 0.000000 0.009168 0.000000
# 4 0.000000 0.000000 0.000000 0.090148 0.000000 0.007837
# 5 0.021635 -0.033773 0.009168 0.000000 0.067263 0.000000
# 6 0.000000 0.000000 0.000000 0.007837 0.000000 0.086114
#
#
# Mechanical properties :
#
#
# Convention : Reuss Voigt Hill
#
# Bulk Modulus (GPa) = 41.89897 51.33980 46.61938
# Shear Modulus (GPa) = 10.98478 15.81205 13.39842
#
# Velocity S-wave (km/s) = 2.62128 3.14493 2.89497
# Velocity P-wave (km/s) = 5.94725 6.73061 6.35102
#
# Compressibility (1/GPa) = 0.02386694
#
# Stress axis : x y z
#
# Youngs Moduli (GPa) = 28.50578 15.79912 64.91151
#
# Poissons Ratio (x) = 0.50123 0.19391
# Poissons Ratio (y) = 0.90436 0.66497
# Poissons Ratio (z) = 0.08515 0.16185
#
# Static dielectric constant tensor:
#      x y z
#    x 2.820490 0.000000 -0.072530 
#    y 0.000000 3.292900 0.000000 
#    z -0.072530 0.000000 3.115800 
# 
# 
# High freq. dielectric constant tensor:
#      x y z
#    x 1.585170 0.000000 -0.009550 
#    y 0.000000 1.595650 0.000000 
#    z -0.009550 0.000000 1.616260 
# 
# From -- ./inp_files/224317.got.cif
#   From: 2010.06.25/outbox.cif.g09.slc.cpg/sg12_113_cif.got.tgz:224317.got - 2010.06.28 00:19:55.
