data_PCOD8081220
_publ_section_title
;
Structure prediction by ZEFSAII (Michael W. Deem and Ramdas Pophale) SiO2 
 PCOD8081220
Probable space group: C 2/M
;
_chemical_formula_sum "Si O2"
_cell_formula_units_Z 56
_cell_length_a 22.068403
_cell_length_b 17.322325
_cell_length_c 13.608305
_cell_angle_alpha 90.000000
_cell_angle_beta 140.397072
_cell_angle_gamma 90.000000
_cell_volume 3316.166700
_symmetry_space_group_name_H-M "C 2/M"
_symmetry_group_IT_number 12
_symmetry_cell_setting 'monoclinic'
loop_
_space_group_symop_operation_xyz
x,y,z
-x,y,-z
-x,-y,-z
x,-y,z
1/2+x,1/2+y,z
1/2-x,1/2+y,-z
1/2-x,1/2-y,-z
1/2+x,1/2-y,z
loop_
_atom_site_type_symbol
_atom_site_label
_atom_site_fract_x
_atom_site_fract_y
_atom_site_fract_z
Si Si1 0.567333 0.588860 0.312237
Si Si2 0.047095 0.168775 0.663700
Si Si3 0.594803 0.154514 0.731578
Si Si4 0.603260 0.089598 0.529435
Si Si5 0.384656 0.411725 0.970600
Si Si6 0.717765 0.408421 0.964625
Si Si7 0.290515 0.408812 0.661720
O O1 0.571089 0.500000 0.354045
O O2 0.532484 0.641171 0.358040
O O3 0.668151 0.619628 0.392704
O O4 0.496649 0.595913 0.130099
O O5 0.073055 0.256344 0.718991
O O6 0.145380 0.119857 0.789148
O O7 0.000000 0.157819 0.500000
O O8 0.622904 0.137416 0.653557
O O9 0.500677 0.106648 0.643258
O O10 0.677514 0.129174 0.910676
O O11 0.680088 0.113016 0.541577
O O12 0.613313 0.000000 0.570002
O O13 0.352058 0.500000 0.924172
O O14 0.351732 0.371656 0.828143
O O15 0.328054 0.376217 0.992011
O O16 0.726335 0.500000 0.968611
O O17 0.306080 0.500000 0.679141
#
# Coordination Sequence:
#
# PCOD8081220 Si02
#       7
#     8   8   8   8   8   8   8
#     4   9  18  30  46  68  97 134 173 208 245 297
#     4  11  22  35  49  71 107 141 172 206 248 295
#     4  11  19  33  49  73 107 134 165 204 255 301
#     4  10  18  29  52  77 101 130 163 205 254 310
#     4   8  13  23  42  69  98 121 152 201 254 300
#     4  10  19  32  53  77  99 131 173 210 248 299
#     4   9  15  26  46  74 100 124 160 208 258 300
#
# _framework density 16.886966999999999
#
# number of rings (size 3 to 8) (size 9 to 14) (size 15 to 20)
#    0.000    2.286    2.857    3.857    0.000    2.857 
#    0.000    0.714    0.000    0.000    0.000    1.000 
#    0.000    4.571    0.000    0.000    0.000    0.000 
#
# Total GULP energy -346949.691714 kJ/mol
# GULP energy per Si atom -12391.060418 kJ/mol
# Density = 1.684853 g / cm^3
# Si number density = 16.886967 Si / 1000 Ang^3
#
#
#
# Elastic Constant Matrix: (Units=GPa)
#
#
# Indices 1 2 3 4 5 6 
#
# 1 103.3058 50.1174 46.5015 0.0000 19.9117 0.0000
# 2 50.1174 75.8999 28.1871 0.0000 2.3318 0.0000
# 3 46.5015 28.1871 94.4257 0.0000 11.3626 0.0000
# 4 0.0000 0.0000 0.0000 21.4023 0.0000 -1.8647
# 5 19.9117 2.3318 11.3626 0.0000 22.6280 0.0000
# 6 0.0000 0.0000 0.0000 -1.8647 0.0000 4.8966
#
#
#
# Elastic Compliance Matrix: (Units=1/GPa)
#
#
# Indices 1 2 3 4 5 6 
#
# 1 0.019795 -0.010846 -0.004841 0.000000 -0.013870 0.000000
# 2 -0.010846 0.020773 -0.001863 0.000000 0.008339 0.000000
# 3 -0.004841 -0.001863 0.013831 0.000000 -0.002493 0.000000
# 4 0.000000 0.000000 0.000000 0.048327 0.000000 0.018404
# 5 -0.013870 0.008339 -0.002493 0.000000 0.056790 0.000000
# 6 0.000000 0.000000 0.000000 0.018404 0.000000 0.211232
#
#
# Mechanical properties :
#
#
# Convention : Reuss Voigt Hill
#
# Bulk Modulus (GPa) = 51.82272 58.13814 54.98043
# Shear Modulus (GPa) = 12.12764 19.70708 15.91736
#
# Velocity S-wave (km/s) = 2.68277 3.41984 3.07348
# Velocity P-wave (km/s) = 6.35224 7.07788 6.72485
#
# Compressibility (1/GPa) = 0.01929656
#
# Stress axis : x y z
#
# Youngs Moduli (GPa) = 50.51886 48.13960 72.30329
#
# Poissons Ratio (x) = 0.52215 0.35005
# Poissons Ratio (y) = 0.54795 0.13470
# Poissons Ratio (z) = 0.24458 0.08968
#
# Static dielectric constant tensor:
#      x y z
#    x 3.257480 0.000000 0.247530 
#    y 0.000000 2.925900 0.000000 
#    z 0.247530 0.000000 3.237250 
# 
# 
# High freq. dielectric constant tensor:
#      x y z
#    x 1.642420 0.000000 0.023990 
#    y 0.000000 1.619850 0.000000 
#    z 0.023990 0.000000 1.639240 
# 
# From -- ./inp_files/240467.got.cif
#   From: 2010.06.25/outbox.cif.g09.slc.cpg/sg12_121_cif.got.tgz:240467.got - 2010.06.28 00:19:55.
