data_PCOD8081419
_publ_section_title
;
Structure prediction by ZEFSAII (Michael W. Deem and Ramdas Pophale) SiO2 
 PCOD8081419
Probable space group: C 2/M
;
_chemical_formula_sum "Si O2"
_cell_formula_units_Z 56
_cell_length_a 28.970684
_cell_length_b 9.293295
_cell_length_c 19.093600
_cell_angle_alpha 90.000000
_cell_angle_beta 41.239605
_cell_angle_gamma 90.000000
_cell_volume 3388.751198
_symmetry_space_group_name_H-M "C 2/M"
_symmetry_group_IT_number 12
_symmetry_cell_setting 'monoclinic'
loop_
_space_group_symop_operation_xyz
x,y,z
-x,y,-z
-x,-y,-z
x,-y,z
1/2+x,1/2+y,z
1/2-x,1/2+y,-z
1/2-x,1/2-y,-z
1/2+x,1/2-y,z
loop_
_atom_site_type_symbol
_atom_site_label
_atom_site_fract_x
_atom_site_fract_y
_atom_site_fract_z
Si Si1 0.288730 0.669340 0.210452
Si Si2 0.446215 0.671265 0.003874
Si Si3 0.734744 0.166236 0.121191
Si Si4 0.262887 0.832138 0.376810
Si Si5 0.511930 0.329803 0.194831
Si Si6 0.645612 0.333322 0.621647
Si Si7 0.356038 0.667865 0.875350
O O1 0.285322 0.500000 0.230579
O O2 0.368484 0.722749 0.111865
O O3 0.246635 0.708032 0.188152
O O4 0.252444 0.757248 0.314048
O O5 0.448857 0.500000 0.998685
O O6 0.500000 0.732585 0.000000
O O7 0.468692 0.735662 0.903122
O O8 0.668377 0.253105 0.167350
O O9 0.716607 0.000000 0.133760
O O10 0.804651 0.204833 0.998407
O O11 0.327434 0.760141 0.344069
O O12 0.191212 0.805144 0.500700
O O13 0.278885 0.000000 0.349186
O O14 0.520057 0.500000 0.180689
O O15 0.433463 0.284802 0.305874
O O16 0.566944 0.274345 0.190498
O O17 0.648585 0.500000 0.641622
O O18 0.356656 0.500000 0.857793
#
# Coordination Sequence:
#
# PCOD8081419 Si02
#       7
#     8   8   8   8   8   8   8
#     4  10  18  30  48  69  93 124 158 189 225 275
#     4   9  15  23  41  69  93 114 147 189 226 265
#     4   9  17  29  45  68  96 122 152 187 227 281
#     4  10  20  32  47  70  97 123 156 195 232 273
#     4   9  15  27  48  72  92 115 155 199 231 268
#     4   9  18  33  52  70  90 122 161 196 230 270
#     4   9  16  28  47  70  94 118 150 193 235 274
#
# _framework density 16.525261
#
# number of rings (size 3 to 8) (size 9 to 14) (size 15 to 20)
#    0.000    2.714    1.429    1.286    0.000    3.429 
#    0.000    0.714    0.000    4.714    0.000    6.000 
#    0.000    0.000    0.000    0.000    0.000    0.000 
#
# Total GULP energy -347177.849924 kJ/mol
# GULP energy per Si atom -12399.208926 kJ/mol
# Density = 1.648765 g / cm^3
# Si number density = 16.525261 Si / 1000 Ang^3
#
#
#
# Elastic Constant Matrix: (Units=GPa)
#
#
# Indices 1 2 3 4 5 6 
#
# 1 162.5982 51.4871 68.3895 -0.0016 -0.9780 0.0030
# 2 51.4871 47.3898 36.1898 0.0048 6.1641 -0.0010
# 3 68.3895 36.1898 81.2832 0.0083 2.9471 0.0010
# 4 -0.0016 0.0048 0.0083 20.1450 -0.0001 4.0465
# 5 -0.9780 6.1641 2.9471 -0.0001 25.6832 -0.0061
# 6 0.0030 -0.0010 0.0010 4.0465 -0.0061 26.4407
#
#
#
# Elastic Compliance Matrix: (Units=1/GPa)
#
#
# Indices 1 2 3 4 5 6 
#
# 1 0.011225 -0.008022 -0.005983 0.000006 0.003039 -0.000001
# 2 -0.008022 0.038675 -0.010164 -0.000006 -0.008421 0.000002
# 3 -0.005983 -0.010164 0.021873 -0.000007 -0.000298 0.000000
# 4 0.000006 -0.000006 -0.000007 0.051215 0.000001 -0.007838
# 5 0.003039 -0.008421 -0.000298 0.000001 0.041107 0.000009
# 6 -0.000001 0.000002 0.000000 -0.007838 0.000009 0.039020
#
#
# Mechanical properties :
#
#
# Convention : Reuss Voigt Hill
#
# Bulk Modulus (GPa) = 42.67322 67.04491 54.85907
# Shear Modulus (GPa) = 19.28534 23.46743 21.37639
#
# Velocity S-wave (km/s) = 3.41988 3.77250 3.60051
# Velocity P-wave (km/s) = 6.43997 7.72237 7.11014
#
# Compressibility (1/GPa) = 0.02343390
#
# Stress axis : x y z
#
# Youngs Moduli (GPa) = 89.08642 25.85680 45.71843
#
# Poissons Ratio (x) = 0.20742 0.27354
# Poissons Ratio (y) = 0.71464 0.46470
# Poissons Ratio (z) = 0.53301 0.26282
#
# Static dielectric constant tensor:
#      x y z
#    x 3.278600 -0.000030 -0.037660 
#    y -0.000030 2.846110 0.000020 
#    z -0.037660 0.000020 3.010540 
# 
# 
# High freq. dielectric constant tensor:
#      x y z
#    x 1.642110 0.000000 0.000560 
#    y 0.000000 1.606000 0.000000 
#    z 0.000560 0.000000 1.619850 
# 
# From -- ./inp_files/291978.got.cif
#   From: 2010.06.25/outbox.cif.g09.slc.cpg/sg12_146_cif.got.tgz:291978.got - 2010.06.28 00:19:55.
