data_PCOD8081222
_publ_section_title
;
Structure prediction by ZEFSAII (Michael W. Deem and Ramdas Pophale) SiO2 
 PCOD8081222
Probable space group: C 2/M
;
_chemical_formula_sum "Si O2"
_cell_formula_units_Z 56
_cell_length_a 21.829384
_cell_length_b 15.580824
_cell_length_c 9.493811
_cell_angle_alpha 90.000000
_cell_angle_beta 117.056510
_cell_angle_gamma 90.000000
_cell_volume 2875.642229
_symmetry_space_group_name_H-M "C 2/M"
_symmetry_group_IT_number 12
_symmetry_cell_setting 'monoclinic'
loop_
_space_group_symop_operation_xyz
x,y,z
-x,y,-z
-x,-y,-z
x,-y,z
1/2+x,1/2+y,z
1/2-x,1/2+y,-z
1/2-x,1/2-y,-z
1/2+x,1/2-y,z
loop_
_atom_site_type_symbol
_atom_site_label
_atom_site_fract_x
_atom_site_fract_y
_atom_site_fract_z
Si Si1 0.683763 0.267890 0.175134
Si Si2 0.283536 0.593984 0.994815
Si Si3 0.497738 0.906954 0.829363
Si Si4 0.548579 0.272604 0.187880
Si Si5 0.362490 0.846398 0.128772
Si Si6 0.445526 0.600327 0.567753
Si Si7 0.830129 0.204035 0.301036
O O1 0.630138 0.278977 0.245304
O O2 0.756135 0.224172 0.296696
O O3 0.700295 0.362598 0.136883
O O4 0.646016 0.215202 0.013765
O O5 0.315666 0.500000 0.025906
O O6 0.319462 0.643892 0.156948
O O7 0.201765 0.589807 0.930672
O O8 0.458147 0.820398 0.740971
O O9 0.571182 0.904178 0.828784
O O10 0.464537 0.000000 0.749853
O O11 0.500000 0.905201 0.000000
O O12 0.524677 0.350929 0.263547
O O13 0.500000 0.278644 0.000000
O O14 0.366412 0.790259 0.277585
O O15 0.500000 0.608628 0.500000
O O16 0.430085 0.500000 0.584306
O O17 0.376296 0.652486 0.459431
#
# Coordination Sequence:
#
# PCOD8081222 Si02
#       7
#     8   8   8   8   8   8   8
#     4   9  18  33  55  82 109 146 188 227 287 343
#     4   9  17  28  52  83 112 143 185 235 282 336
#     4  10  18  29  52  81 110 140 181 230 279 336
#     4  11  22  39  60  83 118 155 190 238 290 340
#     4   9  15  31  52  80 112 143 178 227 286 341
#     4  11  25  41  59  84 114 155 201 239 284 341
#     4   9  19  35  56  78 110 150 188 237 289 340
#
# _framework density 19.47391
#
# number of rings (size 3 to 8) (size 9 to 14) (size 15 to 20)
#    0.000    2.286    2.857    3.429    2.000    1.429 
#    0.000    0.714    0.000    7.286    0.000    0.000 
#    0.000    0.000    0.000    0.000    0.000    0.000 
#
# Total GULP energy -346923.721634 kJ/mol
# GULP energy per Si atom -12390.132916 kJ/mol
# Density = 1.942959 g / cm^3
# Si number density = 19.473910 Si / 1000 Ang^3
#
#
#
# Elastic Constant Matrix: (Units=GPa)
#
#
# Indices 1 2 3 4 5 6 
#
# 1 101.7608 29.5565 21.8341 0.0000 -5.6199 0.0000
# 2 29.5565 124.5935 38.1630 0.0000 -7.6774 0.0000
# 3 21.8341 38.1630 51.3304 0.0000 3.5810 0.0000
# 4 0.0000 0.0000 0.0000 22.4690 0.0000 -6.0523
# 5 -5.6199 -7.6774 3.5810 0.0000 16.5219 0.0000
# 6 0.0000 0.0000 0.0000 -6.0523 0.0000 29.7887
#
#
#
# Elastic Compliance Matrix: (Units=1/GPa)
#
#
# Indices 1 2 3 4 5 6 
#
# 1 0.011302 -0.001107 -0.004281 0.000000 0.004258 0.000000
# 2 -0.001107 0.011263 -0.008368 0.000000 0.006671 0.000000
# 3 -0.004281 -0.008368 0.028325 0.000000 -0.011484 0.000000
# 4 0.000000 0.000000 0.000000 0.047083 0.000000 0.009566
# 5 0.004258 0.006671 -0.011484 0.000000 0.067563 0.000000
# 6 0.000000 0.000000 0.000000 0.009566 0.000000 0.035513
#
#
# Mechanical properties :
#
#
# Convention : Reuss Voigt Hill
#
# Bulk Modulus (GPa) = 42.77691 50.75465 46.76578
# Shear Modulus (GPa) = 21.15457 26.29800 23.72629
#
# Velocity S-wave (km/s) = 3.29949 3.67880 3.49429
# Velocity P-wave (km/s) = 6.04396 6.64561 6.35191
#
# Compressibility (1/GPa) = 0.02337710
#
# Stress axis : x y z
#
# Youngs Moduli (GPa) = 88.47700 88.78626 35.30407
#
# Poissons Ratio (x) = 0.09833 0.15115
# Poissons Ratio (y) = 0.09799 0.29543
# Poissons Ratio (z) = 0.37879 0.74297
#
# Static dielectric constant tensor:
#      x y z
#    x 3.694050 0.000000 -0.084710 
#    y 0.000000 3.779240 0.000000 
#    z -0.084710 0.000000 3.223630 
# 
# 
# High freq. dielectric constant tensor:
#      x y z
#    x 1.766080 0.000000 -0.007160 
#    y 0.000000 1.766070 0.000000 
#    z -0.007160 0.000000 1.709470 
# 
# From -- ./inp_files/96455.got.cif
#   From: 2010.06.25/outbox.cif.g09.slc.cpg/sg12_49_cif.got.tgz:96455.got - 2010.06.28 00:19:55.
