data_PCOD8081074
_publ_section_title
;
Structure prediction by ZEFSAII (Michael W. Deem and Ramdas Pophale) SiO2 
 PCOD8081074
Probable space group: C 2/M
;
_chemical_formula_sum "Si O2"
_cell_formula_units_Z 48
_cell_length_a 22.949249
_cell_length_b 9.182192
_cell_length_c 13.796629
_cell_angle_alpha 90.000000
_cell_angle_beta 103.176469
_cell_angle_gamma 90.000000
_cell_volume 2830.745228
_symmetry_space_group_name_H-M "C 2/M"
_symmetry_group_IT_number 12
_symmetry_cell_setting 'monoclinic'
loop_
_space_group_symop_operation_xyz
x,y,z
-x,y,-z
-x,-y,-z
x,-y,z
1/2+x,1/2+y,z
1/2-x,1/2+y,-z
1/2-x,1/2-y,-z
1/2+x,1/2-y,z
loop_
_atom_site_type_symbol
_atom_site_label
_atom_site_fract_x
_atom_site_fract_y
_atom_site_fract_z
Si Si1 0.014547 0.827615 0.776629
Si Si2 0.291496 0.169158 0.643424
Si Si3 0.567815 0.339835 0.991391
Si Si4 0.599227 0.170785 0.181446
Si Si5 0.677072 0.829627 0.559418
Si Si6 0.050504 0.669542 0.597565
O O1 0.951893 0.751787 0.777694
O O2 0.064961 0.791221 0.877638
O O3 0.039465 0.767736 0.686266
O O4 0.003294 0.000000 0.766381
O O5 0.337573 0.207887 0.745809
O O6 0.320170 0.218409 0.551939
O O7 0.229731 0.253004 0.640181
O O8 0.276182 0.000000 0.635947
O O9 0.597628 0.500000 0.013299
O O10 0.500000 0.348620 0.000000
O O11 0.603432 0.225142 0.071539
O O12 0.585051 0.000000 0.178011
O O13 0.613411 0.780541 0.576655
O O14 0.686179 0.000000 0.574430
O O15 0.050078 0.500000 0.627065
O O16 0.000000 0.702917 0.500000
#
# Coordination Sequence:
#
# PCOD8081074 Si02
#       6
#     8   8   8   8   8   8
#     4  10  20  32  47  70 100 130 158 193 237 282
#     4   9  18  32  49  70  96 123 154 195 236 275
#     4   8  16  30  45  66  97 126 154 194 240 280
#     4  10  18  29  49  74  97 124 159 197 238 282
#     4   9  18  32  49  69  94 126 158 188 231 281
#     4  10  20  34  51  71  98 128 157 193 235 281
#
# _framework density 16.956665999999998
#
# number of rings (size 3 to 8) (size 9 to 14) (size 15 to 20)
#    0.000    2.667    0.000    3.000    0.000    8.667 
#    0.000    3.333    0.000    1.000    0.000    0.000 
#    0.000    0.000    0.000    0.000    0.000    0.000 
#
# Total GULP energy -297560.189230 kJ/mol
# GULP energy per Si atom -12398.341218 kJ/mol
# Density = 1.691807 g / cm^3
# Si number density = 16.956666 Si / 1000 Ang^3
#
#
#
# Elastic Constant Matrix: (Units=GPa)
#
#
# Indices 1 2 3 4 5 6 
#
# 1 105.0256 52.4052 62.2294 0.0000 11.3772 0.0000
# 2 52.4052 76.9726 64.5484 0.0000 8.2821 0.0000
# 3 62.2294 64.5484 129.4286 0.0000 10.1780 0.0000
# 4 0.0000 0.0000 0.0000 27.7669 0.0000 6.1802
# 5 11.3772 8.2821 10.1780 0.0000 22.3819 0.0000
# 6 0.0000 0.0000 0.0000 6.1802 0.0000 16.4038
#
#
#
# Elastic Compliance Matrix: (Units=1/GPa)
#
#
# Indices 1 2 3 4 5 6 
#
# 1 0.015684 -0.007224 -0.003652 0.000000 -0.003639 0.000000
# 2 -0.007224 0.025898 -0.009311 0.000000 -0.001677 0.000000
# 3 -0.003652 -0.009311 0.014217 0.000000 -0.001163 0.000000
# 4 0.000000 0.000000 0.000000 0.039310 0.000000 -0.014810
# 5 -0.003639 -0.001677 -0.001163 0.000000 0.047678 0.000000
# 6 0.000000 0.000000 0.000000 -0.014810 0.000000 0.066541
#
#
# Mechanical properties :
#
#
# Convention : Reuss Voigt Hill
#
# Bulk Modulus (GPa) = 64.82637 74.42142 69.62389
# Shear Modulus (GPa) = 19.61973 22.12679 20.87326
#
# Velocity S-wave (km/s) = 3.40524 3.61626 3.51233
# Velocity P-wave (km/s) = 7.33311 7.83715 7.58931
#
# Compressibility (1/GPa) = 0.01542582
#
# Stress axis : x y z
#
# Youngs Moduli (GPa) = 63.75819 38.61244 70.33806
#
# Poissons Ratio (x) = 0.27895 0.25688
# Poissons Ratio (y) = 0.46061 0.65490
# Poissons Ratio (z) = 0.23285 0.35951
#
# Static dielectric constant tensor:
#      x y z
#    x 2.970490 0.000000 0.016940 
#    y 0.000000 3.192430 0.000000 
#    z 0.016940 0.000000 3.485350 
# 
# 
# High freq. dielectric constant tensor:
#      x y z
#    x 1.623930 0.000000 0.006700 
#    y 0.000000 1.657930 0.000000 
#    z 0.006700 0.000000 1.660530 
# 
# From -- ./inp_files/230400.got.cif
#   From: 2010.06.25/outbox.cif.g09.slc.cpg/sg12_116_cif.got.tgz:230400.got - 2010.06.28 00:19:55.
