data_PCOD8081182
_publ_section_title
;
Structure prediction by ZEFSAII (Michael W. Deem and Ramdas Pophale) SiO2 
 PCOD8081182
Probable space group: C 2/M
;
_chemical_formula_sum "Si O2"
_cell_formula_units_Z 44
_cell_length_a 30.687814
_cell_length_b 8.862672
_cell_length_c 23.215275
_cell_angle_alpha 90.000000
_cell_angle_beta 159.951935
_cell_angle_gamma 90.000000
_cell_volume 2164.491184
_symmetry_space_group_name_H-M "C 2/M"
_symmetry_group_IT_number 12
_symmetry_cell_setting 'monoclinic'
loop_
_space_group_symop_operation_xyz
x,y,z
-x,y,-z
-x,-y,-z
x,-y,z
1/2+x,1/2+y,z
1/2-x,1/2+y,-z
1/2-x,1/2-y,-z
1/2+x,1/2-y,z
loop_
_atom_site_type_symbol
_atom_site_label
_atom_site_fract_x
_atom_site_fract_y
_atom_site_fract_z
Si Si1 0.219177 0.662577 0.697890
Si Si2 0.456641 0.820862 0.616384
Si Si3 0.665491 0.667651 0.805150
Si Si4 0.122733 0.818993 0.003052
Si Si5 0.385242 0.821554 0.656600
Si Si6 0.500000 0.756327 0.500000
O O1 0.273471 0.500000 0.746283
O O2 0.162653 0.745496 0.570577
O O3 0.326662 0.743210 0.871232
O O4 0.099292 0.635689 0.591316
O O5 0.591938 0.749932 0.766214
O O6 0.430081 0.776192 0.648596
O O7 0.464101 0.000000 0.615886
O O8 0.707439 0.500000 0.877114
O O9 0.790730 0.760408 0.942386
O O10 0.571179 0.649854 0.634026
O O11 0.122163 0.000000 0.001626
O O12 0.982242 0.752332 0.822310
O O13 0.250000 0.750000 0.500000
O O14 0.379920 0.000000 0.658906
#
# Coordination Sequence:
#
# PCOD8081182 Si02
#       6
#     8   8   8   8   8   4
#     4   8  14  28  52  80 107 138 178 218 257 308
#     4   9  19  36  57  81 109 143 182 221 263 315
#     4  10  18  29  50  82 117 147 176 215 264 317
#     4  10  20  35  57  83 112 145 179 218 264 317
#     4  11  24  42  61  78 102 139 182 228 275 323
#     4   8  14  24  42  74 115 150 173 204 259 318
#
# _framework density 20.328105000000001
#
# number of rings (size 3 to 8) (size 9 to 14) (size 15 to 20)
#    0.000    2.545    0.000    2.182    0.000    6.545 
#    0.000    1.818    0.000    5.455    0.000    0.000 
#    0.000    0.000    0.000    0.000    0.000    0.000 
#
# Total GULP energy -272543.312652 kJ/mol
# GULP energy per Si atom -12388.332393 kJ/mol
# Density = 2.028184 g / cm^3
# Si number density = 20.328105 Si / 1000 Ang^3
#
#
#
# Elastic Constant Matrix: (Units=GPa)
#
#
# Indices 1 2 3 4 5 6 
#
# 1 20.2500 10.2348 5.7816 0.0000 -3.7939 0.0000
# 2 10.2348 82.6432 26.0179 0.0000 4.0689 0.0000
# 3 5.7816 26.0179 121.3016 0.0000 -2.9812 0.0000
# 4 0.0000 0.0000 0.0000 28.2652 0.0000 5.1004
# 5 -3.7939 4.0689 -2.9812 0.0000 26.3360 0.0000
# 6 0.0000 0.0000 0.0000 5.1004 0.0000 20.2709
#
#
#
# Elastic Compliance Matrix: (Units=1/GPa)
#
#
# Indices 1 2 3 4 5 6 
#
# 1 0.054810 -0.006939 -0.000906 0.000000 0.008865 0.000000
# 2 -0.006939 0.013999 -0.002757 0.000000 -0.003474 0.000000
# 3 -0.000906 -0.002757 0.008911 0.000000 0.001304 0.000000
# 4 0.000000 0.000000 0.000000 0.037062 0.000000 -0.009325
# 5 0.008865 -0.003474 0.001304 0.000000 0.039932 0.000000
# 6 0.000000 0.000000 0.000000 -0.009325 0.000000 0.051678
#
#
# Mechanical properties :
#
#
# Convention : Reuss Voigt Hill
#
# Bulk Modulus (GPa) = 17.69473 34.25150 25.97312
# Shear Modulus (GPa) = 20.28941 27.11845 23.70393
#
# Velocity S-wave (km/s) = 3.16269 3.65641 3.41848
# Velocity P-wave (km/s) = 4.69684 5.89166 5.32785
#
# Compressibility (1/GPa) = 0.05651400
#
# Stress axis : x y z
#
# Youngs Moduli (GPa) = 18.24498 71.43545 112.22646
#
# Poissons Ratio (x) = 0.49569 0.10170
# Poissons Ratio (y) = 0.12660 0.30943
# Poissons Ratio (z) = 0.01653 0.19696
#
# Static dielectric constant tensor:
#      x y z
#    x 3.605320 0.000000 -0.305220 
#    y 0.000000 3.354690 0.000000 
#    z -0.305220 0.000000 3.801070 
# 
# 
# High freq. dielectric constant tensor:
#      x y z
#    x 1.773270 0.000000 -0.022840 
#    y 0.000000 1.771620 0.000000 
#    z -0.022840 0.000000 1.795310 
# 
# From -- ./inp_files/353636.got.cif
#   From: 2010.06.25/outbox.cif.g09.slc.cpg/sg12_177_cif.got.tgz:353636.got - 2010.06.28 00:19:55.
