data_PCOD8081455
_publ_section_title
;
Structure prediction by ZEFSAII (Michael W. Deem and Ramdas Pophale) SiO2 
 PCOD8081455
Probable space group: C 2/M
;
_chemical_formula_sum "Si O2"
_cell_formula_units_Z 64
_cell_length_a 29.439693
_cell_length_b 9.124661
_cell_length_c 15.032595
_cell_angle_alpha 90.000000
_cell_angle_beta 79.444057
_cell_angle_gamma 90.000000
_cell_volume 3969.824336
_symmetry_space_group_name_H-M "C 2/M"
_symmetry_group_IT_number 12
_symmetry_cell_setting 'monoclinic'
loop_
_space_group_symop_operation_xyz
x,y,z
-x,y,-z
-x,-y,-z
x,-y,z
1/2+x,1/2+y,z
1/2-x,1/2+y,-z
1/2-x,1/2-y,-z
1/2+x,1/2-y,z
loop_
_atom_site_type_symbol
_atom_site_label
_atom_site_fract_x
_atom_site_fract_y
_atom_site_fract_z
Si Si1 0.562621 0.827297 0.409852
Si Si2 0.869084 0.671192 0.761991
Si Si3 0.964201 0.170634 0.215224
Si Si4 0.714709 0.670789 0.132919
Si Si5 0.696274 0.669801 0.936250
Si Si6 0.592904 0.669327 0.938260
Si Si7 0.961993 0.673092 0.390059
Si Si8 0.444632 0.171404 0.881621
O O1 0.604973 0.767262 0.335510
O O2 0.568685 0.786457 0.511765
O O3 0.514013 0.769218 0.389188
O O4 0.560262 0.000000 0.399420
O O5 0.857969 0.500000 0.757806
O O6 0.821106 0.757174 0.785859
O O7 0.900260 0.703816 0.836913
O O8 0.926935 0.198414 0.151928
O O9 0.942285 0.238445 0.312913
O O10 0.011634 0.251682 0.177334
O O11 0.974543 0.000000 0.224208
O O12 0.716950 0.500000 0.151573
O O13 0.765505 0.737523 0.130586
O O14 0.697729 0.708037 0.039871
O O15 0.706933 0.500000 0.915862
O O16 0.646388 0.716546 0.917320
O O17 0.587938 0.500000 0.969193
O O18 0.563895 0.765812 0.017408
O O19 0.960333 0.500000 0.371281
O O20 0.455171 0.000000 0.884603
#
# Coordination Sequence:
#
# PCOD8081455 Si02
#       8
#     8   8   8   8   8   8   8   8
#     4   8  15  29  50  70  92 123 157 195 237 281
#     4  10  18  30  48  71  96 126 158 188 232 285
#     4  11  22  33  47  67  97 132 163 196 236 279
#     4  10  19  30  48  71  94 120 153 194 239 280
#     4   9  18  33  49  65  90 124 159 193 231 280
#     4  10  21  36  49  65  94 132 165 194 235 281
#     4   9  16  31  51  69  91 122 161 200 235 274
#     4  11  21  32  48  69  95 128 168 202 226 265
#
# _framework density 16.121618999999999
#
# number of rings (size 3 to 8) (size 9 to 14) (size 15 to 20)
#    0.000    2.250    2.500    2.250    0.000    4.000 
#    0.000    1.875    0.000    0.000    0.000    0.875 
#    0.000    0.000    0.000    0.000    0.000    0.000 
#
# Total GULP energy -396805.197693 kJ/mol
# GULP energy per Si atom -12400.162428 kJ/mol
# Density = 1.608493 g / cm^3
# Si number density = 16.121619 Si / 1000 Ang^3
#
#
#
# Elastic Constant Matrix: (Units=GPa)
#
#
# Indices 1 2 3 4 5 6 
#
# 1 49.3005 31.6972 35.3607 0.0000 -12.0575 0.0000
# 2 31.6972 64.3531 46.0052 0.0000 -3.6286 0.0000
# 3 35.3607 46.0052 114.3020 0.0000 -9.1609 0.0000
# 4 0.0000 0.0000 0.0000 21.7321 0.0000 -1.8457
# 5 -12.0575 -3.6286 -9.1609 0.0000 24.7395 0.0000
# 6 0.0000 0.0000 0.0000 -1.8457 0.0000 23.3380
#
#
#
# Elastic Compliance Matrix: (Units=1/GPa)
#
#
# Indices 1 2 3 4 5 6 
#
# 1 0.035529 -0.013555 -0.004439 0.000000 0.013684 0.000000
# 2 -0.013555 0.026988 -0.007092 0.000000 -0.005274 0.000000
# 3 -0.004439 -0.007092 0.013109 0.000000 0.001650 0.000000
# 4 0.000000 0.000000 0.000000 0.046326 0.000000 0.003664
# 5 0.013684 -0.005274 0.001650 0.000000 0.046928 0.000000
# 6 0.000000 0.000000 0.000000 0.003664 0.000000 0.043138
#
#
# Mechanical properties :
#
#
# Convention : Reuss Voigt Hill
#
# Bulk Modulus (GPa) = 39.28537 50.45354 44.86946
# Shear Modulus (GPa) = 18.47230 21.62140 20.04685
#
# Velocity S-wave (km/s) = 3.38865 3.66614 3.53012
# Velocity P-wave (km/s) = 6.30330 7.02027 6.67143
#
# Compressibility (1/GPa) = 0.02545477
#
# Stress axis : x y z
#
# Youngs Moduli (GPa) = 28.14563 37.05314 76.28575
#
# Poissons Ratio (x) = 0.50226 0.33863
# Poissons Ratio (y) = 0.38152 0.54100
# Poissons Ratio (z) = 0.12494 0.26277
#
# Static dielectric constant tensor:
#      x y z
#    x 2.964100 0.000000 -0.134690 
#    y 0.000000 2.978220 0.000000 
#    z -0.134690 0.000000 3.181670 
# 
# 
# High freq. dielectric constant tensor:
#      x y z
#    x 1.599080 0.000000 -0.012470 
#    y 0.000000 1.615140 0.000000 
#    z -0.012470 0.000000 1.610690 
# 
# From -- ./inp_files/243994.got.cif
#   From: 2010.06.25/outbox.cif.g09.slc.cpg/sg12_122_cif.got.tgz:243994.got - 2010.06.28 00:19:55.
