data_PCOD8081841
_publ_section_title
;
Structure prediction by ZEFSAII (Michael W. Deem and Ramdas Pophale) SiO2 
 PCOD8081841
Probable space group: C 2/M
;
_chemical_formula_sum "Si O2"
_cell_formula_units_Z 56
_cell_length_a 23.350656
_cell_length_b 8.632772
_cell_length_c 18.989502
_cell_angle_alpha 90.000000
_cell_angle_beta 127.611444
_cell_angle_gamma 90.000000
_cell_volume 3032.355366
_symmetry_space_group_name_H-M "C 2/M"
_symmetry_group_IT_number 12
_symmetry_cell_setting 'monoclinic'
loop_
_space_group_symop_operation_xyz
x,y,z
-x,y,-z
-x,-y,-z
x,-y,z
1/2+x,1/2+y,z
1/2-x,1/2+y,-z
1/2-x,1/2-y,-z
1/2+x,1/2-y,z
loop_
_atom_site_type_symbol
_atom_site_label
_atom_site_fract_x
_atom_site_fract_y
_atom_site_fract_z
Si Si1 0.611167 0.816177 0.314728
Si Si2 0.684978 0.816759 0.906730
Si Si3 0.113872 0.184121 0.472425
Si Si4 0.812139 0.677661 0.252271
Si Si5 0.035636 0.180668 0.797289
Si Si6 0.749481 0.318181 0.662285
Si Si7 0.970619 0.679597 0.358020
O O1 0.622932 0.736731 0.398890
O O2 0.535354 0.762407 0.222414
O O3 0.675106 0.755416 0.311982
O O4 0.612250 0.000000 0.325073
O O5 0.694564 0.762116 0.832927
O O6 0.610113 0.752036 0.883206
O O7 0.682954 0.000000 0.910205
O O8 0.750000 0.750000 0.000000
O O9 0.182663 0.248779 0.566839
O O10 0.041799 0.263068 0.453527
O O11 0.107057 0.000000 0.472005
O O12 0.789185 0.500000 0.238964
O O13 0.758002 0.770703 0.261782
O O14 0.894973 0.701628 0.342373
O O15 0.032372 0.210965 0.711958
O O16 0.033583 0.000000 0.812908
O O17 0.748728 0.500000 0.656189
O O18 0.978815 0.500000 0.340938
#
# Coordination Sequence:
#
# PCOD8081841 Si02
#       7
#     8   8   8   8   8   8   8
#     4  10  19  33  50  70  98 135 175 215 251 292
#     4  10  20  36  58  85 108 129 157 196 244 299
#     4  10  19  31  47  71  97 129 175 221 256 293
#     4   9  20  35  51  72 101 132 165 200 246 303
#     4  10  18  30  51  78 102 130 164 203 248 294
#     4  10  22  34  47  69 100 136 174 212 254 296
#     4   9  17  31  48  69  97 131 168 210 254 300
#
# _framework density 18.467493000000001
#
# number of rings (size 3 to 8) (size 9 to 14) (size 15 to 20)
#    0.000    2.286    0.000    6.000    0.000    6.286 
#    0.000    2.857    0.000    0.857    0.000    6.000 
#    0.000    0.000    0.000    0.000    0.000    0.000 
#
# Total GULP energy -347063.095810 kJ/mol
# GULP energy per Si atom -12395.110565 kJ/mol
# Density = 1.842546 g / cm^3
# Si number density = 18.467493 Si / 1000 Ang^3
#
#
#
# Elastic Constant Matrix: (Units=GPa)
#
#
# Indices 1 2 3 4 5 6 
#
# 1 111.8213 23.5949 53.1193 0.0000 14.6709 0.0000
# 2 23.5949 57.8885 23.3737 0.0000 6.1773 0.0000
# 3 53.1193 23.3737 91.9789 0.0000 25.3314 0.0000
# 4 0.0000 0.0000 0.0000 25.1970 0.0000 4.2859
# 5 14.6709 6.1773 25.3314 0.0000 26.5031 0.0000
# 6 0.0000 0.0000 0.0000 4.2859 0.0000 30.2605
#
#
#
# Elastic Compliance Matrix: (Units=1/GPa)
#
#
# Indices 1 2 3 4 5 6 
#
# 1 0.012629 -0.002455 -0.006653 0.000000 -0.000060 0.000000
# 2 -0.002455 0.019728 -0.003669 0.000000 0.000268 0.000000
# 3 -0.006653 -0.003669 0.019541 0.000000 -0.014139 0.000000
# 4 0.000000 0.000000 0.000000 0.040667 0.000000 -0.005760
# 5 -0.000060 0.000268 -0.014139 0.000000 0.051216 0.000000
# 6 0.000000 0.000000 0.000000 -0.005760 0.000000 0.033862
#
#
# Mechanical properties :
#
#
# Convention : Reuss Voigt Hill
#
# Bulk Modulus (GPa) = 37.96061 51.31827 44.63944
# Shear Modulus (GPa) = 23.58723 27.16550 25.37636
#
# Velocity S-wave (km/s) = 3.57771 3.83951 3.71092
# Velocity P-wave (km/s) = 6.13732 6.89235 6.52577
#
# Compressibility (1/GPa) = 0.02634309
#
# Stress axis : x y z
#
# Youngs Moduli (GPa) = 79.18140 50.68900 51.17489
#
# Poissons Ratio (x) = 0.12443 0.34049
# Poissons Ratio (y) = 0.19437 0.18778
# Poissons Ratio (z) = 0.52682 0.18600
#
# Static dielectric constant tensor:
#      x y z
#    x 3.732630 0.000000 0.448850 
#    y 0.000000 3.335380 0.000000 
#    z 0.448850 0.000000 3.291370 
# 
# 
# High freq. dielectric constant tensor:
#      x y z
#    x 1.716880 0.000000 0.026910 
#    y 0.000000 1.721540 0.000000 
#    z 0.026910 0.000000 1.682900 
# 
# From -- ./inp_files/288387.got.cif
#   From: 2010.06.25/outbox.cif.g09.slc.cpg/sg12_145_cif.got.tgz:288387.got - 2010.06.28 00:19:55.
