data_PCOD8081265
_publ_section_title
;
Structure prediction by ZEFSAII (Michael W. Deem and Ramdas Pophale) SiO2 
 PCOD8081265
Probable space group: C 2/M
;
_chemical_formula_sum "Si O2"
_cell_formula_units_Z 56
_cell_length_a 28.638589
_cell_length_b 9.851113
_cell_length_c 14.588522
_cell_angle_alpha 90.000000
_cell_angle_beta 124.047606
_cell_angle_gamma 90.000000
_cell_volume 3410.191857
_symmetry_space_group_name_H-M "C 2/M"
_symmetry_group_IT_number 12
_symmetry_cell_setting 'monoclinic'
loop_
_space_group_symop_operation_xyz
x,y,z
-x,y,-z
-x,-y,-z
x,-y,z
1/2+x,1/2+y,z
1/2-x,1/2+y,-z
1/2-x,1/2-y,-z
1/2+x,1/2-y,z
loop_
_atom_site_type_symbol
_atom_site_label
_atom_site_fract_x
_atom_site_fract_y
_atom_site_fract_z
Si Si1 0.982219 0.344880 0.218434
Si Si2 0.359561 0.223328 0.033328
Si Si3 0.660072 0.343449 0.793544
Si Si4 0.966781 0.156422 0.371441
Si Si5 0.233669 0.351913 0.193295
Si Si6 0.151602 0.849235 0.162468
Si Si7 0.963303 0.843652 0.870430
O O1 0.004118 0.500000 0.254741
O O2 0.917743 0.354915 0.114472
O O3 0.988307 0.261262 0.319150
O O4 0.020329 0.264408 0.188289
O O5 0.336393 0.282866 0.101887
O O6 0.310375 0.126839 0.939762
O O7 0.370987 0.338931 0.968041
O O8 0.674756 0.500000 0.820057
O O9 0.599234 0.318452 0.681262
O O10 0.708493 0.282548 0.780099
O O11 0.000000 0.188763 0.500000
O O12 0.976338 0.000000 0.349488
O O13 0.245021 0.500000 0.250144
O O14 0.204616 0.252783 0.236524
O O15 0.101770 0.813942 0.177738
O O16 0.173863 0.000000 0.204675
O O17 0.971739 0.000000 0.846616
O O18 0.000000 0.815218 0.000000
#
# Coordination Sequence:
#
# PCOD8081265 Si02
#       7
#     8   8   8   8   8   8   8
#     4  11  21  31  47  71  97 127 159 194 239 283
#     4   9  17  27  40  61  94 127 154 185 220 269
#     4   9  16  27  45  67  89 119 155 190 230 276
#     4   9  19  36  55  72  92 120 157 199 239 282
#     4   9  17  27  40  62  93 125 154 187 224 272
#     4   9  18  28  42  60  88 127 161 189 218 258
#     4  10  18  30  45  65  93 129 167 196 226 270
#
# _framework density 16.421362999999999
#
# number of rings (size 3 to 8) (size 9 to 14) (size 15 to 20)
#    0.857    1.714    1.429    1.714    0.000    2.286 
#    0.000    2.857    0.000    0.000    0.000    1.000 
#    0.000    0.000    0.000    0.000    0.000    0.000 
#
# Total GULP energy -346891.993823 kJ/mol
# GULP energy per Si atom -12388.999779 kJ/mol
# Density = 1.638399 g / cm^3
# Si number density = 16.421363 Si / 1000 Ang^3
#
#
#
# Elastic Constant Matrix: (Units=GPa)
#
#
# Indices 1 2 3 4 5 6 
#
# 1 124.3696 72.7507 26.2115 0.0000 -0.7450 0.0000
# 2 72.7507 104.4480 27.0436 0.0000 -7.1073 0.0000
# 3 26.2115 27.0436 43.0760 0.0000 -0.6310 0.0000
# 4 0.0000 0.0000 0.0000 13.8115 0.0000 -1.9693
# 5 -0.7450 -7.1073 -0.6310 0.0000 10.4469 0.0000
# 6 0.0000 0.0000 0.0000 -1.9693 0.0000 28.1913
#
#
#
# Elastic Compliance Matrix: (Units=1/GPa)
#
#
# Indices 1 2 3 4 5 6 
#
# 1 0.014162 -0.009548 -0.002706 0.000000 -0.005649 0.000000
# 2 -0.009548 0.018463 -0.005612 0.000000 0.011541 0.000000
# 3 -0.002706 -0.005612 0.028351 0.000000 -0.002299 0.000000
# 4 0.000000 0.000000 0.000000 0.073132 0.000000 0.005109
# 5 -0.005649 0.011541 -0.002299 0.000000 0.103032 0.000000
# 6 0.000000 0.000000 0.000000 0.005109 0.000000 0.035829
#
#
# Mechanical properties :
#
#
# Convention : Reuss Voigt Hill
#
# Bulk Modulus (GPa) = 39.61386 58.21169 48.91277
# Shear Modulus (GPa) = 15.76708 20.21581 17.99145
#
# Velocity S-wave (km/s) = 3.10200 3.51246 3.31359
# Velocity P-wave (km/s) = 6.08322 7.20941 6.67013
#
# Compressibility (1/GPa) = 0.02524369
#
# Stress axis : x y z
#
# Youngs Moduli (GPa) = 70.61025 54.16201 35.27194
#
# Poissons Ratio (x) = 0.51715 0.09545
# Poissons Ratio (y) = 0.67420 0.19796
# Poissons Ratio (z) = 0.19107 0.30397
#
# Static dielectric constant tensor:
#      x y z
#    x 3.228890 0.000000 0.116180 
#    y 0.000000 3.009960 0.000000 
#    z 0.116180 0.000000 2.679660 
# 
# 
# High freq. dielectric constant tensor:
#      x y z
#    x 1.640790 0.000000 0.009530 
#    y 0.000000 1.628310 0.000000 
#    z 0.009530 0.000000 1.578930 
# 
# From -- ./inp_files/249280.got.cif
#   From: 2010.06.25/outbox.cif.g09.slc.cpg/sg12_125_cif.got.tgz:249280.got - 2010.06.28 00:19:55.
