data_PCOD8081027
_publ_section_title
;
Structure prediction by ZEFSAII (Michael W. Deem and Ramdas Pophale) SiO2 
 PCOD8081027
Probable space group: C 2/M
;
_chemical_formula_sum "Si O2"
_cell_formula_units_Z 64
_cell_length_a 26.506909
_cell_length_b 15.363701
_cell_length_c 24.283211
_cell_angle_alpha 90.000000
_cell_angle_beta 20.855305
_cell_angle_gamma 90.000000
_cell_volume 3520.644685
_symmetry_space_group_name_H-M "C 2/M"
_symmetry_group_IT_number 12
_symmetry_cell_setting 'monoclinic'
loop_
_space_group_symop_operation_xyz
x,y,z
-x,y,-z
-x,-y,-z
x,-y,z
1/2+x,1/2+y,z
1/2-x,1/2+y,-z
1/2-x,1/2-y,-z
1/2+x,1/2-y,z
loop_
_atom_site_type_symbol
_atom_site_label
_atom_site_fract_x
_atom_site_fract_y
_atom_site_fract_z
Si Si1 0.928355 0.834581 0.015371
Si Si2 0.004059 0.667566 0.883566
Si Si3 0.943583 0.899118 0.425015
Si Si4 0.725166 0.901058 0.742130
Si Si5 0.755634 0.267196 0.430268
Si Si6 0.844593 0.600850 0.652668
Si Si7 0.696222 0.402360 0.690858
Si Si8 0.273123 0.597768 0.813343
O O1 0.768250 0.866981 0.186828
O O2 0.000000 0.810028 0.000000
O O3 0.916204 0.753844 0.986697
O O4 0.031920 0.902626 0.878070
O O5 0.098353 0.647650 0.840888
O O6 0.102530 0.678298 0.729581
O O7 0.879213 0.597877 0.999799
O O8 0.866379 0.894355 0.562376
O O9 0.876293 0.829319 0.451446
O O10 0.103226 0.864174 0.273766
O O11 0.936760 0.000000 0.409223
O O12 0.754775 0.856496 0.771635
O O13 0.674831 0.000000 0.801504
O O14 0.750000 0.250000 0.500000
O O15 0.761885 0.172557 0.395172
O O16 0.859411 0.500000 0.649296
O O17 0.793231 0.620645 0.643814
O O18 0.000000 0.645484 0.500000
O O19 0.728397 0.500000 0.634905
O O20 0.322844 0.500000 0.750604
#
# Coordination Sequence:
#
# PCOD8081027 Si02
#       8
#     8   8   8   8   8   8   8   8
#     4   9  16  27  44  68  99 131 160 191 234 290
#     4  10  19  30  46  72 101 132 173 211 244 293
#     4   9  19  34  52  76 106 138 171 206 248 301
#     4   9  16  28  47  73 108 144 170 193 229 289
#     4  10  22  39  55  72  93 127 176 226 267 299
#     4   9  17  29  47  73 103 130 154 186 236 300
#     4   9  18  33  52  74  99 128 164 204 247 298
#     4  10  18  29  48  76 110 142 166 195 243 302
#
# _framework density 18.17849
#
# number of rings (size 3 to 8) (size 9 to 14) (size 15 to 20)
#    0.000    2.625    0.000    2.250    0.000    7.000 
#    0.000    0.625    0.000    0.000    0.000    7.000 
#    0.000    0.000    0.000    0.000    0.000    0.000 
#
# Total GULP energy -396480.530332 kJ/mol
# GULP energy per Si atom -12390.016573 kJ/mol
# Density = 1.813711 g / cm^3
# Si number density = 18.178490 Si / 1000 Ang^3
#
#
#
# Elastic Constant Matrix: (Units=GPa)
#
#
# Indices 1 2 3 4 5 6 
#
# 1 91.2173 44.4686 77.7981 -0.0064 -2.5603 0.0006
# 2 44.4686 63.3043 36.1111 -0.0427 0.1943 0.0122
# 3 77.7981 36.1111 120.6556 -0.0284 -20.5183 0.0083
# 4 -0.0064 -0.0427 -0.0284 21.8729 0.0136 -1.9166
# 5 -2.5603 0.1943 -20.5183 0.0136 25.0219 -0.0017
# 6 0.0006 0.0122 0.0083 -1.9166 -0.0017 22.0250
#
#
#
# Elastic Compliance Matrix: (Units=1/GPa)
#
#
# Indices 1 2 3 4 5 6 
#
# 1 0.034089 -0.012149 -0.020609 -0.000031 -0.013317 0.000010
# 2 -0.012149 0.024080 0.000446 0.000044 -0.001065 -0.000009
# 3 -0.020609 0.000446 0.024501 0.000015 0.017979 -0.000006
# 4 -0.000031 0.000044 0.000015 0.046070 -0.000016 0.004009
# 5 -0.013317 -0.001065 0.017979 -0.000016 0.053353 -0.000003
# 6 0.000010 -0.000009 -0.000006 0.004009 -0.000003 0.045752
#
#
# Mechanical properties :
#
#
# Convention : Reuss Voigt Hill
#
# Bulk Modulus (GPa) = 55.41744 65.77032 60.59388
# Shear Modulus (GPa) = 16.75133 21.57058 19.16096
#
# Velocity S-wave (km/s) = 3.03890 3.44844 3.25013
# Velocity P-wave (km/s) = 6.54711 7.21904 6.89127
#
# Compressibility (1/GPa) = 0.01804486
#
# Stress axis : x y z
#
# Youngs Moduli (GPa) = 29.33520 41.52831 40.81545
#
# Poissons Ratio (x) = 0.50453 0.84116
# Poissons Ratio (y) = 0.35639 -0.01819
# Poissons Ratio (z) = 0.60456 -0.01851
#
# Static dielectric constant tensor:
#      x y z
#    x 3.010380 -0.000040 -0.224780 
#    y -0.000040 3.430380 0.000130 
#    z -0.224780 0.000130 3.524770 
# 
# 
# High freq. dielectric constant tensor:
#      x y z
#    x 1.655300 0.000000 -0.018500 
#    y 0.000000 1.706270 0.000000 
#    z -0.018500 0.000000 1.708460 
# 
# From -- ./inp_files/97706.got.cif
#   From: 2010.06.25/outbox.cif.g09.slc.cpg/sg12_49_cif.got.tgz:97706.got - 2010.06.28 00:19:55.
