data_PCOD8081792
_publ_section_title
;
Structure prediction by ZEFSAII (Michael W. Deem and Ramdas Pophale) SiO2 
 PCOD8081792
Probable space group: C 2/M
;
_chemical_formula_sum "Si O2"
_cell_formula_units_Z 56
_cell_length_a 19.904023
_cell_length_b 9.072092
_cell_length_c 21.451506
_cell_angle_alpha 90.000000
_cell_angle_beta 126.216448
_cell_angle_gamma 90.000000
_cell_volume 3125.122162
_symmetry_space_group_name_H-M "C 2/M"
_symmetry_group_IT_number 12
_symmetry_cell_setting 'monoclinic'
loop_
_space_group_symop_operation_xyz
x,y,z
-x,y,-z
-x,-y,-z
x,-y,z
1/2+x,1/2+y,z
1/2-x,1/2+y,-z
1/2-x,1/2-y,-z
1/2+x,1/2-y,z
loop_
_atom_site_type_symbol
_atom_site_label
_atom_site_fract_x
_atom_site_fract_y
_atom_site_fract_z
Si Si1 0.006114 0.829828 0.624253
Si Si2 0.377624 0.331194 0.203029
Si Si3 0.836466 0.171104 0.045138
Si Si4 0.242049 0.173696 0.205357
Si Si5 0.177355 0.174426 0.500489
Si Si6 0.909609 0.175238 0.958977
Si Si7 0.166481 0.173622 0.638509
O O1 0.913762 0.759826 0.568433
O O2 0.037292 0.802482 0.712102
O O3 0.075394 0.767652 0.612836
O O4 0.994339 0.000000 0.601285
O O5 0.348382 0.500000 0.198593
O O6 0.391807 0.300477 0.137606
O O7 0.307184 0.221312 0.188328
O O8 0.818444 0.000000 0.026039
O O9 0.750000 0.250000 0.000000
O O10 0.882557 0.238354 0.010957
O O11 0.151325 0.223106 0.130695
O O12 0.260487 0.252279 0.280995
O O13 0.248153 0.000000 0.218617
O O14 0.250000 0.250000 0.500000
O O15 0.185752 0.214827 0.577956
O O16 0.183964 0.000000 0.492653
O O17 0.913809 0.000000 0.963641
O O18 0.000000 0.245992 0.000000
O O19 0.169905 0.000000 0.652060
#
# Coordination Sequence:
#
# PCOD8081792 Si02
#       7
#     8   8   8   8   8   8   8
#     4   8  15  31  54  77  96 125 171 210 238 284
#     4   9  17  30  51  77  99 126 166 209 249 289
#     4  10  18  30  51  74  99 131 166 205 248 293
#     4  10  18  30  51  77 101 128 163 208 254 291
#     4  10  20  35  54  76 105 134 162 200 248 298
#     4   9  18  32  47  70 103 134 166 205 248 292
#     4   9  18  34  56  76  97 130 169 207 244 289
#
# _framework density 17.919298999999999
#
# number of rings (size 3 to 8) (size 9 to 14) (size 15 to 20)
#    0.000    2.714    1.429    1.714    0.000    2.286 
#    2.571    2.857    0.000    8.143    0.000    0.000 
#    0.000    0.000    0.000    0.000    0.000    0.000 
#
# Total GULP energy -346983.026945 kJ/mol
# GULP energy per Si atom -12392.250962 kJ/mol
# Density = 1.787851 g / cm^3
# Si number density = 17.919299 Si / 1000 Ang^3
#
#
#
# Elastic Constant Matrix: (Units=GPa)
#
#
# Indices 1 2 3 4 5 6 
#
# 1 142.0234 29.6734 96.5700 0.0000 1.5922 0.0000
# 2 29.6734 31.8264 40.9187 0.0000 0.3417 0.0000
# 3 96.5700 40.9187 167.9702 0.0000 0.5171 0.0000
# 4 0.0000 0.0000 0.0000 24.7308 0.0000 -1.2057
# 5 1.5922 0.3417 0.5171 0.0000 30.1846 0.0000
# 6 0.0000 0.0000 0.0000 -1.2057 0.0000 22.4977
#
#
#
# Elastic Compliance Matrix: (Units=1/GPa)
#
#
# Indices 1 2 3 4 5 6 
#
# 1 0.011803 -0.003315 -0.005977 0.000000 -0.000483 0.000000
# 2 -0.003315 0.046684 -0.009466 0.000000 -0.000191 0.000000
# 3 -0.005977 -0.009466 0.011695 0.000000 0.000222 0.000000
# 4 0.000000 0.000000 0.000000 0.040541 0.000000 0.002173
# 5 -0.000483 -0.000191 0.000222 0.000000 0.033153 0.000000
# 6 0.000000 0.000000 0.000000 0.002173 0.000000 0.044565
#
#
# Mechanical properties :
#
#
# Convention : Reuss Voigt Hill
#
# Bulk Modulus (GPa) = 30.61300 75.12713 52.87007
# Shear Modulus (GPa) = 21.11075 27.12647 24.11861
#
# Velocity S-wave (km/s) = 3.43607 3.89500 3.67271
# Velocity P-wave (km/s) = 5.73263 7.88950 6.89592
#
# Compressibility (1/GPa) = 0.03266586
#
# Stress axis : x y z
#
# Youngs Moduli (GPa) = 84.72317 21.42081 85.50729
#
# Poissons Ratio (x) = 0.07101 0.51106
# Poissons Ratio (y) = 0.28088 0.80940
# Poissons Ratio (z) = 0.50637 0.20277
#
# Static dielectric constant tensor:
#      x y z
#    x 3.334000 0.000000 0.052650 
#    y 0.000000 3.028500 0.000000 
#    z 0.052650 0.000000 3.703700 
# 
# 
# High freq. dielectric constant tensor:
#      x y z
#    x 1.676210 0.000000 -0.003880 
#    y 0.000000 1.659480 0.000000 
#    z -0.003880 0.000000 1.713360 
# 
# From -- ./inp_files/314390.got.cif
#   From: 2010.06.25/outbox.cif.g09.slc.cpg/sg12_158_cif.got.tgz:314390.got - 2010.06.28 00:19:55.
