data_PCOD8081487
_publ_section_title
;
Structure prediction by ZEFSAII (Michael W. Deem and Ramdas Pophale) SiO2 
 PCOD8081487
Probable space group: C 2/M
;
_chemical_formula_sum "Si O2"
_cell_formula_units_Z 48
_cell_length_a 24.855732
_cell_length_b 9.146423
_cell_length_c 11.841440
_cell_angle_alpha 90.000000
_cell_angle_beta 88.063810
_cell_angle_gamma 90.000000
_cell_volume 2690.508314
_symmetry_space_group_name_H-M "C 2/M"
_symmetry_group_IT_number 12
_symmetry_cell_setting 'monoclinic'
loop_
_space_group_symop_operation_xyz
x,y,z
-x,y,-z
-x,-y,-z
x,-y,z
1/2+x,1/2+y,z
1/2-x,1/2+y,-z
1/2-x,1/2-y,-z
1/2+x,1/2-y,z
loop_
_atom_site_type_symbol
_atom_site_label
_atom_site_fract_x
_atom_site_fract_y
_atom_site_fract_z
Si Si1 0.088640 0.328213 0.707417
Si Si2 0.701854 0.332428 0.370442
Si Si3 0.560573 0.341469 0.497023
Si Si4 0.902765 0.830622 0.745207
Si Si5 0.188725 0.831241 0.628750
Si Si6 0.009158 0.672083 0.127626
O O1 0.097956 0.500000 0.720129
O O2 0.069887 0.287802 0.583967
O O3 0.145998 0.245928 0.716531
O O4 0.042909 0.271571 0.798125
O O5 0.721493 0.500000 0.367841
O O6 0.661277 0.301772 0.268018
O O7 0.752476 0.229698 0.348420
O O8 0.674120 0.301670 0.496327
O O9 0.500000 0.387523 0.500000
O O10 0.591540 0.500000 0.519464
O O11 0.573188 0.277538 0.374242
O O12 0.933311 0.739534 0.839298
O O13 0.914042 0.000000 0.769385
O O14 0.189991 0.000000 0.659950
O O15 0.014805 0.500000 0.141417
O O16 0.000000 0.719874 0.000000
#
# Coordination Sequence:
#
# PCOD8081487 Si02
#       6
#     8   8   8   8   8   8
#     4  11  21  32  51  76 104 139 176 213 256 310
#     4   9  18  32  49  75 110 142 170 204 250 308
#     4  10  18  30  48  74 108 138 164 204 259 313
#     4  10  19  33  54  78 106 138 171 210 258 310
#     4  10  19  32  50  75 109 144 172 206 253 307
#     4  10  23  40  54  73 103 138 177 222 267 306
#
# _framework density 17.840494
#
# number of rings (size 3 to 8) (size 9 to 14) (size 15 to 20)
#    0.000    2.000    3.333    1.000    0.000    3.333 
#    0.000    0.000    0.000    1.000    0.000    0.000 
#    0.000    0.000    0.000    0.000    0.000    0.000 
#
# Total GULP energy -297356.873799 kJ/mol
# GULP energy per Si atom -12389.869742 kJ/mol
# Density = 1.779989 g / cm^3
# Si number density = 17.840494 Si / 1000 Ang^3
#
#
#
# Elastic Constant Matrix: (Units=GPa)
#
#
# Indices 1 2 3 4 5 6 
#
# 1 103.3671 48.7936 42.2121 0.0000 11.8209 0.0000
# 2 48.7936 72.6839 32.2577 0.0000 6.4039 0.0000
# 3 42.2121 32.2577 76.4737 0.0000 17.7492 0.0000
# 4 0.0000 0.0000 0.0000 20.5845 0.0000 4.1546
# 5 11.8209 6.4039 17.7492 0.0000 19.0936 0.0000
# 6 0.0000 0.0000 0.0000 4.1546 0.0000 34.3767
#
#
#
# Elastic Compliance Matrix: (Units=1/GPa)
#
#
# Indices 1 2 3 4 5 6 
#
# 1 0.015782 -0.008328 -0.004564 0.000000 -0.002735 0.000000
# 2 -0.008328 0.021344 -0.005026 0.000000 0.002669 0.000000
# 3 -0.004564 -0.005026 0.021254 0.000000 -0.015247 0.000000
# 4 0.000000 0.000000 0.000000 0.049795 0.000000 -0.006018
# 5 -0.002735 0.002669 -0.015247 0.000000 0.067345 0.000000
# 6 0.000000 0.000000 0.000000 -0.006018 0.000000 0.029817
#
#
# Mechanical properties :
#
#
# Convention : Reuss Voigt Hill
#
# Bulk Modulus (GPa) = 44.35564 55.45018 49.90291
# Shear Modulus (GPa) = 20.10557 23.42837 21.76697
#
# Velocity S-wave (km/s) = 3.36067 3.62776 3.49677
# Velocity P-wave (km/s) = 6.32259 6.97826 6.65850
#
# Compressibility (1/GPa) = 0.02254505
#
# Stress axis : x y z
#
# Youngs Moduli (GPa) = 63.36342 46.85062 47.04998
#
# Poissons Ratio (x) = 0.39019 0.21471
# Poissons Ratio (y) = 0.52771 0.23647
# Poissons Ratio (z) = 0.28916 0.23546
#
# Static dielectric constant tensor:
#      x y z
#    x 3.526040 0.000000 -0.039640 
#    y 0.000000 3.176910 0.000000 
#    z -0.039640 0.000000 3.000540 
# 
# 
# High freq. dielectric constant tensor:
#      x y z
#    x 1.708910 0.000000 0.002630 
#    y 0.000000 1.690320 0.000000 
#    z 0.002630 0.000000 1.641980 
# 
# From -- ./inp_files/179257.got.cif
#   From: 2010.06.25/outbox.cif.g09.slc.cpg/sg12_90_cif.got.tgz:179257.got - 2010.06.28 00:19:55.
