data_PCOD8081959
_publ_section_title
;
Structure prediction by ZEFSAII (Michael W. Deem and Ramdas Pophale) SiO2 
 PCOD8081959
Probable space group: C 2/M
;
_chemical_formula_sum "Si O2"
_cell_formula_units_Z 56
_cell_length_a 31.398772
_cell_length_b 9.434481
_cell_length_c 11.732346
_cell_angle_alpha 90.000000
_cell_angle_beta 56.872350
_cell_angle_gamma 90.000000
_cell_volume 2910.563379
_symmetry_space_group_name_H-M "C 2/M"
_symmetry_group_IT_number 12
_symmetry_cell_setting 'monoclinic'
loop_
_space_group_symop_operation_xyz
x,y,z
-x,y,-z
-x,-y,-z
x,-y,z
1/2+x,1/2+y,z
1/2-x,1/2+y,-z
1/2-x,1/2-y,-z
1/2+x,1/2-y,z
loop_
_atom_site_type_symbol
_atom_site_label
_atom_site_fract_x
_atom_site_fract_y
_atom_site_fract_z
Si Si1 0.757222 0.165971 0.373347
Si Si2 0.134226 0.331615 0.155574
Si Si3 0.425610 0.166497 0.347223
Si Si4 0.351033 0.662299 0.082502
Si Si5 0.557294 0.335984 0.894995
Si Si6 0.479273 0.166707 0.647540
Si Si7 0.163505 0.332590 0.359716
O O1 0.750000 0.250000 0.500000
O O2 0.812148 0.201204 0.240680
O O3 0.715239 0.218437 0.343506
O O4 0.750595 0.000000 0.409717
O O5 0.137629 0.500000 0.135276
O O6 0.076277 0.274173 0.241948
O O7 0.161259 0.278310 0.232426
O O8 0.161393 0.258908 0.008373
O O9 0.416520 0.246934 0.243063
O O10 0.482138 0.203843 0.307610
O O11 0.384859 0.224039 0.498385
O O12 0.418616 0.000000 0.335805
O O13 0.342916 0.500000 0.057310
O O14 0.408410 0.688588 0.043095
O O15 0.556992 0.500000 0.859085
O O16 0.500000 0.281057 0.000000
O O17 0.500000 0.235413 0.500000
O O18 0.474357 0.000000 0.635740
O O19 0.159587 0.500000 0.361478
#
# Coordination Sequence:
#
# PCOD8081959 Si02
#       7
#     8   8   8   8   8   8   8
#     4  10  21  38  58  78 103 135 172 215 261 307
#     4  10  19  33  55  80 106 137 173 209 252 309
#     4  10  18  30  53  80 103 129 168 216 257 300
#     4  10  22  38  53  73 106 142 171 210 263 307
#     4  10  21  36  51  69 101 141 174 208 255 308
#     4   9  15  27  49  77 107 135 164 204 255 302
#     4   9  18  33  54  80 105 131 167 213 260 302
#
# _framework density 19.240259999999999
#
# number of rings (size 3 to 8) (size 9 to 14) (size 15 to 20)
#    0.000    2.286    1.429    1.714    0.000    2.000 
#    0.000    1.429    0.000    0.857    0.000    0.000 
#    0.000    0.000    0.000    0.000    0.000    0.000 
#
# Total GULP energy -347204.603147 kJ/mol
# GULP energy per Si atom -12400.164398 kJ/mol
# Density = 1.919647 g / cm^3
# Si number density = 19.240260 Si / 1000 Ang^3
#
#
#
# Elastic Constant Matrix: (Units=GPa)
#
#
# Indices 1 2 3 4 5 6 
#
# 1 116.0623 31.5955 52.0169 0.0000 2.1019 0.0000
# 2 31.5955 43.0423 50.3433 0.0000 10.0756 0.0000
# 3 52.0169 50.3433 132.3951 0.0000 16.4389 0.0000
# 4 0.0000 0.0000 0.0000 26.4990 0.0000 6.2734
# 5 2.1019 10.0756 16.4389 0.0000 31.3561 0.0000
# 6 0.0000 0.0000 0.0000 6.2734 0.0000 17.2068
#
#
#
# Elastic Compliance Matrix: (Units=1/GPa)
#
#
# Indices 1 2 3 4 5 6 
#
# 1 0.011309 -0.005985 -0.002473 0.000000 0.002462 0.000000
# 2 -0.005985 0.045902 -0.014249 0.000000 -0.006878 0.000000
# 3 -0.002473 -0.014249 0.014284 0.000000 -0.002744 0.000000
# 4 0.000000 0.000000 0.000000 0.041302 0.000000 -0.015058
# 5 0.002462 -0.006878 -0.002744 0.000000 0.035376 0.000000
# 6 0.000000 0.000000 0.000000 -0.015058 0.000000 0.063607
#
#
# Mechanical properties :
#
#
# Convention : Reuss Voigt Hill
#
# Bulk Modulus (GPa) = 38.34214 62.15679 50.24947
# Shear Modulus (GPa) = 18.80493 25.51530 22.16011
#
# Velocity S-wave (km/s) = 3.12969 3.64557 3.39744
# Velocity P-wave (km/s) = 5.74728 7.07785 6.44699
#
# Compressibility (1/GPa) = 0.02608096
#
# Stress axis : x y z
#
# Youngs Moduli (GPa) = 88.42332 21.78531 70.01048
#
# Poissons Ratio (x) = 0.13039 0.17314
# Poissons Ratio (y) = 0.52925 0.99756
# Poissons Ratio (z) = 0.21867 0.31041
#
# Static dielectric constant tensor:
#      x y z
#    x 3.722260 0.000000 -0.034110 
#    y 0.000000 3.079780 0.000000 
#    z -0.034110 0.000000 3.479860 
# 
# 
# High freq. dielectric constant tensor:
#      x y z
#    x 1.759130 0.000000 0.001740 
#    y 0.000000 1.705340 0.000000 
#    z 0.001740 0.000000 1.753150 
# 
# From -- ./inp_files/110324.got.cif
#   From: 2010.06.25/outbox.cif.g09.slc.cpg/sg12_56_cif.got.tgz:110324.got - 2010.06.28 00:19:55.
