data_PCOD8081018
_publ_section_title
;
Structure prediction by ZEFSAII (Michael W. Deem and Ramdas Pophale) SiO2 
 PCOD8081018
Probable space group: C 2/M
;
_chemical_formula_sum "Si O2"
_cell_formula_units_Z 40
_cell_length_a 20.586144
_cell_length_b 8.841801
_cell_length_c 21.506768
_cell_angle_alpha 90.000000
_cell_angle_beta 35.387964
_cell_angle_gamma 90.000000
_cell_volume 2267.001997
_symmetry_space_group_name_H-M "C 2/M"
_symmetry_group_IT_number 12
_symmetry_cell_setting 'monoclinic'
loop_
_space_group_symop_operation_xyz
x,y,z
-x,y,-z
-x,-y,-z
x,-y,z
1/2+x,1/2+y,z
1/2-x,1/2+y,-z
1/2-x,1/2-y,-z
1/2+x,1/2-y,z
loop_
_atom_site_type_symbol
_atom_site_label
_atom_site_fract_x
_atom_site_fract_y
_atom_site_fract_z
Si Si1 0.393641 0.674727 0.266679
Si Si2 0.815961 0.325370 0.503174
Si Si3 0.250087 0.677974 0.932035
Si Si4 0.037060 0.175633 0.039079
Si Si5 0.026471 0.322368 0.273718
O O1 0.417059 0.500000 0.266640
O O2 0.257831 0.709084 0.377002
O O3 0.431903 0.706928 0.166656
O O4 0.464956 0.778982 0.257379
O O5 0.816219 0.500000 0.487527
O O6 0.750000 0.250000 0.500000
O O7 0.947123 0.275533 0.395502
O O8 0.253098 0.500000 0.938063
O O9 0.358330 0.731893 0.808883
O O10 0.250000 0.750000 0.000000
O O11 0.141652 0.725062 0.978150
O O12 0.072374 0.000000 0.012212
O O13 0.000000 0.228974 0.000000
O O14 0.053751 0.500000 0.250924
#
# Coordination Sequence:
#
# PCOD8081018 Si02
#       5
#     8   8   8   8   8
#     4   9  16  29  49  72 102 136 169 207 253 304
#     4   8  15  26  43  70 100 130 164 205 252 302
#     4  12  23  35  53  76 104 136 173 215 260 307
#     4  10  21  36  54  77 106 139 173 210 256 309
#     4  10  18  29  48  75 104 131 166 211 258 305
#
# _framework density 17.644449999999999
#
# number of rings (size 3 to 8) (size 9 to 14) (size 15 to 20)
#    0.000    2.200    2.000    2.400    0.000    1.200 
#    0.000    0.000    0.000    1.200    0.000    8.400 
#    0.000    0.000    0.000    0.000    0.000    0.000 
#
# Total GULP energy -247769.817701 kJ/mol
# GULP energy per Si atom -12388.490885 kJ/mol
# Density = 1.760429 g / cm^3
# Si number density = 17.644450 Si / 1000 Ang^3
#
#
#
# Elastic Constant Matrix: (Units=GPa)
#
#
# Indices 1 2 3 4 5 6 
#
# 1 74.5849 35.1962 59.7416 0.0000 -0.5331 0.0001
# 2 35.1962 81.2133 54.1334 -0.0001 -8.0605 0.0002
# 3 59.7416 54.1334 192.1921 0.0000 -8.9062 0.0000
# 4 0.0000 -0.0001 0.0000 24.0595 0.0000 -5.6459
# 5 -0.5331 -8.0605 -8.9062 0.0000 18.9576 0.0000
# 6 0.0001 0.0002 0.0000 -5.6459 0.0000 20.2539
#
#
#
# Elastic Compliance Matrix: (Units=1/GPa)
#
#
# Indices 1 2 3 4 5 6 
#
# 1 0.019957 -0.005909 -0.004733 0.000000 -0.004174 0.000000
# 2 -0.005909 0.017301 -0.002763 0.000000 0.005892 0.000000
# 3 -0.004733 -0.002763 0.007556 0.000000 0.002242 0.000000
# 4 0.000000 0.000000 0.000000 0.044473 0.000000 0.012397
# 5 -0.004174 0.005892 0.002242 0.000000 0.056190 0.000000
# 6 0.000000 0.000000 0.000000 0.012397 0.000000 0.052829
#
#
# Mechanical properties :
#
#
# Convention : Reuss Voigt Hill
#
# Bulk Modulus (GPa) = 55.54092 71.79251 63.66672
# Shear Modulus (GPa) = 21.63416 25.91548 23.77482
#
# Velocity S-wave (km/s) = 3.50539 3.83660 3.67473
# Velocity P-wave (km/s) = 6.92314 7.77192 7.35978
#
# Compressibility (1/GPa) = 0.01800474
#
# Stress axis : x y z
#
# Youngs Moduli (GPa) = 50.10851 57.80168 132.33755
#
# Poissons Ratio (x) = 0.34153 0.62630
# Poissons Ratio (y) = 0.29607 0.36568
# Poissons Ratio (z) = 0.23714 0.15972
#
# Static dielectric constant tensor:
#      x y z
#    x 2.828080 0.000000 -0.058020 
#    y 0.000000 3.235190 0.000000 
#    z -0.058020 0.000000 4.314820 
# 
# 
# High freq. dielectric constant tensor:
#      x y z
#    x 1.615710 0.000000 -0.007860 
#    y 0.000000 1.685610 0.000000 
#    z -0.007860 0.000000 1.718070 
# 
# From -- ./inp_files/162391.got.cif
#   From: 2010.06.25/outbox.cif.g09.slc.cpg/sg12_82_cif.got.tgz:162391.got - 2010.06.28 00:19:55.
