data_PCOD8081310
_publ_section_title
;
Structure prediction by ZEFSAII (Michael W. Deem and Ramdas Pophale) SiO2 
 PCOD8081310
Probable space group: C 2/M
;
_chemical_formula_sum "Si O2"
_cell_formula_units_Z 56
_cell_length_a 27.468823
_cell_length_b 8.801631
_cell_length_c 17.531115
_cell_angle_alpha 90.000000
_cell_angle_beta 53.199520
_cell_angle_gamma 90.000000
_cell_volume 3393.883016
_symmetry_space_group_name_H-M "C 2/M"
_symmetry_group_IT_number 12
_symmetry_cell_setting 'monoclinic'
loop_
_space_group_symop_operation_xyz
x,y,z
-x,y,-z
-x,-y,-z
x,-y,z
1/2+x,1/2+y,z
1/2-x,1/2+y,-z
1/2-x,1/2-y,-z
1/2+x,1/2-y,z
loop_
_atom_site_type_symbol
_atom_site_label
_atom_site_fract_x
_atom_site_fract_y
_atom_site_fract_z
Si Si1 0.708618 0.819287 0.474105
Si Si2 0.271063 0.170827 0.711165
Si Si3 0.229098 0.180681 0.907304
Si Si4 0.951289 0.175410 0.710260
Si Si5 0.154640 0.678466 0.102728
Si Si6 0.585213 0.673660 0.564383
Si Si7 0.410306 0.171848 0.597166
O O1 0.750000 0.750000 0.500000
O O2 0.731785 0.751627 0.370118
O O3 0.638392 0.773357 0.553096
O O4 0.712339 0.000000 0.471884
O O5 0.230259 0.241472 0.817927
O O6 0.338878 0.175446 0.680176
O O7 0.248720 0.000000 0.720037
O O8 0.292653 0.225999 0.887649
O O9 0.219894 0.000000 0.919890
O O10 0.173449 0.264428 0.000885
O O11 0.908310 0.240576 0.816611
O O12 0.943896 0.268851 0.639868
O O13 0.021874 0.193179 0.670039
O O14 0.935023 0.000000 0.710524
O O15 0.143437 0.500000 0.112136
O O16 0.607130 0.500000 0.544568
O O17 0.572321 0.722962 0.489918
O O18 0.431618 0.000000 0.559801
#
# Coordination Sequence:
#
# PCOD8081310 Si02
#       7
#     8   8   8   8   8   8   8
#     4  10  20  35  55  76  98 124 157 199 247 292
#     4   8  15  29  48  69  93 125 160 194 233 283
#     4   9  16  30  46  64  93 127 164 201 237 277
#     4  11  21  31  44  65  96 133 167 200 238 280
#     4  10  19  29  44  66  94 128 167 204 237 277
#     4  10  21  34  47  68  96 126 163 201 239 288
#     4  10  18  30  46  67  95 129 166 199 236 283
#
# _framework density 16.500274999999998
#
# number of rings (size 3 to 8) (size 9 to 14) (size 15 to 20)
#    0.000    2.286    1.429    3.429    0.000    4.571 
#    0.000    1.429    0.000    0.000    0.000    1.000 
#    0.000    8.000    0.000    0.000    0.000    0.000 
#
# Total GULP energy -347037.125627 kJ/mol
# GULP energy per Si atom -12394.183058 kJ/mol
# Density = 1.646272 g / cm^3
# Si number density = 16.500275 Si / 1000 Ang^3
#
#
#
# Elastic Constant Matrix: (Units=GPa)
#
#
# Indices 1 2 3 4 5 6 
#
# 1 80.4319 29.6814 53.4444 0.0000 4.8193 -0.0002
# 2 29.6814 62.1031 29.8769 -0.0006 -2.1956 0.0001
# 3 53.4444 29.8769 108.5527 0.0000 -6.3358 0.0001
# 4 0.0000 -0.0006 0.0000 25.8683 0.0000 -0.5876
# 5 4.8193 -2.1956 -6.3358 0.0000 15.9099 0.0000
# 6 -0.0002 0.0001 0.0001 -0.5876 0.0000 21.8814
#
#
#
# Elastic Compliance Matrix: (Units=1/GPa)
#
#
# Indices 1 2 3 4 5 6 
#
# 1 0.021847 -0.006166 -0.009721 0.000000 -0.011340 0.000000
# 2 -0.006166 0.020304 -0.002334 0.000000 0.003740 0.000000
# 3 -0.009721 -0.002334 0.015146 0.000000 0.008654 0.000000
# 4 0.000000 0.000000 0.000000 0.038681 0.000000 0.001039
# 5 -0.011340 0.003740 0.008654 0.000000 0.070251 0.000000
# 6 0.000000 0.000000 0.000000 0.001039 0.000000 0.045729
#
#
# Mechanical properties :
#
#
# Convention : Reuss Voigt Hill
#
# Bulk Modulus (GPa) = 47.95065 53.01034 50.48050
# Shear Modulus (GPa) = 19.58085 21.93759 20.75922
#
# Velocity S-wave (km/s) = 3.44859 3.65023 3.55084
# Velocity P-wave (km/s) = 6.70676 7.06840 6.88995
#
# Compressibility (1/GPa) = 0.02085477
#
# Stress axis : x y z
#
# Youngs Moduli (GPa) = 45.77326 49.25042 66.02573
#
# Poissons Ratio (x) = 0.30367 0.64182
# Poissons Ratio (y) = 0.28223 0.15413
# Poissons Ratio (z) = 0.44495 0.11497
#
# Static dielectric constant tensor:
#      x y z
#    x 2.824520 0.000000 -0.003630 
#    y 0.000000 3.118550 0.000000 
#    z -0.003630 0.000000 3.367390 
# 
# 
# High freq. dielectric constant tensor:
#      x y z
#    x 1.588390 0.000000 -0.006180 
#    y 0.000000 1.636830 0.000000 
#    z -0.006180 0.000000 1.639570 
# 
# From -- ./inp_files/291852.got.cif
#   From: 2010.06.25/outbox.cif.g09.slc.cpg/sg12_146_cif.got.tgz:291852.got - 2010.06.28 00:19:55.
