data_PCOD8081434
_publ_section_title
;
Structure prediction by ZEFSAII (Michael W. Deem and Ramdas Pophale) SiO2 
 PCOD8081434
Probable space group: C 2/M
;
_chemical_formula_sum "Si O2"
_cell_formula_units_Z 56
_cell_length_a 20.613244
_cell_length_b 8.772870
_cell_length_c 18.064744
_cell_angle_alpha 90.000000
_cell_angle_beta 100.057114
_cell_angle_gamma 90.000000
_cell_volume 3216.582916
_symmetry_space_group_name_H-M "C 2/M"
_symmetry_group_IT_number 12
_symmetry_cell_setting 'monoclinic'
loop_
_space_group_symop_operation_xyz
x,y,z
-x,y,-z
-x,-y,-z
x,-y,z
1/2+x,1/2+y,z
1/2-x,1/2+y,-z
1/2-x,1/2-y,-z
1/2+x,1/2-y,z
loop_
_atom_site_type_symbol
_atom_site_label
_atom_site_fract_x
_atom_site_fract_y
_atom_site_fract_z
Si Si1 0.570562 0.820874 0.547974
Si Si2 0.957149 0.180065 0.305274
Si Si3 0.605719 0.676711 0.313678
Si Si4 0.056629 0.678342 0.845201
Si Si5 0.319763 0.680443 0.532185
Si Si6 0.921950 0.327178 0.991626
Si Si7 0.080655 0.176294 0.151001
O O1 0.500000 0.774903 0.500000
O O2 0.576055 0.768385 0.633804
O O3 0.626646 0.730465 0.516502
O O4 0.583675 0.000000 0.544353
O O5 0.919127 0.226503 0.221552
O O6 0.032245 0.241065 0.313398
O O7 0.951638 0.000000 0.316224
O O8 0.600986 0.500000 0.330533
O O9 0.657824 0.745790 0.382400
O O10 0.627942 0.704648 0.232278
O O11 0.062561 0.500000 0.829008
O O12 0.098697 0.719877 0.928272
O O13 0.981457 0.716625 0.848469
O O14 0.312984 0.500000 0.530040
O O15 0.250000 0.750000 0.500000
O O16 0.900904 0.500000 0.972088
O O17 0.886247 0.223577 0.921130
O O18 0.000000 0.304945 0.000000
O O19 0.058624 0.000000 0.144537
#
# Coordination Sequence:
#
# PCOD8081434 Si02
#       7
#     8   8   8   8   8   8   8
#     4  11  22  35  53  78 102 128 168 209 249 302
#     4  10  18  30  48  70  93 125 164 201 248 292
#     4   8  16  29  45  65  92 124 158 200 249 294
#     4   9  16  25  36  55  87 122 154 193 240 286
#     4  11  22  38  55  73 101 134 169 210 258 302
#     4   8  14  23  33  50  81 120 153 187 237 285
#     4   9  15  23  37  58  81 115 159 196 235 287
#
# _framework density 17.409779
#
# number of rings (size 3 to 8) (size 9 to 14) (size 15 to 20)
#    0.000    2.571    1.429    3.857    0.000    3.714 
#    0.000    2.143    0.000    0.000    0.000    0.000 
#    0.000    1.143    0.000    3.429    0.000    7.000 
#
# Total GULP energy -346882.868394 kJ/mol
# GULP energy per Si atom -12388.673871 kJ/mol
# Density = 1.737015 g / cm^3
# Si number density = 17.409779 Si / 1000 Ang^3
#
#
#
# Elastic Constant Matrix: (Units=GPa)
#
#
# Indices 1 2 3 4 5 6 
#
# 1 50.1408 19.3611 37.7792 0.0000 3.9874 0.0000
# 2 19.3611 52.2135 40.1758 0.0000 2.9681 0.0000
# 3 37.7792 40.1758 180.2472 0.0000 7.5395 0.0000
# 4 0.0000 0.0000 0.0000 33.0575 0.0000 -2.6533
# 5 3.9874 2.9681 7.5395 0.0000 10.0926 0.0000
# 6 0.0000 0.0000 0.0000 -2.6533 0.0000 16.2635
#
#
#
# Elastic Compliance Matrix: (Units=1/GPa)
#
#
# Indices 1 2 3 4 5 6 
#
# 1 0.025634 -0.006320 -0.003735 0.000000 -0.005479 0.000000
# 2 -0.006320 0.024766 -0.004124 0.000000 -0.001706 0.000000
# 3 -0.003735 -0.004124 0.007368 0.000000 -0.002815 0.000000
# 4 0.000000 0.000000 0.000000 0.030652 0.000000 0.005001
# 5 -0.005479 -0.001706 -0.002815 0.000000 0.103852 0.000000
# 6 0.000000 0.000000 0.000000 0.005001 0.000000 0.062303
#
#
# Mechanical properties :
#
#
# Convention : Reuss Voigt Hill
#
# Bulk Modulus (GPa) = 34.00249 53.02597 43.51423
# Shear Modulus (GPa) = 17.08024 24.23508 20.65766
#
# Velocity S-wave (km/s) = 3.13560 3.73505 3.44838
# Velocity P-wave (km/s) = 5.71686 7.00889 6.39558
#
# Compressibility (1/GPa) = 0.02940961
#
# Stress axis : x y z
#
# Youngs Moduli (GPa) = 39.01071 40.37806 135.72598
#
# Poissons Ratio (x) = 0.25519 0.50693
# Poissons Ratio (y) = 0.24654 0.55976
# Poissons Ratio (z) = 0.14570 0.16653
#
# Static dielectric constant tensor:
#      x y z
#    x 2.518030 0.000000 0.157850 
#    y 0.000000 3.200890 0.000000 
#    z 0.157850 0.000000 4.117040 
# 
# 
# High freq. dielectric constant tensor:
#      x y z
#    x 1.582260 0.000000 0.002800 
#    y 0.000000 1.673130 0.000000 
#    z 0.002800 0.000000 1.708540 
# 
# From -- ./inp_files/280330.got.cif
#   From: 2010.06.25/outbox.cif.g09.slc.cpg/sg12_141_cif.got.tgz:280330.got - 2010.06.28 00:19:55.
