data_PCOD8081840
_publ_section_title
;
Structure prediction by ZEFSAII (Michael W. Deem and Ramdas Pophale) SiO2 
 PCOD8081840
Probable space group: C 2/M
;
_chemical_formula_sum "Si O2"
_cell_formula_units_Z 64
_cell_length_a 25.699301
_cell_length_b 14.943944
_cell_length_c 16.262970
_cell_angle_alpha 90.000000
_cell_angle_beta 30.571826
_cell_angle_gamma 90.000000
_cell_volume 3176.714728
_symmetry_space_group_name_H-M "C 2/M"
_symmetry_group_IT_number 12
_symmetry_cell_setting 'monoclinic'
loop_
_space_group_symop_operation_xyz
x,y,z
-x,y,-z
-x,-y,-z
x,-y,z
1/2+x,1/2+y,z
1/2-x,1/2+y,-z
1/2-x,1/2-y,-z
1/2+x,1/2-y,z
loop_
_atom_site_type_symbol
_atom_site_label
_atom_site_fract_x
_atom_site_fract_y
_atom_site_fract_z
Si Si1 0.654677 0.210188 0.966344
Si Si2 0.707652 0.099820 0.560835
Si Si3 0.854263 0.902897 0.992400
Si Si4 0.020383 0.396766 0.380465
Si Si5 0.113759 0.603195 0.863473
Si Si6 0.062562 0.711833 0.648819
Si Si7 0.230351 0.399676 0.007795
Si Si8 0.415675 0.596494 0.345461
O O1 0.687369 0.314077 0.905200
O O2 0.539549 0.201621 0.157644
O O3 0.731762 0.168220 0.929237
O O4 0.665157 0.158591 0.866965
O O5 0.682332 0.118599 0.690491
O O6 0.657371 0.172575 0.570783
O O7 0.831057 0.107270 0.388111
O O8 0.669276 0.000000 0.588197
O O9 0.974302 0.908303 0.847134
O O10 0.804764 0.000000 0.087328
O O11 0.833052 0.889220 0.922967
O O12 0.990009 0.500000 0.412101
O O13 0.137579 0.379125 0.196709
O O14 0.000000 0.362779 0.500000
O O15 0.944885 0.340757 0.425624
O O16 0.109011 0.500000 0.897647
O O17 0.000000 0.639126 0.000000
O O18 0.086194 0.815672 0.594182
O O19 0.220170 0.500000 0.985723
O O20 0.395736 0.500000 0.419012
#
# Coordination Sequence:
#
# PCOD8081840 Si02
#       8
#     8   8   8   8   8   8   8   8
#     4  10  18  30  51  78 102 129 166 205 249 302
#     4  10  19  32  52  77 104 133 163 202 253 302
#     4   9  18  33  52  72  97 134 176 212 241 282
#     4   9  18  32  50  77 108 129 155 205 261 306
#     4  10  19  31  49  76 109 132 153 200 262 308
#     4  10  18  31  54  77  99 131 169 202 247 307
#     4   9  17  30  52  76 100 131 166 205 253 302
#     4   9  19  34  52  72  99 134 173 211 242 282
#
# _framework density 20.146599999999999
#
# number of rings (size 3 to 8) (size 9 to 14) (size 15 to 20)
#    0.000    2.500    1.250    1.500    0.000    1.000 
#    2.250    0.000    0.000    1.500    0.000    0.000 
#    0.000    0.000    0.000    0.000    0.000    0.000 
#
# Total GULP energy -396550.554354 kJ/mol
# GULP energy per Si atom -12392.204824 kJ/mol
# Density = 2.010075 g / cm^3
# Si number density = 20.146600 Si / 1000 Ang^3
#
#
#
# Elastic Constant Matrix: (Units=GPa)
#
#
# Indices 1 2 3 4 5 6 
#
# 1 92.9692 56.3496 23.4402 0.0000 4.3306 0.0000
# 2 56.3496 150.0743 21.3205 0.0000 14.0494 0.0000
# 3 23.4402 21.3205 25.2466 0.0000 1.4404 0.0000
# 4 0.0000 0.0000 0.0000 13.7268 0.0000 -1.9806
# 5 4.3306 14.0494 1.4404 0.0000 29.5657 0.0000
# 6 0.0000 0.0000 0.0000 -1.9806 0.0000 27.7860
#
#
#
# Elastic Compliance Matrix: (Units=1/GPa)
#
#
# Indices 1 2 3 4 5 6 
#
# 1 0.016373 -0.004563 -0.011366 0.000000 0.000324 0.000000
# 2 -0.004563 0.009178 -0.003313 0.000000 -0.003532 0.000000
# 3 -0.011366 -0.003313 0.052922 0.000000 0.000661 0.000000
# 4 0.000000 0.000000 0.000000 0.073607 0.000000 0.005247
# 5 0.000324 -0.003532 0.000661 0.000000 0.035421 0.000000
# 6 0.000000 0.000000 0.000000 0.005247 0.000000 0.036363
#
#
# Mechanical properties :
#
#
# Convention : Reuss Voigt Hill
#
# Bulk Modulus (GPa) = 25.00699 52.27895 38.64297
# Shear Modulus (GPa) = 18.13711 25.36102 21.74906
#
# Velocity S-wave (km/s) = 3.00368 3.55184 3.28920
# Velocity P-wave (km/s) = 4.94661 6.54418 5.80066
#
# Compressibility (1/GPa) = 0.03998881
#
# Stress axis : x y z
#
# Youngs Moduli (GPa) = 61.07747 108.95699 18.89581
#
# Poissons Ratio (x) = 0.49719 0.21477
# Poissons Ratio (y) = 0.27871 0.06259
# Poissons Ratio (z) = 0.69421 0.36092
#
# Static dielectric constant tensor:
#      x y z
#    x 3.626680 0.000000 -0.292310 
#    y 0.000000 4.091360 0.000000 
#    z -0.292310 0.000000 3.229140 
# 
# 
# High freq. dielectric constant tensor:
#      x y z
#    x 1.781020 0.000000 -0.029870 
#    y 0.000000 1.808790 0.000000 
#    z -0.029870 0.000000 1.733420 
# 
# From -- ./inp_files/240651.got.cif
#   From: 2010.06.25/outbox.cif.g09.slc.cpg/sg12_121_cif.got.tgz:240651.got - 2010.06.28 00:19:55.
