data_PCOD8081850
_publ_section_title
;
Structure prediction by ZEFSAII (Michael W. Deem and Ramdas Pophale) SiO2 
 PCOD8081850
Probable space group: C 2/M
;
_chemical_formula_sum "Si O2"
_cell_formula_units_Z 64
_cell_length_a 15.301984
_cell_length_b 24.956668
_cell_length_c 14.508683
_cell_angle_alpha 90.000000
_cell_angle_beta 141.377649
_cell_angle_gamma 90.000000
_cell_volume 3458.400304
_symmetry_space_group_name_H-M "C 2/M"
_symmetry_group_IT_number 12
_symmetry_cell_setting 'monoclinic'
loop_
_space_group_symop_operation_xyz
x,y,z
-x,y,-z
-x,-y,-z
x,-y,z
1/2+x,1/2+y,z
1/2-x,1/2+y,-z
1/2-x,1/2-y,-z
1/2+x,1/2-y,z
loop_
_atom_site_type_symbol
_atom_site_label
_atom_site_fract_x
_atom_site_fract_y
_atom_site_fract_z
Si Si1 0.952895 0.559102 0.678317
Si Si2 0.876558 0.172165 0.330747
Si Si3 0.071819 0.853460 0.342596
Si Si4 0.273405 0.276720 0.834690
Si Si5 0.168458 0.649111 0.311808
Si Si6 0.034137 0.760976 0.175279
Si Si7 0.303638 0.559865 0.671221
Si Si8 0.126518 0.616467 0.674034
O O1 0.990087 0.500000 0.746536
O O2 0.924911 0.596635 0.744278
O O3 0.817634 0.556103 0.503114
O O4 0.079804 0.579535 0.720120
O O5 0.826399 0.225827 0.240100
O O6 0.749137 0.143004 0.280084
O O7 0.000000 0.190231 0.500000
O O8 0.945319 0.133357 0.309918
O O9 0.219843 0.844825 0.514624
O O10 0.042119 0.796468 0.272401
O O11 0.075791 0.901765 0.271731
O O12 0.346538 0.280242 0.796017
O O13 0.182311 0.330102 0.768974
O O14 0.382119 0.269782 0.006906
O O15 0.061942 0.699049 0.223329
O O16 0.363483 0.500000 0.739551
O O17 0.249089 0.585101 0.721603
O O18 0.000000 0.630489 0.500000
#
# Coordination Sequence:
#
# PCOD8081850 Si02
#       8
#     8   8   8   8   8   8   8   8
#     4   9  18  31  51  78 102 129 172 216 255 298
#     4   9  19  33  50  73 103 134 168 211 253 300
#     4  10  18  32  53  74 101 136 173 210 250 305
#     4  10  20  33  48  75 108 136 166 203 254 311
#     4   9  19  34  51  74 103 134 171 214 259 295
#     4  10  20  33  50  74 104 139 170 204 255 311
#     4   9  17  31  51  76 105 134 167 211 254 298
#     4  10  18  30  51  78 106 136 165 206 257 305
#
# _framework density 18.505666000000002
#
# number of rings (size 3 to 8) (size 9 to 14) (size 15 to 20)
#    0.000    2.500    1.250    1.125    1.750    2.000 
#    0.000    0.625    0.000    6.000    0.000    7.000 
#    0.000    0.000    0.000    0.000    0.000    0.125 
#
# Total GULP energy -396701.749752 kJ/mol
# GULP energy per Si atom -12396.929680 kJ/mol
# Density = 1.846355 g / cm^3
# Si number density = 18.505666 Si / 1000 Ang^3
#
#
#
# Elastic Constant Matrix: (Units=GPa)
#
#
# Indices 1 2 3 4 5 6 
#
# 1 126.5658 82.7542 30.1190 0.0000 3.4211 0.0000
# 2 82.7542 151.6923 37.0897 0.0000 3.7056 0.0000
# 3 30.1190 37.0897 43.1725 0.0000 2.5187 0.0000
# 4 0.0000 0.0000 0.0000 3.8548 0.0000 0.8710
# 5 3.4211 3.7056 2.5187 0.0000 13.9349 0.0000
# 6 0.0000 0.0000 0.0000 0.8710 0.0000 28.3237
#
#
#
# Elastic Compliance Matrix: (Units=1/GPa)
#
#
# Indices 1 2 3 4 5 6 
#
# 1 0.012740 -0.006036 -0.003652 0.000000 -0.000863 0.000000
# 2 -0.006036 0.011217 -0.005395 0.000000 -0.000526 0.000000
# 3 -0.003652 -0.005395 0.030531 0.000000 -0.003187 0.000000
# 4 0.000000 0.000000 0.000000 0.261230 0.000000 -0.008033
# 5 -0.000863 -0.000526 -0.003187 0.000000 0.072690 0.000000
# 6 0.000000 0.000000 0.000000 -0.008033 0.000000 0.035553
#
#
# Mechanical properties :
#
#
# Convention : Reuss Voigt Hill
#
# Bulk Modulus (GPa) = 41.11429 69.03962 55.07696
# Shear Modulus (GPa) = 10.81698 20.65386 15.73542
#
# Velocity S-wave (km/s) = 2.42031 3.34441 2.91916
# Velocity P-wave (km/s) = 5.48415 7.23199 6.41785
#
# Compressibility (1/GPa) = 0.02432244
#
# Stress axis : x y z
#
# Youngs Moduli (GPa) = 78.49183 89.14827 32.75312
#
# Poissons Ratio (x) = 0.53812 0.11961
# Poissons Ratio (y) = 0.47380 0.17670
# Poissons Ratio (z) = 0.28665 0.48095
#
# Static dielectric constant tensor:
#      x y z
#    x 3.609200 0.000000 0.062090 
#    y 0.000000 3.532970 0.000000 
#    z 0.062090 0.000000 3.073520 
# 
# 
# High freq. dielectric constant tensor:
#      x y z
#    x 1.728770 0.000000 0.002660 
#    y 0.000000 1.707670 0.000000 
#    z 0.002660 0.000000 1.681760 
# 
# From -- ./inp_files/218526.got.cif
#   From: 2010.06.25/outbox.cif.g09.slc.cpg/sg12_110_cif.got.tgz:218526.got - 2010.06.28 00:19:55.
