data_PCOD8081939
_publ_section_title
;
Structure prediction by ZEFSAII (Michael W. Deem and Ramdas Pophale) SiO2 
 PCOD8081939
Probable space group: C 2/M
;
_chemical_formula_sum "Si O2"
_cell_formula_units_Z 52
_cell_length_a 30.925568
_cell_length_b 9.187463
_cell_length_c 13.882665
_cell_angle_alpha 90.000000
_cell_angle_beta 135.966065
_cell_angle_gamma 90.000000
_cell_volume 2741.723215
_symmetry_space_group_name_H-M "C 2/M"
_symmetry_group_IT_number 12
_symmetry_cell_setting 'monoclinic'
loop_
_space_group_symop_operation_xyz
x,y,z
-x,y,-z
-x,-y,-z
x,-y,z
1/2+x,1/2+y,z
1/2-x,1/2+y,-z
1/2-x,1/2-y,-z
1/2+x,1/2-y,z
loop_
_atom_site_type_symbol
_atom_site_label
_atom_site_fract_x
_atom_site_fract_y
_atom_site_fract_z
Si Si1 0.304679 0.825846 0.753902
Si Si2 0.409787 0.662649 0.018629
Si Si3 0.616215 0.835358 0.294778
Si Si4 0.964476 0.171075 0.304314
Si Si5 0.593241 0.328070 0.593317
Si Si6 0.825197 0.326499 0.419231
Si Si7 0.000000 0.236470 0.000000
O O1 0.334511 0.767696 0.701543
O O2 0.241303 0.741166 0.665339
O O3 0.295997 0.000000 0.746015
O O4 0.353573 0.774659 0.913282
O O5 0.384099 0.500000 0.998465
O O6 0.444577 0.728798 0.167781
O O7 0.456831 0.645228 0.003268
O O8 0.627745 0.770602 0.420135
O O9 0.636294 0.000000 0.335561
O O10 0.545430 0.828052 0.142863
O O11 0.913232 0.210954 0.303707
O O12 0.031841 0.233231 0.440860
O O13 0.972822 0.000000 0.315436
O O14 0.603520 0.500000 0.594338
O O15 0.651386 0.239967 0.643863
O O16 0.820242 0.500000 0.402229
#
# Coordination Sequence:
#
# PCOD8081939 Si02
#       7
#     8   8   8   8   8   8   4
#     4  10  21  37  53  72  99 138 178 210 248 304
#     4  10  19  33  52  78 108 136 166 209 255 298
#     4   9  19  33  51  75 106 138 169 205 251 301
#     4   8  16  32  55  78 104 136 169 204 251 301
#     4   9  17  33  55  78 102 134 172 208 246 303
#     4  11  21  34  52  77 104 133 169 215 259 296
#     4  10  18  30  52  82 109 136 165 200 247 308
#
# _framework density 18.966175
#
# number of rings (size 3 to 8) (size 9 to 14) (size 15 to 20)
#    0.000    2.462    0.000    3.692    0.000    0.615 
#    0.000   11.538    0.000    0.000    0.000    0.000 
#    0.000    0.000    0.000    0.000    0.000    0.000 
#
# Total GULP energy -322155.168334 kJ/mol
# GULP energy per Si atom -12390.583397 kJ/mol
# Density = 1.892301 g / cm^3
# Si number density = 18.966175 Si / 1000 Ang^3
#
#
#
# Elastic Constant Matrix: (Units=GPa)
#
#
# Indices 1 2 3 4 5 6 
#
# 1 99.3236 33.0322 45.1454 0.0000 3.1255 0.0000
# 2 33.0322 68.6945 23.2968 0.0000 2.8036 0.0000
# 3 45.1454 23.2968 93.1675 0.0000 -5.3584 0.0000
# 4 0.0000 0.0000 0.0000 23.5229 0.0000 0.5735
# 5 3.1255 2.8036 -5.3584 0.0000 33.2605 0.0000
# 6 0.0000 0.0000 0.0000 0.5735 0.0000 22.3842
#
#
#
# Elastic Compliance Matrix: (Units=1/GPa)
#
#
# Indices 1 2 3 4 5 6 
#
# 1 0.014417 -0.004861 -0.005879 0.000000 -0.001892 0.000000
# 2 -0.004861 0.017678 -0.002144 0.000000 -0.001379 0.000000
# 3 -0.005879 -0.002144 0.014293 0.000000 0.003036 0.000000
# 4 0.000000 0.000000 0.000000 0.042538 0.000000 -0.001090
# 5 -0.001892 -0.001379 0.003036 0.000000 0.030849 0.000000
# 6 0.000000 0.000000 0.000000 -0.001090 0.000000 0.044702
#
#
# Mechanical properties :
#
#
# Convention : Reuss Voigt Hill
#
# Bulk Modulus (GPa) = 48.49959 51.57050 50.03505
# Shear Modulus (GPa) = 25.36542 26.48093 25.92317
#
# Velocity S-wave (km/s) = 3.66102 3.74066 3.70105
# Velocity P-wave (km/s) = 6.59529 6.77543 6.68597
#
# Compressibility (1/GPa) = 0.02061873
#
# Stress axis : x y z
#
# Youngs Moduli (GPa) = 69.36490 56.56672 69.96522
#
# Poissons Ratio (x) = 0.27499 0.41132
# Poissons Ratio (y) = 0.33720 0.15002
# Poissons Ratio (z) = 0.40779 0.12129
#
# Static dielectric constant tensor:
#      x y z
#    x 3.581730 0.000000 -0.299470 
#    y 0.000000 3.147070 0.000000 
#    z -0.299470 0.000000 3.776920 
# 
# 
# High freq. dielectric constant tensor:
#      x y z
#    x 1.739730 0.000000 -0.005240 
#    y 0.000000 1.711150 0.000000 
#    z -0.005240 0.000000 1.732820 
# 
# From -- ./inp_files/249594.got.cif
#   From: 2010.06.25/outbox.cif.g09.slc.cpg/sg12_125_cif.got.tgz:249594.got - 2010.06.28 00:19:55.
