data_PCOD8081974
_publ_section_title
;
Structure prediction by ZEFSAII (Michael W. Deem and Ramdas Pophale) SiO2 
 PCOD8081974
Probable space group: C 2/M
;
_chemical_formula_sum "Si O2"
_cell_formula_units_Z 64
_cell_length_a 24.076917
_cell_length_b 17.781341
_cell_length_c 12.723072
_cell_angle_alpha 90.000000
_cell_angle_beta 141.379261
_cell_angle_gamma 90.000000
_cell_volume 3399.812768
_symmetry_space_group_name_H-M "C 2/M"
_symmetry_group_IT_number 12
_symmetry_cell_setting 'monoclinic'
loop_
_space_group_symop_operation_xyz
x,y,z
-x,y,-z
-x,-y,-z
x,-y,z
1/2+x,1/2+y,z
1/2-x,1/2+y,-z
1/2-x,1/2-y,-z
1/2+x,1/2-y,z
loop_
_atom_site_type_symbol
_atom_site_label
_atom_site_fract_x
_atom_site_fract_y
_atom_site_fract_z
Si Si1 0.894589 0.661632 0.120564
Si Si2 0.295483 0.915168 0.585460
Si Si3 0.593698 0.292306 0.698124
Si Si4 0.074267 0.415542 0.414616
Si Si5 0.405392 0.179297 0.894770
Si Si6 0.224091 0.091043 0.973820
Si Si7 0.799579 0.679635 0.274032
Si Si8 0.300418 0.299083 0.659764
O O1 0.918464 0.735728 0.222288
O O2 0.971266 0.600155 0.245043
O O3 0.890892 0.689467 0.996034
O O4 0.804991 0.619247 0.020836
O O5 0.373964 0.902361 0.617651
O O6 0.326223 0.875029 0.737822
O O7 0.203530 0.882397 0.397397
O O8 0.274931 0.000000 0.583706
O O9 0.500000 0.305237 0.500000
O O10 0.631965 0.373025 0.793277
O O11 0.670244 0.255796 0.738579
O O12 0.086743 0.500000 0.472062
O O13 0.110744 0.364264 0.562290
O O14 0.396528 0.261339 0.823073
O O15 0.500000 0.145158 0.000000
O O16 0.216709 0.000000 0.964698
O O17 0.239638 0.124629 0.113404
O O18 0.746854 0.704130 0.298053
O O19 0.250000 0.250000 0.500000
#
# Coordination Sequence:
#
# PCOD8081974 Si02
#       8
#     8   8   8   8   8   8   8   8
#     4  11  21  37  54  83 115 146 189 228 283 338
#     4   9  19  33  50  78 111 144 178 221 278 329
#     4  11  22  38  59  80 108 147 188 236 278 327
#     4  10  18  30  53  82 114 144 176 223 278 340
#     4  11  20  33  54  81 111 146 185 228 276 330
#     4  11  24  38  56  82 112 149 189 231 280 332
#     4  10  19  38  56  82 112 144 186 228 282 330
#     4   9  19  34  55  80 107 145 188 224 262 326
#
# _framework density 18.824566999999998
#
# number of rings (size 3 to 8) (size 9 to 14) (size 15 to 20)
#    0.000    1.750    2.500    3.750    0.000    2.000 
#    0.000    1.875    0.000    0.375    0.000    5.250 
#    0.000    0.000    0.000    0.000    0.000    0.000 
#
# Total GULP energy -396553.312700 kJ/mol
# GULP energy per Si atom -12392.291022 kJ/mol
# Density = 1.878172 g / cm^3
# Si number density = 18.824567 Si / 1000 Ang^3
#
#
#
# Elastic Constant Matrix: (Units=GPa)
#
#
# Indices 1 2 3 4 5 6 
#
# 1 35.4208 28.1404 27.7537 0.0000 -19.7262 0.0000
# 2 28.1404 109.8981 63.1247 0.0000 2.6271 0.0000
# 3 27.7537 63.1247 117.0554 0.0000 -15.1981 0.0000
# 4 0.0000 0.0000 0.0000 29.0533 0.0000 3.1850
# 5 -19.7262 2.6271 -15.1981 0.0000 25.5047 0.0000
# 6 0.0000 0.0000 0.0000 3.1850 0.0000 20.9040
#
#
#
# Elastic Compliance Matrix: (Units=1/GPa)
#
#
# Indices 1 2 3 4 5 6 
#
# 1 0.084652 -0.024590 0.002189 0.000000 0.069310 0.000000
# 2 -0.024590 0.021252 -0.009087 0.000000 -0.026622 0.000000
# 3 0.002189 -0.009087 0.014378 0.000000 0.011196 0.000000
# 4 0.000000 0.000000 0.000000 0.035004 0.000000 -0.005333
# 5 0.069310 -0.026622 0.011196 0.000000 0.102229 0.000000
# 6 0.000000 0.000000 0.000000 -0.005333 0.000000 0.048650
#
#
# Mechanical properties :
#
#
# Convention : Reuss Voigt Hill
#
# Bulk Modulus (GPa) = 17.45027 55.60133 36.52580
# Shear Modulus (GPa) = 12.87854 24.64944 18.76399
#
# Velocity S-wave (km/s) = 2.61843 3.62253 3.16061
# Velocity P-wave (km/s) = 4.29321 6.86277 5.72404
#
# Compressibility (1/GPa) = 0.05730569
#
# Stress axis : x y z
#
# Youngs Moduli (GPa) = 11.81305 47.05543 69.55110
#
# Poissons Ratio (x) = 1.15709 -0.15222
# Poissons Ratio (y) = 0.29048 0.63199
# Poissons Ratio (z) = -0.02585 0.42758
#
# Static dielectric constant tensor:
#      x y z
#    x 3.279960 0.000000 -0.082930 
#    y 0.000000 3.636860 0.000000 
#    z -0.082930 0.000000 3.780190 
# 
# 
# High freq. dielectric constant tensor:
#      x y z
#    x 1.710760 0.000000 -0.018940 
#    y 0.000000 1.725720 0.000000 
#    z -0.018940 0.000000 1.745920 
# 
# From -- ./inp_files/183811.got.cif
#   From: 2010.06.25/outbox.cif.g09.slc.cpg/sg12_92_cif.got.tgz:183811.got - 2010.06.28 00:19:55.
