data_PCOD8081289
_publ_section_title
;
Structure prediction by ZEFSAII (Michael W. Deem and Ramdas Pophale) SiO2 
 PCOD8081289
Probable space group: C 2/M
;
_chemical_formula_sum "Si O2"
_cell_formula_units_Z 56
_cell_length_a 26.830782
_cell_length_b 8.847119
_cell_length_c 17.693108
_cell_angle_alpha 90.000000
_cell_angle_beta 126.530977
_cell_angle_gamma 90.000000
_cell_volume 3374.770222
_symmetry_space_group_name_H-M "C 2/M"
_symmetry_group_IT_number 12
_symmetry_cell_setting 'monoclinic'
loop_
_space_group_symop_operation_xyz
x,y,z
-x,y,-z
-x,-y,-z
x,-y,z
1/2+x,1/2+y,z
1/2-x,1/2+y,-z
1/2-x,1/2-y,-z
1/2+x,1/2-y,z
loop_
_atom_site_type_symbol
_atom_site_label
_atom_site_fract_x
_atom_site_fract_y
_atom_site_fract_z
Si Si1 0.206344 0.678938 0.784406
Si Si2 0.337704 0.327871 0.102047
Si Si3 0.464671 0.821568 0.041072
Si Si4 0.986583 0.821496 0.604412
Si Si5 0.900492 0.178647 0.395307
Si Si6 0.675161 0.820836 0.063540
Si Si7 0.483339 0.329964 0.208101
O O1 0.209361 0.500000 0.789796
O O2 0.178117 0.744184 0.835505
O O3 0.163518 0.733042 0.676163
O O4 0.275459 0.746377 0.834456
O O5 0.312536 0.500000 0.081103
O O6 0.410974 0.325814 0.159670
O O7 0.307177 0.238605 0.004312
O O8 0.499306 0.765903 0.148051
O O9 0.467604 0.000000 0.043972
O O10 0.500000 0.754728 0.000000
O O11 0.393409 0.765500 0.974444
O O12 0.924487 0.781001 0.501585
O O13 0.047729 0.760326 0.616765
O O14 0.982446 0.759027 0.686799
O O15 0.995322 0.000000 0.616391
O O16 0.889328 0.000000 0.375908
O O17 0.680633 0.000000 0.070440
O O18 0.506254 0.500000 0.213530
#
# Coordination Sequence:
#
# PCOD8081289 Si02
#       7
#     8   8   8   8   8   8   8
#     4  12  22  30  41  63  95 127 159 191 225 264
#     4  10  18  30  46  64  91 124 158 190 222 266
#     4   9  19  35  52  71  93 116 146 188 236 283
#     4   8  14  27  47  68  90 121 160 194 224 265
#     4   9  16  29  47  64  89 127 163 192 223 261
#     4  10  20  33  48  65  88 119 154 188 228 278
#     4   9  16  28  48  72  94 120 154 189 225 270
#
# _framework density 16.593722
#
# number of rings (size 3 to 8) (size 9 to 14) (size 15 to 20)
#    0.000    2.429    1.429    3.429    0.000    1.429 
#    0.000    2.143    0.000    0.000    0.000    1.000 
#    0.000    0.000    0.000    0.000    0.000    0.000 
#
# Total GULP energy -347096.335126 kJ/mol
# GULP energy per Si atom -12396.297683 kJ/mol
# Density = 1.655595 g / cm^3
# Si number density = 16.593722 Si / 1000 Ang^3
#
#
#
# Elastic Constant Matrix: (Units=GPa)
#
#
# Indices 1 2 3 4 5 6 
#
# 1 61.6513 21.0075 45.2184 0.0000 -11.5717 0.0000
# 2 21.0075 65.9085 38.4022 0.0000 3.5751 0.0000
# 3 45.2184 38.4022 141.4016 0.0000 -4.5680 0.0000
# 4 0.0000 0.0000 0.0000 25.7406 0.0000 -0.9289
# 5 -11.5717 3.5751 -4.5680 0.0000 20.5124 0.0000
# 6 0.0000 0.0000 0.0000 -0.9289 0.0000 15.2873
#
#
#
# Elastic Compliance Matrix: (Units=1/GPa)
#
#
# Indices 1 2 3 4 5 6 
#
# 1 0.025065 -0.005128 -0.006182 0.000000 0.013657 0.000000
# 2 -0.005128 0.019452 -0.003874 0.000000 -0.007146 0.000000
# 3 -0.006182 -0.003874 0.010083 0.000000 -0.000567 0.000000
# 4 0.000000 0.000000 0.000000 0.038935 0.000000 0.002366
# 5 0.013657 -0.007146 -0.000567 0.000000 0.057575 0.000000
# 6 0.000000 0.000000 0.000000 0.002366 0.000000 0.065558
#
#
# Mechanical properties :
#
#
# Convention : Reuss Voigt Hill
#
# Bulk Modulus (GPa) = 41.26704 53.13531 47.20117
# Shear Modulus (GPa) = 19.59936 23.26360 21.43148
#
# Velocity S-wave (km/s) = 3.44049 3.74833 3.59770
# Velocity P-wave (km/s) = 6.38010 7.12910 6.76498
#
# Compressibility (1/GPa) = 0.02423241
#
# Stress axis : x y z
#
# Youngs Moduli (GPa) = 39.89643 51.40921 99.18137
#
# Poissons Ratio (x) = 0.26364 0.61309
# Poissons Ratio (y) = 0.20460 0.38420
# Poissons Ratio (z) = 0.24662 0.19914
#
# Static dielectric constant tensor:
#      x y z
#    x 2.963310 0.000000 -0.000300 
#    y 0.000000 3.019720 0.000000 
#    z -0.000300 0.000000 3.533280 
# 
# 
# High freq. dielectric constant tensor:
#      x y z
#    x 1.591590 0.000000 0.005140 
#    y 0.000000 1.628620 0.000000 
#    z 0.005140 0.000000 1.648070 
# 
# From -- ./inp_files/291936.got.cif
#   From: 2010.06.25/outbox.cif.g09.slc.cpg/sg12_146_cif.got.tgz:291936.got - 2010.06.28 00:19:55.
