data_PCOD8081321
_publ_section_title
;
Structure prediction by ZEFSAII (Michael W. Deem and Ramdas Pophale) SiO2 
 PCOD8081321
Probable space group: C 2/M
;
_chemical_formula_sum "Si O2"
_cell_formula_units_Z 52
_cell_length_a 22.842218
_cell_length_b 13.633468
_cell_length_c 9.408534
_cell_angle_alpha 90.000000
_cell_angle_beta 95.500765
_cell_angle_gamma 90.000000
_cell_volume 2916.500083
_symmetry_space_group_name_H-M "C 2/M"
_symmetry_group_IT_number 12
_symmetry_cell_setting 'monoclinic'
loop_
_space_group_symop_operation_xyz
x,y,z
-x,y,-z
-x,-y,-z
x,-y,z
1/2+x,1/2+y,z
1/2-x,1/2+y,-z
1/2-x,1/2-y,-z
1/2+x,1/2-y,z
loop_
_atom_site_type_symbol
_atom_site_label
_atom_site_fract_x
_atom_site_fract_y
_atom_site_fract_z
Si Si1 0.061276 0.500000 0.320615
Si Si2 0.354965 0.000000 0.404872
Si Si3 0.832648 0.767700 0.161330
Si Si4 0.365027 0.174699 0.759388
Si Si5 0.228303 0.612343 0.049337
Si Si6 0.564022 0.788819 0.973475
Si Si7 0.563665 0.000000 0.833615
Si Si8 0.188087 0.710157 0.534749
O O1 0.085113 0.500000 0.487543
O O2 0.085142 0.593685 0.245097
O O3 0.990844 0.500000 0.289530
O O4 0.314204 0.906417 0.432327
O O5 0.376845 0.000000 0.246935
O O6 0.796715 0.859065 0.087767
O O7 0.903068 0.769859 0.145729
O O8 0.830940 0.769554 0.331235
O O9 0.802075 0.670371 0.087789
O O10 0.304000 0.131090 0.806951
O O11 0.354972 0.231514 0.608997
O O12 0.393555 0.242621 0.886017
O O13 0.224803 0.500000 0.003950
O O14 0.562662 0.904967 0.935519
O O15 0.500000 0.748591 0.000000
O O16 0.250000 0.750000 0.500000
#
# Coordination Sequence:
#
# PCOD8081321 Si02
#       8
#     4   4   8   8   8   8   4   8
#     4  10  18  30  46  77 107 144 181 206 260 330
#     4  10  23  33  50  80 113 147 177 228 273 315
#     4  10  22  35  53  82 106 143 183 223 274 323
#     4  10  19  30  50  76 104 141 177 214 264 320
#     4  10  20  35  56  77 108 139 180 229 271 323
#     4  11  21  33  51  76 108 144 184 219 266 321
#     4  12  19  32  53  74 108 155 185 210 264 337
#     4  11  21  36  51  74 112 145 181 223 270 322
#
# _framework density 17.829588999999999
#
# number of rings (size 3 to 8) (size 9 to 14) (size 15 to 20)
#    0.000    1.538    5.385    0.923    4.308    0.000 
#    0.000    0.769    0.000    0.462    0.000    0.000 
#    0.000    1.231    0.000    0.000    0.000    0.000 
#
# Total GULP energy -322136.949519 kJ/mol
# GULP energy per Si atom -12389.882674 kJ/mol
# Density = 1.778901 g / cm^3
# Si number density = 17.829589 Si / 1000 Ang^3
#
#
#
# Elastic Constant Matrix: (Units=GPa)
#
#
# Indices 1 2 3 4 5 6 
#
# 1 133.1718 25.1846 39.6457 0.0000 -14.3336 0.0000
# 2 25.1846 30.8760 16.0053 0.0000 1.6730 0.0000
# 3 39.6457 16.0053 107.9374 0.0000 -5.8074 0.0000
# 4 0.0000 0.0000 0.0000 59.8261 0.0000 -7.2903
# 5 -14.3336 1.6730 -5.8074 0.0000 29.7918 0.0000
# 6 0.0000 0.0000 0.0000 -7.2903 0.0000 26.9823
#
#
#
# Elastic Compliance Matrix: (Units=1/GPa)
#
#
# Indices 1 2 3 4 5 6 
#
# 1 0.010110 -0.007275 -0.002376 0.000000 0.004810 0.000000
# 2 -0.007275 0.040590 -0.003696 0.000000 -0.006500 0.000000
# 3 -0.002376 -0.003696 0.010748 0.000000 0.001160 0.000000
# 4 0.000000 0.000000 0.000000 0.017284 0.000000 0.004670
# 5 0.004810 -0.006500 0.001160 0.000000 0.036471 0.000000
# 6 0.000000 0.000000 0.000000 0.004670 0.000000 0.038323
#
#
# Mechanical properties :
#
#
# Convention : Reuss Voigt Hill
#
# Bulk Modulus (GPa) = 28.77460 48.18406 38.47933
# Shear Modulus (GPa) = 26.06800 36.06333 31.06566
#
# Velocity S-wave (km/s) = 3.82784 4.50229 4.17869
# Velocity P-wave (km/s) = 5.97580 7.35601 6.70153
#
# Compressibility (1/GPa) = 0.03475287
#
# Stress axis : x y z
#
# Youngs Moduli (GPa) = 98.91268 24.63645 93.04261
#
# Poissons Ratio (x) = 0.17924 0.22105
# Poissons Ratio (y) = 0.71963 0.34392
# Poissons Ratio (z) = 0.23500 0.09106
#
# Static dielectric constant tensor:
#      x y z
#    x 3.438710 0.000000 -0.047820 
#    y 0.000000 2.926630 0.000000 
#    z -0.047820 0.000000 3.663500 
# 
# 
# High freq. dielectric constant tensor:
#      x y z
#    x 1.688000 0.000000 -0.006330 
#    y 0.000000 1.629420 0.000000 
#    z -0.006330 0.000000 1.711180 
# 
# From -- ./inp_files/95844.got.cif
#   From: 2010.06.25/outbox.cif.g09.slc.cpg/sg12_48_cif.got.tgz:95844.got - 2010.06.28 00:19:55.
