data_PCOD8081680
_publ_section_title
;
Structure prediction by ZEFSAII (Michael W. Deem and Ramdas Pophale) SiO2 
 PCOD8081680
Probable space group: C 2/M
;
_chemical_formula_sum "Si O2"
_cell_formula_units_Z 56
_cell_length_a 28.193974
_cell_length_b 12.957560
_cell_length_c 11.123894
_cell_angle_alpha 90.000000
_cell_angle_beta 126.655469
_cell_angle_gamma 90.000000
_cell_volume 3260.172762
_symmetry_space_group_name_H-M "C 2/M"
_symmetry_group_IT_number 12
_symmetry_cell_setting 'monoclinic'
loop_
_space_group_symop_operation_xyz
x,y,z
-x,y,-z
-x,-y,-z
x,-y,z
1/2+x,1/2+y,z
1/2-x,1/2+y,-z
1/2-x,1/2-y,-z
1/2+x,1/2-y,z
loop_
_atom_site_type_symbol
_atom_site_label
_atom_site_fract_x
_atom_site_fract_y
_atom_site_fract_z
Si Si1 0.055869 0.619915 0.309953
Si Si2 0.688055 0.114612 0.146784
Si Si3 0.734018 0.772452 0.838335
Si Si4 0.886820 0.382809 0.351061
Si Si5 0.333071 0.199371 0.639841
Si Si6 0.770421 0.879194 0.671937
Si Si7 0.426939 0.120216 0.152475
O O1 0.062460 0.500000 0.281042
O O2 0.070935 0.632525 0.472543
O O3 0.098363 0.691596 0.293760
O O4 0.988890 0.662425 0.192057
O O5 0.750233 0.166925 0.206736
O O6 0.680497 0.115899 0.277947
O O7 0.693107 0.000000 0.104351
O O8 0.630873 0.170679 0.998269
O O9 0.665794 0.800520 0.726043
O O10 0.772544 0.858147 0.820137
O O11 0.750000 0.750000 0.000000
O O12 0.860824 0.500000 0.307852
O O13 0.925966 0.359898 0.293223
O O14 0.293701 0.164195 0.466627
O O15 0.319456 0.314533 0.670392
O O16 0.779316 0.000000 0.658882
O O17 0.425927 0.000000 0.120773
#
# Coordination Sequence:
#
# PCOD8081680 Si02
#       7
#     8   8   8   8   8   8   8
#     4  10  18  30  50  74 101 136 174 206 248 312
#     4  10  20  32  45  70 107 134 162 211 254 300
#     4  11  20  30  50  74  98 130 170 204 258 307
#     4  10  18  31  49  72 103 133 167 212 255 308
#     4  10  20  32  50  75 101 134 174 205 244 301
#     4  10  20  35  52  73 103 137 170 211 255 300
#     4   9  18  30  46  70 102 139 169 203 258 307
#
# _framework density 17.177002999999999
#
# number of rings (size 3 to 8) (size 9 to 14) (size 15 to 20)
#    0.000    2.000    2.857    2.143    0.000    2.857 
#    0.000    2.143    0.000    0.000    0.000   10.000 
#    0.000    2.286    0.000    0.000    0.000    0.000 
#
# Total GULP energy -346924.623772 kJ/mol
# GULP energy per Si atom -12390.165135 kJ/mol
# Density = 1.713791 g / cm^3
# Si number density = 17.177003 Si / 1000 Ang^3
#
#
#
# Elastic Constant Matrix: (Units=GPa)
#
#
# Indices 1 2 3 4 5 6 
#
# 1 111.4628 44.7839 24.3641 0.0000 8.1234 0.0000
# 2 44.7839 79.9114 23.0468 0.0000 7.3270 0.0000
# 3 24.3641 23.0468 53.1832 0.0000 -5.5258 0.0000
# 4 0.0000 0.0000 0.0000 16.8650 0.0000 1.8367
# 5 8.1234 7.3270 -5.5258 0.0000 33.7483 0.0000
# 6 0.0000 0.0000 0.0000 1.8367 0.0000 24.4709
#
#
#
# Elastic Compliance Matrix: (Units=1/GPa)
#
#
# Indices 1 2 3 4 5 6 
#
# 1 0.012128 -0.005624 -0.003352 0.000000 -0.002247 0.000000
# 2 -0.005624 0.017516 -0.005360 0.000000 -0.003327 0.000000
# 3 -0.003352 -0.005360 0.023262 0.000000 0.005779 0.000000
# 4 0.000000 0.000000 0.000000 0.059783 0.000000 -0.004487
# 5 -0.002247 -0.003327 0.005779 0.000000 0.031841 0.000000
# 6 0.000000 0.000000 0.000000 -0.004487 0.000000 0.041202
#
#
# Mechanical properties :
#
#
# Convention : Reuss Voigt Hill
#
# Bulk Modulus (GPa) = 41.26467 47.66079 44.46273
# Shear Modulus (GPa) = 22.47378 25.17433 23.82405
#
# Velocity S-wave (km/s) = 3.62106 3.83245 3.72825
# Velocity P-wave (km/s) = 6.44656 6.88409 6.66891
#
# Compressibility (1/GPa) = 0.02423381
#
# Stress axis : x y z
#
# Youngs Moduli (GPa) = 82.45610 57.08937 42.98867
#
# Poissons Ratio (x) = 0.32105 0.14411
# Poissons Ratio (y) = 0.46371 0.23042
# Poissons Ratio (z) = 0.27642 0.30600
#
# Static dielectric constant tensor:
#      x y z
#    x 3.382820 0.000000 -0.064170 
#    y 0.000000 2.983290 0.000000 
#    z -0.064170 0.000000 3.385040 
# 
# 
# High freq. dielectric constant tensor:
#      x y z
#    x 1.670210 0.000000 -0.016600 
#    y 0.000000 1.617950 0.000000 
#    z -0.016600 0.000000 1.665470 
# 
# From -- ./inp_files/181933.got.cif
#   From: 2010.06.25/outbox.cif.g09.slc.cpg/sg12_91_cif.got.tgz:181933.got - 2010.06.28 00:19:55.
