data_PCOD8081379
_publ_section_title
;
Structure prediction by ZEFSAII (Michael W. Deem and Ramdas Pophale) SiO2 
 PCOD8081379
Probable space group: C 2/M
;
_chemical_formula_sum "Si O2"
_cell_formula_units_Z 48
_cell_length_a 28.274510
_cell_length_b 7.752825
_cell_length_c 12.597440
_cell_angle_alpha 90.000000
_cell_angle_beta 107.691089
_cell_angle_gamma 90.000000
_cell_volume 2630.858698
_symmetry_space_group_name_H-M "C 2/M"
_symmetry_group_IT_number 12
_symmetry_cell_setting 'monoclinic'
loop_
_space_group_symop_operation_xyz
x,y,z
-x,y,-z
-x,-y,-z
x,-y,z
1/2+x,1/2+y,z
1/2-x,1/2+y,-z
1/2-x,1/2-y,-z
1/2+x,1/2-y,z
loop_
_atom_site_type_symbol
_atom_site_label
_atom_site_fract_x
_atom_site_fract_y
_atom_site_fract_z
Si Si1 0.877187 0.801792 0.732285
Si Si2 0.646744 0.190846 0.906105
Si Si3 0.694526 0.203150 0.496282
Si Si4 0.196603 0.704638 0.734440
Si Si5 0.940615 0.500000 0.077833
Si Si6 0.696289 0.694018 0.143186
Si Si7 0.054023 0.500000 0.171088
O O1 0.845776 0.799247 0.602940
O O2 0.843314 0.721067 0.803761
O O3 0.924173 0.673515 0.760249
O O4 0.894731 0.000000 0.765233
O O5 0.655172 0.265640 0.792700
O O6 0.671719 0.000000 0.929542
O O7 0.588214 0.171056 0.896428
O O8 0.676092 0.306685 0.009830
O O9 0.750000 0.250000 0.500000
O O10 0.684454 0.273752 0.608710
O O11 0.686334 0.000000 0.480909
O O12 0.198341 0.500000 0.729457
O O13 0.249740 0.781981 0.809322
O O14 0.995909 0.500000 0.159828
O O15 0.938216 0.500000 0.949557
O O16 0.701928 0.500000 0.187874
#
# Coordination Sequence:
#
# PCOD8081379 Si02
#       7
#     8   8   8   8   4   8   4
#     4  11  21  35  55  80 114 144 182 227 284 333
#     4   9  17  33  51  74 102 140 177 226 268 328
#     4  11  20  33  51  77 112 151 186 229 268 326
#     4   9  18  30  49  73 110 144 182 216 266 328
#     4   9  20  34  61  79 109 135 194 235 276 342
#     4  10  18  30  47  76 110 145 170 215 270 336
#     4  11  20  40  57  85 111 147 184 241 288 317
#
# _framework density 18.244993999999998
#
# number of rings (size 3 to 8) (size 9 to 14) (size 15 to 20)
#    0.500    1.500    4.167    1.000    0.000    0.000 
#    0.000    4.167    0.000    2.000    0.000    1.167 
#    0.000    0.000    0.000    0.000    0.000    0.000 
#
# Total GULP energy -297397.768229 kJ/mol
# GULP energy per Si atom -12391.573676 kJ/mol
# Density = 1.820347 g / cm^3
# Si number density = 18.244994 Si / 1000 Ang^3
#
#
#
# Elastic Constant Matrix: (Units=GPa)
#
#
# Indices 1 2 3 4 5 6 
#
# 1 104.7606 21.0873 60.5111 0.0000 3.8361 0.0000
# 2 21.0873 54.6887 13.8193 0.0000 7.9636 0.0000
# 3 60.5111 13.8193 131.4260 0.0000 -10.6517 0.0000
# 4 0.0000 0.0000 0.0000 20.9362 0.0000 5.4285
# 5 3.8361 7.9636 -10.6517 0.0000 32.4334 0.0000
# 6 0.0000 0.0000 0.0000 5.4285 0.0000 14.5465
#
#
#
# Elastic Compliance Matrix: (Units=1/GPa)
#
#
# Indices 1 2 3 4 5 6 
#
# 1 0.013979 -0.003372 -0.006317 0.000000 -0.002900 0.000000
# 2 -0.003372 0.020567 -0.001014 0.000000 -0.004984 0.000000
# 3 -0.006317 -0.001014 0.010997 0.000000 0.004608 0.000000
# 4 0.000000 0.000000 0.000000 0.052881 0.000000 -0.019734
# 5 -0.002900 -0.004984 0.004608 0.000000 0.033913 0.000000
# 6 0.000000 0.000000 0.000000 -0.019734 0.000000 0.076109
#
#
# Mechanical properties :
#
#
# Convention : Reuss Voigt Hill
#
# Bulk Modulus (GPa) = 41.42754 53.52341 47.47547
# Shear Modulus (GPa) = 21.01738 26.61373 23.81555
#
# Velocity S-wave (km/s) = 3.39773 3.82342 3.61684
# Velocity P-wave (km/s) = 6.17643 6.99221 6.59694
#
# Compressibility (1/GPa) = 0.02413853
#
# Stress axis : x y z
#
# Youngs Moduli (GPa) = 71.53528 48.62043 90.93139
#
# Poissons Ratio (x) = 0.16393 0.57439
# Poissons Ratio (y) = 0.24120 0.09222
# Poissons Ratio (z) = 0.45187 0.04931
#
# Static dielectric constant tensor:
#      x y z
#    x 3.313520 0.000000 -0.203770 
#    y 0.000000 3.102860 0.000000 
#    z -0.203770 0.000000 3.452180 
# 
# 
# High freq. dielectric constant tensor:
#      x y z
#    x 1.678680 0.000000 -0.013660 
#    y 0.000000 1.687780 0.000000 
#    z -0.013660 0.000000 1.707450 
# 
# From -- ./inp_files/185976.got.cif
#   From: 2010.06.25/outbox.cif.g09.slc.cpg/sg12_93_cif.got.tgz:185976.got - 2010.06.28 00:19:55.
