data_PCOD8081715
_publ_section_title
;
Structure prediction by ZEFSAII (Michael W. Deem and Ramdas Pophale) SiO2 
 PCOD8081715
Probable space group: C 2/M
;
_chemical_formula_sum "Si O2"
_cell_formula_units_Z 64
_cell_length_a 24.579816
_cell_length_b 8.868455
_cell_length_c 20.086641
_cell_angle_alpha 90.000000
_cell_angle_beta 125.224484
_cell_angle_gamma 90.000000
_cell_volume 3576.860560
_symmetry_space_group_name_H-M "C 2/M"
_symmetry_group_IT_number 12
_symmetry_cell_setting 'monoclinic'
loop_
_space_group_symop_operation_xyz
x,y,z
-x,y,-z
-x,-y,-z
x,-y,z
1/2+x,1/2+y,z
1/2-x,1/2+y,-z
1/2-x,1/2-y,-z
1/2+x,1/2-y,z
loop_
_atom_site_type_symbol
_atom_site_label
_atom_site_fract_x
_atom_site_fract_y
_atom_site_fract_z
Si Si1 0.928908 0.821224 0.708809
Si Si2 0.180489 0.823469 0.469689
Si Si3 0.338730 0.677314 0.761727
Si Si4 0.319593 0.178319 0.027582
Si Si5 0.704814 0.326836 0.631783
Si Si6 0.827425 0.172644 0.246986
Si Si7 0.693782 0.677661 0.116930
Si Si8 0.077778 0.175556 0.801382
O O1 0.879689 0.755750 0.617109
O O2 0.902463 0.770922 0.763307
O O3 0.003149 0.757580 0.751281
O O4 0.931255 0.000000 0.703997
O O5 0.250000 0.750000 0.500000
O O6 0.163789 0.789036 0.535693
O O7 0.187407 0.000000 0.460598
O O8 0.332364 0.500000 0.757403
O O9 0.272836 0.734763 0.679101
O O10 0.343684 0.732714 0.841878
O O11 0.378044 0.228856 0.117245
O O12 0.311891 0.000000 0.023553
O O13 0.250000 0.250000 0.000000
O O14 0.339222 0.233990 0.967563
O O15 0.726442 0.500000 0.647372
O O16 0.660796 0.289304 0.666498
O O17 0.771715 0.281789 0.177025
O O18 0.895839 0.198538 0.255397
O O19 0.802821 0.000000 0.220730
O O20 0.686599 0.500000 0.099757
O O21 0.080546 0.000000 0.824272
#
# Coordination Sequence:
#
# PCOD8081715 Si02
#       8
#     8   8   8   8   8   8   8   8
#     4   9  18  33  52  75 105 140 177 214 256 305
#     4  10  18  30  50  75 104 135 174 219 259 303
#     4   9  17  31  51  75 103 136 173 211 252 302
#     4  12  23  36  55  79 105 132 168 215 258 306
#     4   9  17  28  46  75 104 131 168 217 262 300
#     4   9  17  30  48  72 103 135 170 211 258 305
#     4  10  19  31  52  79 103 131 170 214 257 300
#     4  10  20  35  54  74 102 141 176 211 256 308
#
# _framework density 17.892786999999998
#
# number of rings (size 3 to 8) (size 9 to 14) (size 15 to 20)
#    0.000    2.250    2.500    1.500    0.000    0.500 
#    0.000    2.500    0.000    7.500    0.000    0.000 
#    0.000    6.000    0.000    0.000    0.000    0.000 
#
# Total GULP energy -396674.690766 kJ/mol
# GULP energy per Si atom -12396.084086 kJ/mol
# Density = 1.785206 g / cm^3
# Si number density = 17.892787 Si / 1000 Ang^3
#
#
#
# Elastic Constant Matrix: (Units=GPa)
#
#
# Indices 1 2 3 4 5 6 
#
# 1 144.6291 30.8705 79.7222 0.0000 -5.6004 0.0000
# 2 30.8705 47.7567 34.3513 0.0000 -3.8113 0.0000
# 3 79.7222 34.3513 127.7782 0.0000 -8.1810 0.0000
# 4 0.0000 0.0000 0.0000 22.8589 0.0000 -0.8943
# 5 -5.6004 -3.8113 -8.1810 0.0000 29.9551 0.0000
# 6 0.0000 0.0000 0.0000 -0.8943 0.0000 18.7286
#
#
#
# Elastic Compliance Matrix: (Units=1/GPa)
#
#
# Indices 1 2 3 4 5 6 
#
# 1 0.010802 -0.002645 -0.006026 0.000000 0.000037 0.000000
# 2 -0.002645 0.026667 -0.005428 0.000000 0.001416 0.000000
# 3 -0.006026 -0.005428 0.013159 0.000000 0.001777 0.000000
# 4 0.000000 0.000000 0.000000 0.043829 0.000000 0.002093
# 5 0.000037 0.001416 0.001777 0.000000 0.034056 0.000000
# 6 0.000000 0.000000 0.000000 0.002093 0.000000 0.053494
#
#
# Mechanical properties :
#
#
# Convention : Reuss Voigt Hill
#
# Bulk Modulus (GPa) = 44.58476 67.78355 56.18416
# Shear Modulus (GPa) = 22.96951 25.98985 24.47968
#
# Velocity S-wave (km/s) = 3.58681 3.81534 3.70284
# Velocity P-wave (km/s) = 6.49041 7.57460 7.05337
#
# Compressibility (1/GPa) = 0.02242919
#
# Stress axis : x y z
#
# Youngs Moduli (GPa) = 92.57661 37.50012 75.99541
#
# Poissons Ratio (x) = 0.09919 0.45794
# Poissons Ratio (y) = 0.24487 0.41250
# Poissons Ratio (z) = 0.55786 0.20355
#
# Static dielectric constant tensor:
#      x y z
#    x 3.646820 0.000000 -0.385640 
#    y 0.000000 3.191210 0.000000 
#    z -0.385640 0.000000 3.555750 
# 
# 
# High freq. dielectric constant tensor:
#      x y z
#    x 1.686630 0.000000 -0.030170 
#    y 0.000000 1.677320 0.000000 
#    z -0.030170 0.000000 1.686040 
# 
# From -- ./inp_files/324341.got.cif
#   From: 2010.06.25/outbox.cif.g09.slc.cpg/sg12_163_cif.got.tgz:324341.got - 2010.06.28 00:19:55.
