data_PCOD8081645
_publ_section_title
;
Structure prediction by ZEFSAII (Michael W. Deem and Ramdas Pophale) SiO2 
 PCOD8081645
Probable space group: C 2/M
;
_chemical_formula_sum "Si O2"
_cell_formula_units_Z 48
_cell_length_a 21.485015
_cell_length_b 12.540907
_cell_length_c 26.701551
_cell_angle_alpha 90.000000
_cell_angle_beta 157.728500
_cell_angle_gamma 90.000000
_cell_volume 2726.688988
_symmetry_space_group_name_H-M "C 2/M"
_symmetry_group_IT_number 12
_symmetry_cell_setting 'monoclinic'
loop_
_space_group_symop_operation_xyz
x,y,z
-x,y,-z
-x,-y,-z
x,-y,z
1/2+x,1/2+y,z
1/2-x,1/2+y,-z
1/2-x,1/2-y,-z
1/2+x,1/2-y,z
loop_
_atom_site_type_symbol
_atom_site_label
_atom_site_fract_x
_atom_site_fract_y
_atom_site_fract_z
Si Si1 0.589926 0.755074 0.319452
Si Si2 0.395825 0.877329 0.570855
Si Si3 0.585820 0.774174 0.906844
Si Si4 0.289029 0.376789 0.137257
Si Si5 0.484860 0.378911 0.912807
Si Si6 0.250464 0.804472 0.182324
O O1 0.600336 0.849753 0.367340
O O2 0.762224 0.694345 0.442928
O O3 0.548172 0.809429 0.234532
O O4 0.451422 0.669786 0.232072
O O5 0.570468 0.853421 0.675604
O O6 0.348569 0.000000 0.529181
O O7 0.516439 0.667451 0.881322
O O8 0.750000 0.750000 0.000000
O O9 0.629769 0.861697 0.982198
O O10 0.314958 0.500000 0.168799
O O11 0.258775 0.316395 0.167424
O O12 0.423445 0.500000 0.862013
O O13 0.346043 0.307549 0.837002
O O14 0.654543 0.376918 0.070351
#
# Coordination Sequence:
#
# PCOD8081645 Si02
#       6
#     8   8   8   8   8   8
#     4   9  19  32  46  72 102 126 162 204 241 289
#     4  10  18  30  50  71  96 131 165 201 243 286
#     4   9  19  32  46  69  96 122 159 199 237 287
#     4   9  17  31  51  71  96 129 161 201 248 286
#     4  10  18  31  51  70  96 130 159 199 251 288
#     4   9  18  31  47  73  99 123 165 203 233 287
#
# _framework density 17.603767999999999
#
# number of rings (size 3 to 8) (size 9 to 14) (size 15 to 20)
#    0.000    2.667    0.000    3.500    0.000    4.000 
#    0.000    7.500    0.000    2.000    0.000    0.000 
#    0.000   20.000    0.000    0.000    0.000    0.000 
#
# Total GULP energy -297509.035460 kJ/mol
# GULP energy per Si atom -12396.209811 kJ/mol
# Density = 1.756370 g / cm^3
# Si number density = 17.603768 Si / 1000 Ang^3
#
#
#
# Elastic Constant Matrix: (Units=GPa)
#
#
# Indices 1 2 3 4 5 6 
#
# 1 87.0648 17.7252 27.6534 0.0058 10.1841 0.0019
# 2 17.7252 69.0088 3.3264 0.0117 11.8578 0.0033
# 3 27.6534 3.3264 93.8608 0.0235 8.6289 0.0023
# 4 0.0058 0.0117 0.0235 13.6338 -0.0053 2.5138
# 5 10.1841 11.8578 8.6289 -0.0053 26.3206 -0.0027
# 6 0.0019 0.0033 0.0023 2.5138 -0.0027 16.0734
#
#
#
# Elastic Compliance Matrix: (Units=1/GPa)
#
#
# Indices 1 2 3 4 5 6 
#
# 1 0.013540 -0.002826 -0.003634 0.000002 -0.002774 -0.000001
# 2 -0.002826 0.016297 0.000855 -0.000017 -0.006529 -0.000002
# 3 -0.003634 0.000855 0.011961 -0.000021 -0.002901 0.000001
# 4 0.000002 -0.000017 -0.000021 0.075525 0.000028 -0.011812
# 5 -0.002774 -0.006529 -0.002901 0.000028 0.042959 0.000005
# 6 -0.000001 -0.000002 0.000001 -0.011812 0.000005 0.064062
#
#
# Mechanical properties :
#
#
# Convention : Reuss Voigt Hill
#
# Bulk Modulus (GPa) = 32.69127 38.59383 35.64255
# Shear Modulus (GPa) = 20.34594 24.62084 22.48339
#
# Velocity S-wave (km/s) = 3.40335 3.74386 3.57766
# Velocity P-wave (km/s) = 5.83564 6.37651 6.11206
#
# Compressibility (1/GPa) = 0.03058921
#
# Stress axis : x y z
#
# Youngs Moduli (GPa) = 73.85673 61.35943 83.60469
#
# Poissons Ratio (x) = 0.17339 0.30381
# Poissons Ratio (y) = 0.20871 -0.07150
# Poissons Ratio (z) = 0.26839 -0.05248
#
# Static dielectric constant tensor:
#      x y z
#    x 3.280750 0.000000 -0.076600 
#    y 0.000000 3.117390 -0.000010 
#    z -0.076600 -0.000010 3.479030 
# 
# 
# High freq. dielectric constant tensor:
#      x y z
#    x 1.667440 0.000000 0.005860 
#    y 0.000000 1.660350 0.000000 
#    z 0.005860 0.000000 1.677220 
# 
# From -- ./inp_files/173396.got.cif
#   From: 2010.06.25/outbox.cif.g09.slc.cpg/sg12_87_cif.got.tgz:173396.got - 2010.06.28 00:19:55.
