data_PCOD8081069
_publ_section_title
;
Structure prediction by ZEFSAII (Michael W. Deem and Ramdas Pophale) SiO2 
 PCOD8081069
Probable space group: C 2/M
;
_chemical_formula_sum "Si O2"
_cell_formula_units_Z 40
_cell_length_a 24.103993
_cell_length_b 9.024867
_cell_length_c 20.771403
_cell_angle_alpha 90.000000
_cell_angle_beta 31.056530
_cell_angle_gamma 90.000000
_cell_volume 2331.026989
_symmetry_space_group_name_H-M "C 2/M"
_symmetry_group_IT_number 12
_symmetry_cell_setting 'monoclinic'
loop_
_space_group_symop_operation_xyz
x,y,z
-x,y,-z
-x,-y,-z
x,-y,z
1/2+x,1/2+y,z
1/2-x,1/2+y,-z
1/2-x,1/2-y,-z
1/2+x,1/2-y,z
loop_
_atom_site_type_symbol
_atom_site_label
_atom_site_fract_x
_atom_site_fract_y
_atom_site_fract_z
Si Si1 0.392583 0.827249 0.412368
Si Si2 0.008639 0.328634 0.066275
Si Si3 0.814221 0.328757 0.348696
Si Si4 0.820650 0.173507 0.018510
Si Si5 0.610363 0.326184 0.193140
O O1 0.292782 0.768768 0.553909
O O2 0.372142 0.789697 0.358073
O O3 0.499721 0.743674 0.328338
O O4 0.407878 0.000000 0.409709
O O5 0.036076 0.500000 0.053083
O O6 0.894952 0.286233 0.211256
O O7 0.102995 0.228334 0.000561
O O8 0.000000 0.293924 0.000000
O O9 0.780160 0.500000 0.380768
O O10 0.706929 0.256023 0.138222
O O11 0.800243 0.000000 0.045705
O O12 0.875193 0.213723 0.896288
O O13 0.608602 0.500000 0.207361
#
# Coordination Sequence:
#
# PCOD8081069 Si02
#       5
#     8   8   8   8   8
#     4  10  18  29  49  74 102 132 163 206 254 299
#     4  10  20  35  54  74 101 137 173 207 244 293
#     4   9  18  31  47  71 102 133 167 204 246 298
#     4  10  20  32  49  74 103 133 168 207 251 299
#     4  10  19  31  50  74 103 134 164 205 255 304
#
# _framework density 17.159817
#
# number of rings (size 3 to 8) (size 9 to 14) (size 15 to 20)
#    0.000    2.200    2.000    1.800    0.000    3.600 
#    0.000    0.000    0.000    1.200    0.000    8.400 
#    0.000    0.000    0.000    0.000    0.000    0.000 
#
# Total GULP energy -248085.381747 kJ/mol
# GULP energy per Si atom -12404.269087 kJ/mol
# Density = 1.712076 g / cm^3
# Si number density = 17.159817 Si / 1000 Ang^3
#
#
#
# Elastic Constant Matrix: (Units=GPa)
#
#
# Indices 1 2 3 4 5 6 
#
# 1 69.8814 43.7167 55.8892 0.0000 -11.9300 0.0000
# 2 43.7167 87.2465 57.6736 0.0003 -20.7795 0.0002
# 3 55.8892 57.6736 129.4937 0.0000 -19.7962 0.0001
# 4 0.0000 0.0003 0.0000 30.9395 0.0001 -9.9086
# 5 -11.9300 -20.7795 -19.7962 0.0001 30.3573 -0.0001
# 6 0.0000 0.0002 0.0001 -9.9086 -0.0001 27.0089
#
#
#
# Elastic Compliance Matrix: (Units=1/GPa)
#
#
# Indices 1 2 3 4 5 6 
#
# 1 0.025000 -0.007698 -0.007403 0.000000 -0.000272 0.000000
# 2 -0.007698 0.020125 -0.004440 0.000000 0.007855 0.000000
# 3 -0.007403 -0.004440 0.013313 0.000000 0.002733 0.000000
# 4 0.000000 0.000000 0.000000 0.036624 0.000000 0.013436
# 5 -0.000272 0.007855 0.002733 0.000000 0.039993 0.000000
# 6 0.000000 0.000000 0.000000 0.013436 0.000000 0.041954
#
#
# Mechanical properties :
#
#
# Convention : Reuss Voigt Hill
#
# Bulk Modulus (GPa) = 51.66420 66.79785 59.23103
# Shear Modulus (GPa) = 22.46766 26.28393 24.37580
#
# Velocity S-wave (km/s) = 3.62238 3.91796 3.77306
# Velocity P-wave (km/s) = 6.90424 7.71224 7.31940
#
# Compressibility (1/GPa) = 0.01935576
#
# Stress axis : x y z
#
# Youngs Moduli (GPa) = 40.00015 49.69012 75.11578
#
# Poissons Ratio (x) = 0.38250 0.55609
# Poissons Ratio (y) = 0.30791 0.33351
# Poissons Ratio (z) = 0.29612 0.22062
#
# Static dielectric constant tensor:
#      x y z
#    x 2.888490 0.000000 -0.148650 
#    y 0.000000 3.206150 0.000000 
#    z -0.148650 0.000000 3.222370 
# 
# 
# High freq. dielectric constant tensor:
#      x y z
#    x 1.627470 0.000000 -0.024400 
#    y 0.000000 1.671970 0.000000 
#    z -0.024400 0.000000 1.661730 
# 
# From -- ./inp_files/162379.got.cif
#   From: 2010.06.25/outbox.cif.g09.slc.cpg/sg12_82_cif.got.tgz:162379.got - 2010.06.28 00:19:55.
