data_PCOD8081464
_publ_section_title
;
Structure prediction by ZEFSAII (Michael W. Deem and Ramdas Pophale) SiO2 
 PCOD8081464
Probable space group: C 2/M
;
_chemical_formula_sum "Si O2"
_cell_formula_units_Z 64
_cell_length_a 26.629572
_cell_length_b 14.417773
_cell_length_c 10.035586
_cell_angle_alpha 90.000000
_cell_angle_beta 99.543100
_cell_angle_gamma 90.000000
_cell_volume 3799.732330
_symmetry_space_group_name_H-M "C 2/M"
_symmetry_group_IT_number 12
_symmetry_cell_setting 'monoclinic'
loop_
_space_group_symop_operation_xyz
x,y,z
-x,y,-z
-x,-y,-z
x,-y,z
1/2+x,1/2+y,z
1/2-x,1/2+y,-z
1/2-x,1/2-y,-z
1/2+x,1/2-y,z
loop_
_atom_site_type_symbol
_atom_site_label
_atom_site_fract_x
_atom_site_fract_y
_atom_site_fract_z
Si Si1 0.267201 0.895809 0.897405
Si Si2 0.188184 0.104748 0.094069
Si Si3 0.196205 0.894074 0.619197
Si Si4 0.247064 0.606557 0.628980
Si Si5 0.142137 0.722177 0.975565
Si Si6 0.953683 0.392402 0.385316
Si Si7 0.545840 0.894565 0.920525
Si Si8 0.648051 0.783817 0.664489
O O1 0.232044 0.869677 0.758548
O O2 0.288156 0.000000 0.893083
O O3 0.235997 0.883384 0.018446
O O4 0.314627 0.827700 0.919386
O O5 0.208626 0.134082 0.247861
O O6 0.166629 0.000000 0.082529
O O7 0.142188 0.170957 0.024667
O O8 0.229735 0.875188 0.504890
O O9 0.148729 0.822575 0.610134
O O10 0.175553 0.000000 0.615057
O O11 0.231493 0.500000 0.644520
O O12 0.195970 0.665132 0.620415
O O13 0.088691 0.676305 0.987648
O O14 0.153617 0.712022 0.825269
O O15 0.940015 0.500000 0.403490
O O16 0.970241 0.374853 0.239407
O O17 0.904444 0.331859 0.403447
O O18 0.000000 0.360789 0.500000
O O19 0.566168 0.000000 0.941686
O O20 0.500000 0.876575 0.000000
#
# Coordination Sequence:
#
# PCOD8081464 Si02
#       8
#     8   8   8   8   8   8   8   8
#     4  10  18  30  48  72 101 130 162 198 235 283
#     4  10  19  31  49  71 100 133 163 197 235 283
#     4  10  21  34  46  69 106 136 161 199 240 279
#     4  10  20  33  47  70 104 135 163 198 240 284
#     4  11  19  30  52  76  97 127 168 202 235 288
#     4   9  19  36  55  74  96 123 160 204 244 288
#     4   9  19  36  54  73  99 126 154 198 253 294
#     4  11  19  31  53  74  95 131 169 198 239 291
#
# _framework density 16.843291000000001
#
# number of rings (size 3 to 8) (size 9 to 14) (size 15 to 20)
#    0.000    2.000    2.500    2.250    0.000    1.000 
#    4.500    0.000    0.000    0.750    0.000    0.000 
#    0.000    0.000    0.000    0.000    0.000    0.000 
#
# Total GULP energy -396799.076363 kJ/mol
# GULP energy per Si atom -12399.971136 kJ/mol
# Density = 1.680496 g / cm^3
# Si number density = 16.843291 Si / 1000 Ang^3
#
#
#
# Elastic Constant Matrix: (Units=GPa)
#
#
# Indices 1 2 3 4 5 6 
#
# 1 85.3181 67.4549 27.9515 0.0000 5.9528 0.0000
# 2 67.4549 108.2187 34.6903 0.0000 12.4710 0.0000
# 3 27.9515 34.6903 28.4065 0.0000 -1.9421 0.0000
# 4 0.0000 0.0000 0.0000 22.6862 0.0000 4.2937
# 5 5.9528 12.4710 -1.9421 0.0000 22.2502 0.0000
# 6 0.0000 0.0000 0.0000 4.2937 0.0000 24.4278
#
#
#
# Elastic Compliance Matrix: (Units=1/GPa)
#
#
# Indices 1 2 3 4 5 6 
#
# 1 0.024421 -0.012252 -0.009098 0.000000 -0.000460 0.000000
# 2 -0.012252 0.024038 -0.018105 0.000000 -0.011775 0.000000
# 3 -0.009098 -0.018105 0.067529 0.000000 0.018476 0.000000
# 4 0.000000 0.000000 0.000000 0.045597 0.000000 -0.008015
# 5 -0.000460 -0.011775 0.018476 0.000000 0.053279 0.000000
# 6 0.000000 0.000000 0.000000 -0.008015 0.000000 0.042346
#
#
# Mechanical properties :
#
#
# Convention : Reuss Voigt Hill
#
# Bulk Modulus (GPa) = 26.97104 53.57073 40.27088
# Shear Modulus (GPa) = 14.34808 19.99597 17.17202
#
# Velocity S-wave (km/s) = 2.92183 3.44928 3.19645
# Velocity P-wave (km/s) = 5.23741 6.90926 6.13059
#
# Compressibility (1/GPa) = 0.03707681
#
# Stress axis : x y z
#
# Youngs Moduli (GPa) = 40.94879 41.60033 14.80853
#
# Poissons Ratio (x) = 0.50970 0.13473
# Poissons Ratio (y) = 0.50172 0.26810
# Poissons Ratio (z) = 0.37257 0.75316
#
# Static dielectric constant tensor:
#      x y z
#    x 2.859520 0.000000 -0.021940 
#    y 0.000000 3.501080 0.000000 
#    z -0.021940 0.000000 3.246570 
# 
# 
# High freq. dielectric constant tensor:
#      x y z
#    x 1.610240 0.000000 -0.005030 
#    y 0.000000 1.659410 0.000000 
#    z -0.005030 0.000000 1.658000 
# 
# From -- ./inp_files/96894.got.cif
#   From: 2010.06.25/outbox.cif.g09.slc.cpg/sg12_49_cif.got.tgz:96894.got - 2010.06.28 00:19:55.
