data_PCOD8081231
_publ_section_title
;
Structure prediction by ZEFSAII (Michael W. Deem and Ramdas Pophale) SiO2 
 PCOD8081231
Probable space group: C 2/M
;
_chemical_formula_sum "Si O2"
_cell_formula_units_Z 48
_cell_length_a 15.751849
_cell_length_b 17.577729
_cell_length_c 18.019852
_cell_angle_alpha 90.000000
_cell_angle_beta 29.074183
_cell_angle_gamma 90.000000
_cell_volume 2424.541479
_symmetry_space_group_name_H-M "C 2/M"
_symmetry_group_IT_number 12
_symmetry_cell_setting 'monoclinic'
loop_
_space_group_symop_operation_xyz
x,y,z
-x,y,-z
-x,-y,-z
x,-y,z
1/2+x,1/2+y,z
1/2-x,1/2+y,-z
1/2-x,1/2-y,-z
1/2+x,1/2-y,z
loop_
_atom_site_type_symbol
_atom_site_label
_atom_site_fract_x
_atom_site_fract_y
_atom_site_fract_z
Si Si1 0.988351 0.911865 0.838887
Si Si2 0.671180 0.674360 0.817452
Si Si3 0.812398 0.166276 0.678541
Si Si4 0.520131 0.089255 0.816862
Si Si5 0.306918 0.337870 0.853440
Si Si6 0.664330 0.840306 0.165537
O O1 0.975461 0.870251 0.768993
O O2 0.150651 0.883428 0.764762
O O3 0.012408 0.000000 0.806199
O O4 0.811439 0.893941 0.017781
O O5 0.704881 0.755783 0.755470
O O6 0.833398 0.647481 0.746575
O O7 0.500000 0.679954 0.000000
O O8 0.707167 0.103511 0.711913
O O9 0.834038 0.141138 0.747121
O O10 0.000000 0.177930 0.500000
O O11 0.511691 0.132018 0.742154
O O12 0.492986 0.000000 0.826182
O O13 0.370589 0.122330 0.984567
O O14 0.293537 0.248233 0.880478
#
# Coordination Sequence:
#
# PCOD8081231 Si02
#       6
#     8   8   8   8   8   8
#     4  10  18  29  53  86 114 136 166 214 266 315
#     4   9  18  35  58  82 108 137 173 215 259 312
#     4  11  23  38  55  75 102 140 185 226 261 303
#     4  11  21  34  55  81 110 140 171 213 265 317
#     4  10  19  35  57  79 106 140 178 216 256 310
#     4   9  17  31  54  81 108 137 172 213 253 306
#
# _framework density 19.797557000000001
#
# number of rings (size 3 to 8) (size 9 to 14) (size 15 to 20)
#    0.000    2.000    0.000    8.500    0.000    6.000 
#    0.000    7.500    0.000    0.500    0.000    0.000 
#    0.000    0.000    0.000    0.000    0.000    0.000 
#
# Total GULP energy -297452.828879 kJ/mol
# GULP energy per Si atom -12393.867870 kJ/mol
# Density = 1.975250 g / cm^3
# Si number density = 19.797557 Si / 1000 Ang^3
#
#
#
# Elastic Constant Matrix: (Units=GPa)
#
#
# Indices 1 2 3 4 5 6 
#
# 1 183.3554 57.4794 26.2334 -0.0161 -17.5716 0.0177
# 2 57.4794 94.3452 11.4036 -0.0355 -12.8665 0.0522
# 3 26.2334 11.4036 39.3292 0.0213 -3.1570 -0.0031
# 4 -0.0161 -0.0355 0.0213 3.0304 -0.0081 -7.7571
# 5 -17.5716 -12.8665 -3.1570 -0.0081 7.3785 0.0023
# 6 0.0177 0.0522 -0.0031 -7.7571 0.0023 23.9157
#
#
#
# Elastic Compliance Matrix: (Units=1/GPa)
#
#
# Indices 1 2 3 4 5 6 
#
# 1 0.008050 -0.002714 -0.003546 0.000389 0.012923 0.000124
# 2 -0.002714 0.015001 -0.000993 0.000799 0.019272 0.000227
# 3 -0.003546 -0.000993 0.028233 -0.001196 0.001903 -0.000380
# 4 0.000389 0.000799 -0.001196 1.944229 0.003737 0.630607
# 5 0.012923 0.019272 0.001903 0.003737 0.200730 0.001142
# 6 0.000124 0.000227 -0.000380 0.630607 0.001142 0.246350
#
#
# Mechanical properties :
#
#
# Convention : Reuss Voigt Hill
#
# Bulk Modulus (GPa) = 27.18898 56.36250 41.77574
# Shear Modulus (GPa) = 2.02482 21.65914 11.84198
#
# Velocity S-wave (km/s) = 1.01241 3.31120 2.44837
# Velocity P-wave (km/s) = 3.88972 6.56886 5.39814
#
# Compressibility (1/GPa) = 0.03677961
#
# Stress axis : x y z
#
# Youngs Moduli (GPa) = 124.21814 66.66168 35.41973
#
# Poissons Ratio (x) = 0.18089 0.12559
# Poissons Ratio (y) = 0.33708 0.03517
# Poissons Ratio (z) = 0.44045 0.06619
#
# Static dielectric constant tensor:
#      x y z
#    x 4.590240 -0.000020 -0.205560 
#    y -0.000020 3.512940 0.000050 
#    z -0.205560 0.000050 2.988440 
# 
# 
# High freq. dielectric constant tensor:
#      x y z
#    x 1.808410 0.000000 -0.012500 
#    y 0.000000 1.770720 0.000010 
#    z -0.012500 0.000010 1.701680 
# 
# From -- ./inp_files/317486.got.cif
#   From: 2010.06.25/outbox.cif.g09.slc.cpg/sg12_159_cif.got.tgz:317486.got - 2010.06.28 00:19:55.
