data_PCOD8081440
_publ_section_title
;
Structure prediction by ZEFSAII (Michael W. Deem and Ramdas Pophale) SiO2 
 PCOD8081440
Probable space group: C 2/M
;
_chemical_formula_sum "Si O2"
_cell_formula_units_Z 56
_cell_length_a 20.496985
_cell_length_b 8.988605
_cell_length_c 24.502683
_cell_angle_alpha 90.000000
_cell_angle_beta 45.156437
_cell_angle_gamma 90.000000
_cell_volume 3200.836296
_symmetry_space_group_name_H-M "C 2/M"
_symmetry_group_IT_number 12
_symmetry_cell_setting 'monoclinic'
loop_
_space_group_symop_operation_xyz
x,y,z
-x,y,-z
-x,-y,-z
x,-y,z
1/2+x,1/2+y,z
1/2-x,1/2+y,-z
1/2-x,1/2-y,-z
1/2+x,1/2-y,z
loop_
_atom_site_type_symbol
_atom_site_label
_atom_site_fract_x
_atom_site_fract_y
_atom_site_fract_z
Si Si1 0.574653 0.832222 0.003722
Si Si2 0.792769 0.168318 0.147200
Si Si3 0.057650 0.166872 0.846065
Si Si4 0.804562 0.329452 0.303865
Si Si5 0.208268 0.826063 0.472014
Si Si6 0.156794 0.175509 0.301594
Si Si7 0.519191 0.175626 0.551082
O O1 0.532520 0.758700 0.083084
O O2 0.604118 0.000000 0.000127
O O3 0.500000 0.829380 0.000000
O O4 0.665132 0.741388 0.932181
O O5 0.869262 0.170635 0.148633
O O6 0.705380 0.264412 0.218123
O O7 0.761805 0.000000 0.152538
O O8 0.104425 0.236203 0.764626
O O9 0.026535 0.000000 0.850795
O O10 0.827942 0.500000 0.277592
O O11 0.780890 0.300659 0.380581
O O12 0.717625 0.280931 0.318402
O O13 0.250000 0.750000 0.500000
O O14 0.113553 0.748633 0.513325
O O15 0.190929 0.000000 0.492468
O O16 0.059840 0.257430 0.364125
O O17 0.141296 0.000000 0.305850
O O18 0.500000 0.218660 0.500000
O O19 0.524411 0.000000 0.556831
#
# Coordination Sequence:
#
# PCOD8081440 Si02
#       7
#     8   8   8   8   8   8   8
#     4   9  15  23  35  53  82 121 160 195 239 294
#     4   9  16  25  37  58  89 122 158 200 246 293
#     4   9  16  24  38  59  85 119 159 201 243 291
#     4   9  18  31  47  67  94 127 164 205 251 302
#     4  11  23  39  56  76 103 136 172 214 263 311
#     4  10  18  30  48  70  96 128 167 207 252 302
#     4  11  22  35  54  78 103 132 171 215 258 307
#
# _framework density 17.495428
#
# number of rings (size 3 to 8) (size 9 to 14) (size 15 to 20)
#    0.000    2.286    1.429    2.571    0.000    7.429 
#    0.000    0.000    0.000    0.000    0.000    0.000 
#    0.000    1.143    0.000    4.286    0.000    7.143 
#
# Total GULP energy -347225.814674 kJ/mol
# GULP energy per Si atom -12400.921953 kJ/mol
# Density = 1.745561 g / cm^3
# Si number density = 17.495428 Si / 1000 Ang^3
#
#
#
# Elastic Constant Matrix: (Units=GPa)
#
#
# Indices 1 2 3 4 5 6 
#
# 1 55.0873 40.4364 37.2524 0.0001 0.1120 -0.0007
# 2 40.4364 129.4819 75.3011 0.0001 -3.2221 -0.0013
# 3 37.2524 75.3011 139.7678 0.0000 -6.3118 -0.0002
# 4 0.0001 0.0001 0.0000 39.2141 0.0000 -3.6636
# 5 0.1120 -3.2221 -6.3118 0.0000 10.2993 0.0003
# 6 -0.0007 -0.0013 -0.0002 -3.6636 0.0003 18.5584
#
#
#
# Elastic Compliance Matrix: (Units=1/GPa)
#
#
# Indices 1 2 3 4 5 6 
#
# 1 0.024884 -0.005691 -0.003763 0.000000 -0.004357 0.000001
# 2 -0.005691 0.012549 -0.005208 0.000000 0.000796 0.000001
# 3 -0.003763 -0.005208 0.011202 0.000000 0.005277 0.000000
# 4 0.000000 0.000000 0.000000 0.025980 0.000000 0.005129
# 5 -0.004357 0.000796 0.005277 0.000000 0.100624 -0.000001
# 6 0.000001 0.000001 0.000000 0.005129 -0.000001 0.054896
#
#
# Mechanical properties :
#
#
# Convention : Reuss Voigt Hill
#
# Bulk Modulus (GPa) = 51.78522 70.03520 60.91021
# Shear Modulus (GPa) = 18.80429 25.03751 21.92090
#
# Velocity S-wave (km/s) = 3.28199 3.78708 3.54354
# Velocity P-wave (km/s) = 6.63517 7.69676 7.18560
#
# Compressibility (1/GPa) = 0.01931053
#
# Stress axis : x y z
#
# Youngs Moduli (GPa) = 40.18624 79.68761 89.27108
#
# Poissons Ratio (x) = 0.45352 0.33592
# Poissons Ratio (y) = 0.22871 0.46493
# Poissons Ratio (z) = 0.15122 0.41502
#
# Static dielectric constant tensor:
#      x y z
#    x 2.547900 0.000000 -0.034210 
#    y 0.000000 3.446080 0.000000 
#    z -0.034210 0.000000 3.431560 
# 
# 
# High freq. dielectric constant tensor:
#      x y z
#    x 1.597340 0.000000 -0.006620 
#    y 0.000000 1.695350 0.000000 
#    z -0.006620 0.000000 1.695790 
# 
# From -- ./inp_files/280222.got.cif
#   From: 2010.06.25/outbox.cif.g09.slc.cpg/sg12_141_cif.got.tgz:280222.got - 2010.06.28 00:19:55.
