data_PCOD8081393
_publ_section_title
;
Structure prediction by ZEFSAII (Michael W. Deem and Ramdas Pophale) SiO2 
 PCOD8081393
Probable space group: C 2/M
;
_chemical_formula_sum "Si O2"
_cell_formula_units_Z 64
_cell_length_a 25.159236
_cell_length_b 8.934558
_cell_length_c 18.544215
_cell_angle_alpha 90.000000
_cell_angle_beta 117.935768
_cell_angle_gamma 90.000000
_cell_volume 3682.751590
_symmetry_space_group_name_H-M "C 2/M"
_symmetry_group_IT_number 12
_symmetry_cell_setting 'monoclinic'
loop_
_space_group_symop_operation_xyz
x,y,z
-x,y,-z
-x,-y,-z
x,-y,z
1/2+x,1/2+y,z
1/2-x,1/2+y,-z
1/2-x,1/2-y,-z
1/2+x,1/2-y,z
loop_
_atom_site_type_symbol
_atom_site_label
_atom_site_fract_x
_atom_site_fract_y
_atom_site_fract_z
Si Si1 0.167103 0.327443 0.511108
Si Si2 0.365129 0.823655 0.665435
Si Si3 0.468133 0.827278 0.547849
Si Si4 0.996866 0.678080 0.723858
Si Si5 0.382515 0.322217 0.147729
Si Si6 0.696486 0.825379 0.008224
Si Si7 0.277123 0.325662 0.185622
Si Si8 0.252573 0.176962 0.677359
O O1 0.187606 0.500000 0.525436
O O2 0.163194 0.260870 0.427416
O O3 0.102587 0.306320 0.507193
O O4 0.213395 0.231312 0.586010
O O5 0.434050 0.771755 0.722575
O O6 0.322248 0.777549 0.704964
O O7 0.368016 0.000000 0.654504
O O8 0.500000 0.746143 0.500000
O O9 0.492533 0.762606 0.638855
O O10 0.486117 0.000000 0.560233
O O11 0.007176 0.500000 0.735932
O O12 0.050918 0.764845 0.795342
O O13 0.381349 0.500000 0.142666
O O14 0.364259 0.256071 0.057303
O O15 0.335155 0.261388 0.178707
O O16 0.692218 0.000000 0.987028
O O17 0.750000 0.750000 0.000000
O O18 0.713585 0.799738 0.103179
O O19 0.289317 0.500000 0.202519
O O20 0.269127 0.251671 0.260043
O O21 0.247457 0.000000 0.678385
#
# Coordination Sequence:
#
# PCOD8081393 Si02
#       8
#     8   8   8   8   8   8   8   8
#     4   9  17  29  44  66  91 117 157 198 224 258
#     4   8  16  31  48  65  89 121 158 194 225 262
#     4   8  15  27  42  60  89 123 151 184 226 266
#     4   9  17  30  48  68  87 117 160 194 222 266
#     4  10  19  31  47  70  97 121 148 187 229 278
#     4   9  16  30  49  69  94 123 151 184 225 274
#     4   8  17  30  45  68  96 119 144 181 226 273
#     4  10  18  30  48  67  91 123 151 185 233 274
#
# _framework density 17.378311
#
# number of rings (size 3 to 8) (size 9 to 14) (size 15 to 20)
#    0.000    3.125    0.000    3.375    1.750    0.000 
#    0.000    6.250    0.000    1.500    0.000    5.250 
#    0.000    0.000    0.000    0.000    0.000    0.000 
#
# Total GULP energy -396438.703182 kJ/mol
# GULP energy per Si atom -12388.709474 kJ/mol
# Density = 1.733876 g / cm^3
# Si number density = 17.378311 Si / 1000 Ang^3
#
#
#
# Elastic Constant Matrix: (Units=GPa)
#
#
# Indices 1 2 3 4 5 6 
#
# 1 77.8932 18.9010 48.8739 0.0000 7.4622 0.0000
# 2 18.9010 34.4279 25.5233 0.0000 5.3895 0.0000
# 3 48.8739 25.5233 97.9986 0.0000 22.0450 0.0000
# 4 0.0000 0.0000 0.0000 24.9260 0.0000 6.2310
# 5 7.4622 5.3895 22.0450 0.0000 24.7624 0.0000
# 6 0.0000 0.0000 0.0000 6.2310 0.0000 15.1857
#
#
#
# Elastic Compliance Matrix: (Units=1/GPa)
#
#
# Indices 1 2 3 4 5 6 
#
# 1 0.019401 -0.004267 -0.009325 0.000000 0.003384 0.000000
# 2 -0.004267 0.036943 -0.007470 0.000000 -0.000104 0.000000
# 3 -0.009325 -0.007470 0.019760 0.000000 -0.013155 0.000000
# 4 0.000000 0.000000 0.000000 0.044704 0.000000 -0.018343
# 5 0.003384 -0.000104 -0.013155 0.000000 0.051098 0.000000
# 6 0.000000 0.000000 0.000000 -0.018343 0.000000 0.073378
#
#
# Mechanical properties :
#
#
# Convention : Reuss Voigt Hill
#
# Bulk Modulus (GPa) = 29.43067 44.10179 36.76623
# Shear Modulus (GPa) = 16.73725 20.77627 18.75676
#
# Velocity S-wave (km/s) = 3.10677 3.46139 3.28886
# Velocity P-wave (km/s) = 5.46273 6.43487 5.96863
#
# Compressibility (1/GPa) = 0.03397816
#
# Stress axis : x y z
#
# Youngs Moduli (GPa) = 51.54499 27.06858 50.60773
#
# Poissons Ratio (x) = 0.11551 0.47193
# Poissons Ratio (y) = 0.21996 0.37804
# Poissons Ratio (z) = 0.48067 0.20220
#
# Static dielectric constant tensor:
#      x y z
#    x 3.524960 0.000000 -0.150360 
#    y 0.000000 2.940000 0.000000 
#    z -0.150360 0.000000 3.574140 
# 
# 
# High freq. dielectric constant tensor:
#      x y z
#    x 1.661000 0.000000 0.007190 
#    y 0.000000 1.636270 0.000000 
#    z 0.007190 0.000000 1.668320 
# 
# From -- ./inp_files/323785.got.cif
#   From: 2010.06.25/outbox.cif.g09.slc.cpg/sg12_162_cif.got.tgz:323785.got - 2010.06.28 00:19:55.
