data_PCOD8081724
_publ_section_title
;
Structure prediction by ZEFSAII (Michael W. Deem and Ramdas Pophale) SiO2 
 PCOD8081724
Probable space group: C 2/M
;
_chemical_formula_sum "Si O2"
_cell_formula_units_Z 40
_cell_length_a 13.858046
_cell_length_b 17.282700
_cell_length_c 14.921609
_cell_angle_alpha 90.000000
_cell_angle_beta 139.425174
_cell_angle_gamma 90.000000
_cell_volume 2324.539106
_symmetry_space_group_name_H-M "C 2/M"
_symmetry_group_IT_number 12
_symmetry_cell_setting 'monoclinic'
loop_
_space_group_symop_operation_xyz
x,y,z
-x,y,-z
-x,-y,-z
x,-y,z
1/2+x,1/2+y,z
1/2-x,1/2+y,-z
1/2-x,1/2-y,-z
1/2+x,1/2-y,z
loop_
_atom_site_type_symbol
_atom_site_label
_atom_site_fract_x
_atom_site_fract_y
_atom_site_fract_z
Si Si1 0.655296 0.088651 0.825285
Si Si2 0.441303 0.783604 0.725363
Si Si3 0.377981 0.240499 0.482929
Si Si4 0.227395 0.587402 0.673417
Si Si5 0.967759 0.157806 0.077618
O O1 0.520285 0.133582 0.777036
O O2 0.652624 0.103458 0.716899
O O3 0.631542 0.000000 0.832728
O O4 0.811530 0.115353 0.976104
O O5 0.439014 0.744659 0.625315
O O6 0.271437 0.790378 0.639909
O O7 0.535910 0.730438 0.858594
O O8 0.500000 0.271402 0.500000
O O9 0.342510 0.148818 0.444790
O O10 0.192289 0.500000 0.615791
O O11 0.404611 0.596972 0.804765
O O12 0.000000 0.188377 0.000000
#
# Coordination Sequence:
#
# PCOD8081724 Si02
#       5
#     8   8   8   8   8
#     4  10  18  30  50  76 104 126 156 204 253 300
#     4  10  20  32  50  74  99 134 169 198 242 293
#     4  10  19  33  49  72 104 132 165 202 240 293
#     4   9  17  29  49  77 107 129 148 195 262 309
#     4   9  18  32  50  75 102 131 164 197 243 298
#
# _framework density 17.207711
#
# number of rings (size 3 to 8) (size 9 to 14) (size 15 to 20)
#    0.000    2.400    2.000    1.200    0.000    3.600 
#    0.000    0.000    0.000    1.200    0.000    0.000 
#    0.000    0.000    0.000    0.000    0.000    0.000 
#
# Total GULP energy -247990.990276 kJ/mol
# GULP energy per Si atom -12399.549514 kJ/mol
# Density = 1.716855 g / cm^3
# Si number density = 17.207711 Si / 1000 Ang^3
#
#
#
# Elastic Constant Matrix: (Units=GPa)
#
#
# Indices 1 2 3 4 5 6 
#
# 1 102.8392 51.7175 27.6413 0.0001 20.2235 0.0001
# 2 51.7175 101.4044 31.1244 0.0001 6.3449 0.0001
# 3 27.6413 31.1244 59.1853 0.0002 2.0675 0.0002
# 4 0.0001 0.0001 0.0002 17.3916 0.0001 -1.8188
# 5 20.2235 6.3449 2.0675 0.0001 30.2918 0.0002
# 6 0.0001 0.0001 0.0002 -1.8188 0.0002 27.6725
#
#
#
# Elastic Compliance Matrix: (Units=1/GPa)
#
#
# Indices 1 2 3 4 5 6 
#
# 1 0.015612 -0.006279 -0.003680 0.000000 -0.008857 0.000000
# 2 -0.006279 0.014413 -0.004699 0.000000 0.001494 0.000000
# 3 -0.003680 -0.004699 0.021016 0.000000 0.002007 0.000000
# 4 0.000000 0.000000 0.000000 0.057897 0.000000 0.003805
# 5 -0.008857 0.001494 0.002007 0.000000 0.038475 0.000000
# 6 0.000000 0.000000 0.000000 0.003805 0.000000 0.036387
#
#
# Mechanical properties :
#
#
# Convention : Reuss Voigt Hill
#
# Bulk Modulus (GPa) = 46.03038 53.82172 49.92605
# Shear Modulus (GPa) = 22.69034 25.26756 23.97895
#
# Velocity S-wave (km/s) = 3.63521 3.83611 3.73701
# Velocity P-wave (km/s) = 6.66541 7.13909 6.90631
#
# Compressibility (1/GPa) = 0.02172478
#
# Stress axis : x y z
#
# Youngs Moduli (GPa) = 64.05172 69.38365 47.58294
#
# Poissons Ratio (x) = 0.43564 0.17511
# Poissons Ratio (y) = 0.40217 0.22360
# Poissons Ratio (z) = 0.23572 0.32604
#
# Static dielectric constant tensor:
#      x y z
#    x 3.229160 0.000000 0.132120 
#    y 0.000000 2.989330 0.000000 
#    z 0.132120 0.000000 3.339890 
# 
# 
# High freq. dielectric constant tensor:
#      x y z
#    x 1.652430 0.000000 0.017110 
#    y 0.000000 1.636090 0.000000 
#    z 0.017110 0.000000 1.679900 
# 
# From -- ./inp_files/60385.got.cif
#   From: 2010.06.25/outbox.cif.g09.slc.cpg/sg12_31_cif.got.tgz:60385.got - 2010.06.28 00:19:55.
