data_PCOD8081880
_publ_section_title
;
Structure prediction by ZEFSAII (Michael W. Deem and Ramdas Pophale) SiO2 
 PCOD8081880
Probable space group: C 2/M
;
_chemical_formula_sum "Si O2"
_cell_formula_units_Z 64
_cell_length_a 11.922669
_cell_length_b 28.573222
_cell_length_c 10.308208
_cell_angle_alpha 90.000000
_cell_angle_beta 89.999965
_cell_angle_gamma 90.000000
_cell_volume 3511.687614
_symmetry_space_group_name_H-M "C 2/M"
_symmetry_group_IT_number 12
_symmetry_cell_setting 'monoclinic'
loop_
_space_group_symop_operation_xyz
x,y,z
-x,y,-z
-x,-y,-z
x,-y,z
1/2+x,1/2+y,z
1/2-x,1/2+y,-z
1/2-x,1/2-y,-z
1/2+x,1/2-y,z
loop_
_atom_site_type_symbol
_atom_site_label
_atom_site_fract_x
_atom_site_fract_y
_atom_site_fract_z
Si Si1 0.870138 0.385799 0.850728
Si Si2 0.129862 0.385799 0.850728
Si Si3 0.278335 0.300290 0.150983
Si Si4 0.756874 0.946726 0.642519
Si Si5 0.743126 0.553274 0.642519
Si Si6 0.778335 0.800290 0.849017
Si Si7 1.000000 0.947869 0.260709
Si Si8 0.500000 0.651599 0.149927
O O1 0.829308 0.333002 0.826598
O O2 0.802179 0.419877 0.758510
O O3 0.000000 0.388455 0.815339
O O4 0.847329 0.400686 1.000000
O O5 0.197822 0.419877 0.758510
O O6 0.170692 0.333002 0.826598
O O7 0.250000 0.250000 0.216176
O O8 0.388934 0.324784 0.214072
O O9 0.302500 0.292619 0.000000
O O10 0.721597 0.927292 0.500000
O O11 0.890964 0.942815 0.650081
O O12 0.717384 0.000000 0.655904
O O13 0.782616 0.500000 0.655903
O O14 0.609036 0.557184 0.650082
O O15 0.888934 0.824784 0.785928
O O16 1.000000 0.904814 0.160106
O O17 0.000000 0.000000 0.192762
O O18 0.500000 0.663369 0.000000
#
# Coordination Sequence:
#
# PCOD8081880 Si02
#       8
#     8   8   8   8   8   8   8   8
#     4  10  21  36  54  79 110 142 179 224 274 321
#     4  10  21  36  54  79 110 142 179 224 274 321
#     4   9  18  31  50  77 109 142 178 223 271 321
#     4  10  21  37  57  80 107 142 182 222 269 327
#     4  10  21  37  57  80 107 142 182 222 269 327
#     4   9  18  31  50  77 109 142 178 223 271 321
#     4  10  19  33  54  81 110 140 178 227 276 326
#     4  10  18  30  51  82 112 142 183 225 275 335
#
# _framework density 18.224855999999999
#
# number of rings (size 3 to 8) (size 9 to 14) (size 15 to 20)
#    0.000    2.250    2.500    0.375    1.750    3.250 
#    0.000    5.000    0.000    0.750    0.000    0.000 
#    0.000    0.000    0.000    0.000    0.000    0.000 
#
# Total GULP energy -396587.449460 kJ/mol
# GULP energy per Si atom -12393.357796 kJ/mol
# Density = 1.818338 g / cm^3
# Si number density = 18.224856 Si / 1000 Ang^3
#
#
#
# Elastic Constant Matrix: (Units=GPa)
#
#
# Indices 1 2 3 4 5 6 
#
# 1 118.8107 63.6368 47.0751 0.0000 0.0001 0.0000
# 2 63.6368 134.7020 46.1489 0.0000 0.0001 0.0000
# 3 47.0751 46.1489 68.2080 0.0000 0.0001 0.0000
# 4 0.0000 0.0000 0.0000 2.0653 0.0000 0.0000
# 5 0.0001 0.0001 0.0001 0.0000 14.8135 0.0000
# 6 0.0000 0.0000 0.0000 0.0000 0.0000 29.1136
#
#
#
# Elastic Compliance Matrix: (Units=1/GPa)
#
#
# Indices 1 2 3 4 5 6 
#
# 1 0.013062 -0.004012 -0.006300 0.000000 0.000000 0.000000
# 2 -0.004012 0.010896 -0.004603 0.000000 0.000000 0.000000
# 3 -0.006300 -0.004603 0.022124 0.000000 0.000000 0.000000
# 4 0.000000 0.000000 0.000000 0.484190 0.000000 0.000000
# 5 0.000000 0.000000 0.000000 0.000000 0.067506 0.000000
# 6 0.000000 0.000000 0.000000 0.000000 0.000000 0.034348
#
#
# Mechanical properties :
#
#
# Convention : Reuss Voigt Hill
#
# Bulk Modulus (GPa) = 61.53648 70.60470 66.07059
# Shear Modulus (GPa) = 7.49203 20.18914 13.84059
#
# Velocity S-wave (km/s) = 2.02973 3.33194 2.75877
# Velocity P-wave (km/s) = 6.27149 7.32308 6.81759
#
# Compressibility (1/GPa) = 0.01625052
#
# Stress axis : x y z
#
# Youngs Moduli (GPa) = 76.55685 91.77335 45.20017
#
# Poissons Ratio (x) = 0.36823 0.28478
# Poissons Ratio (y) = 0.30718 0.20806
# Poissons Ratio (z) = 0.48234 0.42245
#
# Static dielectric constant tensor:
#      x y z
#    x 3.611350 0.000000 0.000000 
#    y 0.000000 3.531130 0.000000 
#    z 0.000000 0.000000 2.987370 
# 
# 
# High freq. dielectric constant tensor:
#      x y z
#    x 1.717390 0.000000 0.000000 
#    y 0.000000 1.711120 0.000000 
#    z 0.000000 0.000000 1.659030 
# 
# From -- ./inp_files/136679.got.cif
#   From: 2010.06.25/outbox.cif.g09.slc.cpg/sg12_69_cif.got.tgz:136679.got - 2010.06.28 00:19:55.
