data_PCOD8081317
_publ_section_title
;
Structure prediction by ZEFSAII (Michael W. Deem and Ramdas Pophale) SiO2 
 PCOD8081317
Probable space group: C 2/M
;
_chemical_formula_sum "Si O2"
_cell_formula_units_Z 64
_cell_length_a 31.015056
_cell_length_b 13.478599
_cell_length_c 9.394829
_cell_angle_alpha 90.000000
_cell_angle_beta 107.998346
_cell_angle_gamma 90.000000
_cell_volume 3735.223567
_symmetry_space_group_name_H-M "C 2/M"
_symmetry_group_IT_number 12
_symmetry_cell_setting 'monoclinic'
loop_
_space_group_symop_operation_xyz
x,y,z
-x,y,-z
-x,-y,-z
x,-y,z
1/2+x,1/2+y,z
1/2-x,1/2+y,-z
1/2-x,1/2-y,-z
1/2+x,1/2-y,z
loop_
_atom_site_type_symbol
_atom_site_label
_atom_site_fract_x
_atom_site_fract_y
_atom_site_fract_z
Si Si1 0.305786 0.112436 0.498846
Si Si2 0.468072 0.383078 0.162088
Si Si3 0.637329 0.296741 0.442109
Si Si4 0.103769 0.116528 0.689792
Si Si5 0.934882 0.117442 0.826122
Si Si6 0.772293 0.884720 0.368794
Si Si7 0.226473 0.387196 0.849894
Si Si8 0.196039 0.812755 0.893140
O O1 0.350723 0.180013 0.546436
O O2 0.272538 0.147054 0.591595
O O3 0.278216 0.124795 0.324233
O O4 0.322258 0.000000 0.537121
O O5 0.464178 0.500000 0.146427
O O6 0.441293 0.346236 0.274410
O O7 0.520940 0.353379 0.223987
O O8 0.444053 0.342799 0.994629
O O9 0.606754 0.321476 0.548453
O O10 0.608962 0.324336 0.273816
O O11 0.683758 0.358643 0.492160
O O12 0.146799 0.138439 0.834558
O O13 0.101975 0.000000 0.651517
O O14 0.925802 0.000000 0.809130
O O15 0.774141 0.830441 0.219294
O O16 0.772776 0.000000 0.337544
O O17 0.214031 0.500000 0.883537
O O18 0.193811 0.308206 0.899455
O O19 0.278420 0.361668 0.946671
#
# Coordination Sequence:
#
# PCOD8081317 Si02
#       8
#     8   8   8   8   8   8   8   8
#     4  10  21  35  48  65  92 127 165 202 236 270
#     4   8  17  32  49  71 101 127 148 182 229 284
#     4  11  19  30  47  72  94 124 157 197 233 280
#     4  10  18  30  46  71 101 125 154 191 233 279
#     4   9  17  32  51  73  99 125 151 183 229 283
#     4  10  19  32  47  67  97 127 159 199 237 274
#     4  10  19  32  47  66  92 127 165 199 236 271
#     4  10  19  31  49  68  94 130 163 197 234 277
#
# _framework density 17.134181000000002
#
# number of rings (size 3 to 8) (size 9 to 14) (size 15 to 20)
#    0.000    2.250    2.500    4.125    0.000    1.500 
#    2.250    5.625    0.000    0.000    0.000    4.375 
#    0.000    0.000    0.000    0.000    0.000    0.000 
#
# Total GULP energy -396647.527533 kJ/mol
# GULP energy per Si atom -12395.235235 kJ/mol
# Density = 1.709518 g / cm^3
# Si number density = 17.134181 Si / 1000 Ang^3
#
#
#
# Elastic Constant Matrix: (Units=GPa)
#
#
# Indices 1 2 3 4 5 6 
#
# 1 65.4773 32.9418 26.9182 0.0000 -9.3834 0.0000
# 2 32.9418 86.8365 27.7311 0.0000 -5.9650 0.0000
# 3 26.9182 27.7311 53.8215 0.0000 10.9012 0.0000
# 4 0.0000 0.0000 0.0000 21.7229 0.0000 3.7630
# 5 -9.3834 -5.9650 10.9012 0.0000 28.9525 0.0000
# 6 0.0000 0.0000 0.0000 3.7630 0.0000 12.4587
#
#
#
# Elastic Compliance Matrix: (Units=1/GPa)
#
#
# Indices 1 2 3 4 5 6 
#
# 1 0.024145 -0.004522 -0.012062 0.000000 0.011435 0.000000
# 2 -0.004522 0.015655 -0.006669 0.000000 0.004271 0.000000
# 3 -0.012062 -0.006669 0.031523 0.000000 -0.017152 0.000000
# 4 0.000000 0.000000 0.000000 0.048576 0.000000 -0.014672
# 5 0.011435 0.004271 -0.017152 0.000000 0.045584 0.000000
# 6 0.000000 0.000000 0.000000 -0.014672 0.000000 0.084697
#
#
# Mechanical properties :
#
#
# Convention : Reuss Voigt Hill
#
# Bulk Modulus (GPa) = 40.29674 42.36861 41.33267
# Shear Modulus (GPa) = 16.39571 20.52976 18.46274
#
# Velocity S-wave (km/s) = 3.09674 3.46522 3.28615
# Velocity P-wave (km/s) = 6.02957 6.38683 6.21077
#
# Compressibility (1/GPa) = 0.02481591
#
# Stress axis : x y z
#
# Youngs Moduli (GPa) = 41.41624 63.87925 31.72280
#
# Poissons Ratio (x) = 0.28886 0.38264
# Poissons Ratio (y) = 0.18728 0.21157
# Poissons Ratio (z) = 0.49957 0.42603
#
# Static dielectric constant tensor:
#      x y z
#    x 3.222810 0.000000 -0.127950 
#    y 0.000000 3.229410 0.000000 
#    z -0.127950 0.000000 3.247460 
# 
# 
# High freq. dielectric constant tensor:
#      x y z
#    x 1.638300 0.000000 -0.001050 
#    y 0.000000 1.642630 0.000000 
#    z -0.001050 0.000000 1.663460 
# 
# From -- ./inp_files/111269.got.cif
#   From: 2010.06.25/outbox.cif.g09.slc.cpg/sg12_56_cif.got.tgz:111269.got - 2010.06.28 00:19:55.
