data_PCOD8081463
_publ_section_title
;
Structure prediction by ZEFSAII (Michael W. Deem and Ramdas Pophale) SiO2 
 PCOD8081463
Probable space group: C 2/M
;
_chemical_formula_sum "Si O2"
_cell_formula_units_Z 64
_cell_length_a 14.747374
_cell_length_b 8.890420
_cell_length_c 27.396558
_cell_angle_alpha 90.000000
_cell_angle_beta 72.784672
_cell_angle_gamma 90.000000
_cell_volume 3431.049111
_symmetry_space_group_name_H-M "C 2/M"
_symmetry_group_IT_number 12
_symmetry_cell_setting 'monoclinic'
loop_
_space_group_symop_operation_xyz
x,y,z
-x,y,-z
-x,-y,-z
x,-y,z
1/2+x,1/2+y,z
1/2-x,1/2+y,-z
1/2-x,1/2-y,-z
1/2+x,1/2-y,z
loop_
_atom_site_type_symbol
_atom_site_label
_atom_site_fract_x
_atom_site_fract_y
_atom_site_fract_z
Si Si1 0.949719 0.822133 0.867220
Si Si2 0.418926 0.820990 0.691640
Si Si3 0.727603 0.678030 0.769307
Si Si4 0.457580 0.178397 0.577726
Si Si5 0.466344 0.678117 0.245907
Si Si6 0.848969 0.678079 0.500557
Si Si7 0.144041 0.822119 0.883118
Si Si8 0.241743 0.821492 0.053923
O O1 0.964698 0.766473 0.809161
O O2 0.853270 0.756748 0.905180
O O3 0.037332 0.771956 0.887135
O O4 0.946753 0.000000 0.866660
O O5 0.323431 0.753570 0.731291
O O6 0.427636 0.757837 0.635283
O O7 0.507384 0.761334 0.708491
O O8 0.418942 0.000000 0.691842
O O9 0.731126 0.500000 0.767953
O O10 0.639932 0.730821 0.749977
O O11 0.712990 0.729657 0.827686
O O12 0.379596 0.231720 0.550233
O O13 0.564780 0.232511 0.548264
O O14 0.458449 0.000000 0.577324
O O15 0.472919 0.500000 0.252272
O O16 0.835976 0.500000 0.500481
O O17 0.750000 0.750000 0.500000
O O18 0.170050 0.732080 0.927648
O O19 0.151427 0.000000 0.891417
O O20 0.240588 0.000000 0.049349
O O21 0.250000 0.750000 0.000000
#
# Coordination Sequence:
#
# PCOD8081463 Si02
#       8
#     8   8   8   8   8   8   8   8
#     4   8  17  34  54  70  94 131 162 186 233 295
#     4  10  18  30  48  72 100 130 158 192 235 285
#     4   8  16  30  50  72  96 125 158 190 231 284
#     4   8  17  32  48  67  98 133 161 188 239 301
#     4   9  17  32  51  73  98 127 160 195 232 279
#     4   9  17  33  53  70  90 126 168 205 240 282
#     4   9  17  34  55  72  91 123 161 195 229 279
#     4  11  22  35  50  72  97 124 157 197 241 286
#
# _framework density 18.653186000000002
#
# number of rings (size 3 to 8) (size 9 to 14) (size 15 to 20)
#    0.000    3.000    0.000    3.375    0.000    1.500 
#    0.000   11.250    0.000    0.000    0.000    0.000 
#    0.000    0.000    0.000    0.000    0.000    0.000 
#
# Total GULP energy -396652.476389 kJ/mol
# GULP energy per Si atom -12395.389887 kJ/mol
# Density = 1.861073 g / cm^3
# Si number density = 18.653186 Si / 1000 Ang^3
#
#
#
# Elastic Constant Matrix: (Units=GPa)
#
#
# Indices 1 2 3 4 5 6 
#
# 1 100.6884 21.1822 49.5133 0.0000 17.9651 0.0000
# 2 21.1822 29.4196 24.2987 0.0000 5.3997 0.0000
# 3 49.5133 24.2987 119.4534 0.0000 24.3646 0.0000
# 4 0.0000 0.0000 0.0000 21.8668 0.0000 6.8566
# 5 17.9651 5.3997 24.3646 0.0000 27.5121 0.0000
# 6 0.0000 0.0000 0.0000 6.8566 0.0000 29.2169
#
#
#
# Elastic Compliance Matrix: (Units=1/GPa)
#
#
# Indices 1 2 3 4 5 6 
#
# 1 0.013790 -0.006175 -0.003503 0.000000 -0.004690 0.000000
# 2 -0.006175 0.043634 -0.006581 0.000000 0.001296 0.000000
# 3 -0.003503 -0.006581 0.012732 0.000000 -0.007696 0.000000
# 4 0.000000 0.000000 0.000000 0.049364 0.000000 -0.011585
# 5 -0.004690 0.001296 -0.007696 0.000000 0.045972 0.000000
# 6 0.000000 0.000000 0.000000 -0.011585 0.000000 0.036945
#
#
# Mechanical properties :
#
#
# Convention : Reuss Voigt Hill
#
# Bulk Modulus (GPa) = 26.56825 48.83887 37.70356
# Shear Modulus (GPa) = 20.20190 26.02364 23.11277
#
# Velocity S-wave (km/s) = 3.29451 3.73920 3.52387
# Velocity P-wave (km/s) = 5.36152 6.69937 6.06743
#
# Compressibility (1/GPa) = 0.03763891
#
# Stress axis : x y z
#
# Youngs Moduli (GPa) = 72.51509 22.91782 78.54214
#
# Poissons Ratio (x) = 0.14151 0.27516
# Poissons Ratio (y) = 0.44775 0.51688
# Poissons Ratio (z) = 0.25404 0.15082
#
# Static dielectric constant tensor:
#      x y z
#    x 3.661880 0.000000 -0.183880 
#    y 0.000000 2.933710 0.000000 
#    z -0.183880 0.000000 3.755090 
# 
# 
# High freq. dielectric constant tensor:
#      x y z
#    x 1.732270 0.000000 0.004640 
#    y 0.000000 1.680570 0.000000 
#    z 0.004640 0.000000 1.727910 
# 
# From -- ./inp_files/359837.got.cif
#   From: 2010.06.25/outbox.cif.g09.slc.cpg/sg12_180_cif.got.tgz:359837.got - 2010.06.28 00:19:55.
