data_PCOD8081884
_publ_section_title
;
Structure prediction by ZEFSAII (Michael W. Deem and Ramdas Pophale) SiO2 
 PCOD8081884
Probable space group: C 2/M
;
_chemical_formula_sum "Si O2"
_cell_formula_units_Z 60
_cell_length_a 34.123073
_cell_length_b 17.407094
_cell_length_c 5.246897
_cell_angle_alpha 90.000000
_cell_angle_beta 112.306727
_cell_angle_gamma 90.000000
_cell_volume 2883.342402
_symmetry_space_group_name_H-M "C 2/M"
_symmetry_group_IT_number 12
_symmetry_cell_setting 'monoclinic'
loop_
_space_group_symop_operation_xyz
x,y,z
-x,y,-z
-x,-y,-z
x,-y,z
1/2+x,1/2+y,z
1/2-x,1/2+y,-z
1/2-x,1/2-y,-z
1/2+x,1/2-y,z
loop_
_atom_site_type_symbol
_atom_site_label
_atom_site_fract_x
_atom_site_fract_y
_atom_site_fract_z
Si Si1 0.059289 0.085408 0.512212
Si Si2 0.452848 0.216450 0.999102
Si Si3 0.888568 0.409262 0.801193
Si Si4 0.744095 0.409269 0.954107
Si Si5 0.000000 0.204231 0.500000
Si Si6 0.838590 0.408968 0.176211
Si Si7 0.100874 0.860060 0.140712
Si Si8 0.193630 0.091435 0.328052
O O1 0.021408 0.145408 0.347705
O O2 0.093322 0.085804 0.367781
O O3 0.040622 0.000000 0.487485
O O4 0.078706 0.107846 0.833468
O O5 0.434662 0.130937 0.923320
O O6 0.416956 0.276383 0.816749
O O7 0.500000 0.223341 0.000000
O O8 0.462042 0.240559 0.313061
O O9 0.896789 0.500000 0.825813
O O10 0.864101 0.382201 0.488286
O O11 0.862135 0.380260 0.979979
O O12 0.748362 0.500000 0.968778
O O13 0.719368 0.383135 0.641382
O O14 0.791404 0.373352 0.067204
O O15 0.720195 0.381582 0.148175
O O16 0.835819 0.500000 0.163800
O O17 0.150899 0.859100 0.215576
O O18 0.184146 0.000000 0.299262
#
# Coordination Sequence:
#
# PCOD8081884 Si02
#       8
#     8   8   8   8   4   8   8   8
#     4  11  21  36  57  81 112 153 200 251 283 320
#     4  11  24  43  62  81 117 155 201 240 302 365
#     4  10  22  38  64  91 115 146 190 246 299 353
#     4   9  17  30  55  84 118 152 184 232 282 337
#     4  10  23  40  57  84 112 152 196 240 287 362
#     4   9  18  36  59  91 119 144 185 234 295 356
#     4  11  23  37  56  83 120 161 199 241 292 340
#     4  10  18  30  51  83 115 152 194 231 275 328
#
# _framework density 20.809183999999998
#
# number of rings (size 3 to 8) (size 9 to 14) (size 15 to 20)
#    0.000    1.867    1.333    3.000    1.867    4.533 
#    0.000    2.333    0.000    4.800    0.000    0.000 
#    0.000    0.000    0.000    0.000    0.000    0.000 
#
# Total GULP energy -371789.151325 kJ/mol
# GULP energy per Si atom -12392.971711 kJ/mol
# Density = 2.076182 g / cm^3
# Si number density = 20.809184 Si / 1000 Ang^3
#
#
#
# Elastic Constant Matrix: (Units=GPa)
#
#
# Indices 1 2 3 4 5 6 
#
# 1 141.3587 45.4864 67.4037 0.0000 10.9659 0.0000
# 2 45.4864 61.9762 38.5123 0.0000 14.6350 0.0000
# 3 67.4037 38.5123 139.3529 0.0000 -8.1746 0.0000
# 4 0.0000 0.0000 0.0000 13.5149 0.0000 5.3094
# 5 10.9659 14.6350 -8.1746 0.0000 42.6925 0.0000
# 6 0.0000 0.0000 0.0000 5.3094 0.0000 19.5633
#
#
#
# Elastic Compliance Matrix: (Units=1/GPa)
#
#
# Indices 1 2 3 4 5 6 
#
# 1 0.010673 -0.005002 -0.003884 0.000000 -0.001771 0.000000
# 2 -0.005002 0.024780 -0.004907 0.000000 -0.008149 0.000000
# 3 -0.003884 -0.004907 0.010688 0.000000 0.004726 0.000000
# 4 0.000000 0.000000 0.000000 0.082823 0.000000 -0.022478
# 5 -0.001771 -0.008149 0.004726 0.000000 0.027577 0.000000
# 6 0.000000 0.000000 0.000000 -0.022478 0.000000 0.057216
#
#
# Mechanical properties :
#
#
# Convention : Reuss Voigt Hill
#
# Bulk Modulus (GPa) = 53.89263 71.72139 62.80701
# Shear Modulus (GPa) = 20.19976 27.90650 24.05313
#
# Velocity S-wave (km/s) = 3.11901 3.66603 3.40353
# Velocity P-wave (km/s) = 6.23904 7.24298 6.75967
#
# Compressibility (1/GPa) = 0.01855541
#
# Stress axis : x y z
#
# Youngs Moduli (GPa) = 93.69456 40.35547 93.56218
#
# Poissons Ratio (x) = 0.20184 0.36340
# Poissons Ratio (y) = 0.46862 0.45912
# Poissons Ratio (z) = 0.36391 0.19803
#
# Static dielectric constant tensor:
#      x y z
#    x 3.938360 0.000000 -0.029880 
#    y 0.000000 3.335060 0.000000 
#    z -0.029880 0.000000 3.987500 
# 
# 
# High freq. dielectric constant tensor:
#      x y z
#    x 1.823800 0.000000 -0.005700 
#    y 0.000000 1.774780 0.000000 
#    z -0.005700 0.000000 1.823220 
# 
# From -- ./inp_files/32065.got.cif
#   From: 2010.06.25/outbox.cif.g09.slc.cpg/sg12_17_cif.got.tgz:32065.got - 2010.06.28 00:19:55.
