data_PCOD8081178
_publ_section_title
;
Structure prediction by ZEFSAII (Michael W. Deem and Ramdas Pophale) SiO2 
 PCOD8081178
Probable space group: C 2/M
;
_chemical_formula_sum "Si O2"
_cell_formula_units_Z 56
_cell_length_a 20.167233
_cell_length_b 8.946888
_cell_length_c 22.427545
_cell_angle_alpha 90.000000
_cell_angle_beta 47.662192
_cell_angle_gamma 90.000000
_cell_volume 2991.260762
_symmetry_space_group_name_H-M "C 2/M"
_symmetry_group_IT_number 12
_symmetry_cell_setting 'monoclinic'
loop_
_space_group_symop_operation_xyz
x,y,z
-x,y,-z
-x,-y,-z
x,-y,z
1/2+x,1/2+y,z
1/2-x,1/2+y,-z
1/2-x,1/2-y,-z
1/2+x,1/2-y,z
loop_
_atom_site_type_symbol
_atom_site_label
_atom_site_fract_x
_atom_site_fract_y
_atom_site_fract_z
Si Si1 0.298915 0.673357 0.089907
Si Si2 0.038117 0.828237 0.095812
Si Si3 0.619553 0.671023 0.170821
Si Si4 0.556913 0.671290 0.338220
Si Si5 0.797433 0.322971 0.669675
Si Si6 0.926322 0.665398 0.493202
Si Si7 0.642611 0.176138 0.825100
O O1 0.296629 0.500000 0.109668
O O2 0.204477 0.720194 0.118939
O O3 0.317382 0.771428 0.136602
O O4 0.373681 0.706107 0.995483
O O5 0.057062 0.787554 0.152879
O O6 0.960079 0.723749 0.118329
O O7 0.008048 0.000000 0.106570
O O8 0.653694 0.500000 0.144989
O O9 0.558824 0.693667 0.266168
O O10 0.571216 0.500000 0.348133
O O11 0.636777 0.766908 0.318099
O O12 0.459116 0.724593 0.420973
O O13 0.789903 0.500000 0.680571
O O14 0.834864 0.279125 0.581056
O O15 0.700211 0.248639 0.736520
O O16 0.913141 0.500000 0.473775
O O17 0.000000 0.659631 0.500000
O O18 0.651025 0.000000 0.815968
#
# Coordination Sequence:
#
# PCOD8081178 Si02
#       7
#     8   8   8   8   8   8   8
#     4  11  22  37  60  83 106 143 187 228 272 326
#     4  10  23  41  57  78 110 148 186 224 273 328
#     4  10  21  37  57  82 114 146 180 226 273 320
#     4  10  18  29  50  81 112 142 175 218 271 320
#     4  10  19  33  53  77 107 143 181 222 270 323
#     4   8  16  29  47  74 107 141 176 218 267 316
#     4  12  24  37  56  82 111 143 182 231 280 325
#
# _framework density 18.721204
#
# number of rings (size 3 to 8) (size 9 to 14) (size 15 to 20)
#    0.000    1.857    1.429    4.286    0.000    7.143 
#    0.000    0.000    0.000    0.857    0.000    0.000 
#    0.000    0.000    0.000    0.000    0.000    0.000 
#
# Total GULP energy -347242.293598 kJ/mol
# GULP energy per Si atom -12401.510486 kJ/mol
# Density = 1.867859 g / cm^3
# Si number density = 18.721204 Si / 1000 Ang^3
#
#
#
# Elastic Constant Matrix: (Units=GPa)
#
#
# Indices 1 2 3 4 5 6 
#
# 1 38.7192 19.8459 13.8656 -0.0001 1.3299 0.0002
# 2 19.8459 100.8040 48.6653 0.0003 1.1932 0.0002
# 3 13.8656 48.6653 109.4442 0.0000 7.6734 0.0000
# 4 -0.0001 0.0003 0.0000 32.1294 0.0000 -5.3333
# 5 1.3299 1.1932 7.6734 0.0000 7.6825 0.0000
# 6 0.0002 0.0002 0.0000 -5.3333 0.0000 24.3223
#
#
#
# Elastic Compliance Matrix: (Units=1/GPa)
#
#
# Indices 1 2 3 4 5 6 
#
# 1 0.028968 -0.005091 -0.001194 0.000000 -0.003032 0.000000
# 2 -0.005091 0.013638 -0.005734 0.000000 0.004490 0.000000
# 3 -0.001194 -0.005734 0.012647 0.000000 -0.011535 0.000000
# 4 0.000000 0.000000 0.000000 0.032300 0.000000 0.007083
# 5 -0.003032 0.004490 -0.011535 0.000000 0.141515 0.000000
# 6 0.000000 0.000000 0.000000 0.007083 0.000000 0.042668
#
#
# Mechanical properties :
#
#
# Convention : Reuss Voigt Hill
#
# Bulk Modulus (GPa) = 32.03573 45.96898 39.00236
# Shear Modulus (GPa) = 16.33043 23.93286 20.13165
#
# Velocity S-wave (km/s) = 2.95667 3.57933 3.28279
# Velocity P-wave (km/s) = 5.36703 6.45677 5.93696
#
# Compressibility (1/GPa) = 0.03121514
#
# Stress axis : x y z
#
# Youngs Moduli (GPa) = 34.52083 73.32699 79.07232
#
# Poissons Ratio (x) = 0.37330 0.09439
# Poissons Ratio (y) = 0.17574 0.45339
# Poissons Ratio (z) = 0.04121 0.42045
#
# Static dielectric constant tensor:
#      x y z
#    x 3.065320 0.000000 0.033780 
#    y 0.000000 3.493640 0.000000 
#    z 0.033780 0.000000 3.959920 
# 
# 
# High freq. dielectric constant tensor:
#      x y z
#    x 1.684000 0.000000 0.002960 
#    y 0.000000 1.732460 0.000000 
#    z 0.002960 0.000000 1.748100 
# 
# From -- ./inp_files/342214.got.cif
#   From: 2010.06.25/outbox.cif.g09.slc.cpg/sg12_172_cif.got.tgz:342214.got - 2010.06.28 00:19:55.
