data_PCOD8081214
_publ_section_title
;
Structure prediction by ZEFSAII (Michael W. Deem and Ramdas Pophale) SiO2 
 PCOD8081214
Probable space group: C 2/M
;
_chemical_formula_sum "Si O2"
_cell_formula_units_Z 64
_cell_length_a 20.712872
_cell_length_b 8.844221
_cell_length_c 20.721416
_cell_angle_alpha 90.000000
_cell_angle_beta 62.915906
_cell_angle_gamma 90.000000
_cell_volume 3379.674301
_symmetry_space_group_name_H-M "C 2/M"
_symmetry_group_IT_number 12
_symmetry_cell_setting 'monoclinic'
loop_
_space_group_symop_operation_xyz
x,y,z
-x,y,-z
-x,-y,-z
x,-y,z
1/2+x,1/2+y,z
1/2-x,1/2+y,-z
1/2-x,1/2-y,-z
1/2+x,1/2-y,z
loop_
_atom_site_type_symbol
_atom_site_label
_atom_site_fract_x
_atom_site_fract_y
_atom_site_fract_z
Si Si1 0.481714 0.826069 0.816688
Si Si2 0.807267 0.170674 0.158612
Si Si3 0.768644 0.675544 0.670342
Si Si4 0.797841 0.322333 0.423035
Si Si5 0.536669 0.177899 0.654614
Si Si6 0.902439 0.823520 0.664062
Si Si7 0.544018 0.178537 0.919486
Si Si8 0.157194 0.672376 0.186450
O O1 0.518510 0.759173 0.735085
O O2 0.512010 0.747412 0.867910
O O3 0.393572 0.806378 0.853616
O O4 0.504175 0.000000 0.810678
O O5 0.773434 0.205372 0.243874
O O6 0.871464 0.283802 0.112456
O O7 0.742974 0.196832 0.134653
O O8 0.837138 0.000000 0.141873
O O9 0.774644 0.500000 0.650585
O O10 0.722698 0.758302 0.636946
O O11 0.850206 0.743057 0.635515
O O12 0.785383 0.500000 0.428004
O O13 0.750000 0.250000 0.500000
O O14 0.881166 0.281067 0.400106
O O15 0.484389 0.257353 0.625611
O O16 0.521440 0.000000 0.659012
O O17 0.869669 0.792697 0.749328
O O18 0.904701 0.000000 0.647738
O O19 0.534129 0.000000 0.923436
O O20 0.500000 0.247781 0.000000
O O21 0.146547 0.500000 0.218845
#
# Coordination Sequence:
#
# PCOD8081214 Si02
#       8
#     8   8   8   8   8   8   8   8
#     4   8  14  29  52  72  93 127 169 206 243 298
#     4   9  18  32  52  75  97 127 166 210 257 304
#     4  10  20  36  57  80 107 138 174 215 261 314
#     4  11  23  38  56  79 109 144 179 216 260 309
#     4   9  18  34  55  76 101 137 175 211 259 314
#     4  10  18  29  51  82 109 131 164 214 264 309
#     4  10  20  32  47  70 101 136 172 211 255 305
#     4   8  15  30  50  71  96 128 167 208 255 309
#
# _framework density 18.936737000000001
#
# number of rings (size 3 to 8) (size 9 to 14) (size 15 to 20)
#    0.000    2.625    0.000    4.125    0.000    4.750 
#    0.000    5.000    0.000    3.750    0.000    0.000 
#    0.000    0.000    0.000    0.000    0.000    0.000 
#
# Total GULP energy -396610.393433 kJ/mol
# GULP energy per Si atom -12394.074795 kJ/mol
# Density = 1.889364 g / cm^3
# Si number density = 18.936737 Si / 1000 Ang^3
#
#
#
# Elastic Constant Matrix: (Units=GPa)
#
#
# Indices 1 2 3 4 5 6 
#
# 1 133.3550 45.6449 38.3064 0.0000 -30.2261 0.0001
# 2 45.6449 65.9268 22.6523 0.0001 -8.6330 0.0004
# 3 38.3064 22.6523 57.8422 0.0001 -16.9232 -0.0001
# 4 0.0000 0.0001 0.0001 19.3396 -0.0001 -4.5665
# 5 -30.2261 -8.6330 -16.9232 -0.0001 14.8802 0.0000
# 6 0.0001 0.0004 -0.0001 -4.5665 0.0000 31.6089
#
#
#
# Elastic Compliance Matrix: (Units=1/GPa)
#
#
# Indices 1 2 3 4 5 6 
#
# 1 0.016985 -0.008036 0.000942 0.000000 0.030911 0.000000
# 2 -0.008036 0.021454 -0.006316 0.000000 -0.011059 0.000000
# 3 0.000942 -0.006316 0.027914 0.000000 0.029997 0.000000
# 4 0.000000 0.000000 0.000000 0.053534 0.000001 0.007734
# 5 0.030911 -0.011059 0.029997 0.000001 0.157692 0.000000
# 6 0.000000 0.000000 0.000000 0.007734 0.000000 0.032754
#
#
# Mechanical properties :
#
#
# Convention : Reuss Voigt Hill
#
# Bulk Modulus (GPa) = 25.29422 52.25902 38.77662
# Shear Modulus (GPa) = 14.27234 23.20044 18.73639
#
# Velocity S-wave (km/s) = 2.74831 3.50402 3.14892
# Velocity P-wave (km/s) = 4.84326 6.63532 5.80881
#
# Compressibility (1/GPa) = 0.03953472
#
# Stress axis : x y z
#
# Youngs Moduli (GPa) = 58.87628 46.61182 35.82448
#
# Poissons Ratio (x) = 0.37455 -0.03376
# Poissons Ratio (y) = 0.47311 0.22626
# Poissons Ratio (z) = -0.05549 0.29438
#
# Static dielectric constant tensor:
#      x y z
#    x 3.856840 0.000000 0.014920 
#    y 0.000000 3.242550 0.000000 
#    z 0.014920 0.000000 3.183670 
# 
# 
# High freq. dielectric constant tensor:
#      x y z
#    x 1.761190 0.000000 -0.005330 
#    y 0.000000 1.717570 0.000000 
#    z -0.005330 0.000000 1.691230 
# 
# From -- ./inp_files/319793.got.cif
#   From: 2010.06.25/outbox.cif.g09.slc.cpg/sg12_160_cif.got.tgz:319793.got - 2010.06.28 00:19:55.
