data_PCOD8081262
_publ_section_title
;
Structure prediction by ZEFSAII (Michael W. Deem and Ramdas Pophale) SiO2 
 PCOD8081262
Probable space group: C 2/M
;
_chemical_formula_sum "Si O2"
_cell_formula_units_Z 56
_cell_length_a 15.631964
_cell_length_b 22.628030
_cell_length_c 14.644173
_cell_angle_alpha 90.000000
_cell_angle_beta 39.726701
_cell_angle_gamma 90.000000
_cell_volume 3310.639060
_symmetry_space_group_name_H-M "C 2/M"
_symmetry_group_IT_number 12
_symmetry_cell_setting 'monoclinic'
loop_
_space_group_symop_operation_xyz
x,y,z
-x,y,-z
-x,-y,-z
x,-y,z
1/2+x,1/2+y,z
1/2-x,1/2+y,-z
1/2-x,1/2-y,-z
1/2+x,1/2-y,z
loop_
_atom_site_type_symbol
_atom_site_label
_atom_site_fract_x
_atom_site_fract_y
_atom_site_fract_z
Si Si1 0.058214 0.354927 0.739062
Si Si2 0.139538 0.222250 0.712951
Si Si3 0.791725 0.433299 0.248587
Si Si4 0.326049 0.843049 0.061422
Si Si5 0.000000 0.756697 0.000000
Si Si6 0.000000 0.104897 0.500000
Si Si7 0.055582 0.687452 0.548851
Si Si8 0.028609 0.809927 0.314356
O O1 0.124013 0.292317 0.711162
O O2 0.150902 0.406342 0.704290
O O3 0.049122 0.360631 0.636235
O O4 0.908545 0.360044 0.903127
O O5 0.063633 0.202843 0.868224
O O6 0.294359 0.208441 0.591407
O O7 0.074426 0.185688 0.684399
O O8 0.844292 0.500000 0.194871
O O9 0.843858 0.395289 0.120359
O O10 0.630616 0.435216 0.381758
O O11 0.173230 0.830858 0.159875
O O12 0.380127 0.783218 0.060800
O O13 0.026459 0.146219 0.564738
O O14 0.000000 0.659545 0.500000
O O15 0.964262 0.743573 0.651600
#
# Coordination Sequence:
#
# PCOD8081262 Si02
#       8
#     8   8   8   8   4   4   8   8
#     4  10  20  33  46  67 100 123 162 206 234 287
#     4  10  19  31  46  69  96 130 161 193 238 290
#     4  11  20  33  52  72  96 130 164 202 249 289
#     4  10  19  32  45  68  97 129 158 200 243 285
#     4  10  18  30  45  64 104 124 161 202 226 282
#     4  10  19  32  48  74 104 124 161 202 238 292
#     4  11  20  30  49  71  92 128 166 194 238 288
#     4  10  19  29  48  68  97 132 159 191 241 291
#
# _framework density 16.915164000000001
#
# number of rings (size 3 to 8) (size 9 to 14) (size 15 to 20)
#    0.000    1.714    3.571    4.500    0.000    7.429 
#    0.000    0.000    0.000    0.429    0.000    0.000 
#    0.000    0.000    0.000   15.571    0.000    0.000 
#
# Total GULP energy -347197.215794 kJ/mol
# GULP energy per Si atom -12399.900564 kJ/mol
# Density = 1.687666 g / cm^3
# Si number density = 16.915164 Si / 1000 Ang^3
#
#
#
# Elastic Constant Matrix: (Units=GPa)
#
#
# Indices 1 2 3 4 5 6 
#
# 1 106.6886 30.5276 52.3756 0.0004 12.8237 -0.0006
# 2 30.5276 56.0522 27.3063 0.0003 4.8060 -0.0004
# 3 52.3756 27.3063 112.4395 0.0013 12.3206 -0.0014
# 4 0.0004 0.0003 0.0013 7.7030 -0.0004 -3.3265
# 5 12.8237 4.8060 12.3206 -0.0004 33.5655 0.0007
# 6 -0.0006 -0.0004 -0.0014 -3.3265 0.0007 12.0464
#
#
#
# Elastic Compliance Matrix: (Units=1/GPa)
#
#
# Indices 1 2 3 4 5 6 
#
# 1 0.013407 -0.004733 -0.004802 0.000000 -0.002682 0.000000
# 2 -0.004733 0.021947 -0.003104 0.000000 -0.000195 0.000000
# 3 -0.004802 -0.003104 0.012122 -0.000001 -0.002171 0.000001
# 4 0.000000 0.000000 -0.000001 0.147397 0.000002 0.040702
# 5 -0.002682 -0.000195 -0.002171 0.000002 0.031642 -0.000002
# 6 0.000000 0.000000 0.000001 0.040702 -0.000002 0.094252
#
#
# Mechanical properties :
#
#
# Convention : Reuss Voigt Hill
#
# Bulk Modulus (GPa) = 45.04720 55.06657 50.05689
# Shear Modulus (GPa) = 14.14655 21.66104 17.90380
#
# Velocity S-wave (km/s) = 2.89506 3.58239 3.25691
# Velocity P-wave (km/s) = 6.15339 7.05241 6.61819
#
# Compressibility (1/GPa) = 0.02219894
#
# Stress axis : x y z
#
# Youngs Moduli (GPa) = 74.58821 45.56460 82.49385
#
# Poissons Ratio (x) = 0.21564 0.39613
# Poissons Ratio (y) = 0.35299 0.25606
# Poissons Ratio (z) = 0.35817 0.14143
#
# Static dielectric constant tensor:
#      x y z
#    x 3.271500 0.000000 0.147270 
#    y 0.000000 2.716930 0.000000 
#    z 0.147270 0.000000 3.456930 
# 
# 
# High freq. dielectric constant tensor:
#      x y z
#    x 1.652530 0.000000 -0.004730 
#    y 0.000000 1.590090 0.000000 
#    z -0.004730 0.000000 1.674870 
# 
# From -- ./inp_files/218277.got.cif
#   From: 2010.06.25/outbox.cif.g09.slc.cpg/sg12_110_cif.got.tgz:218277.got - 2010.06.28 00:19:55.
