data_PCOD8081566
_publ_section_title
;
Structure prediction by ZEFSAII (Michael W. Deem and Ramdas Pophale) SiO2 
 PCOD8081566
Probable space group: C 2/M
;
_chemical_formula_sum "Si O2"
_cell_formula_units_Z 64
_cell_length_a 23.680165
_cell_length_b 8.616815
_cell_length_c 20.223823
_cell_angle_alpha 90.000000
_cell_angle_beta 58.835712
_cell_angle_gamma 90.000000
_cell_volume 3531.097185
_symmetry_space_group_name_H-M "C 2/M"
_symmetry_group_IT_number 12
_symmetry_cell_setting 'monoclinic'
loop_
_space_group_symop_operation_xyz
x,y,z
-x,y,-z
-x,-y,-z
x,-y,z
1/2+x,1/2+y,z
1/2-x,1/2+y,-z
1/2-x,1/2-y,-z
1/2+x,1/2-y,z
loop_
_atom_site_type_symbol
_atom_site_label
_atom_site_fract_x
_atom_site_fract_y
_atom_site_fract_z
Si Si1 0.586721 0.821826 0.594421
Si Si2 0.556659 0.175644 0.299242
Si Si3 0.201438 0.321307 0.224618
Si Si4 0.412549 0.315442 0.260833
Si Si5 0.803600 0.186154 0.917872
Si Si6 0.446032 0.676475 0.834284
Si Si7 0.783726 0.681900 0.289244
Si Si8 0.209528 0.817771 0.463937
O O1 0.510177 0.800382 0.617244
O O2 0.599186 0.760704 0.660809
O O3 0.633020 0.732206 0.514630
O O4 0.608298 0.000000 0.580761
O O5 0.625464 0.196752 0.296976
O O6 0.555142 0.305936 0.244090
O O7 0.555044 0.000000 0.269683
O O8 0.223716 0.500000 0.213308
O O9 0.209558 0.258893 0.145630
O O10 0.248237 0.221106 0.242552
O O11 0.414791 0.500000 0.268609
O O12 0.482760 0.253624 0.186252
O O13 0.354525 0.266319 0.246777
O O14 0.875799 0.245935 0.901951
O O15 0.801204 0.000000 0.914359
O O16 0.750000 0.250000 0.000000
O O17 0.445862 0.500000 0.855837
O O18 0.795770 0.500000 0.286759
O O19 0.739652 0.744440 0.376919
O O20 0.250000 0.750000 0.500000
O O21 0.214656 0.000000 0.463876
#
# Coordination Sequence:
#
# PCOD8081566 Si02
#       8
#     8   8   8   8   8   8   8   8
#     4  10  18  30  49  73 100 129 168 220 268 307
#     4   8  16  30  49  72  98 129 167 212 258 305
#     4  10  20  36  56  78 104 137 175 211 255 312
#     4  10  18  30  50  74 100 134 175 214 257 304
#     4  10  19  34  57  85 114 139 167 205 250 300
#     4   8  16  29  48  76 105 132 166 209 250 295
#     4  11  23  36  50  72 103 139 175 217 266 311
#     4  11  22  34  49  70 100 135 177 222 268 312
#
# _framework density 18.124676999999998
#
# number of rings (size 3 to 8) (size 9 to 14) (size 15 to 20)
#    0.000    2.250    1.250    2.250    0.000    3.500 
#    0.000    0.625    0.000    4.500    0.000    5.250 
#    0.000    0.000    0.000    0.000    0.000    0.000 
#
# Total GULP energy -396451.738456 kJ/mol
# GULP energy per Si atom -12389.116827 kJ/mol
# Density = 1.808342 g / cm^3
# Si number density = 18.124677 Si / 1000 Ang^3
#
#
#
# Elastic Constant Matrix: (Units=GPa)
#
#
# Indices 1 2 3 4 5 6 
#
# 1 126.4530 19.9346 61.4853 0.0001 -26.0261 0.0004
# 2 19.9346 46.7640 21.0971 -0.0003 -7.1889 0.0021
# 3 61.4853 21.0971 91.9337 0.0002 -26.8252 -0.0001
# 4 0.0001 -0.0003 0.0002 24.8072 -0.0001 -1.6453
# 5 -26.0261 -7.1889 -26.8252 -0.0001 32.6995 0.0001
# 6 0.0004 0.0021 -0.0001 -1.6453 0.0001 23.9518
#
#
#
# Elastic Compliance Matrix: (Units=1/GPa)
#
#
# Indices 1 2 3 4 5 6 
#
# 1 0.012198 -0.001599 -0.006653 0.000000 0.003899 0.000000
# 2 -0.001599 0.024087 -0.004318 0.000000 0.000481 -0.000002
# 3 -0.006653 -0.004318 0.019058 0.000000 0.009389 0.000000
# 4 0.000000 0.000000 0.000000 0.040495 0.000000 0.002782
# 5 0.003899 0.000481 0.009389 0.000000 0.041493 0.000000
# 6 0.000000 -0.000002 0.000000 0.002782 0.000000 0.041942
#
#
# Mechanical properties :
#
#
# Convention : Reuss Voigt Hill
#
# Bulk Modulus (GPa) = 33.10978 52.24277 42.67628
# Shear Modulus (GPa) = 23.31218 27.13395 25.22306
#
# Velocity S-wave (km/s) = 3.59027 3.87340 3.73452
# Velocity P-wave (km/s) = 5.95770 6.99221 6.49558
#
# Compressibility (1/GPa) = 0.03020256
#
# Stress axis : x y z
#
# Youngs Moduli (GPa) = 81.98382 41.51542 52.47217
#
# Poissons Ratio (x) = 0.06637 0.34911
# Poissons Ratio (y) = 0.13107 0.22658
# Poissons Ratio (z) = 0.54546 0.17927
#
# Static dielectric constant tensor:
#      x y z
#    x 3.584830 0.000000 -0.577840 
#    y 0.000000 3.418260 0.000000 
#    z -0.577840 0.000000 3.236880 
# 
# 
# High freq. dielectric constant tensor:
#      x y z
#    x 1.704190 0.000000 -0.040950 
#    y 0.000000 1.709540 0.000000 
#    z -0.040950 0.000000 1.665420 
# 
# From -- ./inp_files/323605.got.cif
#   From: 2010.06.25/outbox.cif.g09.slc.cpg/sg12_162_cif.got.tgz:323605.got - 2010.06.28 00:19:55.
