data_PCOD8081900
_publ_section_title
;
Structure prediction by ZEFSAII (Michael W. Deem and Ramdas Pophale) SiO2 
 PCOD8081900
Probable space group: C 2/M
;
_chemical_formula_sum "Si O2"
_cell_formula_units_Z 56
_cell_length_a 33.500883
_cell_length_b 8.881176
_cell_length_c 15.034884
_cell_angle_alpha 90.000000
_cell_angle_beta 133.536720
_cell_angle_gamma 90.000000
_cell_volume 3242.834031
_symmetry_space_group_name_H-M "C 2/M"
_symmetry_group_IT_number 12
_symmetry_cell_setting 'monoclinic'
loop_
_space_group_symop_operation_xyz
x,y,z
-x,y,-z
-x,-y,-z
x,-y,z
1/2+x,1/2+y,z
1/2-x,1/2+y,-z
1/2-x,1/2-y,-z
1/2+x,1/2-y,z
loop_
_atom_site_type_symbol
_atom_site_label
_atom_site_fract_x
_atom_site_fract_y
_atom_site_fract_z
Si Si1 0.932657 0.178913 0.251821
Si Si2 0.255424 0.678770 0.105081
Si Si3 0.921192 0.676104 0.945735
Si Si4 0.541783 0.824642 0.189706
Si Si5 0.376236 0.321466 0.341890
Si Si6 0.151737 0.177843 0.028340
Si Si7 0.947080 0.821386 0.612897
O O1 0.911786 0.243627 0.314077
O O2 0.993302 0.242979 0.324743
O O3 0.934187 0.000000 0.256027
O O4 0.890742 0.234313 0.111845
O O5 0.251570 0.500000 0.089603
O O6 0.313250 0.730425 0.236559
O O7 0.209351 0.739870 0.100923
O O8 0.250000 0.750000 0.000000
O O9 0.911324 0.500000 0.947772
O O10 0.922027 0.711395 0.841915
O O11 0.871855 0.772301 0.912369
O O12 0.978997 0.728168 0.077522
O O13 0.568431 0.737085 0.313160
O O14 0.542884 0.000000 0.212558
O O15 0.380264 0.500000 0.345327
O O16 0.401844 0.260497 0.473407
O O17 0.161011 0.000000 0.039923
O O18 0.947852 0.000000 0.616281
#
# Coordination Sequence:
#
# PCOD8081900 Si02
#       7
#     8   8   8   8   8   8   8
#     4   9  16  28  47  74 103 130 162 201 247 295
#     4  11  21  35  53  74 101 137 176 214 250 293
#     4   9  18  33  51  73 102 138 168 199 253 310
#     4   9  18  32  50  73 105 136 164 202 253 310
#     4   9  18  32  50  72 101 136 174 206 244 300
#     4  11  20  32  52  78 104 132 169 214 255 295
#     4  10  18  30  52  77 101 134 169 206 250 299
#
# _framework density 17.268844999999999
#
# number of rings (size 3 to 8) (size 9 to 14) (size 15 to 20)
#    0.000    2.286    2.857    2.143    0.000    2.286 
#    0.000    2.857    0.000    1.714    0.000    0.000 
#    0.000    0.000    0.000    0.000    0.000    0.000 
#
# Total GULP energy -347195.537163 kJ/mol
# GULP energy per Si atom -12399.840613 kJ/mol
# Density = 1.722954 g / cm^3
# Si number density = 17.268845 Si / 1000 Ang^3
#
#
#
# Elastic Constant Matrix: (Units=GPa)
#
#
# Indices 1 2 3 4 5 6 
#
# 1 124.6441 32.8311 68.3041 0.0000 -6.2918 0.0000
# 2 32.8311 38.2157 31.2337 0.0000 -0.3815 0.0000
# 3 68.3041 31.2337 130.9292 0.0000 -4.2407 0.0000
# 4 0.0000 0.0000 0.0000 20.0010 0.0000 -2.5627
# 5 -6.2918 -0.3815 -4.2407 0.0000 27.9340 0.0000
# 6 0.0000 0.0000 0.0000 -2.5627 0.0000 28.4715
#
#
#
# Elastic Compliance Matrix: (Units=1/GPa)
#
#
# Indices 1 2 3 4 5 6 
#
# 1 0.012591 -0.006809 -0.004880 0.000000 0.002002 0.000000
# 2 -0.006809 0.036202 -0.005143 0.000000 -0.001820 0.000000
# 3 -0.004880 -0.005143 0.011428 0.000000 0.000566 0.000000
# 4 0.000000 0.000000 0.000000 0.050581 0.000000 0.004553
# 5 0.002002 -0.001820 0.000566 0.000000 0.036311 0.000000
# 6 0.000000 0.000000 0.000000 0.004553 0.000000 0.035533
#
#
# Mechanical properties :
#
#
# Convention : Reuss Voigt Hill
#
# Bulk Modulus (GPa) = 37.65233 62.05854 49.85544
# Shear Modulus (GPa) = 22.20620 26.04264 24.12442
#
# Velocity S-wave (km/s) = 3.58985 3.88760 3.74169
# Velocity P-wave (km/s) = 6.24769 7.49440 6.89926
#
# Compressibility (1/GPa) = 0.02655878
#
# Stress axis : x y z
#
# Youngs Moduli (GPa) = 79.41916 27.62271 87.50055
#
# Poissons Ratio (x) = 0.18809 0.42697
# Poissons Ratio (y) = 0.54078 0.45000
# Poissons Ratio (z) = 0.38753 0.14206
#
# Static dielectric constant tensor:
#      x y z
#    x 3.297140 0.000000 -0.015300 
#    y 0.000000 2.926610 0.000000 
#    z -0.015300 0.000000 3.295330 
# 
# 
# High freq. dielectric constant tensor:
#      x y z
#    x 1.669810 0.000000 -0.007740 
#    y 0.000000 1.642190 0.000000 
#    z -0.007740 0.000000 1.652650 
# 
# From -- ./inp_files/237873.got.cif
#   From: 2010.06.25/outbox.cif.g09.slc.cpg/sg12_119_cif.got.tgz:237873.got - 2010.06.28 00:19:55.
