data_PCOD8081748
_publ_section_title
;
Structure prediction by ZEFSAII (Michael W. Deem and Ramdas Pophale) SiO2 
 PCOD8081748
Probable space group: C 2/M
;
_chemical_formula_sum "Si O2"
_cell_formula_units_Z 64
_cell_length_a 20.427442
_cell_length_b 9.256456
_cell_length_c 24.187255
_cell_angle_alpha 90.000000
_cell_angle_beta 51.987221
_cell_angle_gamma 90.000000
_cell_volume 3603.311099
_symmetry_space_group_name_H-M "C 2/M"
_symmetry_group_IT_number 12
_symmetry_cell_setting 'monoclinic'
loop_
_space_group_symop_operation_xyz
x,y,z
-x,y,-z
-x,-y,-z
x,-y,z
1/2+x,1/2+y,z
1/2-x,1/2+y,-z
1/2-x,1/2-y,-z
1/2+x,1/2-y,z
loop_
_atom_site_type_symbol
_atom_site_label
_atom_site_fract_x
_atom_site_fract_y
_atom_site_fract_z
Si Si1 0.579227 0.659204 0.498215
Si Si2 0.401484 0.168016 0.781961
Si Si3 0.573617 0.830301 0.002641
Si Si4 0.332320 0.167096 0.633040
Si Si5 0.841765 0.165971 0.225567
Si Si6 0.288869 0.670106 0.131763
Si Si7 0.546573 0.670873 0.348441
Si Si8 0.505208 0.167770 0.155284
O O1 0.500000 0.654637 0.500000
O O2 0.620779 0.500000 0.478679
O O3 0.645650 0.773210 0.439727
O O4 0.543744 0.703781 0.576955
O O5 0.306049 0.215954 0.828090
O O6 0.455728 0.263022 0.711500
O O7 0.433210 0.202444 0.826680
O O8 0.412047 0.000000 0.760971
O O9 0.549350 0.777896 0.076484
O O10 0.590931 0.000000 0.990836
O O11 0.500000 0.783781 0.000000
O O12 0.657450 0.749051 0.942642
O O13 0.234490 0.187141 0.692773
O O14 0.379689 0.254414 0.655804
O O15 0.358689 0.000000 0.623573
O O16 0.817008 0.223368 0.177684
O O17 0.918354 0.253338 0.210364
O O18 0.868029 0.000000 0.207900
O O19 0.300264 0.500000 0.118858
O O20 0.563777 0.500000 0.338096
O O21 0.484317 0.000000 0.161308
#
# Coordination Sequence:
#
# PCOD8081748 Si02
#       8
#     8   8   8   8   8   8   8   8
#     4   8  16  29  44  72 109 139 171 216 265 309
#     4  10  21  38  55  76 108 141 177 218 265 318
#     4  10  20  35  54  79 107 135 173 218 262 313
#     4  10  18  30  50  78 108 140 177 219 263 308
#     4  10  20  34  53  78 107 137 175 219 261 309
#     4  10  20  35  55  78 104 138 174 215 264 311
#     4  10  19  31  50  76 108 142 175 216 265 312
#     4  10  22  38  56  77 105 141 176 218 267 315
#
# _framework density 17.761441000000001
#
# number of rings (size 3 to 8) (size 9 to 14) (size 15 to 20)
#    0.000    2.250    2.500    1.500    0.000    6.000 
#    0.000    0.000    0.000    0.750    0.000    0.000 
#    0.000    0.000    0.000    0.000    0.000    0.000 
#
# Total GULP energy -396830.673661 kJ/mol
# GULP energy per Si atom -12400.958552 kJ/mol
# Density = 1.772102 g / cm^3
# Si number density = 17.761441 Si / 1000 Ang^3
#
#
#
# Elastic Constant Matrix: (Units=GPa)
#
#
# Indices 1 2 3 4 5 6 
#
# 1 74.2241 32.4520 42.8633 -0.0001 0.5896 -0.0002
# 2 32.4520 69.5357 60.1819 -0.0003 -1.7205 -0.0004
# 3 42.8633 60.1819 142.4786 0.0000 2.2834 -0.0001
# 4 -0.0001 -0.0003 0.0000 37.0368 0.0000 -2.8368
# 5 0.5896 -1.7205 2.2834 0.0000 20.8752 -0.0001
# 6 -0.0002 -0.0004 -0.0001 -2.8368 -0.0001 20.7160
#
#
#
# Elastic Compliance Matrix: (Units=1/GPa)
#
#
# Indices 1 2 3 4 5 6 
#
# 1 0.017657 -0.005783 -0.002859 0.000000 -0.000663 0.000000
# 2 -0.005783 0.024741 -0.008761 0.000000 0.003161 0.000000
# 3 -0.002859 -0.008761 0.011610 0.000000 -0.001911 0.000000
# 4 0.000000 0.000000 0.000000 0.027286 0.000000 0.003737
# 5 -0.000663 0.003161 -0.001911 0.000000 0.048392 0.000000
# 6 0.000000 0.000000 0.000000 0.003737 0.000000 0.048784
#
#
# Mechanical properties :
#
#
# Convention : Reuss Voigt Hill
#
# Bulk Modulus (GPa) = 52.07691 61.91476 56.99584
# Shear Modulus (GPa) = 22.76076 25.77501 24.26788
#
# Velocity S-wave (km/s) = 3.58365 3.81357 3.70039
# Velocity P-wave (km/s) = 6.81962 7.37060 7.10046
#
# Compressibility (1/GPa) = 0.01920237
#
# Stress axis : x y z
#
# Youngs Moduli (GPa) = 56.63421 40.41899 86.13269
#
# Poissons Ratio (x) = 0.23373 0.24624
# Poissons Ratio (y) = 0.32750 0.75464
# Poissons Ratio (z) = 0.16191 0.35412
#
# Static dielectric constant tensor:
#      x y z
#    x 2.981260 0.000000 0.051310 
#    y 0.000000 3.285650 0.000000 
#    z 0.051310 0.000000 3.618990 
# 
# 
# High freq. dielectric constant tensor:
#      x y z
#    x 1.651850 0.000000 -0.001440 
#    y 0.000000 1.687260 0.000000 
#    z -0.001440 0.000000 1.701580 
# 
# From -- ./inp_files/345923.got.cif
#   From: 2010.06.25/outbox.cif.g09.slc.cpg/sg12_173_cif.got.tgz:345923.got - 2010.06.28 00:19:55.
