data_PCOD8081266
_publ_section_title
;
Structure prediction by ZEFSAII (Michael W. Deem and Ramdas Pophale) SiO2 
 PCOD8081266
Probable space group: C 2/M
;
_chemical_formula_sum "Si O2"
_cell_formula_units_Z 64
_cell_length_a 25.990267
_cell_length_b 17.546252
_cell_length_c 13.448044
_cell_angle_alpha 90.000000
_cell_angle_beta 138.503531
_cell_angle_gamma 90.000000
_cell_volume 4063.390332
_symmetry_space_group_name_H-M "C 2/M"
_symmetry_group_IT_number 12
_symmetry_cell_setting 'monoclinic'
loop_
_space_group_symop_operation_xyz
x,y,z
-x,y,-z
-x,-y,-z
x,-y,z
1/2+x,1/2+y,z
1/2-x,1/2+y,-z
1/2-x,1/2-y,-z
1/2+x,1/2-y,z
loop_
_atom_site_type_symbol
_atom_site_label
_atom_site_fract_x
_atom_site_fract_y
_atom_site_fract_z
Si Si1 0.810218 0.191311 0.323943
Si Si2 0.087748 0.086721 0.152378
Si Si3 0.310109 0.582264 0.154161
Si Si4 0.088736 0.089015 0.385422
Si Si5 0.192155 0.176869 0.157420
Si Si6 0.574174 0.667630 0.805622
Si Si7 0.803236 0.583001 0.192088
Si Si8 0.580672 0.210789 0.654824
O O1 0.775690 0.136737 0.188883
O O2 0.845522 0.139045 0.463233
O O3 0.737477 0.244540 0.252100
O O4 0.879080 0.239039 0.372789
O O5 0.107735 0.091198 0.296924
O O6 0.147798 0.144493 0.188495
O O7 0.099385 0.000000 0.129394
O O8 0.000000 0.112754 0.000000
O O9 0.325577 0.500000 0.225322
O O10 0.390705 0.610631 0.224889
O O11 0.250814 0.575913 0.980043
O O12 0.005640 0.129117 0.277096
O O13 0.087293 0.000000 0.419633
O O14 0.257752 0.117002 0.220219
O O15 0.129973 0.186224 0.979064
O O16 0.564302 0.747157 0.734941
O O17 0.834799 0.500000 0.269364
O O18 0.871593 0.635771 0.253216
O O19 0.500000 0.179986 0.500000
#
# Coordination Sequence:
#
# PCOD8081266 Si02
#       8
#     8   8   8   8   8   8   8   8
#     4  10  20  32  46  71  99 133 157 191 238 287
#     4  10  20  33  51  74  96 121 158 203 245 287
#     4   9  17  29  46  69  98 126 158 191 228 286
#     4  11  21  32  49  74 101 126 159 200 244 289
#     4  10  19  33  52  68  97 128 161 197 239 285
#     4  10  18  30  48  72  96 131 160 192 237 287
#     4   9  18  30  47  69  92 125 163 197 233 276
#     4  10  18  30  45  66  97 128 160 194 231 280
#
# _framework density 15.750394999999999
#
# number of rings (size 3 to 8) (size 9 to 14) (size 15 to 20)
#    0.000    2.125    2.500    1.875    0.000    4.750 
#    0.000    1.875    0.000    0.000    0.000    0.000 
#    0.000    2.000    0.000    0.125    0.000    0.000 
#
# Total GULP energy -396563.466465 kJ/mol
# GULP energy per Si atom -12392.608327 kJ/mol
# Density = 1.571455 g / cm^3
# Si number density = 15.750395 Si / 1000 Ang^3
#
#
#
# Elastic Constant Matrix: (Units=GPa)
#
#
# Indices 1 2 3 4 5 6 
#
# 1 76.1665 45.8272 21.2453 0.0000 1.7897 0.0000
# 2 45.8272 110.0947 34.5001 0.0000 7.1409 0.0000
# 3 21.2453 34.5001 38.7329 0.0000 -0.8717 0.0000
# 4 0.0000 0.0000 0.0000 29.0727 0.0000 0.8571
# 5 1.7897 7.1409 -0.8717 0.0000 20.9555 0.0000
# 6 0.0000 0.0000 0.0000 0.8571 0.0000 23.4234
#
#
#
# Elastic Compliance Matrix: (Units=1/GPa)
#
#
# Indices 1 2 3 4 5 6 
#
# 1 0.018056 -0.006158 -0.004410 0.000000 0.000373 0.000000
# 2 -0.006158 0.015194 -0.010270 0.000000 -0.005079 0.000000
# 3 -0.004410 -0.010270 0.037507 0.000000 0.005437 0.000000
# 4 0.000000 0.000000 0.000000 0.034434 0.000000 -0.001260
# 5 0.000373 -0.005079 0.005437 0.000000 0.049645 0.000000
# 6 0.000000 0.000000 0.000000 -0.001260 0.000000 0.042739
#
#
# Mechanical properties :
#
#
# Convention : Reuss Voigt Hill
#
# Bulk Modulus (GPa) = 34.38797 47.57104 40.97951
# Shear Modulus (GPa) = 20.08478 22.91842 21.50160
#
# Velocity S-wave (km/s) = 3.57486 3.81872 3.69880
# Velocity P-wave (km/s) = 6.23859 7.05068 6.65703
#
# Compressibility (1/GPa) = 0.02907994
#
# Stress axis : x y z
#
# Youngs Moduli (GPa) = 55.38478 65.81491 26.66143
#
# Poissons Ratio (x) = 0.40527 0.11759
# Poissons Ratio (y) = 0.34105 0.27382
# Poissons Ratio (z) = 0.24426 0.67595
#
# Static dielectric constant tensor:
#      x y z
#    x 2.845750 0.000000 -0.002450 
#    y 0.000000 3.380150 0.000000 
#    z -0.002450 0.000000 2.974950 
# 
# 
# High freq. dielectric constant tensor:
#      x y z
#    x 1.586340 0.000000 -0.000120 
#    y 0.000000 1.608110 0.000000 
#    z -0.000120 0.000000 1.602610 
# 
# From -- ./inp_files/177141.got.cif
#   From: 2010.06.25/outbox.cif.g09.slc.cpg/sg12_89_cif.got.tgz:177141.got - 2010.06.28 00:19:55.
