data_PCOD8081453
_publ_section_title
;
Structure prediction by ZEFSAII (Michael W. Deem and Ramdas Pophale) SiO2 
 PCOD8081453
Probable space group: C 2/M
;
_chemical_formula_sum "Si O2"
_cell_formula_units_Z 64
_cell_length_a 25.222539
_cell_length_b 9.128838
_cell_length_c 15.567016
_cell_angle_alpha 90.000000
_cell_angle_beta 73.447273
_cell_angle_gamma 90.000000
_cell_volume 3435.801403
_symmetry_space_group_name_H-M "C 2/M"
_symmetry_group_IT_number 12
_symmetry_cell_setting 'monoclinic'
loop_
_space_group_symop_operation_xyz
x,y,z
-x,y,-z
-x,-y,-z
x,-y,z
1/2+x,1/2+y,z
1/2-x,1/2+y,-z
1/2-x,1/2-y,-z
1/2+x,1/2-y,z
loop_
_atom_site_type_symbol
_atom_site_label
_atom_site_fract_x
_atom_site_fract_y
_atom_site_fract_z
Si Si1 0.138809 0.831115 0.069715
Si Si2 0.681178 0.325952 0.868793
Si Si3 0.692960 0.173619 0.205112
Si Si4 0.976350 0.167920 0.808727
Si Si5 0.628558 0.834274 0.401019
Si Si6 0.596086 0.326710 0.572957
Si Si7 0.099552 0.828072 0.764408
Si Si8 0.484915 0.166644 0.637062
O O1 0.164254 0.743230 0.136380
O O2 0.071913 0.814896 0.098431
O O3 0.156107 0.000000 0.072788
O O4 0.162059 0.764940 0.970225
O O5 0.675624 0.500000 0.872185
O O6 0.743448 0.276253 0.821258
O O7 0.641718 0.255975 0.813266
O O8 0.664580 0.230931 0.305919
O O9 0.686024 0.000000 0.200480
O O10 0.960386 0.272797 0.737483
O O11 0.036303 0.213758 0.819003
O O12 0.979860 0.000000 0.773551
O O13 0.638368 0.739957 0.483084
O O14 0.563645 0.827872 0.409855
O O15 0.647528 0.000000 0.411030
O O16 0.595995 0.500000 0.564123
O O17 0.613470 0.275121 0.660961
O O18 0.534794 0.267495 0.582050
O O19 0.107967 0.000000 0.764717
O O20 0.505752 0.000000 0.639733
#
# Coordination Sequence:
#
# PCOD8081453 Si02
#       8
#     8   8   8   8   8   8   8   8
#     4  10  19  31  52  81 105 129 165 211 259 299
#     4   9  18  33  54  75  98 134 175 211 249 296
#     4  10  20  35  53  74 102 136 171 207 250 300
#     4   9  17  29  48  76 107 133 163 206 255 298
#     4  10  20  32  47  71 100 133 169 203 247 302
#     4  10  20  32  50  75 101 130 165 208 255 297
#     4   8  16  32  50  72 102 133 168 207 248 298
#     4  10  18  30  48  71 103 137 167 199 245 303
#
# _framework density 18.627386999999999
#
# number of rings (size 3 to 8) (size 9 to 14) (size 15 to 20)
#    0.000    2.500    1.250    2.250    0.000    3.500 
#    0.000    3.125    0.000    7.500    0.000    4.375 
#    0.000    0.000    0.000    0.000    0.000    0.000 
#
# Total GULP energy -396687.752429 kJ/mol
# GULP energy per Si atom -12396.492263 kJ/mol
# Density = 1.858499 g / cm^3
# Si number density = 18.627387 Si / 1000 Ang^3
#
#
#
# Elastic Constant Matrix: (Units=GPa)
#
#
# Indices 1 2 3 4 5 6 
#
# 1 107.4014 24.9570 73.2820 0.0000 4.0217 0.0000
# 2 24.9570 46.9145 38.4565 0.0000 0.8393 0.0000
# 3 73.2820 38.4565 162.7673 0.0000 -8.8892 0.0000
# 4 0.0000 0.0000 0.0000 21.4220 0.0000 -3.4904
# 5 4.0217 0.8393 -8.8892 0.0000 16.1093 0.0000
# 6 0.0000 0.0000 0.0000 -3.4904 0.0000 13.4475
#
#
#
# Elastic Compliance Matrix: (Units=1/GPa)
#
#
# Indices 1 2 3 4 5 6 
#
# 1 0.014435 -0.002375 -0.006318 0.000000 -0.006966 0.000000
# 2 -0.002375 0.027218 -0.005574 0.000000 -0.003901 0.000000
# 3 -0.006318 -0.005574 0.010731 0.000000 0.007789 0.000000
# 4 0.000000 0.000000 0.000000 0.048742 0.000000 0.012651
# 5 -0.006966 -0.003901 0.007789 0.000000 0.068316 0.000000
# 6 0.000000 0.000000 0.000000 0.012651 0.000000 0.077647
#
#
# Mechanical properties :
#
#
# Convention : Reuss Voigt Hill
#
# Bulk Modulus (GPa) = 41.93196 65.60825 53.77010
# Shear Modulus (GPa) = 17.63208 22.22159 19.92684
#
# Velocity S-wave (km/s) = 3.07997 3.45766 3.27427
# Velocity P-wave (km/s) = 5.93364 7.15810 6.57444
#
# Compressibility (1/GPa) = 0.02384816
#
# Stress axis : x y z
#
# Youngs Moduli (GPa) = 69.27806 36.74023 93.19002
#
# Poissons Ratio (x) = 0.08726 0.58879
# Poissons Ratio (y) = 0.16454 0.51949
# Poissons Ratio (z) = 0.43771 0.20481
#
# Static dielectric constant tensor:
#      x y z
#    x 3.453390 0.000000 -0.065380 
#    y 0.000000 3.213500 0.000000 
#    z -0.065380 0.000000 3.660350 
# 
# 
# High freq. dielectric constant tensor:
#      x y z
#    x 1.706250 0.000000 -0.008190 
#    y 0.000000 1.693320 0.000000 
#    z -0.008190 0.000000 1.732350 
# 
# From -- ./inp_files/243881.got.cif
#   From: 2010.06.25/outbox.cif.g09.slc.cpg/sg12_122_cif.got.tgz:243881.got - 2010.06.28 00:19:55.
