data_PCOD8081728
_publ_section_title
;
Structure prediction by ZEFSAII (Michael W. Deem and Ramdas Pophale) SiO2 
 PCOD8081728
Probable space group: C 2/M
;
_chemical_formula_sum "Si O2"
_cell_formula_units_Z 64
_cell_length_a 20.092658
_cell_length_b 9.136736
_cell_length_c 20.114305
_cell_angle_alpha 90.000000
_cell_angle_beta 96.850964
_cell_angle_gamma 90.000000
_cell_volume 3666.244504
_symmetry_space_group_name_H-M "C 2/M"
_symmetry_group_IT_number 12
_symmetry_cell_setting 'monoclinic'
loop_
_space_group_symop_operation_xyz
x,y,z
-x,y,-z
-x,-y,-z
x,-y,z
1/2+x,1/2+y,z
1/2-x,1/2+y,-z
1/2-x,1/2-y,-z
1/2+x,1/2-y,z
loop_
_atom_site_type_symbol
_atom_site_label
_atom_site_fract_x
_atom_site_fract_y
_atom_site_fract_z
Si Si1 0.954896 0.325784 0.054034
Si Si2 0.659700 0.331591 0.673072
Si Si3 0.804351 0.674423 0.052195
Si Si4 0.560837 0.831074 0.456872
Si Si5 0.810823 0.827741 0.471540
Si Si6 0.818786 0.338896 0.200140
Si Si7 0.023002 0.336795 0.798676
Si Si8 0.493203 0.327309 0.330684
O O1 0.953788 0.500000 0.051649
O O2 0.878263 0.269641 0.038962
O O3 0.989146 0.277291 0.127895
O O4 0.000000 0.259591 0.000000
O O5 0.660686 0.500000 0.691312
O O6 0.695950 0.297005 0.607975
O O7 0.700867 0.255736 0.737709
O O8 0.582443 0.280140 0.659381
O O9 0.799470 0.500000 0.045218
O O10 0.789699 0.723091 0.126991
O O11 0.750000 0.750000 0.000000
O O12 0.500000 0.815906 0.500000
O O13 0.621217 0.740498 0.494228
O O14 0.542843 0.759655 0.384480
O O15 0.581327 0.000000 0.448548
O O16 0.750000 0.750000 0.500000
O O17 0.810637 0.000000 0.486647
O O18 0.789446 0.500000 0.209520
O O19 0.898104 0.345352 0.202596
O O20 0.992371 0.500000 0.785228
O O21 0.990079 0.224419 0.742449
O O22 0.505232 0.500000 0.339160
#
# Coordination Sequence:
#
# PCOD8081728 Si02
#       8
#     8   8   8   8   8   8   8   8
#     4   8  14  27  49  73  97 128 168 206 244 293
#     4   9  18  31  50  75 101 129 165 209 252 298
#     4   9  17  29  47  73 100 127 161 205 250 294
#     4  11  22  35  55  82 106 133 173 215 257 306
#     4  11  23  39  56  77 107 139 173 212 258 311
#     4   8  15  27  45  69  96 125 163 206 247 293
#     4   8  14  26  45  71  98 125 163 210 250 292
#     4  10  18  30  50  76 105 133 164 210 262 303
#
# _framework density 17.456555999999999
#
# number of rings (size 3 to 8) (size 9 to 14) (size 15 to 20)
#    0.000    2.750    1.250    2.625    0.000    2.500 
#    0.000    1.875    2.750    1.500    0.000    0.000 
#    0.000    0.000    0.000    0.000    0.000    0.000 
#
# Total GULP energy -396642.781431 kJ/mol
# GULP energy per Si atom -12395.086920 kJ/mol
# Density = 1.741682 g / cm^3
# Si number density = 17.456556 Si / 1000 Ang^3
#
#
#
# Elastic Constant Matrix: (Units=GPa)
#
#
# Indices 1 2 3 4 5 6 
#
# 1 57.8220 37.2967 47.8354 0.0000 -3.9665 0.0000
# 2 37.2967 78.7438 66.3782 0.0000 1.1024 0.0000
# 3 47.8354 66.3782 150.3820 0.0000 1.6427 0.0000
# 4 0.0000 0.0000 0.0000 32.8238 0.0000 5.4622
# 5 -3.9665 1.1024 1.6427 0.0000 25.1054 0.0000
# 6 0.0000 0.0000 0.0000 5.4622 0.0000 22.0214
#
#
#
# Elastic Compliance Matrix: (Units=1/GPa)
#
#
# Indices 1 2 3 4 5 6 
#
# 1 0.027426 -0.009015 -0.004800 0.000000 0.005043 0.000000
# 2 -0.009015 0.023190 -0.007347 0.000000 -0.001962 0.000000
# 3 -0.004800 -0.007347 0.011433 0.000000 -0.001184 0.000000
# 4 0.000000 0.000000 0.000000 0.031777 0.000000 -0.007882
# 5 0.005043 -0.001962 -0.001184 0.000000 0.040793 0.000000
# 6 0.000000 0.000000 0.000000 -0.007882 0.000000 0.047365
#
#
# Mechanical properties :
#
#
# Convention : Reuss Voigt Hill
#
# Bulk Modulus (GPa) = 50.69694 65.55203 58.12448
# Shear Modulus (GPa) = 21.65604 25.01927 23.33766
#
# Velocity S-wave (km/s) = 3.52599 3.78991 3.66033
# Velocity P-wave (km/s) = 6.75882 7.53553 7.15772
#
# Compressibility (1/GPa) = 0.01972506
#
# Stress axis : x y z
#
# Youngs Moduli (GPa) = 36.46158 43.12221 87.46971
#
# Poissons Ratio (x) = 0.38873 0.41987
# Poissons Ratio (y) = 0.32868 0.64265
# Poissons Ratio (z) = 0.17502 0.31682
#
# Static dielectric constant tensor:
#      x y z
#    x 2.959630 0.000000 -0.077710 
#    y 0.000000 3.229590 0.000000 
#    z -0.077710 0.000000 3.671570 
# 
# 
# High freq. dielectric constant tensor:
#      x y z
#    x 1.629970 0.000000 -0.000460 
#    y 0.000000 1.665210 0.000000 
#    z -0.000460 0.000000 1.692480 
# 
# From -- ./inp_files/319201.got.cif
#   From: 2010.06.25/outbox.cif.g09.slc.cpg/sg12_160_cif.got.tgz:319201.got - 2010.06.28 00:19:55.
