data_PCOD8081956
_publ_section_title
;
Structure prediction by ZEFSAII (Michael W. Deem and Ramdas Pophale) SiO2 
 PCOD8081956
Probable space group: C 2/M
;
_chemical_formula_sum "Si O2"
_cell_formula_units_Z 56
_cell_length_a 29.477980
_cell_length_b 9.175157
_cell_length_c 12.575844
_cell_angle_alpha 90.000000
_cell_angle_beta 104.887351
_cell_angle_gamma 90.000000
_cell_volume 3287.153893
_symmetry_space_group_name_H-M "C 2/M"
_symmetry_group_IT_number 12
_symmetry_cell_setting 'monoclinic'
loop_
_space_group_symop_operation_xyz
x,y,z
-x,y,-z
-x,-y,-z
x,-y,z
1/2+x,1/2+y,z
1/2-x,1/2+y,-z
1/2-x,1/2-y,-z
1/2+x,1/2-y,z
loop_
_atom_site_type_symbol
_atom_site_label
_atom_site_fract_x
_atom_site_fract_y
_atom_site_fract_z
Si Si1 0.950165 0.672651 0.006458
Si Si2 0.050702 0.330289 0.753646
Si Si3 0.299784 0.331497 0.418990
Si Si4 0.880389 0.671901 0.784485
Si Si5 0.555206 0.831091 0.374312
Si Si6 0.208082 0.169873 0.339417
Si Si7 0.097841 0.171630 0.594754
O O1 0.954152 0.500000 0.999358
O O2 0.938438 0.719075 0.119485
O O3 0.909108 0.728467 0.904170
O O4 0.000000 0.740775 0.000000
O O5 0.061787 0.500000 0.742383
O O6 0.084508 0.235326 0.700728
O O7 0.996724 0.296056 0.696846
O O8 0.287379 0.500000 0.393600
O O9 0.258844 0.235874 0.341281
O O10 0.304389 0.295752 0.546172
O O11 0.348235 0.286227 0.393229
O O12 0.871407 0.500000 0.783404
O O13 0.908999 0.715449 0.696293
O O14 0.830853 0.753902 0.757007
O O15 0.564407 0.738838 0.485065
O O16 0.561001 0.000000 0.407257
O O17 0.208785 0.000000 0.314195
O O18 0.090185 0.000000 0.588712
#
# Coordination Sequence:
#
# PCOD8081956 Si02
#       7
#     8   8   8   8   8   8   8
#     4   9  16  31  54  77 100 132 175 217 250 286
#     4  10  20  34  52  75 103 136 178 216 244 289
#     4   9  19  34  50  71 100 133 168 206 252 306
#     4  10  18  30  53  79 104 134 167 208 256 299
#     4  10  19  31  50  76 104 136 173 209 245 294
#     4  10  19  32  51  76 103 131 164 207 258 307
#     4  11  22  35  50  72 106 141 169 204 256 310
#
# _framework density 17.036014000000002
#
# number of rings (size 3 to 8) (size 9 to 14) (size 15 to 20)
#    0.000    2.143    2.857    1.286    0.000    4.000 
#    0.000    0.714    0.000    1.714    0.000    0.000 
#    0.000    0.000    0.000    0.000    0.000    0.000 
#
# Total GULP energy -347277.416296 kJ/mol
# GULP energy per Si atom -12402.764868 kJ/mol
# Density = 1.699724 g / cm^3
# Si number density = 17.036014 Si / 1000 Ang^3
#
#
#
# Elastic Constant Matrix: (Units=GPa)
#
#
# Indices 1 2 3 4 5 6 
#
# 1 79.1698 40.5163 44.8025 0.0000 18.1253 0.0000
# 2 40.5163 52.6203 37.4176 0.0000 8.3589 0.0000
# 3 44.8025 37.4176 108.9582 0.0000 14.3009 0.0000
# 4 0.0000 0.0000 0.0000 13.6044 0.0000 1.8885
# 5 18.1253 8.3589 14.3009 0.0000 23.5959 0.0000
# 6 0.0000 0.0000 0.0000 1.8885 0.0000 28.2102
#
#
#
# Elastic Compliance Matrix: (Units=1/GPa)
#
#
# Indices 1 2 3 4 5 6 
#
# 1 0.024915 -0.014728 -0.003650 0.000000 -0.011709 0.000000
# 2 -0.014728 0.034202 -0.006066 0.000000 0.002874 0.000000
# 3 -0.003650 -0.006066 0.013159 0.000000 -0.003022 0.000000
# 4 0.000000 0.000000 0.000000 0.074195 0.000000 -0.004967
# 5 -0.011709 0.002874 -0.003022 0.000000 0.052188 0.000000
# 6 0.000000 0.000000 0.000000 -0.004967 0.000000 0.035781
#
#
# Mechanical properties :
#
#
# Convention : Reuss Voigt Hill
#
# Bulk Modulus (GPa) = 42.76142 54.02457 48.39300
# Shear Modulus (GPa) = 17.17486 20.94955 19.06220
#
# Velocity S-wave (km/s) = 3.17858 3.51054 3.34868
# Velocity P-wave (km/s) = 6.21500 6.94354 6.58935
#
# Compressibility (1/GPa) = 0.02338556
#
# Stress axis : x y z
#
# Youngs Moduli (GPa) = 40.13709 29.23835 75.99564
#
# Poissons Ratio (x) = 0.43063 0.27738
# Poissons Ratio (y) = 0.59115 0.46102
# Poissons Ratio (z) = 0.14650 0.17737
#
# Static dielectric constant tensor:
#      x y z
#    x 3.197740 0.000000 0.047020 
#    y 0.000000 3.010540 0.000000 
#    z 0.047020 0.000000 3.182240 
# 
# 
# High freq. dielectric constant tensor:
#      x y z
#    x 1.657020 0.000000 0.009120 
#    y 0.000000 1.643100 0.000000 
#    z 0.009120 0.000000 1.645020 
# 
# From -- ./inp_files/186413.got.cif
#   From: 2010.06.25/outbox.cif.g09.slc.cpg/sg12_94_cif.got.tgz:186413.got - 2010.06.28 00:19:55.
