data_PCOD8081924
_publ_section_title
;
Structure prediction by ZEFSAII (Michael W. Deem and Ramdas Pophale) SiO2 
 PCOD8081924
Probable space group: C 2/M
;
_chemical_formula_sum "Si O2"
_cell_formula_units_Z 64
_cell_length_a 33.031444
_cell_length_b 8.828647
_cell_length_c 19.999531
_cell_angle_alpha 90.000000
_cell_angle_beta 142.880165
_cell_angle_gamma 90.000000
_cell_volume 3519.713630
_symmetry_space_group_name_H-M "C 2/M"
_symmetry_group_IT_number 12
_symmetry_cell_setting 'monoclinic'
loop_
_space_group_symop_operation_xyz
x,y,z
-x,y,-z
-x,-y,-z
x,-y,z
1/2+x,1/2+y,z
1/2-x,1/2+y,-z
1/2-x,1/2-y,-z
1/2+x,1/2-y,z
loop_
_atom_site_type_symbol
_atom_site_label
_atom_site_fract_x
_atom_site_fract_y
_atom_site_fract_z
Si Si1 0.312329 0.325746 0.441892
Si Si2 0.589624 0.676861 0.309466
Si Si3 0.552539 0.821953 0.888423
Si Si4 0.837008 0.322486 0.716348
Si Si5 0.699897 0.322317 0.843113
Si Si6 0.363847 0.321734 0.887390
Si Si7 0.213668 0.676393 0.725409
Si Si8 0.343423 0.177251 0.086240
O O1 0.311483 0.500000 0.419044
O O2 0.371224 0.288634 0.570755
O O3 0.241568 0.283031 0.382468
O O4 0.325129 0.228008 0.392317
O O5 0.571897 0.500000 0.279264
O O6 0.523532 0.777760 0.224897
O O7 0.635686 0.726227 0.308961
O O8 0.594663 0.774449 0.878584
O O9 0.559540 0.000000 0.912029
O O10 0.578387 0.730372 0.986415
O O11 0.850542 0.500000 0.722988
O O12 0.875042 0.267812 0.833155
O O13 0.692777 0.500000 0.830293
O O14 0.680401 0.256247 0.745432
O O15 0.649089 0.260326 0.832620
O O16 0.775289 0.269188 0.960182
O O17 0.369315 0.500000 0.880868
O O18 0.291787 0.277049 0.823131
O O19 0.204145 0.500000 0.722143
O O20 0.341803 0.000000 0.098101
#
# Coordination Sequence:
#
# PCOD8081924 Si02
#       8
#     8   8   8   8   8   8   8   8
#     4   9  20  37  57  79 106 138 176 222 268 313
#     4  11  23  38  55  78 106 140 180 221 265 315
#     4  11  22  37  55  76 108 146 180 216 260 317
#     4  10  20  36  58  81 105 136 175 222 270 316
#     4  10  18  30  52  80 110 141 174 213 260 313
#     4  10  20  34  53  79 109 141 175 217 266 315
#     4  10  19  31  53  82 111 139 173 218 266 314
#     4   9  19  33  50  76 109 142 175 214 257 310
#
# _framework density 18.183298000000001
#
# number of rings (size 3 to 8) (size 9 to 14) (size 15 to 20)
#    0.000    2.000    1.250    2.625    0.000    4.500 
#    0.000    2.500    0.000    0.750    0.000    5.250 
#    0.000    0.000    0.000    0.000    0.000    0.000 
#
# Total GULP energy -396943.643890 kJ/mol
# GULP energy per Si atom -12404.488872 kJ/mol
# Density = 1.814191 g / cm^3
# Si number density = 18.183298 Si / 1000 Ang^3
#
#
#
# Elastic Constant Matrix: (Units=GPa)
#
#
# Indices 1 2 3 4 5 6 
#
# 1 -8.7662 12.4819 6.2122 0.0000 -29.4748 0.0000
# 2 12.4819 48.9076 18.3595 0.0000 -11.9078 0.0000
# 3 6.2122 18.3595 74.5984 0.0000 -13.2153 0.0000
# 4 0.0000 0.0000 0.0000 28.8520 0.0000 -5.8214
# 5 -29.4748 -11.9078 -13.2153 0.0000 25.0233 0.0000
# 6 0.0000 0.0000 0.0000 -5.8214 0.0000 32.9115
#
#
#
# Elastic Compliance Matrix: (Units=1/GPa)
#
#
# Indices 1 2 3 4 5 6 
#
# 1 -0.022332 0.000068 -0.003101 0.000000 -0.027910 0.000000
# 2 0.000068 0.024339 -0.004335 0.000000 0.009373 0.000000
# 3 -0.003101 -0.004335 0.015134 0.000000 0.002276 0.000000
# 4 0.000000 0.000000 0.000000 0.035942 0.000000 0.006358
# 5 -0.027910 0.009373 0.002276 0.000000 0.012750 0.000000
# 6 0.000000 0.000000 0.000000 0.006358 0.000000 0.031509
#
#
# Mechanical properties :
#
#
# Convention : Reuss Voigt Hill
#
# Bulk Modulus (GPa) = 416.07892 20.98300 218.53096
# Shear Modulus (GPa) = 44.29489 22.53643 33.41566
#
# Velocity S-wave (km/s) = 4.94096 3.52433 4.29150
# Velocity P-wave (km/s) = 16.18247 5.30340 12.04156
#
# Compressibility (1/GPa) = 0.00240339
#
# Stress axis : x y z
#
# Youngs Moduli (GPa) = -44.77876 41.08662 66.07827
#
# Poissons Ratio (x) = -0.00280 0.20494
# Poissons Ratio (y) = 0.00306 0.28647
# Poissons Ratio (z) = -0.13888 0.17812
#
# Static dielectric constant tensor:
#      x y z
#    x 3.351740 0.000000 -0.167590 
#    y 0.000000 3.355610 0.000000 
#    z -0.167590 0.000000 3.220470 
# 
# 
# High freq. dielectric constant tensor:
#      x y z
#    x 1.700600 0.000000 -0.021350 
#    y 0.000000 1.715780 0.000000 
#    z -0.021350 0.000000 1.685620 
# 
# From -- ./inp_files/295506.got.cif
#   From: 2010.06.25/outbox.cif.g09.slc.cpg/sg12_148_cif.got.tgz:295506.got - 2010.06.28 00:19:55.
