data_PCOD8081986
_publ_section_title
;
Structure prediction by ZEFSAII (Michael W. Deem and Ramdas Pophale) SiO2 
 PCOD8081986
Probable space group: C 2/M
;
_chemical_formula_sum "Si O2"
_cell_formula_units_Z 52
_cell_length_a 13.763112
_cell_length_b 17.972678
_cell_length_c 20.238407
_cell_angle_alpha 90.000000
_cell_angle_beta 143.934413
_cell_angle_gamma 90.000000
_cell_volume 2947.188279
_symmetry_space_group_name_H-M "C 2/M"
_symmetry_group_IT_number 12
_symmetry_cell_setting 'monoclinic'
loop_
_space_group_symop_operation_xyz
x,y,z
-x,y,-z
-x,-y,-z
x,-y,z
1/2+x,1/2+y,z
1/2-x,1/2+y,-z
1/2-x,1/2-y,-z
1/2+x,1/2-y,z
loop_
_atom_site_type_symbol
_atom_site_label
_atom_site_fract_x
_atom_site_fract_y
_atom_site_fract_z
Si Si1 0.419940 0.500000 0.269792
Si Si2 0.160428 0.244117 0.252272
Si Si3 0.516174 0.750491 0.644153
Si Si4 0.081968 0.153026 0.804197
Si Si5 0.366280 0.500000 0.485007
Si Si6 0.940989 0.655088 0.042670
Si Si7 0.757239 0.339278 0.577588
Si Si8 0.554950 0.000000 0.105460
O O1 0.434327 0.569441 0.229203
O O2 0.560799 0.500000 0.401542
O O3 0.251713 0.500000 0.218599
O O4 0.329188 0.216636 0.311067
O O5 0.201671 0.305478 0.329257
O O6 0.078145 0.171595 0.239801
O O7 0.030700 0.278668 0.129823
O O8 0.592601 0.707867 0.748104
O O9 0.417289 0.691980 0.544387
O O10 0.398923 0.818494 0.602068
O O11 0.244464 0.165567 0.937791
O O12 0.500000 0.500000 0.500000
O O13 0.251016 0.427569 0.416520
O O14 0.985914 0.575305 0.101268
O O15 0.000000 0.654909 0.000000
O O16 0.500000 0.000000 0.000000
#
# Coordination Sequence:
#
# PCOD8081986 Si02
#       8
#     4   8   8   8   4   8   8   4
#     4  12  20  36  53  80 113 138 180 227 278 320
#     4  11  22  35  57  80 111 149 186 219 269 330
#     4  10  19  39  55  75 112 144 179 228 268 320
#     4  11  21  35  56  84 109 144 183 227 273 323
#     4  12  24  34  57  84 111 142 180 228 275 333
#     4  11  19  33  55  83 114 144 177 227 276 324
#     4  10  23  35  55  82 108 143 183 223 274 322
#     4  10  18  30  54  76 105 144 161 221 286 313
#
# _framework density 17.643934999999999
#
# number of rings (size 3 to 8) (size 9 to 14) (size 15 to 20)
#    0.000    1.231    6.154    1.846    2.154    0.000 
#    0.000    0.769    0.000    0.923    0.000    0.538 
#    0.000    0.000    0.000    0.000    0.000    0.000 
#
# Total GULP energy -322427.578167 kJ/mol
# GULP energy per Si atom -12401.060699 kJ/mol
# Density = 1.760378 g / cm^3
# Si number density = 17.643935 Si / 1000 Ang^3
#
#
#
# Elastic Constant Matrix: (Units=GPa)
#
#
# Indices 1 2 3 4 5 6 
#
# 1 100.4264 41.1976 42.8397 -0.0001 23.6250 0.0002
# 2 41.1976 100.3600 39.4170 0.0000 16.4936 0.0001
# 3 42.8397 39.4170 93.3350 0.0024 13.8601 -0.0018
# 4 -0.0001 0.0000 0.0024 23.1167 0.0004 1.5101
# 5 23.6250 16.4936 13.8601 0.0004 30.4860 -0.0004
# 6 0.0002 0.0001 -0.0018 1.5101 -0.0004 41.6608
#
#
#
# Elastic Compliance Matrix: (Units=1/GPa)
#
#
# Indices 1 2 3 4 5 6 
#
# 1 0.014969 -0.003125 -0.004375 0.000001 -0.007921 0.000000
# 2 -0.003125 0.013194 -0.003686 0.000000 -0.003041 0.000000
# 3 -0.004375 -0.003686 0.014455 -0.000002 -0.001187 0.000001
# 4 0.000001 0.000000 -0.000002 0.043361 -0.000001 -0.001572
# 5 -0.007921 -0.003041 -0.001187 -0.000001 0.041125 0.000000
# 6 0.000000 0.000000 0.000001 -0.001572 0.000000 0.024060
#
#
# Mechanical properties :
#
#
# Convention : Reuss Voigt Hill
#
# Bulk Modulus (GPa) = 49.39081 60.11443 54.75262
# Shear Modulus (GPa) = 27.73372 30.43050 29.08211
#
# Velocity S-wave (km/s) = 3.96896 4.15746 4.06430
# Velocity P-wave (km/s) = 7.00410 7.56246 7.28863
#
# Compressibility (1/GPa) = 0.02024668
#
# Stress axis : x y z
#
# Youngs Moduli (GPa) = 66.80543 75.78927 69.17937
#
# Poissons Ratio (x) = 0.23683 0.30264
# Poissons Ratio (y) = 0.20875 0.25503
# Poissons Ratio (z) = 0.29225 0.27939
#
# Static dielectric constant tensor:
#      x y z
#    x 3.246670 0.000000 0.059190 
#    y 0.000000 3.388690 0.000000 
#    z 0.059190 0.000000 3.498200 
# 
# 
# High freq. dielectric constant tensor:
#      x y z
#    x 1.665150 0.000000 -0.001150 
#    y 0.000000 1.669800 0.000000 
#    z -0.001150 0.000000 1.700430 
# 
# From -- ./inp_files/184344.got.cif
#   From: 2010.06.25/outbox.cif.g09.slc.cpg/sg12_93_cif.got.tgz:184344.got - 2010.06.28 00:19:55.
