data_PCOD8081750
_publ_section_title
;
Structure prediction by ZEFSAII (Michael W. Deem and Ramdas Pophale) SiO2 
 PCOD8081750
Probable space group: C 2/M
;
_chemical_formula_sum "Si O2"
_cell_formula_units_Z 56
_cell_length_a 19.664706
_cell_length_b 9.167576
_cell_length_c 31.207469
_cell_angle_alpha 90.000000
_cell_angle_beta 149.365221
_cell_angle_gamma 90.000000
_cell_volume 2866.811194
_symmetry_space_group_name_H-M "C 2/M"
_symmetry_group_IT_number 12
_symmetry_cell_setting 'monoclinic'
loop_
_space_group_symop_operation_xyz
x,y,z
-x,y,-z
-x,-y,-z
x,-y,z
1/2+x,1/2+y,z
1/2-x,1/2+y,-z
1/2-x,1/2-y,-z
1/2+x,1/2-y,z
loop_
_atom_site_type_symbol
_atom_site_label
_atom_site_fract_x
_atom_site_fract_y
_atom_site_fract_z
Si Si1 0.810474 0.665136 0.426208
Si Si2 0.371593 0.833059 0.731514
Si Si3 0.089880 0.168848 0.377095
Si Si4 0.488496 0.828400 0.397108
Si Si5 0.131030 0.831452 0.094754
Si Si6 0.716802 0.829719 0.225837
Si Si7 0.085772 0.331725 0.780938
O O1 0.800803 0.500000 0.405066
O O2 0.762337 0.757987 0.359742
O O3 0.715141 0.695184 0.414833
O O4 0.959674 0.698231 0.525597
O O5 0.384746 0.804227 0.789348
O O6 0.508952 0.781479 0.782773
O O7 0.346293 0.000000 0.707825
O O8 0.102799 0.264851 0.427245
O O9 0.957435 0.228126 0.281390
O O10 0.069632 0.000000 0.377871
O O11 0.354143 0.743091 0.314771
O O12 0.469484 0.000000 0.378282
O O13 0.151044 0.742459 0.149037
O O14 0.254727 0.811571 0.128762
O O15 0.112814 0.000000 0.097788
O O16 0.000000 0.770875 0.000000
O O17 0.741617 0.000000 0.230502
O O18 0.051186 0.500000 0.751168
#
# Coordination Sequence:
#
# PCOD8081750 Si02
#       7
#     8   8   8   8   8   8   8
#     4   9  20  34  50  76 109 147 189 232 270 315
#     4   9  20  37  56  78 109 150 189 225 268 320
#     4  10  18  30  50  78 109 141 184 231 273 318
#     4  11  21  33  50  75 110 149 188 228 276 325
#     4  10  21  38  62  89 112 137 175 223 276 335
#     4  11  23  38  56  81 112 145 183 229 278 323
#     4   9  17  34  58  80 107 145 183 218 266 327
#
# _framework density 19.533899000000002
#
# number of rings (size 3 to 8) (size 9 to 14) (size 15 to 20)
#    0.000    2.143    1.429    1.714    0.000    3.714 
#    0.000    3.571    0.000    0.000    0.000    0.000 
#    0.000    0.000    0.000    0.000    0.000    0.000 
#
# Total GULP energy -347068.034258 kJ/mol
# GULP energy per Si atom -12395.286938 kJ/mol
# Density = 1.948944 g / cm^3
# Si number density = 19.533899 Si / 1000 Ang^3
#
#
#
# Elastic Constant Matrix: (Units=GPa)
#
#
# Indices 1 2 3 4 5 6 
#
# 1 63.7030 36.4895 45.6192 0.0000 -13.4539 0.0000
# 2 36.4895 79.7741 54.4700 -0.0001 -6.3497 0.0003
# 3 45.6192 54.4700 131.4884 0.0001 -3.4192 0.0000
# 4 0.0000 -0.0001 0.0001 24.1113 0.0000 -4.3014
# 5 -13.4539 -6.3497 -3.4192 0.0000 21.2332 0.0000
# 6 0.0000 0.0003 0.0000 -4.3014 0.0000 24.5617
#
#
#
# Elastic Compliance Matrix: (Units=1/GPa)
#
#
# Indices 1 2 3 4 5 6 
#
# 1 0.027109 -0.007123 -0.006089 0.000000 0.014066 0.000000
# 2 -0.007123 0.019710 -0.005682 0.000000 0.000466 0.000000
# 3 -0.006089 -0.005682 0.011977 0.000000 -0.003628 0.000000
# 4 0.000000 0.000000 0.000000 0.042812 0.000000 0.007497
# 5 0.014066 0.000466 -0.003628 0.000000 0.055564 0.000000
# 6 0.000000 0.000000 0.000000 0.007497 0.000000 0.042027
#
#
# Mechanical properties :
#
#
# Convention : Reuss Voigt Hill
#
# Bulk Modulus (GPa) = 47.59781 60.90255 54.25018
# Shear Modulus (GPa) = 20.49278 23.20703 21.84990
#
# Velocity S-wave (km/s) = 3.24248 3.45053 3.34812
# Velocity P-wave (km/s) = 6.19983 6.86443 6.54058
#
# Compressibility (1/GPa) = 0.02100937
#
# Stress axis : x y z
#
# Youngs Moduli (GPa) = 36.88814 50.73572 83.49299
#
# Poissons Ratio (x) = 0.36138 0.50838
# Poissons Ratio (y) = 0.26275 0.47438
# Poissons Ratio (z) = 0.22461 0.28826
#
# Static dielectric constant tensor:
#      x y z
#    x 3.941870 0.000000 0.040980 
#    y 0.000000 3.576760 0.000000 
#    z 0.040980 0.000000 3.444390 
# 
# 
# High freq. dielectric constant tensor:
#      x y z
#    x 1.771510 0.000000 0.002170 
#    y 0.000000 1.760300 0.000000 
#    z 0.002170 0.000000 1.735240 
# 
# From -- ./inp_files/380735.got.cif
#   From: 2010.06.25/outbox.cif.g09.slc.cpg/sg12_191_cif.got.tgz:380735.got - 2010.06.28 00:19:55.
