data_PCOD8081769
_publ_section_title
;
Structure prediction by ZEFSAII (Michael W. Deem and Ramdas Pophale) SiO2 
 PCOD8081769
Probable space group: C 2/M
;
_chemical_formula_sum "Si O2"
_cell_formula_units_Z 64
_cell_length_a 12.823322
_cell_length_b 28.384048
_cell_length_c 16.782244
_cell_angle_alpha 90.000000
_cell_angle_beta 31.644402
_cell_angle_gamma 90.000000
_cell_volume 3204.727559
_symmetry_space_group_name_H-M "C 2/M"
_symmetry_group_IT_number 12
_symmetry_cell_setting 'monoclinic'
loop_
_space_group_symop_operation_xyz
x,y,z
-x,y,-z
-x,-y,-z
x,-y,z
1/2+x,1/2+y,z
1/2-x,1/2+y,-z
1/2-x,1/2-y,-z
1/2+x,1/2-y,z
loop_
_atom_site_type_symbol
_atom_site_label
_atom_site_fract_x
_atom_site_fract_y
_atom_site_fract_z
Si Si1 0.193731 0.553151 0.256835
Si Si2 0.110567 0.176718 0.768690
Si Si3 0.811422 0.617038 0.518208
Si Si4 0.634540 0.225483 0.805173
Si Si5 0.022761 0.947688 0.775316
Si Si6 0.539348 0.176503 0.718781
Si Si7 0.808023 0.228046 0.856039
Si Si8 0.814088 0.891144 0.029043
O O1 0.129279 0.500000 0.274787
O O2 0.321015 0.551296 0.253696
O O3 0.003093 0.584711 0.397388
O O4 0.321312 0.575735 0.102049
O O5 0.952815 0.190559 0.802310
O O6 0.001192 0.145484 0.907919
O O7 0.288367 0.146596 0.614858
O O8 0.217374 0.221753 0.737993
O O9 0.617422 0.582415 0.640621
O O10 0.818753 0.654768 0.441385
O O11 0.681249 0.191050 0.700825
O O12 0.734589 0.205738 0.819640
O O13 0.393521 0.233859 0.961215
O O14 0.827733 0.922562 0.939028
O O15 0.971263 0.000000 0.778281
O O16 0.417275 0.222277 0.768528
O O17 0.391687 0.136123 0.843934
#
# Coordination Sequence:
#
# PCOD8081769 Si02
#       8
#     8   8   8   8   8   8   8   8
#     4  10  20  33  48  71 102 134 168 206 249 301
#     4  10  19  36  48  74 106 133 171 213 239 293
#     4  10  22  32  49  66 102 141 164 199 249 288
#     4  10  19  32  54  75 100 134 166 210 260 290
#     4  10  20  33  48  71 102 134 168 206 249 301
#     4  10  19  36  48  74 106 133 171 213 239 293
#     4  10  19  32  54  75 100 134 166 210 260 290
#     4  10  18  30  51  70  98 133 170 211 243 280
#
# _framework density 19.970496000000001
#
# number of rings (size 3 to 8) (size 9 to 14) (size 15 to 20)
#    0.000    2.000    2.500    2.250    0.000   10.000 
#    0.000    1.875    0.000    0.000    0.000    0.000 
#    0.000   70.000    0.000    0.000    0.000    0.000 
#
# Total GULP energy -396610.153896 kJ/mol
# GULP energy per Si atom -12394.067309 kJ/mol
# Density = 1.992504 g / cm^3
# Si number density = 19.970496 Si / 1000 Ang^3
#
#
#
# Elastic Constant Matrix: (Units=GPa)
#
#
# Indices 1 2 3 4 5 6 
#
# 1 49.4120 14.2923 10.0857 -0.0081 6.0766 0.0133
# 2 14.2923 106.9658 41.1906 0.0023 11.8566 0.0141
# 3 10.0857 41.1906 110.8550 -0.0055 20.0848 0.0257
# 4 -0.0081 0.0023 -0.0055 27.8911 0.0107 5.6454
# 5 6.0766 11.8566 20.0848 0.0107 19.4447 -0.0326
# 6 0.0133 0.0141 0.0257 5.6454 -0.0326 12.0752
#
#
#
# Elastic Compliance Matrix: (Units=1/GPa)
#
#
# Indices 1 2 3 4 5 6 
#
# 1 0.021560 -0.002232 -0.000194 0.000017 -0.005176 -0.000043
# 2 -0.002232 0.011288 -0.003532 0.000001 -0.002538 -0.000010
# 3 -0.000194 -0.003532 0.012240 0.000018 -0.010429 -0.000058
# 4 0.000017 0.000001 0.000018 0.039601 -0.000078 -0.018514
# 5 -0.005176 -0.002538 -0.010429 -0.000078 0.065366 0.000243
# 6 -0.000043 -0.000010 -0.000058 -0.018514 0.000243 0.091471
#
#
# Mechanical properties :
#
#
# Convention : Reuss Voigt Hill
#
# Bulk Modulus (GPa) = 30.14563 44.26333 37.20448
# Shear Modulus (GPa) = 18.90363 25.32649 22.11506
#
# Velocity S-wave (km/s) = 3.07999 3.56504 3.33135
# Velocity P-wave (km/s) = 5.27032 6.25767 5.78510
#
# Compressibility (1/GPa) = 0.03317231
#
# Stress axis : x y z
#
# Youngs Moduli (GPa) = 46.38251 88.58758 81.69761
#
# Poissons Ratio (x) = 0.19774 0.01588
# Poissons Ratio (y) = 0.10353 0.28852
# Poissons Ratio (z) = 0.00901 0.31285
#
# Static dielectric constant tensor:
#      x y z
#    x 3.144840 -0.000010 0.263270 
#    y -0.000010 4.082850 0.000020 
#    z 0.263270 0.000020 3.886010 
# 
# 
# High freq. dielectric constant tensor:
#      x y z
#    x 1.721160 0.000000 0.020330 
#    y 0.000000 1.789010 0.000000 
#    z 0.020330 0.000000 1.788850 
# 
# From -- ./inp_files/273176.got.cif
#   From: 2010.06.25/outbox.cif.g09.slc.cpg/sg12_137_cif.got.tgz:273176.got - 2010.06.28 00:19:55.
