data_PCOD8081655
_publ_section_title
;
Structure prediction by ZEFSAII (Michael W. Deem and Ramdas Pophale) SiO2 
 PCOD8081655
Probable space group: C 2/M
;
_chemical_formula_sum "Si O2"
_cell_formula_units_Z 48
_cell_length_a 18.255744
_cell_length_b 8.863817
_cell_length_c 24.029242
_cell_angle_alpha 90.000000
_cell_angle_beta 136.746558
_cell_angle_gamma 90.000000
_cell_volume 2664.370983
_symmetry_space_group_name_H-M "C 2/M"
_symmetry_group_IT_number 12
_symmetry_cell_setting 'monoclinic'
loop_
_space_group_symop_operation_xyz
x,y,z
-x,y,-z
-x,-y,-z
x,-y,z
1/2+x,1/2+y,z
1/2-x,1/2+y,-z
1/2-x,1/2-y,-z
1/2+x,1/2-y,z
loop_
_atom_site_type_symbol
_atom_site_label
_atom_site_fract_x
_atom_site_fract_y
_atom_site_fract_z
Si Si1 0.251623 0.676079 0.167550
Si Si2 0.710420 0.174909 0.922220
Si Si3 0.206272 0.177298 0.252028
Si Si4 0.561577 0.826059 0.585720
Si Si5 0.967428 0.671910 0.310199
Si Si6 0.460871 0.829737 0.764855
O O1 0.228221 0.500000 0.150212
O O2 0.224405 0.752087 0.093206
O O3 0.180439 0.745222 0.178287
O O4 0.374804 0.707463 0.249575
O O5 0.584168 0.203888 0.846315
O O6 0.738497 0.000000 0.939400
O O7 0.750000 0.250000 0.000000
O O8 0.319203 0.240399 0.338877
O O9 0.112712 0.213479 0.243366
O O10 0.212443 0.000000 0.245546
O O11 0.500000 0.745127 0.500000
O O12 0.490718 0.805697 0.603258
O O13 0.576087 0.000000 0.578162
O O14 0.920500 0.500000 0.278035
O O15 0.057158 0.694742 0.312077
O O16 0.429773 0.000000 0.764875
#
# Coordination Sequence:
#
# PCOD8081655 Si02
#       6
#     8   8   8   8   8   8
#     4  10  18  30  50  72  96 128 163 198 239 288
#     4  10  20  35  54  76 101 128 160 197 239 286
#     4  10  19  31  49  72  97 127 165 205 242 286
#     4   8  14  27  48  71  94 125 165 204 243 288
#     4   8  15  29  48  69  94 127 165 200 238 289
#     4   9  18  32  49  70  98 129 159 196 242 288
#
# _framework density 18.015508000000001
#
# number of rings (size 3 to 8) (size 9 to 14) (size 15 to 20)
#    0.000    2.833    0.000    4.500    0.000    3.333 
#    0.000    1.667    0.000   17.500    0.000    0.000 
#    0.000    0.000    0.000    0.000    0.000    0.000 
#
# Total GULP energy -297388.504862 kJ/mol
# GULP energy per Si atom -12391.187703 kJ/mol
# Density = 1.797450 g / cm^3
# Si number density = 18.015508 Si / 1000 Ang^3
#
#
#
# Elastic Constant Matrix: (Units=GPa)
#
#
# Indices 1 2 3 4 5 6 
#
# 1 125.5512 45.1706 48.0078 0.0000 -32.0869 0.0000
# 2 45.1706 86.8431 34.0860 0.0000 -14.0641 0.0000
# 3 48.0078 34.0860 92.4557 0.0000 -36.8246 0.0000
# 4 0.0000 0.0000 0.0000 16.1700 0.0000 -3.5783
# 5 -32.0869 -14.0641 -36.8246 0.0000 31.5215 0.0000
# 6 0.0000 0.0000 0.0000 -3.5783 0.0000 31.0338
#
#
#
# Elastic Compliance Matrix: (Units=1/GPa)
#
#
# Indices 1 2 3 4 5 6 
#
# 1 0.012382 -0.004518 -0.001022 0.000000 0.009394 0.000000
# 2 -0.004518 0.015114 -0.004436 0.000000 -0.003038 0.000000
# 3 -0.001022 -0.004436 0.022030 0.000000 0.022717 0.000000
# 4 0.000000 0.000000 0.000000 0.063462 0.000000 0.007317
# 5 0.009394 -0.003038 0.022717 0.000000 0.066470 0.000000
# 6 0.000000 0.000000 0.000000 0.007317 0.000000 0.033067
#
#
# Mechanical properties :
#
#
# Convention : Reuss Voigt Hill
#
# Bulk Modulus (GPa) = 33.81344 62.15319 47.98331
# Shear Modulus (GPa) = 20.63250 27.58410 24.10830
#
# Velocity S-wave (km/s) = 3.38784 3.91721 3.66211
# Velocity P-wave (km/s) = 5.84065 7.41850 6.67635
#
# Compressibility (1/GPa) = 0.02957404
#
# Stress axis : x y z
#
# Youngs Moduli (GPa) = 80.76238 66.16296 45.39219
#
# Poissons Ratio (x) = 0.29891 0.04639
# Poissons Ratio (y) = 0.36487 0.20137
# Poissons Ratio (z) = 0.08254 0.29352
#
# Static dielectric constant tensor:
#      x y z
#    x 3.415580 0.000000 -0.449710 
#    y 0.000000 3.142300 0.000000 
#    z -0.449710 0.000000 3.366900 
# 
# 
# High freq. dielectric constant tensor:
#      x y z
#    x 1.695290 0.000000 -0.039910 
#    y 0.000000 1.685270 0.000000 
#    z -0.039910 0.000000 1.671770 
# 
# From -- ./inp_files/221591.got.cif
#   From: 2010.06.25/outbox.cif.g09.slc.cpg/sg12_111_cif.got.tgz:221591.got - 2010.06.28 00:19:55.
