data_PCOD8081528
_publ_section_title
;
Structure prediction by ZEFSAII (Michael W. Deem and Ramdas Pophale) SiO2 
 PCOD8081528
Probable space group: C 2/M
;
_chemical_formula_sum "Si O2"
_cell_formula_units_Z 64
_cell_length_a 25.259921
_cell_length_b 8.972615
_cell_length_c 21.226028
_cell_angle_alpha 90.000000
_cell_angle_beta 126.583331
_cell_angle_gamma 90.000000
_cell_volume 3863.050431
_symmetry_space_group_name_H-M "C 2/M"
_symmetry_group_IT_number 12
_symmetry_cell_setting 'monoclinic'
loop_
_space_group_symop_operation_xyz
x,y,z
-x,y,-z
-x,-y,-z
x,-y,z
1/2+x,1/2+y,z
1/2-x,1/2+y,-z
1/2-x,1/2-y,-z
1/2+x,1/2-y,z
loop_
_atom_site_type_symbol
_atom_site_label
_atom_site_fract_x
_atom_site_fract_y
_atom_site_fract_z
Si Si1 0.046174 0.176999 0.587939
Si Si2 0.302129 0.826576 0.992249
Si Si3 0.303373 0.323358 0.313661
Si Si4 0.348372 0.327886 0.575170
Si Si5 0.766710 0.323638 0.160424
Si Si6 0.002601 0.824972 0.312829
Si Si7 0.232138 0.327339 0.585938
Si Si8 0.108491 0.329163 0.834883
O O1 0.120780 0.229607 0.629307
O O2 0.000000 0.243449 0.500000
O O3 0.020845 0.241171 0.636598
O O4 0.041283 0.000000 0.584321
O O5 0.297376 0.744777 0.921229
O O6 0.284921 0.000000 0.972046
O O7 0.250000 0.750000 0.000000
O O8 0.372371 0.806412 0.077696
O O9 0.297298 0.500000 0.302658
O O10 0.267405 0.245964 0.229874
O O11 0.266556 0.268844 0.349951
O O12 0.345775 0.500000 0.551297
O O13 0.421936 0.279675 0.646412
O O14 0.302465 0.300172 0.602846
O O15 0.326156 0.228010 0.500778
O O16 0.758668 0.500000 0.158503
O O17 0.832687 0.274977 0.169657
O O18 0.957928 0.761232 0.225168
O O19 0.993178 0.000000 0.305932
O O20 0.220326 0.500000 0.593322
O O21 0.093717 0.500000 0.809784
#
# Coordination Sequence:
#
# PCOD8081528 Si02
#       8
#     8   8   8   8   8   8   8   8
#     4   9  17  28  43  65  92 122 157 193 230 277
#     4   9  17  29  45  66  94 129 164 195 234 282
#     4  11  20  31  49  71  97 129 162 197 238 289
#     4   9  19  35  53  71  92 123 165 207 244 285
#     4  10  19  31  46  68  99 130 161 198 236 282
#     4  10  18  30  49  70  93 125 163 199 235 283
#     4  10  20  34  51  71  95 124 161 207 250 284
#     4   9  18  30  44  67 100 129 154 193 238 283
#
# _framework density 16.567219000000001
#
# number of rings (size 3 to 8) (size 9 to 14) (size 15 to 20)
#    0.000    2.375    1.250    3.000    0.000    5.500 
#    0.000    0.000    0.000    1.875    0.000    0.875 
#    0.000    7.000    0.000    0.000    0.000    0.000 
#
# Total GULP energy -396765.187908 kJ/mol
# GULP energy per Si atom -12398.912122 kJ/mol
# Density = 1.652951 g / cm^3
# Si number density = 16.567219 Si / 1000 Ang^3
#
#
#
# Elastic Constant Matrix: (Units=GPa)
#
#
# Indices 1 2 3 4 5 6 
#
# 1 67.4125 32.4500 51.7919 0.0000 -0.1619 0.0000
# 2 32.4500 69.2879 53.1025 0.0000 -1.3794 0.0000
# 3 51.7919 53.1025 142.7767 0.0000 -2.5670 0.0000
# 4 0.0000 0.0000 0.0000 32.7190 0.0000 -2.2663
# 5 -0.1619 -1.3794 -2.5670 0.0000 19.3583 0.0000
# 6 0.0000 0.0000 0.0000 -2.2663 0.0000 20.5186
#
#
#
# Elastic Compliance Matrix: (Units=1/GPa)
#
#
# Indices 1 2 3 4 5 6 
#
# 1 0.022186 -0.005915 -0.005866 0.000000 -0.001014 0.000000
# 2 -0.005915 0.021767 -0.005937 0.000000 0.000714 0.000000
# 3 -0.005866 -0.005937 0.011359 0.000000 0.001034 0.000000
# 4 0.000000 0.000000 0.000000 0.030799 0.000000 0.003402
# 5 -0.001014 0.000714 0.001034 0.000000 0.051837 0.000000
# 6 0.000000 0.000000 0.000000 0.003402 0.000000 0.049112
#
#
# Mechanical properties :
#
#
# Convention : Reuss Voigt Hill
#
# Bulk Modulus (GPa) = 50.31423 61.57397 55.94410
# Shear Modulus (GPa) = 21.82250 23.99468 22.90859
#
# Velocity S-wave (km/s) = 3.63328 3.80981 3.72259
# Velocity P-wave (km/s) = 6.93084 7.52328 7.23313
#
# Compressibility (1/GPa) = 0.01987509
#
# Stress axis : x y z
#
# Youngs Moduli (GPa) = 45.07424 45.94046 88.03746
#
# Poissons Ratio (x) = 0.27172 0.51645
# Poissons Ratio (y) = 0.26660 0.52272
# Poissons Ratio (z) = 0.26441 0.27277
#
# Static dielectric constant tensor:
#      x y z
#    x 2.887430 0.000000 -0.003120 
#    y 0.000000 3.083440 0.000000 
#    z -0.003120 0.000000 3.386300 
# 
# 
# High freq. dielectric constant tensor:
#      x y z
#    x 1.599220 0.000000 -0.002510 
#    y 0.000000 1.636900 0.000000 
#    z -0.002510 0.000000 1.646400 
# 
# From -- ./inp_files/326901.got.cif
#   From: 2010.06.25/outbox.cif.g09.slc.cpg/sg12_164_cif.got.tgz:326901.got - 2010.06.28 00:19:55.
