data_PCOD8081059
_publ_section_title
;
Structure prediction by ZEFSAII (Michael W. Deem and Ramdas Pophale) SiO2 
 PCOD8081059
Probable space group: C 2/M
;
_chemical_formula_sum "Si O2"
_cell_formula_units_Z 48
_cell_length_a 29.475703
_cell_length_b 9.109311
_cell_length_c 19.432850
_cell_angle_alpha 90.000000
_cell_angle_beta 148.298526
_cell_angle_gamma 90.000000
_cell_volume 2741.912431
_symmetry_space_group_name_H-M "C 2/M"
_symmetry_group_IT_number 12
_symmetry_cell_setting 'monoclinic'
loop_
_space_group_symop_operation_xyz
x,y,z
-x,y,-z
-x,-y,-z
x,-y,z
1/2+x,1/2+y,z
1/2-x,1/2+y,-z
1/2-x,1/2-y,-z
1/2+x,1/2-y,z
loop_
_atom_site_type_symbol
_atom_site_label
_atom_site_fract_x
_atom_site_fract_y
_atom_site_fract_z
Si Si1 0.342409 0.175010 0.124655
Si Si2 0.024491 0.328582 0.817150
Si Si3 0.535033 0.825994 0.115674
Si Si4 0.603539 0.332860 0.439206
Si Si5 0.778768 0.329854 0.605309
Si Si6 0.476927 0.327810 0.393612
O O1 0.391343 0.221099 0.117063
O O2 0.395370 0.238035 0.258300
O O3 0.333000 0.000000 0.120384
O O4 0.250000 0.250000 0.000000
O O5 0.012502 0.500000 0.794166
O O6 0.028772 0.282769 0.903225
O O7 0.937613 0.261570 0.674458
O O8 0.631165 0.763224 0.251741
O O9 0.539651 0.000000 0.113604
O O10 0.500000 0.754307 0.000000
O O11 0.580994 0.500000 0.392407
O O12 0.706625 0.306264 0.572015
O O13 0.562763 0.291569 0.460278
O O14 0.789932 0.500000 0.601419
O O15 0.750000 0.250000 0.500000
O O16 0.500000 0.274136 0.500000
O O17 0.452925 0.500000 0.361590
#
# Coordination Sequence:
#
# PCOD8081059 Si02
#       6
#     8   8   8   8   8   8
#     4  10  20  34  53  76 100 131 171 209 248 297
#     4   9  17  31  51  73  94 126 164 198 239 290
#     4   9  17  30  47  71 100 127 157 197 242 284
#     4   9  17  29  48  75  98 125 161 199 243 287
#     4  10  18  29  49  73  96 125 162 200 237 284
#     4   9  18  34  53  75 104 133 163 206 257 301
#
# _framework density 17.506029999999999
#
# number of rings (size 3 to 8) (size 9 to 14) (size 15 to 20)
#    0.000    2.667    1.667    0.500    0.000    1.000 
#    3.000    0.000    0.000    2.000    0.000    0.000 
#    0.000    0.000    0.000    0.000    0.000    0.000 
#
# Total GULP energy -297468.314389 kJ/mol
# GULP energy per Si atom -12394.513100 kJ/mol
# Density = 1.746619 g / cm^3
# Si number density = 17.506030 Si / 1000 Ang^3
#
#
#
# Elastic Constant Matrix: (Units=GPa)
#
#
# Indices 1 2 3 4 5 6 
#
# 1 125.0873 32.7546 89.3789 0.0000 -6.4042 0.0000
# 2 32.7546 34.9325 36.9730 0.0000 0.9047 0.0000
# 3 89.3789 36.9730 144.8138 0.0000 -3.6110 0.0000
# 4 0.0000 0.0000 0.0000 24.5264 0.0000 0.1695
# 5 -6.4042 0.9047 -3.6110 0.0000 34.8915 0.0000
# 6 0.0000 0.0000 0.0000 0.1695 0.0000 18.5651
#
#
#
# Elastic Compliance Matrix: (Units=1/GPa)
#
#
# Indices 1 2 3 4 5 6 
#
# 1 0.015299 -0.006117 -0.007827 0.000000 0.002157 0.000000
# 2 -0.006117 0.041821 -0.006975 0.000000 -0.002929 0.000000
# 3 -0.007827 -0.006975 0.013521 0.000000 0.000143 0.000000
# 4 0.000000 0.000000 0.000000 0.040775 0.000000 -0.000372
# 5 0.002157 -0.002929 0.000143 0.000000 0.029147 0.000000
# 6 0.000000 0.000000 0.000000 -0.000372 0.000000 0.053868
#
#
# Mechanical properties :
#
#
# Convention : Reuss Voigt Hill
#
# Bulk Modulus (GPa) = 34.71949 69.22740 51.97345
# Shear Modulus (GPa) = 20.33598 25.31175 22.82386
#
# Velocity S-wave (km/s) = 3.41200 3.80661 3.61469
# Velocity P-wave (km/s) = 5.94965 7.67796 6.86838
#
# Compressibility (1/GPa) = 0.02880227
#
# Stress axis : x y z
#
# Youngs Moduli (GPa) = 65.36203 23.91170 73.96016
#
# Poissons Ratio (x) = 0.14627 0.57890
# Poissons Ratio (y) = 0.39982 0.51587
# Poissons Ratio (z) = 0.51161 0.16679
#
# Static dielectric constant tensor:
#      x y z
#    x 3.704110 0.000000 0.020850 
#    y 0.000000 3.113930 0.000000 
#    z 0.020850 0.000000 3.317020 
# 
# 
# High freq. dielectric constant tensor:
#      x y z
#    x 1.690060 0.000000 0.007260 
#    y 0.000000 1.657450 0.000000 
#    z 0.007260 0.000000 1.660030 
# 
# From -- ./inp_files/280063.got.cif
#   From: 2010.06.25/outbox.cif.g09.slc.cpg/sg12_141_cif.got.tgz:280063.got - 2010.06.28 00:19:55.
