data_PCOD8081668
_publ_section_title
;
Structure prediction by ZEFSAII (Michael W. Deem and Ramdas Pophale) SiO2 
 PCOD8081668
Probable space group: C 2/M
;
_chemical_formula_sum "Si O2"
_cell_formula_units_Z 48
_cell_length_a 18.479880
_cell_length_b 8.640854
_cell_length_c 24.135375
_cell_angle_alpha 90.000000
_cell_angle_beta 137.142607
_cell_angle_gamma 90.000000
_cell_volume 2621.386927
_symmetry_space_group_name_H-M "C 2/M"
_symmetry_group_IT_number 12
_symmetry_cell_setting 'monoclinic'
loop_
_space_group_symop_operation_xyz
x,y,z
-x,y,-z
-x,-y,-z
x,-y,z
1/2+x,1/2+y,z
1/2-x,1/2+y,-z
1/2-x,1/2-y,-z
1/2+x,1/2-y,z
loop_
_atom_site_type_symbol
_atom_site_label
_atom_site_fract_x
_atom_site_fract_y
_atom_site_fract_z
Si Si1 0.015269 0.318789 0.180870
Si Si2 0.703404 0.817306 0.418067
Si Si3 0.209457 0.183050 0.753475
Si Si4 0.745668 0.317047 0.331190
Si Si5 0.526411 0.682130 0.734810
Si Si6 0.442301 0.818672 0.914448
O O1 0.019568 0.500000 0.196435
O O2 0.130209 0.246161 0.252513
O O3 0.939399 0.235094 0.183417
O O4 0.984258 0.287884 0.099108
O O5 0.750000 0.750000 0.500000
O O6 0.776446 0.753258 0.408385
O O7 0.581121 0.766787 0.343414
O O8 0.711180 0.000000 0.423514
O O9 0.179241 0.258942 0.676990
O O10 0.322958 0.248008 0.839541
O O11 0.119996 0.234126 0.746603
O O12 0.214181 0.000000 0.747869
O O13 0.748259 0.500000 0.336718
O O14 0.507104 0.500000 0.722424
O O15 0.430255 0.000000 0.918327
O O16 0.500000 0.740628 0.000000
#
# Coordination Sequence:
#
# PCOD8081668 Si02
#       6
#     8   8   8   8   8   8
#     4   9  16  28  47  69  94 127 166 202 240 289
#     4  11  21  35  54  75 100 127 160 198 239 287
#     4   9  18  32  50  72  98 130 165 202 244 288
#     4  10  18  30  50  73  97 127 163 199 238 287
#     4  10  19  32  50  72  99 129 163 201 243 289
#     4   8  14  27  48  71  94 126 168 206 241 286
#
# _framework density 18.310918000000001
#
# number of rings (size 3 to 8) (size 9 to 14) (size 15 to 20)
#    0.000    2.500    0.000    7.000    0.000    1.333 
#    0.000    1.667    0.000   17.500    0.000    0.000 
#    0.000    0.000    0.000    0.000    0.000    0.000 
#
# Total GULP energy -297393.661932 kJ/mol
# GULP energy per Si atom -12391.402580 kJ/mol
# Density = 1.826924 g / cm^3
# Si number density = 18.310918 Si / 1000 Ang^3
#
#
#
# Elastic Constant Matrix: (Units=GPa)
#
#
# Indices 1 2 3 4 5 6 
#
# 1 161.3791 56.0808 63.1842 0.0000 -37.1787 0.0000
# 2 56.0808 104.2633 35.1216 0.0000 -16.6511 0.0000
# 3 63.1842 35.1216 100.2461 0.0000 -35.5469 0.0000
# 4 0.0000 0.0000 0.0000 17.5725 0.0000 -7.2389
# 5 -37.1787 -16.6511 -35.5469 0.0000 34.0556 0.0000
# 6 0.0000 0.0000 0.0000 -7.2389 0.0000 30.8263
#
#
#
# Elastic Compliance Matrix: (Units=1/GPa)
#
#
# Indices 1 2 3 4 5 6 
#
# 1 0.009921 -0.003380 -0.002880 0.000000 0.006171 0.000000
# 2 -0.003380 0.012124 -0.002102 0.000000 0.000044 0.000000
# 3 -0.002880 -0.002102 0.017540 0.000000 0.014136 0.000000
# 4 0.000000 0.000000 0.000000 0.063002 0.000000 0.014795
# 5 0.006171 0.000044 0.014136 0.000000 0.050877 0.000000
# 6 0.000000 0.000000 0.000000 0.014795 0.000000 0.035914
#
#
# Mechanical properties :
#
#
# Convention : Reuss Voigt Hill
#
# Bulk Modulus (GPa) = 43.74395 74.96241 59.35318
# Shear Modulus (GPa) = 23.39488 30.59102 26.99295
#
# Velocity S-wave (km/s) = 3.57830 4.09178 3.84362
# Velocity P-wave (km/s) = 6.40419 7.95934 7.22374
#
# Compressibility (1/GPa) = 0.02286030
#
# Stress axis : x y z
#
# Youngs Moduli (GPa) = 100.79862 82.47924 57.01370
#
# Poissons Ratio (x) = 0.27881 0.16422
# Poissons Ratio (y) = 0.34073 0.11982
# Poissons Ratio (z) = 0.29033 0.17333
#
# Static dielectric constant tensor:
#      x y z
#    x 3.638570 0.000000 -0.466480 
#    y 0.000000 3.330190 0.000000 
#    z -0.466480 0.000000 3.456270 
# 
# 
# High freq. dielectric constant tensor:
#      x y z
#    x 1.713170 0.000000 -0.039780 
#    y 0.000000 1.705300 0.000000 
#    z -0.039780 0.000000 1.683970 
# 
# From -- ./inp_files/279840.got.cif
#   From: 2010.06.25/outbox.cif.g09.slc.cpg/sg12_140_cif.got.tgz:279840.got - 2010.06.28 00:19:55.
