data_PCOD8081475
_publ_section_title
;
Structure prediction by ZEFSAII (Michael W. Deem and Ramdas Pophale) SiO2 
 PCOD8081475
Probable space group: C 2/M
;
_chemical_formula_sum "Si O2"
_cell_formula_units_Z 64
_cell_length_a 19.872056
_cell_length_b 9.106862
_cell_length_c 30.266837
_cell_angle_alpha 90.000000
_cell_angle_beta 141.124461
_cell_angle_gamma 90.000000
_cell_volume 3437.817423
_symmetry_space_group_name_H-M "C 2/M"
_symmetry_group_IT_number 12
_symmetry_cell_setting 'monoclinic'
loop_
_space_group_symop_operation_xyz
x,y,z
-x,y,-z
-x,-y,-z
x,-y,z
1/2+x,1/2+y,z
1/2-x,1/2+y,-z
1/2-x,1/2-y,-z
1/2+x,1/2-y,z
loop_
_atom_site_type_symbol
_atom_site_label
_atom_site_fract_x
_atom_site_fract_y
_atom_site_fract_z
Si Si1 0.969062 0.664802 0.414425
Si Si2 0.290738 0.669558 0.282296
Si Si3 0.168050 0.333234 0.567158
Si Si4 0.858648 0.328220 0.873664
Si Si5 0.938630 0.172636 0.169254
Si Si6 0.550758 0.332684 0.927446
Si Si7 0.271910 0.330801 0.911888
Si Si8 0.344846 0.173491 0.703186
O O1 0.976081 0.500000 0.400107
O O2 0.908434 0.757691 0.345823
O O3 0.900221 0.673037 0.423383
O O4 0.090175 0.720960 0.487244
O O5 0.309693 0.500000 0.300042
O O6 0.242187 0.704592 0.209683
O O7 0.208072 0.725973 0.277578
O O8 0.206999 0.500000 0.578493
O O9 0.270066 0.226083 0.624099
O O10 0.867144 0.500000 0.889405
O O11 0.846453 0.234176 0.911525
O O12 0.966960 0.280270 0.905041
O O13 0.930966 0.211307 0.113779
O O14 0.836225 0.238082 0.141555
O O15 0.041990 0.246932 0.243773
O O16 0.942750 0.000000 0.180170
O O17 0.507782 0.500000 0.909904
O O18 0.664341 0.315238 0.009724
O O19 0.245239 0.500000 0.887992
O O20 0.361447 0.000000 0.709292
#
# Coordination Sequence:
#
# PCOD8081475 Si02
#       8
#     8   8   8   8   8   8   8   8
#     4   8  14  24  41  65  97 134 171 210 256 305
#     4   9  18  30  46  71 103 136 173 215 258 305
#     4   8  14  25  40  65  99 134 170 211 256 305
#     4  11  22  37  56  80 109 142 179 219 264 316
#     4  11  22  37  57  80 105 139 178 218 268 321
#     4  10  22  39  59  81 105 136 175 220 270 321
#     4  11  24  40  56  78 108 138 175 223 269 318
#     4  10  18  30  48  73 103 138 175 215 261 308
#
# _framework density 18.616463
#
# number of rings (size 3 to 8) (size 9 to 14) (size 15 to 20)
#    0.000    2.250    1.250    3.000    0.000    5.000 
#    0.000    2.500    0.000    0.000    0.000    0.875 
#    0.000    0.000    0.000    0.000    0.000    0.000 
#
# Total GULP energy -396778.607415 kJ/mol
# GULP energy per Si atom -12399.331482 kJ/mol
# Density = 1.857409 g / cm^3
# Si number density = 18.616463 Si / 1000 Ang^3
#
#
#
# Elastic Constant Matrix: (Units=GPa)
#
#
# Indices 1 2 3 4 5 6 
#
# 1 35.6840 23.0462 5.0014 0.0000 7.2808 0.0000
# 2 23.0462 87.0698 44.9209 0.0000 12.5867 -0.0001
# 3 5.0014 44.9209 92.5059 0.0000 15.0260 0.0000
# 4 0.0000 0.0000 0.0000 36.7671 0.0000 4.6676
# 5 7.2808 12.5867 15.0260 0.0000 13.7267 0.0000
# 6 0.0000 -0.0001 0.0000 4.6676 0.0000 24.6759
#
#
#
# Elastic Compliance Matrix: (Units=1/GPa)
#
#
# Indices 1 2 3 4 5 6 
#
# 1 0.037341 -0.010460 0.005741 0.000000 -0.016499 0.000000
# 2 -0.010460 0.018860 -0.008131 0.000000 -0.002845 0.000000
# 3 0.005741 -0.008131 0.016701 0.000000 -0.013872 0.000000
# 4 0.000000 0.000000 0.000000 0.027867 0.000000 -0.005271
# 5 -0.016499 -0.002845 -0.013872 0.000000 0.099395 0.000000
# 6 0.000000 0.000000 0.000000 -0.005271 0.000000 0.041522
#
#
# Mechanical properties :
#
#
# Convention : Reuss Voigt Hill
#
# Bulk Modulus (GPa) = 21.18586 40.13295 30.65941
# Shear Modulus (GPa) = 17.66027 24.52004 21.09016
#
# Velocity S-wave (km/s) = 3.08334 3.63315 3.36947
# Velocity P-wave (km/s) = 4.90722 6.26133 5.62517
#
# Compressibility (1/GPa) = 0.04720129
#
# Stress axis : x y z
#
# Youngs Moduli (GPa) = 26.78002 53.02291 59.87596
#
# Poissons Ratio (x) = 0.55464 -0.34373
# Poissons Ratio (y) = 0.28013 0.48683
# Poissons Ratio (z) = -0.15373 0.43111
#
# Static dielectric constant tensor:
#      x y z
#    x 2.954400 0.000000 0.002410 
#    y 0.000000 3.451680 0.000000 
#    z 0.002410 0.000000 3.807060 
# 
# 
# High freq. dielectric constant tensor:
#      x y z
#    x 1.671580 0.000000 0.006390 
#    y 0.000000 1.726720 0.000000 
#    z 0.006390 0.000000 1.739050 
# 
# From -- ./inp_files/378300.got.cif
#   From: 2010.06.25/outbox.cif.g09.slc.cpg/sg12_190_cif.got.tgz:378300.got - 2010.06.28 00:19:55.
