data_PCOD8081034
_publ_section_title
;
Structure prediction by ZEFSAII (Michael W. Deem and Ramdas Pophale) SiO2 
 PCOD8081034
Probable space group: C 2/M
;
_chemical_formula_sum "Si O2"
_cell_formula_units_Z 64
_cell_length_a 15.664074
_cell_length_b 17.787651
_cell_length_c 23.373994
_cell_angle_alpha 90.000000
_cell_angle_beta 147.156297
_cell_angle_gamma 90.000000
_cell_volume 3532.118468
_symmetry_space_group_name_H-M "C 2/M"
_symmetry_group_IT_number 12
_symmetry_cell_setting 'monoclinic'
loop_
_space_group_symop_operation_xyz
x,y,z
-x,y,-z
-x,-y,-z
x,-y,z
1/2+x,1/2+y,z
1/2-x,1/2+y,-z
1/2-x,1/2-y,-z
1/2+x,1/2-y,z
loop_
_atom_site_type_symbol
_atom_site_label
_atom_site_fract_x
_atom_site_fract_y
_atom_site_fract_z
Si Si1 0.142990 0.126492 0.622263
Si Si2 0.057672 0.228045 0.730103
Si Si3 0.237999 0.772244 0.258638
Si Si4 0.616009 0.869521 0.397467
Si Si5 0.022447 0.418419 0.226920
Si Si6 0.089992 0.268209 0.878671
Si Si7 0.427121 0.913861 0.397660
Si Si8 0.452146 0.584211 0.616230
O O1 0.175883 0.215166 0.649536
O O2 0.293354 0.085138 0.682310
O O3 0.000000 0.115899 0.500000
O O4 0.100015 0.085271 0.656949
O O5 0.210991 0.249687 0.777669
O O6 0.095289 0.235767 0.817812
O O7 0.913699 0.280182 0.626478
O O8 0.995502 0.142588 0.690611
O O9 0.285667 0.857292 0.301962
O O10 0.050461 0.765752 0.161748
O O11 0.508726 0.907158 0.287552
O O12 0.565960 0.902449 0.430254
O O13 0.799935 0.887749 0.494857
O O14 0.954264 0.500000 0.172153
O O15 0.926719 0.358284 0.135730
O O16 0.250000 0.250000 0.000000
O O17 0.500000 0.893983 0.500000
O O18 0.364890 0.000000 0.361247
O O19 0.428709 0.500000 0.628010
#
# Coordination Sequence:
#
# PCOD8081034 Si02
#       8
#     8   8   8   8   8   8   8   8
#     4  10  18  29  48  77 112 146 171 199 250 315
#     4   9  21  37  53  75 104 139 174 216 262 314
#     4   9  20  36  53  75 104 138 175 217 262 314
#     4  10  19  32  50  73 107 146 177 203 249 310
#     4  10  19  33  54  80 109 135 169 220 264 304
#     4  10  22  40  60  78  97 134 184 225 269 318
#     4  10  20  32  48  73 107 145 178 208 248 303
#     4  11  20  29  47  78 113 144 173 203 246 308
#
# _framework density 18.119437999999999
#
# number of rings (size 3 to 8) (size 9 to 14) (size 15 to 20)
#    0.000    2.125    1.250    2.250    1.750    1.000 
#    0.000    1.250    0.000    0.000    0.000   10.500 
#    0.000    0.000    0.000    0.000    0.000    0.000 
#
# Total GULP energy -396685.085162 kJ/mol
# GULP energy per Si atom -12396.408911 kJ/mol
# Density = 1.807820 g / cm^3
# Si number density = 18.119438 Si / 1000 Ang^3
#
#
#
# Elastic Constant Matrix: (Units=GPa)
#
#
# Indices 1 2 3 4 5 6 
#
# 1 91.3583 40.4171 38.5661 0.0004 1.0287 0.0002
# 2 40.4171 141.4306 53.7587 -0.0007 4.1890 -0.0003
# 3 38.5661 53.7587 93.9291 -0.0006 7.1986 -0.0002
# 4 0.0004 -0.0007 -0.0006 10.3728 -0.0008 -1.3772
# 5 1.0287 4.1890 7.1986 -0.0008 19.6668 -0.0002
# 6 0.0002 -0.0003 -0.0002 -1.3772 -0.0002 16.5126
#
#
#
# Elastic Compliance Matrix: (Units=1/GPa)
#
#
# Indices 1 2 3 4 5 6 
#
# 1 0.013834 -0.002294 -0.004475 -0.000001 0.001403 0.000000
# 2 -0.002294 0.009417 -0.004427 0.000000 -0.000265 0.000000
# 3 -0.004475 -0.004427 0.015358 0.000000 -0.004444 0.000000
# 4 -0.000001 0.000000 0.000000 0.097485 0.000004 0.008130
# 5 0.001403 -0.000265 -0.004444 0.000004 0.052457 0.000001
# 6 0.000000 0.000000 0.000000 0.008130 0.000001 0.061238
#
#
# Mechanical properties :
#
#
# Convention : Reuss Voigt Hill
#
# Bulk Modulus (GPa) = 61.66418 65.80021 63.73220
# Shear Modulus (GPa) = 18.01239 22.24218 20.12728
#
# Velocity S-wave (km/s) = 3.15634 3.50742 3.33650
# Velocity P-wave (km/s) = 6.88399 7.26610 7.07762
#
# Compressibility (1/GPa) = 0.01621687
#
# Stress axis : x y z
#
# Youngs Moduli (GPa) = 72.28596 106.19181 65.11238
#
# Poissons Ratio (x) = 0.24362 0.29135
# Poissons Ratio (y) = 0.16583 0.28828
# Poissons Ratio (z) = 0.32345 0.47015
#
# Static dielectric constant tensor:
#      x y z
#    x 3.626290 0.000000 -0.009980 
#    y 0.000000 3.499580 0.000000 
#    z -0.009980 0.000000 2.838330 
# 
# 
# High freq. dielectric constant tensor:
#      x y z
#    x 1.715970 0.000000 -0.003930 
#    y 0.000000 1.712020 0.000000 
#    z -0.003930 0.000000 1.649880 
# 
# From -- ./inp_files/344390.got.cif
#   From: 2010.06.25/outbox.cif.g09.slc.cpg/sg12_173_cif.got.tgz:344390.got - 2010.06.28 00:19:55.
