data_PCOD8081327
_publ_section_title
;
Structure prediction by ZEFSAII (Michael W. Deem and Ramdas Pophale) SiO2 
 PCOD8081327
Probable space group: C 2/M
;
_chemical_formula_sum "Si O2"
_cell_formula_units_Z 56
_cell_length_a 27.985563
_cell_length_b 9.022442
_cell_length_c 19.455719
_cell_angle_alpha 90.000000
_cell_angle_beta 50.883449
_cell_angle_gamma 90.000000
_cell_volume 3811.458020
_symmetry_space_group_name_H-M "C 2/M"
_symmetry_group_IT_number 12
_symmetry_cell_setting 'monoclinic'
loop_
_space_group_symop_operation_xyz
x,y,z
-x,y,-z
-x,-y,-z
x,-y,z
1/2+x,1/2+y,z
1/2-x,1/2+y,-z
1/2-x,1/2-y,-z
1/2+x,1/2-y,z
loop_
_atom_site_type_symbol
_atom_site_label
_atom_site_fract_x
_atom_site_fract_y
_atom_site_fract_z
Si Si1 0.309585 0.828672 0.917249
Si Si2 0.721907 0.324651 0.591983
Si Si3 0.617935 0.166573 0.750309
Si Si4 0.490603 0.173939 0.929488
Si Si5 0.751624 0.169153 0.162642
Si Si6 0.261884 0.166275 0.290282
Si Si7 0.125674 0.174230 0.030353
O O1 0.306207 0.811878 0.837374
O O2 0.368563 0.750557 0.899184
O O3 0.308621 0.000000 0.939426
O O4 0.250000 0.750000 0.000000
O O5 0.726801 0.500000 0.582099
O O6 0.750000 0.250000 0.500000
O O7 0.649829 0.273844 0.664517
O O8 0.759957 0.264938 0.624257
O O9 0.551280 0.225199 0.832870
O O10 0.662954 0.164477 0.776782
O O11 0.613148 0.000000 0.724229
O O12 0.434821 0.268449 0.951578
O O13 0.477691 0.000000 0.931668
O O14 0.500000 0.214929 0.000000
O O15 0.737193 0.268090 0.241697
O O16 0.757906 0.000000 0.181318
O O17 0.815309 0.219096 0.068970
O O18 0.235433 0.000000 0.322025
O O19 0.121518 0.000000 0.045345
#
# Coordination Sequence:
#
# PCOD8081327 Si02
#       7
#     8   8   8   8   8   8   8
#     4   9  17  29  43  59  80 109 146 187 228 266
#     4  10  18  30  47  65  89 116 144 179 222 266
#     4   8  17  30  42  62  88 115 150 181 215 259
#     4  10  19  31  45  62  86 120 156 188 221 258
#     4   9  17  28  41  60  84 111 145 185 225 263
#     4   9  17  28  43  63  86 112 142 174 215 263
#     4  10  20  30  41  60  85 115 153 189 223 262
#
# _framework density 14.692539999999999
#
# number of rings (size 3 to 8) (size 9 to 14) (size 15 to 20)
#    0.857    1.857    0.000    3.857    0.000    5.429 
#    0.000    0.000    0.000    0.000    0.000    0.000 
#    0.000    1.143    0.000   12.000    0.000    5.714 
#
# Total GULP energy -346906.276237 kJ/mol
# GULP energy per Si atom -12389.509866 kJ/mol
# Density = 1.465910 g / cm^3
# Si number density = 14.692540 Si / 1000 Ang^3
#
#
#
# Elastic Constant Matrix: (Units=GPa)
#
#
# Indices 1 2 3 4 5 6 
#
# 1 79.5502 46.9973 37.0224 0.0007 15.6442 0.0000
# 2 46.9973 108.7063 53.0527 -0.0008 14.8036 0.0034
# 3 37.0224 53.0527 83.4377 -0.0003 12.4727 0.0001
# 4 0.0007 -0.0008 -0.0003 22.8951 -0.0001 4.1304
# 5 15.6442 14.8036 12.4727 -0.0001 17.6861 0.0002
# 6 0.0000 0.0034 0.0001 4.1304 0.0002 26.9582
#
#
#
# Elastic Compliance Matrix: (Units=1/GPa)
#
#
# Indices 1 2 3 4 5 6 
#
# 1 0.019375 -0.005131 -0.003817 -0.000001 -0.010151 0.000001
# 2 -0.005131 0.015250 -0.006920 0.000001 -0.003346 -0.000002
# 3 -0.003817 -0.006920 0.018677 0.000000 -0.004003 0.000001
# 4 -0.000001 0.000001 0.000000 0.044919 0.000000 -0.006882
# 5 -0.010151 -0.003346 -0.004003 0.000000 0.071145 0.000000
# 6 0.000001 -0.000002 0.000001 -0.006882 0.000000 0.038149
#
#
# Mechanical properties :
#
#
# Convention : Reuss Voigt Hill
#
# Bulk Modulus (GPa) = 46.36834 60.64878 53.50856
# Shear Modulus (GPa) = 20.28901 22.48267 21.38584
#
# Velocity S-wave (km/s) = 3.72009 3.91603 3.81932
# Velocity P-wave (km/s) = 7.07670 7.86227 7.47981
#
# Compressibility (1/GPa) = 0.02156644
#
# Stress axis : x y z
#
# Youngs Moduli (GPa) = 51.61347 65.57294 53.54258
#
# Poissons Ratio (x) = 0.33647 0.20436
# Poissons Ratio (y) = 0.26484 0.37050
# Poissons Ratio (z) = 0.19700 0.45374
#
# Static dielectric constant tensor:
#      x y z
#    x 2.846610 0.000000 0.165880 
#    y 0.000000 2.954490 0.000000 
#    z 0.165880 0.000000 2.580900 
# 
# 
# High freq. dielectric constant tensor:
#      x y z
#    x 1.544120 0.000000 0.020140 
#    y 0.000000 1.575840 0.000000 
#    z 0.020140 0.000000 1.524060 
# 
# From -- ./inp_files/326483.got.cif
#   From: 2010.06.25/outbox.cif.g09.slc.cpg/sg12_164_cif.got.tgz:326483.got - 2010.06.28 00:19:55.
