data_PCOD8081102
_publ_section_title
;
Structure prediction by ZEFSAII (Michael W. Deem and Ramdas Pophale) SiO2 
 PCOD8081102
Probable space group: C 2/M
;
_chemical_formula_sum "Si O2"
_cell_formula_units_Z 48
_cell_length_a 24.969891
_cell_length_b 9.336627
_cell_length_c 14.500959
_cell_angle_alpha 90.000000
_cell_angle_beta 124.871524
_cell_angle_gamma 90.000000
_cell_volume 2773.627650
_symmetry_space_group_name_H-M "C 2/M"
_symmetry_group_IT_number 12
_symmetry_cell_setting 'monoclinic'
loop_
_space_group_symop_operation_xyz
x,y,z
-x,y,-z
-x,-y,-z
x,-y,z
1/2+x,1/2+y,z
1/2-x,1/2+y,-z
1/2-x,1/2-y,-z
1/2+x,1/2-y,z
loop_
_atom_site_type_symbol
_atom_site_label
_atom_site_fract_x
_atom_site_fract_y
_atom_site_fract_z
Si Si1 0.320639 0.667375 0.893144
Si Si2 0.825630 0.668531 0.266162
Si Si3 0.024595 0.331755 0.260831
Si Si4 0.373008 0.831535 0.115934
Si Si5 0.061548 0.832139 0.121261
Si Si6 0.440521 0.829425 0.503131
O O1 0.325725 0.500000 0.921918
O O2 0.249005 0.708896 0.784594
O O3 0.372590 0.710995 0.866830
O O4 0.332086 0.752917 0.997642
O O5 0.836141 0.500000 0.272495
O O6 0.847445 0.729240 0.188329
O O7 0.872668 0.729339 0.393048
O O8 0.036121 0.500000 0.260204
O O9 0.063378 0.250756 0.219136
O O10 0.052883 0.274319 0.385742
O O11 0.948662 0.292538 0.180017
O O12 0.360803 0.000000 0.094276
O O13 0.057325 0.000000 0.137744
O O14 0.000000 0.781260 0.000000
O O15 0.500000 0.769468 0.500000
O O16 0.443735 0.000000 0.506875
#
# Coordination Sequence:
#
# PCOD8081102 Si02
#       6
#     8   8   8   8   8   8
#     4  10  20  33  49  70  97 133 167 194 234 287
#     4   9  17  30  49  73 100 127 158 196 241 292
#     4  10  19  30  51  79  98 119 158 205 246 279
#     4  10  18  29  49  77 102 122 151 201 252 287
#     4  10  20  34  49  66  96 136 169 195 229 281
#     4   9  15  28  50  75 100 123 153 197 243 288
#
# _framework density 17.305857
#
# number of rings (size 3 to 8) (size 9 to 14) (size 15 to 20)
#    0.000    2.333    3.333    0.500    0.000    1.000 
#    0.000    0.833    0.000    2.500    0.000    0.000 
#    0.000    0.000    0.000    0.000    0.000    0.000 
#
# Total GULP energy -297596.536474 kJ/mol
# GULP energy per Si atom -12399.855686 kJ/mol
# Density = 1.726647 g / cm^3
# Si number density = 17.305857 Si / 1000 Ang^3
#
#
#
# Elastic Constant Matrix: (Units=GPa)
#
#
# Indices 1 2 3 4 5 6 
#
# 1 115.1533 21.2724 67.7929 0.0000 1.6182 0.0000
# 2 21.2724 18.4437 27.9176 0.0000 -1.2498 0.0000
# 3 67.7929 27.9176 150.9749 0.0000 0.9811 0.0000
# 4 0.0000 0.0000 0.0000 15.5525 0.0000 1.4723
# 5 1.6182 -1.2498 0.9811 0.0000 33.1775 0.0000
# 6 0.0000 0.0000 0.0000 1.4723 0.0000 6.7107
#
#
#
# Elastic Compliance Matrix: (Units=1/GPa)
#
#
# Indices 1 2 3 4 5 6 
#
# 1 0.012686 -0.008432 -0.004132 0.000000 -0.000814 0.000000
# 2 -0.008432 0.081251 -0.011263 0.000000 0.003805 0.000000
# 3 -0.004132 -0.011263 0.010565 0.000000 -0.000535 0.000000
# 4 0.000000 0.000000 0.000000 0.065662 0.000000 -0.014406
# 5 -0.000814 0.003805 -0.000535 0.000000 0.030340 0.000000
# 6 0.000000 0.000000 0.000000 -0.014406 0.000000 0.152176
#
#
# Mechanical properties :
#
#
# Convention : Reuss Voigt Hill
#
# Bulk Modulus (GPa) = 17.59090 57.61528 37.60309
# Shear Modulus (GPa) = 11.92513 22.26073 17.09293
#
# Velocity S-wave (km/s) = 2.62788 3.59041 3.14617
# Velocity P-wave (km/s) = 4.40391 7.11004 5.91385
#
# Compressibility (1/GPa) = 0.05684758
#
# Stress axis : x y z
#
# Youngs Moduli (GPa) = 78.82918 12.30759 94.65171
#
# Poissons Ratio (x) = 0.10378 0.39108
# Poissons Ratio (y) = 0.66472 1.06604
# Poissons Ratio (z) = 0.32570 0.13862
#
# Static dielectric constant tensor:
#      x y z
#    x 3.296240 0.000000 0.067540 
#    y 0.000000 2.826190 0.000000 
#    z 0.067540 0.000000 3.400710 
# 
# 
# High freq. dielectric constant tensor:
#      x y z
#    x 1.672530 0.000000 0.000830 
#    y 0.000000 1.626900 0.000000 
#    z 0.000830 0.000000 1.673170 
# 
# From -- ./inp_files/164304.got.cif
#   From: 2010.06.25/outbox.cif.g09.slc.cpg/sg12_83_cif.got.tgz:164304.got - 2010.06.28 00:19:55.
