data_PCOD8081263
_publ_section_title
;
Structure prediction by ZEFSAII (Michael W. Deem and Ramdas Pophale) SiO2 
 PCOD8081263
Probable space group: C 2/M
;
_chemical_formula_sum "Si O2"
_cell_formula_units_Z 56
_cell_length_a 27.485430
_cell_length_b 8.692447
_cell_length_c 14.578879
_cell_angle_alpha 90.000000
_cell_angle_beta 102.413865
_cell_angle_gamma 90.000000
_cell_volume 3401.687856
_symmetry_space_group_name_H-M "C 2/M"
_symmetry_group_IT_number 12
_symmetry_cell_setting 'monoclinic'
loop_
_space_group_symop_operation_xyz
x,y,z
-x,y,-z
-x,-y,-z
x,-y,z
1/2+x,1/2+y,z
1/2-x,1/2+y,-z
1/2-x,1/2-y,-z
1/2+x,1/2-y,z
loop_
_atom_site_type_symbol
_atom_site_label
_atom_site_fract_x
_atom_site_fract_y
_atom_site_fract_z
Si Si1 0.943089 0.683649 0.472833
Si Si2 0.637974 0.319186 0.436388
Si Si3 0.686306 0.820392 0.293884
Si Si4 0.124643 0.671946 0.710928
Si Si5 0.315924 0.181963 0.103158
Si Si6 0.288901 0.180339 0.896183
Si Si7 0.787400 0.325974 0.394850
O O1 0.937112 0.500000 0.474246
O O2 0.914263 0.752919 0.548042
O O3 0.918689 0.751570 0.368155
O O4 0.000000 0.737301 0.500000
O O5 0.638394 0.500000 0.451096
O O6 0.643986 0.274327 0.331689
O O7 0.685177 0.243384 0.505720
O O8 0.681753 0.774435 0.184433
O O9 0.740914 0.779982 0.352508
O O10 0.676583 0.000000 0.304332
O O11 0.105706 0.500000 0.721804
O O12 0.138469 0.750472 0.815286
O O13 0.175662 0.673835 0.675424
O O14 0.263658 0.235929 0.122541
O O15 0.317010 0.000000 0.115521
O O16 0.321796 0.230165 0.998700
O O17 0.277502 0.000000 0.894395
O O18 0.769752 0.500000 0.410062
#
# Coordination Sequence:
#
# PCOD8081263 Si02
#       7
#     8   8   8   8   8   8   8
#     4   9  18  34  53  72  93 116 144 183 231 281
#     4  11  22  33  46  65  89 119 153 189 227 270
#     4  11  20  30  42  62  92 125 158 189 225 266
#     4   8  14  25  45  68  89 117 149 180 220 268
#     4   9  15  27  43  62  89 121 155 188 221 262
#     4   9  18  27  40  62  90 122 156 191 223 254
#     4  10  18  30  45  64  90 123 157 187 223 266
#
# _framework density 16.462416000000001
#
# number of rings (size 3 to 8) (size 9 to 14) (size 15 to 20)
#    0.000    2.429    1.429    3.429    0.000    0.857 
#    0.000    0.000    0.000    0.000    0.000    1.000 
#    0.000    8.000    0.000    0.000    0.000    0.000 
#
# Total GULP energy -346961.838606 kJ/mol
# GULP energy per Si atom -12391.494236 kJ/mol
# Density = 1.642495 g / cm^3
# Si number density = 16.462416 Si / 1000 Ang^3
#
#
#
# Elastic Constant Matrix: (Units=GPa)
#
#
# Indices 1 2 3 4 5 6 
#
# 1 77.5212 12.8667 60.5791 0.0000 6.9291 0.0000
# 2 12.8667 36.2326 24.2635 0.0000 -2.2209 0.0000
# 3 60.5791 24.2635 136.4431 0.0000 -0.7037 0.0000
# 4 0.0000 0.0000 0.0000 16.0475 0.0000 -2.2379
# 5 6.9291 -2.2209 -0.7037 0.0000 15.3028 0.0000
# 6 0.0000 0.0000 0.0000 -2.2379 0.0000 17.8944
#
#
#
# Elastic Compliance Matrix: (Units=1/GPa)
#
#
# Indices 1 2 3 4 5 6 
#
# 1 0.021324 -0.002080 -0.009151 0.000000 -0.010378 0.000000
# 2 -0.002080 0.031818 -0.004707 0.000000 0.005343 0.000000
# 3 -0.009151 -0.004707 0.012250 0.000000 0.004024 0.000000
# 4 0.000000 0.000000 0.000000 0.063421 0.000000 0.007931
# 5 -0.010378 0.005343 0.004024 0.000000 0.071007 0.000000
# 6 0.000000 0.000000 0.000000 0.007931 0.000000 0.056875
#
#
# Mechanical properties :
#
#
# Convention : Reuss Voigt Hill
#
# Bulk Modulus (GPa) = 29.83773 49.51283 39.67528
# Shear Modulus (GPa) = 16.68096 20.01479 18.34787
#
# Velocity S-wave (km/s) = 3.18665 3.49060 3.34208
# Velocity P-wave (km/s) = 5.63061 6.81082 6.24864
#
# Compressibility (1/GPa) = 0.03351461
#
# Stress axis : x y z
#
# Youngs Moduli (GPa) = 46.89614 31.42899 81.63405
#
# Poissons Ratio (x) = 0.06538 0.74704
# Poissons Ratio (y) = 0.09756 0.38424
# Poissons Ratio (z) = 0.42915 0.14793
#
# Static dielectric constant tensor:
#      x y z
#    x 2.821140 0.000000 -0.000290 
#    y 0.000000 3.020550 0.000000 
#    z -0.000290 0.000000 3.629970 
# 
# 
# High freq. dielectric constant tensor:
#      x y z
#    x 1.584820 0.000000 -0.005110 
#    y 0.000000 1.624060 0.000000 
#    z -0.005110 0.000000 1.645350 
# 
# From -- ./inp_files/247901.got.cif
#   From: 2010.06.25/outbox.cif.g09.slc.cpg/sg12_124_cif.got.tgz:247901.got - 2010.06.28 00:19:55.
