data_PCOD8081653
_publ_section_title
;
Structure prediction by ZEFSAII (Michael W. Deem and Ramdas Pophale) SiO2 
 PCOD8081653
Probable space group: C 2/M
;
_chemical_formula_sum "Si O2"
_cell_formula_units_Z 48
_cell_length_a 18.498727
_cell_length_b 8.948224
_cell_length_c 23.881508
_cell_angle_alpha 90.000000
_cell_angle_beta 43.573219
_cell_angle_gamma 90.000000
_cell_volume 2724.813179
_symmetry_space_group_name_H-M "C 2/M"
_symmetry_group_IT_number 12
_symmetry_cell_setting 'monoclinic'
loop_
_space_group_symop_operation_xyz
x,y,z
-x,y,-z
-x,-y,-z
x,-y,z
1/2+x,1/2+y,z
1/2-x,1/2+y,-z
1/2-x,1/2-y,-z
1/2+x,1/2-y,z
loop_
_atom_site_type_symbol
_atom_site_label
_atom_site_fract_x
_atom_site_fract_y
_atom_site_fract_z
Si Si1 0.659206 0.677405 0.014835
Si Si2 0.063237 0.322922 0.841258
Si Si3 0.620045 0.335530 0.915310
Si Si4 0.639037 0.825733 0.570208
Si Si5 0.088506 0.823121 0.493167
Si Si6 0.318165 0.826144 0.333427
O O1 0.655996 0.500000 0.025548
O O2 0.549044 0.744845 0.096071
O O3 0.750000 0.750000 0.000000
O O4 0.682157 0.716502 0.936381
O O5 0.047235 0.500000 0.848370
O O6 0.132344 0.280397 0.857291
O O7 0.124965 0.257802 0.752685
O O8 0.659084 0.500000 0.874044
O O9 0.500000 0.346508 0.000000
O O10 0.750000 0.750000 0.500000
O O11 0.560534 0.749075 0.569646
O O12 0.608613 0.798234 0.652578
O O13 0.647098 0.000000 0.552466
O O14 0.200731 0.760706 0.408105
O O15 0.000000 0.769833 0.500000
O O16 0.089816 0.000000 0.500190
O O17 0.303533 0.000000 0.330462
#
# Coordination Sequence:
#
# PCOD8081653 Si02
#       6
#     8   8   8   8   8   8
#     4  10  20  34  51  71  96 124 157 196 237 279
#     4  10  18  30  50  72  96 126 158 191 232 283
#     4   8  16  31  48  67  93 122 153 192 233 274
#     4   9  16  29  48  68  93 124 160 196 232 280
#     4   9  17  31  50  70  95 126 159 196 238 280
#     4   8  16  30  47  69  96 125 155 193 239 280
#
# _framework density 17.615887000000001
#
# number of rings (size 3 to 8) (size 9 to 14) (size 15 to 20)
#    0.000    3.000    0.000    3.500    0.000    4.000 
#    0.000   10.000    0.000    4.000    0.000    0.000 
#    0.000    0.000    0.000    0.000    0.000    0.000 
#
# Total GULP energy -297364.383720 kJ/mol
# GULP energy per Si atom -12390.182655 kJ/mol
# Density = 1.757579 g / cm^3
# Si number density = 17.615887 Si / 1000 Ang^3
#
#
#
# Elastic Constant Matrix: (Units=GPa)
#
#
# Indices 1 2 3 4 5 6 
#
# 1 159.6760 53.0619 60.9452 0.0000 28.5252 -0.0001
# 2 53.0619 68.7597 37.7974 0.0000 14.4162 -0.0004
# 3 60.9452 37.7974 96.6557 0.0000 26.4337 0.0000
# 4 0.0000 0.0000 0.0000 18.9092 0.0000 7.4259
# 5 28.5252 14.4162 26.4337 0.0000 26.8679 0.0000
# 6 -0.0001 -0.0004 0.0000 7.4259 0.0000 30.8824
#
#
#
# Elastic Compliance Matrix: (Units=1/GPa)
#
#
# Indices 1 2 3 4 5 6 
#
# 1 0.009940 -0.005007 -0.002952 0.000000 -0.004962 0.000000
# 2 -0.005007 0.021344 -0.004804 0.000000 -0.001410 0.000000
# 3 -0.002952 -0.004804 0.017134 0.000000 -0.011145 0.000000
# 4 0.000000 0.000000 0.000000 0.058399 0.000000 -0.014042
# 5 -0.004962 -0.001410 -0.011145 0.000000 0.054209 0.000000
# 6 0.000000 0.000000 0.000000 -0.014042 0.000000 0.035758
#
#
# Mechanical properties :
#
#
# Convention : Reuss Voigt Hill
#
# Bulk Modulus (GPa) = 43.68533 69.85560 56.77047
# Shear Modulus (GPa) = 21.74479 26.88435 24.31457
#
# Velocity S-wave (km/s) = 3.51719 3.91083 3.71922
# Velocity P-wave (km/s) = 6.43015 7.75459 7.12322
#
# Compressibility (1/GPa) = 0.02289098
#
# Stress axis : x y z
#
# Youngs Moduli (GPa) = 100.60411 46.85204 58.36306
#
# Poissons Ratio (x) = 0.23461 0.17231
# Poissons Ratio (y) = 0.50377 0.28035
# Poissons Ratio (z) = 0.29703 0.22506
#
# Static dielectric constant tensor:
#      x y z
#    x 3.701790 0.000000 0.492680 
#    y 0.000000 3.260580 0.000000 
#    z 0.492680 0.000000 3.344620 
# 
# 
# High freq. dielectric constant tensor:
#      x y z
#    x 1.684620 0.000000 0.031010 
#    y 0.000000 1.673510 0.000000 
#    z 0.031010 0.000000 1.653690 
# 
# From -- ./inp_files/341899.got.cif
#   From: 2010.06.25/outbox.cif.g09.slc.cpg/sg12_171_cif.got.tgz:341899.got - 2010.06.28 00:19:55.
