data_PCOD8081982
_publ_section_title
;
Structure prediction by ZEFSAII (Michael W. Deem and Ramdas Pophale) SiO2 
 PCOD8081982
Probable space group: C 2/M
;
_chemical_formula_sum "Si O2"
_cell_formula_units_Z 64
_cell_length_a 15.692343
_cell_length_b 27.175318
_cell_length_c 12.235217
_cell_angle_alpha 90.000000
_cell_angle_beta 140.217881
_cell_angle_gamma 90.000000
_cell_volume 3338.610730
_symmetry_space_group_name_H-M "C 2/M"
_symmetry_group_IT_number 12
_symmetry_cell_setting 'monoclinic'
loop_
_space_group_symop_operation_xyz
x,y,z
-x,y,-z
-x,-y,-z
x,-y,z
1/2+x,1/2+y,z
1/2-x,1/2+y,-z
1/2-x,1/2-y,-z
1/2+x,1/2-y,z
loop_
_atom_site_type_symbol
_atom_site_label
_atom_site_fract_x
_atom_site_fract_y
_atom_site_fract_z
Si Si1 0.344571 0.291761 0.866885
Si Si2 0.266968 0.554538 0.664785
Si Si3 0.324071 0.655512 0.630128
Si Si4 0.325622 0.817898 0.910091
Si Si5 0.721697 0.555936 0.068828
Si Si6 0.985613 0.554956 0.716240
Si Si7 0.879062 0.151856 0.112000
Si Si8 0.599669 0.853697 0.240524
O O1 0.277550 0.315726 0.693613
O O2 0.295858 0.236269 0.835021
O O3 0.500000 0.294401 0.000000
O O4 0.306301 0.322517 0.937088
O O5 0.320604 0.500000 0.683430
O O6 0.339963 0.597099 0.668868
O O7 0.295084 0.563091 0.819077
O O8 0.109587 0.557949 0.483692
O O9 0.469065 0.671272 0.727174
O O10 0.210310 0.668520 0.430701
O O11 0.200209 0.834279 0.857366
O O12 0.339593 0.854886 0.821368
O O13 0.466249 0.819625 0.114957
O O14 0.687983 0.500000 0.001157
O O15 0.870235 0.571174 0.182057
O O16 0.623097 0.592905 0.908765
O O17 0.986726 0.500000 0.766581
O O18 0.936382 0.590544 0.763899
#
# Coordination Sequence:
#
# PCOD8081982 Si02
#       8
#     8   8   8   8   8   8   8   8
#     4  10  20  39  60  83 111 149 186 235 291 337
#     4   9  17  31  54  84 120 154 183 228 287 344
#     4  10  22  37  60  87 118 147 187 236 286 344
#     4  11  22  41  61  79 112 153 196 236 282 332
#     4  10  18  30  53  86 119 150 187 229 284 345
#     4   9  17  32  55  86 116 148 192 238 282 328
#     4  11  22  37  57  83 119 151 184 230 287 341
#     4  10  21  39  62  84 110 153 192 238 279 334
#
# _framework density 19.169650000000001
#
# number of rings (size 3 to 8) (size 9 to 14) (size 15 to 20)
#    0.000    2.000    3.750    0.750    0.000    3.000 
#    0.000    3.750    2.750    0.000    0.000    4.375 
#    0.000    0.000    0.000    0.000    0.000    0.000 
#
# Total GULP energy -396730.339963 kJ/mol
# GULP energy per Si atom -12397.823124 kJ/mol
# Density = 1.912602 g / cm^3
# Si number density = 19.169650 Si / 1000 Ang^3
#
#
#
# Elastic Constant Matrix: (Units=GPa)
#
#
# Indices 1 2 3 4 5 6 
#
# 1 91.5053 25.9326 30.1916 0.0000 -3.7374 0.0000
# 2 25.9326 78.5918 26.4729 0.0000 -5.6669 0.0000
# 3 30.1916 26.4729 91.9400 0.0000 -1.7420 0.0000
# 4 0.0000 0.0000 0.0000 20.6732 0.0000 -0.7878
# 5 -3.7374 -5.6669 -1.7420 0.0000 20.7883 0.0000
# 6 0.0000 0.0000 0.0000 -0.7878 0.0000 25.2434
#
#
#
# Elastic Compliance Matrix: (Units=1/GPa)
#
#
# Indices 1 2 3 4 5 6 
#
# 1 0.012949 -0.003057 -0.003349 0.000000 0.001214 0.000000
# 2 -0.003057 0.015072 -0.003274 0.000000 0.003285 0.000000
# 3 -0.003349 -0.003274 0.012911 0.000000 -0.000413 0.000000
# 4 0.000000 0.000000 0.000000 0.048430 0.000000 0.001511
# 5 0.001214 0.003285 -0.000413 0.000000 0.049183 0.000000
# 6 0.000000 0.000000 0.000000 0.001511 0.000000 0.039662
#
#
# Mechanical properties :
#
#
# Convention : Reuss Voigt Hill
#
# Bulk Modulus (GPa) = 46.35433 47.47013 46.91223
# Shear Modulus (GPa) = 24.41907 25.30363 24.86135
#
# Velocity S-wave (km/s) = 3.57296 3.63710 3.60517
# Velocity P-wave (km/s) = 6.42301 6.51574 6.46954
#
# Compressibility (1/GPa) = 0.02157296
#
# Stress axis : x y z
#
# Youngs Moduli (GPa) = 77.22416 66.34682 77.45186
#
# Poissons Ratio (x) = 0.20283 0.25939
# Poissons Ratio (y) = 0.23609 0.25356
# Poissons Ratio (z) = 0.25863 0.21720
#
# Static dielectric constant tensor:
#      x y z
#    x 3.373280 0.000000 -0.022410 
#    y 0.000000 3.690900 0.000000 
#    z -0.022410 0.000000 3.443260 
# 
# 
# High freq. dielectric constant tensor:
#      x y z
#    x 1.732540 0.000000 0.003630 
#    y 0.000000 1.751750 0.000000 
#    z 0.003630 0.000000 1.730260 
# 
# From -- ./inp_files/150290.got.cif
#   From: 2010.06.25/outbox.cif.g09.slc.cpg/sg12_76_cif.got.tgz:150290.got - 2010.06.28 00:19:55.
