data_PCOD8081490
_publ_section_title
;
Structure prediction by ZEFSAII (Michael W. Deem and Ramdas Pophale) SiO2 
 PCOD8081490
Probable space group: C 2/M
;
_chemical_formula_sum "Si O2"
_cell_formula_units_Z 64
_cell_length_a 10.237779
_cell_length_b 22.847502
_cell_length_c 25.692941
_cell_angle_alpha 90.000000
_cell_angle_beta 139.258153
_cell_angle_gamma 90.000000
_cell_volume 3922.292087
_symmetry_space_group_name_H-M "C 2/M"
_symmetry_group_IT_number 12
_symmetry_cell_setting 'monoclinic'
loop_
_space_group_symop_operation_xyz
x,y,z
-x,y,-z
-x,-y,-z
x,-y,z
1/2+x,1/2+y,z
1/2-x,1/2+y,-z
1/2-x,1/2-y,-z
1/2+x,1/2-y,z
loop_
_atom_site_type_symbol
_atom_site_label
_atom_site_fract_x
_atom_site_fract_y
_atom_site_fract_z
Si Si1 0.029862 0.431435 0.952438
Si Si2 0.447183 0.430109 0.040426
Si Si3 0.106793 0.933496 0.782895
Si Si4 0.331600 0.349232 0.638244
Si Si5 0.816075 0.562336 0.483026
Si Si6 0.183442 0.066354 0.210400
Si Si7 0.233496 0.765211 0.555228
Si Si8 0.494376 0.872343 0.374138
O O1 0.063652 0.500000 0.970272
O O2 0.841146 0.419598 0.858248
O O3 0.000000 0.402155 0.000000
O O4 0.228403 0.404022 0.987047
O O5 0.443666 0.500000 0.038923
O O6 0.610705 0.409260 0.132475
O O7 0.500000 0.404362 0.000000
O O8 0.020117 0.880896 0.721880
O O9 0.008278 0.931131 0.809919
O O10 0.070802 0.000000 0.749264
O O11 0.311009 0.384345 0.577823
O O12 0.353885 0.282252 0.626875
O O13 0.143202 0.348683 0.620244
O O14 0.698883 0.500000 0.448396
O O15 0.881762 0.574779 0.562339
O O16 0.000000 0.554764 0.500000
O O17 0.364073 0.105738 0.286194
O O18 0.262291 0.000000 0.229502
O O19 0.250000 0.750000 0.500000
O O20 0.351097 0.825103 0.601624
O O21 0.000000 0.770017 0.500000
#
# Coordination Sequence:
#
# PCOD8081490 Si02
#       8
#     8   8   8   8   8   8   8   8
#     4   9  14  24  42  68  99 129 160 192 233 284
#     4   9  16  26  43  67  99 135 162 188 230 290
#     4   9  16  26  45  75 106 128 156 204 246 285
#     4  10  18  30  48  74  99 125 163 204 248 285
#     4   9  15  25  44  71  99 124 154 192 240 290
#     4   9  16  28  47  74 102 129 164 198 238 294
#     4  12  21  37  54  72  94 126 172 217 248 288
#     4  10  19  31  50  73  96 127 162 206 248 286
#
# _framework density 16.316991000000002
#
# number of rings (size 3 to 8) (size 9 to 14) (size 15 to 20)
#    0.000    2.375    3.750    1.125    0.000    3.000 
#    0.000    1.250    0.000    1.500    0.000    1.750 
#    0.000    0.000    0.000    0.000    0.000    0.000 
#
# Total GULP energy -396469.126011 kJ/mol
# GULP energy per Si atom -12389.660188 kJ/mol
# Density = 1.627985 g / cm^3
# Si number density = 16.316991 Si / 1000 Ang^3
#
#
#
# Elastic Constant Matrix: (Units=GPa)
#
#
# Indices 1 2 3 4 5 6 
#
# 1 81.8436 31.1325 56.3177 -0.0017 0.9033 0.0002
# 2 31.1325 80.8375 46.2524 -0.0014 2.3762 0.0003
# 3 56.3177 46.2524 119.9276 -0.0047 -6.0345 0.0006
# 4 -0.0017 -0.0014 -0.0047 14.0218 -0.0033 4.9658
# 5 0.9033 2.3762 -6.0345 -0.0033 21.6139 0.0002
# 6 0.0002 0.0003 0.0006 4.9658 0.0002 -23.2670
#
#
#
# Elastic Compliance Matrix: (Units=1/GPa)
#
#
# Indices 1 2 3 4 5 6 
#
# 1 0.018674 -0.002588 -0.007907 -0.000001 -0.002703 0.000000
# 2 -0.002588 0.016498 -0.005308 -0.000001 -0.003187 0.000000
# 3 -0.007907 -0.005308 0.014346 0.000004 0.004919 0.000001
# 4 -0.000001 -0.000001 0.000004 0.066306 0.000011 0.014151
# 5 -0.002703 -0.003187 0.004919 0.000011 0.048103 0.000003
# 6 0.000000 0.000000 0.000001 0.014151 0.000003 -0.039959
#
#
# Mechanical properties :
#
#
# Convention : Reuss Voigt Hill
#
# Bulk Modulus (GPa) = 55.82893 61.11267 58.47080
# Shear Modulus (GPa) = 30.95132 12.40081 21.67607
#
# Velocity S-wave (km/s) = 4.36004 2.75979 3.64872
# Velocity P-wave (km/s) = 7.72244 6.90579 7.32550
#
# Compressibility (1/GPa) = 0.01791186
#
# Stress axis : x y z
#
# Youngs Moduli (GPa) = 53.55136 60.61409 69.70579
#
# Poissons Ratio (x) = 0.15688 0.55116
# Poissons Ratio (y) = 0.13860 0.36998
# Poissons Ratio (z) = 0.42343 0.32172
#
# Static dielectric constant tensor:
#      x y z
#    x 3.004830 0.000000 -0.042400 
#    y 0.000000 2.926720 0.000000 
#    z -0.042400 0.000000 3.108380 
# 
# 
# High freq. dielectric constant tensor:
#      x y z
#    x 1.602210 0.000000 -0.005270 
#    y 0.000000 1.591240 0.000000 
#    z -0.005270 0.000000 1.632120 
# 
# From -- ./inp_files/265393.got.cif
#   From: 2010.06.25/outbox.cif.g09.slc.cpg/sg12_133_cif.got.tgz:265393.got - 2010.06.28 00:19:55.
