data_PCOD8081789
_publ_section_title
;
Structure prediction by ZEFSAII (Michael W. Deem and Ramdas Pophale) SiO2 
 PCOD8081789
Probable space group: C 2/M
;
_chemical_formula_sum "Si O2"
_cell_formula_units_Z 56
_cell_length_a 21.610643
_cell_length_b 12.770629
_cell_length_c 16.864624
_cell_angle_alpha 90.000000
_cell_angle_beta 134.542799
_cell_angle_gamma 90.000000
_cell_volume 3317.261118
_symmetry_space_group_name_H-M "C 2/M"
_symmetry_group_IT_number 12
_symmetry_cell_setting 'monoclinic'
loop_
_space_group_symop_operation_xyz
x,y,z
-x,y,-z
-x,-y,-z
x,-y,z
1/2+x,1/2+y,z
1/2-x,1/2+y,-z
1/2-x,1/2-y,-z
1/2+x,1/2-y,z
loop_
_atom_site_type_symbol
_atom_site_label
_atom_site_fract_x
_atom_site_fract_y
_atom_site_fract_z
Si Si1 0.082190 0.878491 0.625465
Si Si2 0.158354 0.278294 0.452232
Si Si3 0.006922 0.199995 0.886785
Si Si4 0.870036 0.880394 0.876952
Si Si5 0.992609 0.121006 0.704905
Si Si6 0.384795 0.120634 0.739610
Si Si7 0.229113 0.249212 0.676602
O O1 0.063142 0.855154 0.700486
O O2 0.166696 0.813770 0.678560
O O3 0.000000 0.841624 0.500000
O O4 0.101552 0.000000 0.626757
O O5 0.250000 0.250000 0.500000
O O6 0.118387 0.368841 0.359770
O O7 0.172950 0.308409 0.557503
O O8 0.097954 0.176644 0.394640
O O9 0.931829 0.125235 0.855299
O O10 0.969791 0.318461 0.848782
O O11 0.033558 0.158577 0.824416
O O12 0.091281 0.193556 0.018632
O O13 0.774989 0.838725 0.769723
O O14 0.863521 0.000000 0.900276
O O15 0.968741 0.000000 0.685665
O O16 0.298573 0.169096 0.701294
O O17 0.393762 0.000000 0.771487
#
# Coordination Sequence:
#
# PCOD8081789 Si02
#       7
#     8   8   8   8   8   8   8
#     4  10  19  31  50  73 100 136 170 203 244 287
#     4   9  18  28  43  70  99 127 158 197 246 293
#     4   9  18  33  52  77  99 126 166 208 248 292
#     4  10  19  33  54  75 100 130 162 205 251 296
#     4  10  18  30  51  74  97 129 168 207 245 287
#     4   9  18  31  49  72 103 133 159 201 254 303
#     4  10  19  32  47  73 104 131 166 205 244 292
#
# _framework density 16.881397
#
# number of rings (size 3 to 8) (size 9 to 14) (size 15 to 20)
#    0.000    2.429    1.429    3.000    0.000    2.857 
#    0.000    7.143    0.000    3.857    0.000    0.000 
#    0.000    0.000    0.000    0.000    0.000    0.000 
#
# Total GULP energy -347090.620313 kJ/mol
# GULP energy per Si atom -12396.093583 kJ/mol
# Density = 1.684297 g / cm^3
# Si number density = 16.881397 Si / 1000 Ang^3
#
#
#
# Elastic Constant Matrix: (Units=GPa)
#
#
# Indices 1 2 3 4 5 6 
#
# 1 76.1861 31.7743 38.7692 0.0000 -7.8279 0.0000
# 2 31.7743 92.8017 47.5707 0.0000 2.3243 0.0000
# 3 38.7692 47.5707 117.5414 0.0000 -13.5190 0.0000
# 4 0.0000 0.0000 0.0000 18.5903 0.0000 1.0361
# 5 -7.8279 2.3243 -13.5190 0.0000 18.8849 0.0000
# 6 0.0000 0.0000 0.0000 1.0361 0.0000 23.4462
#
#
#
# Elastic Compliance Matrix: (Units=1/GPa)
#
#
# Indices 1 2 3 4 5 6 
#
# 1 0.017146 -0.004308 -0.003306 0.000000 0.005271 0.000000
# 2 -0.004308 0.015360 -0.005686 0.000000 -0.007747 0.000000
# 3 -0.003306 -0.005686 0.012883 0.000000 0.008552 0.000000
# 4 0.000000 0.000000 0.000000 0.053924 0.000000 -0.002383
# 5 0.005271 -0.007747 0.008552 0.000000 0.062213 0.000000
# 6 0.000000 0.000000 0.000000 -0.002383 0.000000 0.042756
#
#
# Mechanical properties :
#
#
# Convention : Reuss Voigt Hill
#
# Bulk Modulus (GPa) = 53.22374 58.08417 55.65396
# Shear Modulus (GPa) = 21.08415 23.41194 22.24805
#
# Velocity S-wave (km/s) = 3.53789 3.72808 3.63423
# Velocity P-wave (km/s) = 6.94877 7.28103 7.11684
#
# Compressibility (1/GPa) = 0.01878861
#
# Stress axis : x y z
#
# Youngs Moduli (GPa) = 58.32168 65.10593 77.62261
#
# Poissons Ratio (x) = 0.28049 0.25659
# Poissons Ratio (y) = 0.25126 0.44138
# Poissons Ratio (z) = 0.19279 0.37021
#
# Static dielectric constant tensor:
#      x y z
#    x 3.099590 0.000000 -0.230210 
#    y 0.000000 2.973000 0.000000 
#    z -0.230210 0.000000 3.340910 
# 
# 
# High freq. dielectric constant tensor:
#      x y z
#    x 1.632830 0.000000 -0.015250 
#    y 0.000000 1.630830 0.000000 
#    z -0.015250 0.000000 1.655430 
# 
# From -- ./inp_files/282978.got.cif
#   From: 2010.06.25/outbox.cif.g09.slc.cpg/sg12_142_cif.got.tgz:282978.got - 2010.06.28 00:19:55.
