data_PCOD8081330
_publ_section_title
;
Structure prediction by ZEFSAII (Michael W. Deem and Ramdas Pophale) SiO2 
 PCOD8081330
Probable space group: C 2/M
;
_chemical_formula_sum "Si O2"
_cell_formula_units_Z 48
_cell_length_a 33.684126
_cell_length_b 7.749108
_cell_length_c 12.387433
_cell_angle_alpha 90.000000
_cell_angle_beta 117.967416
_cell_angle_gamma 90.000000
_cell_volume 2855.778208
_symmetry_space_group_name_H-M "C 2/M"
_symmetry_group_IT_number 12
_symmetry_cell_setting 'monoclinic'
loop_
_space_group_symop_operation_xyz
x,y,z
-x,y,-z
-x,-y,-z
x,-y,z
1/2+x,1/2+y,z
1/2-x,1/2+y,-z
1/2-x,1/2-y,-z
1/2+x,1/2-y,z
loop_
_atom_site_type_symbol
_atom_site_label
_atom_site_fract_x
_atom_site_fract_y
_atom_site_fract_z
Si Si1 0.315757 0.297495 0.069511
Si Si2 0.877045 0.807399 0.796820
Si Si3 0.966699 0.500000 0.113743
Si Si4 0.742346 0.305360 0.815940
Si Si5 0.094670 0.196370 0.925077
Si Si6 0.936972 0.500000 0.829724
Si Si7 0.277425 0.203581 0.640235
O O1 0.304517 0.500000 0.044862
O O2 0.298478 0.224651 0.164114
O O3 0.288700 0.200949 0.941423
O O4 0.368726 0.263312 0.121560
O O5 0.880738 0.772954 0.929396
O O6 0.907589 0.671219 0.770462
O O7 0.825796 0.792020 0.694553
O O8 0.894257 0.000000 0.790611
O O9 0.020558 0.500000 0.197477
O O10 0.946656 0.327552 0.143554
O O11 0.954786 0.500000 0.973510
O O12 0.728712 0.500000 0.774172
O O13 0.750293 0.217584 0.709077
O O14 0.076593 0.000000 0.892676
O O15 0.250000 0.250000 0.500000
O O16 0.284760 0.000000 0.662410
#
# Coordination Sequence:
#
# PCOD8081330 Si02
#       7
#     8   8   4   8   8   4   8
#     4   9  16  27  42  65  92 120 155 192 230 283
#     4  10  18  30  47  65  90 125 159 194 237 283
#     4   9  18  28  46  66  93 123 161 197 234 282
#     4   9  18  28  43  63  88 123 159 194 232 277
#     4   9  17  27  45  67  94 125 154 189 234 288
#     4   9  18  32  44  66  91 125 161 199 236 282
#     4  11  21  32  46  65  93 127 168 203 235 275
#
# _framework density 16.808026999999999
#
# number of rings (size 3 to 8) (size 9 to 14) (size 15 to 20)
#    0.000    2.500    2.500    0.500    1.167    1.333 
#    0.000    3.333    0.000    0.000    0.000    0.000 
#    0.000    2.667    0.000   10.000    0.000    0.333 
#
# Total GULP energy -297446.547160 kJ/mol
# GULP energy per Si atom -12393.606132 kJ/mol
# Density = 1.676977 g / cm^3
# Si number density = 16.808027 Si / 1000 Ang^3
#
#
#
# Elastic Constant Matrix: (Units=GPa)
#
#
# Indices 1 2 3 4 5 6 
#
# 1 151.2203 58.8542 42.3446 0.0000 -4.5059 0.0000
# 2 58.8542 88.6014 14.7639 0.0000 1.9096 0.0000
# 3 42.3446 14.7639 59.9587 0.0000 -9.8513 0.0000
# 4 0.0000 0.0000 0.0000 12.0675 0.0000 5.3245
# 5 -4.5059 1.9096 -9.8513 0.0000 16.5857 0.0000
# 6 0.0000 0.0000 0.0000 5.3245 0.0000 20.1931
#
#
#
# Elastic Compliance Matrix: (Units=1/GPa)
#
#
# Indices 1 2 3 4 5 6 
#
# 1 0.010671 -0.006083 -0.006036 0.000000 0.000014 0.000000
# 2 -0.006083 0.015413 -0.000069 0.000000 -0.003468 0.000000
# 3 -0.006036 -0.000069 0.022927 0.000000 0.011986 0.000000
# 4 0.000000 0.000000 0.000000 0.093778 0.000000 -0.024727
# 5 0.000014 -0.003468 0.011986 0.000000 0.067815 0.000000
# 6 0.000000 0.000000 0.000000 -0.024727 0.000000 0.056042
#
#
# Mechanical properties :
#
#
# Convention : Reuss Voigt Hill
#
# Bulk Modulus (GPa) = 40.59190 59.07842 49.83516
# Shear Modulus (GPa) = 16.70929 22.02376 19.36653
#
# Velocity S-wave (km/s) = 3.15640 3.62375 3.39812
# Velocity P-wave (km/s) = 6.12262 7.26182 6.71642
#
# Compressibility (1/GPa) = 0.02463546
#
# Stress axis : x y z
#
# Youngs Moduli (GPa) = 93.71337 64.87903 43.61607
#
# Poissons Ratio (x) = 0.39464 0.26326
# Poissons Ratio (y) = 0.57003 0.00302
# Poissons Ratio (z) = 0.56565 0.00450
#
# Static dielectric constant tensor:
#      x y z
#    x 3.396120 0.000000 -0.225170 
#    y 0.000000 3.259180 0.000000 
#    z -0.225170 0.000000 2.714120 
# 
# 
# High freq. dielectric constant tensor:
#      x y z
#    x 1.648180 0.000000 -0.013050 
#    y 0.000000 1.657490 0.000000 
#    z -0.013050 0.000000 1.579190 
# 
# From -- ./inp_files/185974.got.cif
#   From: 2010.06.25/outbox.cif.g09.slc.cpg/sg12_93_cif.got.tgz:185974.got - 2010.06.28 00:19:55.
