data_PCOD8081761
_publ_section_title
;
Structure prediction by ZEFSAII (Michael W. Deem and Ramdas Pophale) SiO2 
 PCOD8081761
Probable space group: C 2/M
;
_chemical_formula_sum "Si O2"
_cell_formula_units_Z 56
_cell_length_a 20.141519
_cell_length_b 8.534690
_cell_length_c 31.104291
_cell_angle_alpha 90.000000
_cell_angle_beta 147.471610
_cell_angle_gamma 90.000000
_cell_volume 2875.109580
_symmetry_space_group_name_H-M "C 2/M"
_symmetry_group_IT_number 12
_symmetry_cell_setting 'monoclinic'
loop_
_space_group_symop_operation_xyz
x,y,z
-x,y,-z
-x,-y,-z
x,-y,z
1/2+x,1/2+y,z
1/2-x,1/2+y,-z
1/2-x,1/2-y,-z
1/2+x,1/2-y,z
loop_
_atom_site_type_symbol
_atom_site_label
_atom_site_fract_x
_atom_site_fract_y
_atom_site_fract_z
Si Si1 0.243412 0.818589 0.585111
Si Si2 0.970110 0.182983 0.821407
Si Si3 0.638622 0.183122 0.840122
Si Si4 0.802237 0.316837 0.350038
Si Si5 0.510793 0.319354 0.313654
Si Si6 0.970579 0.682362 0.584263
Si Si7 0.666722 0.682178 0.991231
O O1 0.181844 0.776581 0.596979
O O2 0.366753 0.717146 0.646908
O O3 0.148032 0.780647 0.495065
O O4 0.279104 0.000000 0.602498
O O5 0.826123 0.225974 0.743512
O O6 0.037517 0.284565 0.821940
O O7 0.991090 0.000000 0.821825
O O8 0.025263 0.221360 0.899843
O O9 0.607678 0.280253 0.780439
O O10 0.776510 0.239740 0.931862
O O11 0.634561 0.000000 0.826336
O O12 0.811237 0.500000 0.365580
O O13 0.910487 0.262026 0.377575
O O14 0.508470 0.500000 0.325765
O O15 0.505067 0.212895 0.352604
O O16 0.943351 0.500000 0.562022
O O17 0.690186 0.500000 0.004419
O O18 0.750000 0.750000 0.000000
#
# Coordination Sequence:
#
# PCOD8081761 Si02
#       7
#     8   8   8   8   8   8   8
#     4  12  24  39  60  84 110 141 182 229 275 327
#     4   9  16  30  52  79 110 145 179 217 266 322
#     4  10  18  30  50  80 111 142 179 224 272 320
#     4  10  21  37  59  84 113 147 183 223 270 323
#     4  12  24  39  58  80 109 145 186 230 277 329
#     4  11  24  41  58  80 111 146 184 227 275 326
#     4   8  15  26  45  75 110 140 174 218 265 316
#
# _framework density 19.477519000000001
#
# number of rings (size 3 to 8) (size 9 to 14) (size 15 to 20)
#    0.000    1.714    1.429    4.286    0.000    3.429 
#    0.000    0.000    0.000    0.857    0.000    6.000 
#    0.000    0.000    0.000    0.000    0.000    0.000 
#
# Total GULP energy -347080.472499 kJ/mol
# GULP energy per Si atom -12395.731161 kJ/mol
# Density = 1.943319 g / cm^3
# Si number density = 19.477519 Si / 1000 Ang^3
#
#
#
# Elastic Constant Matrix: (Units=GPa)
#
#
# Indices 1 2 3 4 5 6 
#
# 1 56.3876 9.0081 18.8200 -0.0001 -13.4586 0.0002
# 2 9.0081 47.9895 19.4442 -0.0001 0.2418 0.0013
# 3 18.8200 19.4442 141.4887 0.0000 -21.8403 -0.0001
# 4 -0.0001 -0.0001 0.0000 27.9057 0.0000 -4.3019
# 5 -13.4586 0.2418 -21.8403 0.0000 17.7684 -0.0002
# 6 0.0002 0.0013 -0.0001 -4.3019 -0.0002 21.1060
#
#
#
# Elastic Compliance Matrix: (Units=1/GPa)
#
#
# Indices 1 2 3 4 5 6 
#
# 1 0.022517 -0.004444 0.000318 0.000000 0.017506 0.000000
# 2 -0.004444 0.023305 -0.003925 0.000000 -0.008507 -0.000002
# 3 0.000318 -0.003925 0.009392 0.000000 0.011839 0.000000
# 4 0.000000 0.000000 0.000000 0.036997 0.000000 0.007541
# 5 0.017506 -0.008507 0.011839 0.000000 0.084207 0.000001
# 6 0.000000 -0.000002 0.000000 0.007541 0.000001 0.048917
#
#
# Mechanical properties :
#
#
# Convention : Reuss Voigt Hill
#
# Bulk Modulus (GPa) = 25.56700 37.82339 31.69519
# Shear Modulus (GPa) = 19.64836 26.59561 23.12198
#
# Velocity S-wave (km/s) = 3.17956 3.69921 3.44919
# Velocity P-wave (km/s) = 5.16085 6.14058 5.67191
#
# Compressibility (1/GPa) = 0.03911292
#
# Stress axis : x y z
#
# Youngs Moduli (GPa) = 44.41170 42.90905 106.47094
#
# Poissons Ratio (x) = 0.19067 -0.03385
# Poissons Ratio (y) = 0.19735 0.41788
# Poissons Ratio (z) = -0.01412 0.16841
#
# Static dielectric constant tensor:
#      x y z
#    x 3.157320 0.000010 -0.008000 
#    y 0.000010 1.852010 -0.000010 
#    z -0.008000 -0.000010 4.284910 
# 
# 
# High freq. dielectric constant tensor:
#      x y z
#    x 1.709290 0.000000 -0.008870 
#    y 0.000000 1.757220 0.000000 
#    z -0.008870 0.000000 1.788680 
# 
# From -- ./inp_files/363219.got.cif
#   From: 2010.06.25/outbox.cif.g09.slc.cpg/sg12_182_cif.got.tgz:363219.got - 2010.06.28 00:19:55.
