data_PCOD8081569
_publ_section_title
;
Structure prediction by ZEFSAII (Michael W. Deem and Ramdas Pophale) SiO2 
 PCOD8081569
Probable space group: C 2/M
;
_chemical_formula_sum "Si O2"
_cell_formula_units_Z 64
_cell_length_a 24.947544
_cell_length_b 8.936320
_cell_length_c 15.214891
_cell_angle_alpha 90.000000
_cell_angle_beta 87.316408
_cell_angle_gamma 90.000000
_cell_volume 3388.276261
_symmetry_space_group_name_H-M "C 2/M"
_symmetry_group_IT_number 12
_symmetry_cell_setting 'monoclinic'
loop_
_space_group_symop_operation_xyz
x,y,z
-x,y,-z
-x,-y,-z
x,-y,z
1/2+x,1/2+y,z
1/2-x,1/2+y,-z
1/2-x,1/2-y,-z
1/2+x,1/2-y,z
loop_
_atom_site_type_symbol
_atom_site_label
_atom_site_fract_x
_atom_site_fract_y
_atom_site_fract_z
Si Si1 0.519607 0.321802 0.904480
Si Si2 0.337406 0.824145 0.506103
Si Si3 0.763231 0.177315 0.175170
Si Si4 0.447391 0.677739 0.558491
Si Si5 0.843531 0.825010 0.872917
Si Si6 0.635148 0.676231 0.933223
Si Si7 0.264979 0.675639 0.373915
Si Si8 0.444534 0.323132 0.757281
O O1 0.512652 0.500000 0.906246
O O2 0.581272 0.271236 0.887846
O O3 0.486936 0.254197 0.824025
O O4 0.500000 0.257826 0.000000
O O5 0.394192 0.747410 0.520543
O O6 0.313207 0.763029 0.417179
O O7 0.293887 0.783389 0.584391
O O8 0.346987 0.000000 0.498114
O O9 0.710446 0.234287 0.132423
O O10 0.813630 0.248143 0.119103
O O11 0.765763 0.233427 0.274606
O O12 0.762794 0.000000 0.171734
O O13 0.500000 0.728005 0.500000
O O14 0.440570 0.500000 0.557150
O O15 0.454239 0.738237 0.658063
O O16 0.884925 0.778107 0.793283
O O17 0.830432 0.000000 0.869973
O O18 0.868798 0.778577 0.964412
O O19 0.640481 0.500000 0.925145
O O20 0.276481 0.500000 0.382817
O O21 0.451289 0.500000 0.756666
#
# Coordination Sequence:
#
# PCOD8081569 Si02
#       8
#     8   8   8   8   8   8   8   8
#     4   9  14  25  45  69  97 124 159 209 250 282
#     4  10  20  35  56  77  99 132 173 212 255 305
#     4  10  20  32  47  72 104 134 164 198 247 304
#     4  10  21  35  51  75 107 139 171 212 261 308
#     4  10  18  30  49  73 101 131 167 207 245 291
#     4   9  17  28  45  71 101 132 163 203 251 293
#     4   9  19  35  54  76 102 133 168 210 258 310
#     4   9  17  29  49  75  99 129 169 209 251 296
#
# _framework density 18.888660000000002
#
# number of rings (size 3 to 8) (size 9 to 14) (size 15 to 20)
#    0.000    2.500    1.250    1.500    0.000    2.250 
#    0.000    3.750    0.000    0.000    0.000    3.500 
#    0.000    0.000    0.000    0.000    0.000    0.000 
#
# Total GULP energy -396714.635657 kJ/mol
# GULP energy per Si atom -12397.332364 kJ/mol
# Density = 1.884567 g / cm^3
# Si number density = 18.888660 Si / 1000 Ang^3
#
#
#
# Elastic Constant Matrix: (Units=GPa)
#
#
# Indices 1 2 3 4 5 6 
#
# 1 150.1665 20.6370 54.8474 0.0000 5.4619 0.0000
# 2 20.6370 18.1791 14.7407 0.0000 2.8159 0.0000
# 3 54.8474 14.7407 68.0331 0.0000 -5.5053 0.0000
# 4 0.0000 0.0000 0.0000 12.6346 0.0000 3.7894
# 5 5.4619 2.8159 -5.5053 0.0000 32.0160 0.0000
# 6 0.0000 0.0000 0.0000 3.7894 0.0000 26.0426
#
#
#
# Elastic Compliance Matrix: (Units=1/GPa)
#
#
# Indices 1 2 3 4 5 6 
#
# 1 0.010105 -0.005232 -0.007215 0.000000 -0.002504 0.000000
# 2 -0.005232 0.071788 -0.011941 0.000000 -0.007475 0.000000
# 3 -0.007215 -0.011941 0.023616 0.000000 0.006342 0.000000
# 4 0.000000 0.000000 0.000000 0.082760 0.000000 -0.012042
# 5 -0.002504 -0.007475 0.006342 0.000000 0.033410 0.000000
# 6 0.000000 0.000000 0.000000 -0.012042 0.000000 0.040151
#
#
# Mechanical properties :
#
#
# Convention : Reuss Voigt Hill
#
# Bulk Modulus (GPa) = 17.62677 46.31431 31.97054
# Shear Modulus (GPa) = 15.17374 23.88222 19.52798
#
# Velocity S-wave (km/s) = 2.83737 3.55965 3.21884
# Velocity P-wave (km/s) = 4.48179 6.43954 5.54771
#
# Compressibility (1/GPa) = 0.05673188
#
# Stress axis : x y z
#
# Youngs Moduli (GPa) = 98.96293 13.92988 42.34421
#
# Poissons Ratio (x) = 0.07289 0.30553
# Poissons Ratio (y) = 0.51782 0.50562
# Poissons Ratio (z) = 0.71405 0.16633
#
# Static dielectric constant tensor:
#      x y z
#    x 3.601060 0.000000 -0.049000 
#    y 0.000000 2.986940 0.000000 
#    z -0.049000 0.000000 3.776220 
# 
# 
# High freq. dielectric constant tensor:
#      x y z
#    x 1.746120 0.000000 0.002950 
#    y 0.000000 1.682240 0.000000 
#    z 0.002950 0.000000 1.742860 
# 
# From -- ./inp_files/238576.got.cif
#   From: 2010.06.25/outbox.cif.g09.slc.cpg/sg12_120_cif.got.tgz:238576.got - 2010.06.28 00:19:55.
