data_PCOD8081048
_publ_section_title
;
Structure prediction by ZEFSAII (Michael W. Deem and Ramdas Pophale) SiO2 
 PCOD8081048
Probable space group: C 2/M
;
_chemical_formula_sum "Si O2"
_cell_formula_units_Z 64
_cell_length_a 20.838587
_cell_length_b 9.250578
_cell_length_c 20.306971
_cell_angle_alpha 90.000000
_cell_angle_beta 112.888204
_cell_angle_gamma 90.000000
_cell_volume 3606.343518
_symmetry_space_group_name_H-M "C 2/M"
_symmetry_group_IT_number 12
_symmetry_cell_setting 'monoclinic'
loop_
_space_group_symop_operation_xyz
x,y,z
-x,y,-z
-x,-y,-z
x,-y,z
1/2+x,1/2+y,z
1/2-x,1/2+y,-z
1/2-x,1/2-y,-z
1/2+x,1/2-y,z
loop_
_atom_site_type_symbol
_atom_site_label
_atom_site_fract_x
_atom_site_fract_y
_atom_site_fract_z
Si Si1 0.346441 0.668955 0.080680
Si Si2 0.387461 0.328417 0.704587
Si Si3 0.215439 0.165838 0.077252
Si Si4 0.677808 0.328427 0.458853
Si Si5 0.422185 0.328565 0.464115
Si Si6 0.358438 0.328273 0.301894
Si Si7 0.714912 0.332032 0.223705
Si Si8 0.542207 0.671076 0.775212
O O1 0.336961 0.500000 0.089009
O O2 0.284640 0.741694 0.096539
O O3 0.420057 0.719044 0.141390
O O4 0.342190 0.709052 0.001211
O O5 0.392335 0.500000 0.707471
O O6 0.351896 0.276103 0.623042
O O7 0.342323 0.272276 0.748222
O O8 0.464950 0.260524 0.741620
O O9 0.184469 0.191451 0.137730
O O10 0.237380 0.000000 0.075978
O O11 0.689549 0.500000 0.465947
O O12 0.750000 0.250000 0.500000
O O13 0.623078 0.276091 0.492005
O O14 0.500000 0.262986 0.500000
O O15 0.426935 0.500000 0.465337
O O16 0.386479 0.272916 0.383191
O O17 0.349271 0.500000 0.296183
O O18 0.284588 0.257296 0.259971
O O19 0.412736 0.273450 0.268580
O O20 0.731337 0.500000 0.243644
O O21 0.535424 0.500000 0.768204
#
# Coordination Sequence:
#
# PCOD8081048 Si02
#       8
#     8   8   8   8   8   8   8   8
#     4   9  16  28  47  70  92 117 151 190 228 267
#     4   9  18  31  47  67  94 126 155 185 228 279
#     4   9  17  28  44  68  96 121 148 185 229 272
#     4  10  19  32  50  69  91 122 156 190 230 276
#     4   9  17  29  47  71  93 114 150 198 237 268
#     4  10  18  29  49  72  91 115 153 198 234 265
#     4  10  19  31  46  67  95 125 153 184 225 276
#     4   9  16  28  47  70  92 118 155 192 226 269
#
# _framework density 17.746507999999999
#
# number of rings (size 3 to 8) (size 9 to 14) (size 15 to 20)
#    0.000    2.625    1.250    1.500    0.000    3.000 
#    0.000    0.625    0.000    9.750    0.000    0.000 
#    0.000    5.000    0.000    0.000    0.000    0.000 
#
# Total GULP energy -396688.453703 kJ/mol
# GULP energy per Si atom -12396.514178 kJ/mol
# Density = 1.770612 g / cm^3
# Si number density = 17.746508 Si / 1000 Ang^3
#
#
#
# Elastic Constant Matrix: (Units=GPa)
#
#
# Indices 1 2 3 4 5 6 
#
# 1 158.5992 24.0309 97.9645 0.0000 -0.1548 0.0000
# 2 24.0309 19.3358 24.5846 0.0000 1.7857 0.0000
# 3 97.9645 24.5846 175.9459 0.0000 -2.6409 0.0000
# 4 0.0000 0.0000 0.0000 17.7521 0.0000 4.0984
# 5 -0.1548 1.7857 -2.6409 0.0000 31.5437 0.0000
# 6 0.0000 0.0000 0.0000 4.0984 0.0000 17.5557
#
#
#
# Elastic Compliance Matrix: (Units=1/GPa)
#
#
# Indices 1 2 3 4 5 6 
#
# 1 0.010275 -0.006687 -0.004786 0.000000 0.000028 0.000000
# 2 -0.006687 0.067831 -0.005820 0.000000 -0.004360 0.000000
# 3 -0.004786 -0.005820 0.009178 0.000000 0.001074 0.000000
# 4 0.000000 0.000000 0.000000 0.059541 0.000000 -0.013900
# 5 0.000028 -0.004360 0.001074 0.000000 0.032039 0.000000
# 6 0.000000 0.000000 0.000000 -0.013900 0.000000 0.060206
#
#
# Mechanical properties :
#
#
# Convention : Reuss Voigt Hill
#
# Bulk Modulus (GPa) = 18.97642 71.89343 45.43493
# Shear Modulus (GPa) = 17.16910 27.19036 22.17973
#
# Velocity S-wave (km/s) = 3.11378 3.91852 3.53910
# Velocity P-wave (km/s) = 4.86249 7.81488 6.50831
#
# Compressibility (1/GPa) = 0.05269698
#
# Stress axis : x y z
#
# Youngs Moduli (GPa) = 97.32638 14.74259 108.95926
#
# Poissons Ratio (x) = 0.09858 0.52149
# Poissons Ratio (y) = 0.65081 0.63415
# Poissons Ratio (z) = 0.46581 0.08580
#
# Static dielectric constant tensor:
#      x y z
#    x 3.433700 0.000000 -0.080170 
#    y 0.000000 2.894440 0.000000 
#    z -0.080170 0.000000 3.752530 
# 
# 
# High freq. dielectric constant tensor:
#      x y z
#    x 1.678740 0.000000 -0.004280 
#    y 0.000000 1.639790 0.000000 
#    z -0.004280 0.000000 1.709650 
# 
# From -- ./inp_files/315353.got.cif
#   From: 2010.06.25/outbox.cif.g09.slc.cpg/sg12_158_cif.got.tgz:315353.got - 2010.06.28 00:19:55.
