data_PCOD8081062
_publ_section_title
;
Structure prediction by ZEFSAII (Michael W. Deem and Ramdas Pophale) SiO2 
 PCOD8081062
Probable space group: C 2/M
;
_chemical_formula_sum "Si O2"
_cell_formula_units_Z 64
_cell_length_a 30.232606
_cell_length_b 8.466774
_cell_length_c 19.286639
_cell_angle_alpha 90.000000
_cell_angle_beta 129.902079
_cell_angle_gamma 90.000000
_cell_volume 3787.265866
_symmetry_space_group_name_H-M "C 2/M"
_symmetry_group_IT_number 12
_symmetry_cell_setting 'monoclinic'
loop_
_space_group_symop_operation_xyz
x,y,z
-x,y,-z
-x,-y,-z
x,-y,z
1/2+x,1/2+y,z
1/2-x,1/2+y,-z
1/2-x,1/2-y,-z
1/2+x,1/2-y,z
loop_
_atom_site_type_symbol
_atom_site_label
_atom_site_fract_x
_atom_site_fract_y
_atom_site_fract_z
Si Si1 0.414064 0.683618 0.394062
Si Si2 0.908122 0.313007 0.929566
Si Si3 0.691533 0.317432 0.085199
Si Si4 0.005612 0.686533 0.753562
Si Si5 0.979387 0.687056 0.874902
Si Si6 0.136215 0.315126 0.892679
Si Si7 0.021506 0.684562 0.422960
Si Si8 0.813639 0.184035 0.193886
O O1 0.411311 0.500000 0.408273
O O2 0.421436 0.774676 0.475095
O O3 0.467960 0.718467 0.398861
O O4 0.356070 0.741832 0.297983
O O5 0.897448 0.500000 0.921812
O O6 0.850223 0.223653 0.892759
O O7 0.927062 0.254231 0.871413
O O8 0.958670 0.261366 0.033013
O O9 0.708203 0.500000 0.104451
O O10 0.748895 0.214836 0.153182
O O11 0.661797 0.279139 0.982639
O O12 0.007459 0.500000 0.762564
O O13 0.071380 0.746902 0.814034
O O14 0.974374 0.755510 0.791320
O O15 0.970247 0.736315 0.649123
O O16 0.976988 0.500000 0.873504
O O17 0.138077 0.500000 0.912509
O O18 0.174340 0.282536 0.863412
O O19 0.006835 0.500000 0.413822
O O20 0.823570 0.000000 0.188064
#
# Coordination Sequence:
#
# PCOD8081062 Si02
#       8
#     8   8   8   8   8   8   8   8
#     4  10  20  33  48  68  95 126 161 203 244 284
#     4   9  16  30  52  72  93 127 165 201 238 281
#     4  12  24  35  48  69  99 132 168 204 244 286
#     4   9  16  27  48  76 100 127 160 196 233 283
#     4   8  14  27  50  75  96 123 162 199 237 285
#     4  11  20  34  52  70  99 132 168 203 234 280
#     4  10  18  29  49  73  98 127 160 195 239 289
#     4  11  23  37  51  68  94 130 172 207 243 287
#
# _framework density 16.898734000000001
#
# number of rings (size 3 to 8) (size 9 to 14) (size 15 to 20)
#    0.000    2.000    2.500    4.500    0.000    1.500 
#    0.000    1.250    0.000    0.000    0.000    0.875 
#    0.000    0.000    0.000    0.000    0.000    0.000 
#
# Total GULP energy -396708.699359 kJ/mol
# GULP energy per Si atom -12397.146855 kJ/mol
# Density = 1.686027 g / cm^3
# Si number density = 16.898734 Si / 1000 Ang^3
#
#
#
# Elastic Constant Matrix: (Units=GPa)
#
#
# Indices 1 2 3 4 5 6 
#
# 1 114.9430 6.6684 54.9037 0.0000 -15.5500 0.0000
# 2 6.6684 30.5070 10.7748 0.0000 -2.5259 -0.0001
# 3 54.9037 10.7748 93.5855 0.0000 -16.6620 0.0000
# 4 0.0000 0.0000 0.0000 18.7868 0.0000 0.7148
# 5 -15.5500 -2.5259 -16.6620 0.0000 26.5803 0.0000
# 6 0.0000 -0.0001 0.0000 0.7148 0.0000 18.8540
#
#
#
# Elastic Compliance Matrix: (Units=1/GPa)
#
#
# Indices 1 2 3 4 5 6 
#
# 1 0.012297 -0.000083 -0.006670 0.000000 0.003005 0.000000
# 2 -0.000083 0.034188 -0.003734 0.000000 0.000859 0.000000
# 3 -0.006670 -0.003734 0.016063 0.000000 0.005812 0.000000
# 4 0.000000 0.000000 0.000000 0.053306 0.000000 -0.002021
# 5 0.003005 0.000859 0.005812 0.000000 0.043105 0.000000
# 6 0.000000 0.000000 0.000000 -0.002021 0.000000 0.053116
#
#
# Mechanical properties :
#
#
# Convention : Reuss Voigt Hill
#
# Bulk Modulus (GPa) = 24.05395 42.63658 33.34527
# Shear Modulus (GPa) = 20.25050 23.95678 22.10364
#
# Velocity S-wave (km/s) = 3.46547 3.76928 3.62056
# Velocity P-wave (km/s) = 5.50252 6.65046 6.10354
#
# Compressibility (1/GPa) = 0.04157322
#
# Stress axis : x y z
#
# Youngs Moduli (GPa) = 81.31898 29.25033 62.25434
#
# Poissons Ratio (x) = 0.00244 0.41522
# Poissons Ratio (y) = 0.00679 0.23247
# Poissons Ratio (z) = 0.54238 0.10923
#
# Static dielectric constant tensor:
#      x y z
#    x 3.321150 0.000000 -0.256550 
#    y 0.000000 2.971730 0.000000 
#    z -0.256550 0.000000 3.361860 
# 
# 
# High freq. dielectric constant tensor:
#      x y z
#    x 1.636990 0.000000 -0.015810 
#    y 0.000000 1.639200 0.000000 
#    z -0.015810 0.000000 1.637500 
# 
# From -- ./inp_files/326945.got.cif
#   From: 2010.06.25/outbox.cif.g09.slc.cpg/sg12_164_cif.got.tgz:326945.got - 2010.06.28 00:19:55.
