data_PCOD8081836
_publ_section_title
;
Structure prediction by ZEFSAII (Michael W. Deem and Ramdas Pophale) SiO2 
 PCOD8081836
Probable space group: C 2/M
;
_chemical_formula_sum "Si O2"
_cell_formula_units_Z 44
_cell_length_a 15.991319
_cell_length_b 15.403558
_cell_length_c 10.797466
_cell_angle_alpha 90.000000
_cell_angle_beta 55.358757
_cell_angle_gamma 90.000000
_cell_volume 2188.180507
_symmetry_space_group_name_H-M "C 2/M"
_symmetry_group_IT_number 12
_symmetry_cell_setting 'monoclinic'
loop_
_space_group_symop_operation_xyz
x,y,z
-x,y,-z
-x,-y,-z
x,-y,z
1/2+x,1/2+y,z
1/2-x,1/2+y,-z
1/2-x,1/2-y,-z
1/2+x,1/2-y,z
loop_
_atom_site_type_symbol
_atom_site_label
_atom_site_fract_x
_atom_site_fract_y
_atom_site_fract_z
Si Si1 0.893072 0.098418 0.660813
Si Si2 0.819453 0.901786 0.250266
Si Si3 0.897589 0.401369 0.664194
Si Si4 0.041694 0.248305 0.234120
Si Si5 0.663814 0.311475 0.521186
Si Si6 0.500000 0.702680 0.000000
O O1 0.897576 0.159144 0.780069
O O2 0.813497 0.143928 0.631210
O O3 0.000000 0.094350 0.500000
O O4 0.858518 0.000000 0.725641
O O5 0.701473 0.873989 0.332327
O O6 0.851749 0.888217 0.365602
O O7 0.834755 0.000000 0.200186
O O8 0.896210 0.851233 0.096737
O O9 0.887062 0.500000 0.722753
O O10 0.898561 0.335307 0.778835
O O11 0.000000 0.391962 0.500000
O O12 0.937868 0.246224 0.401176
O O13 0.016936 0.258655 0.109674
O O14 0.750000 0.250000 0.500000
#
# Coordination Sequence:
#
# PCOD8081836 Si02
#       6
#     8   8   8   8   8   4
#     4   9  17  29  48  74 102 133 172 220 272 317
#     4  10  20  34  54  79 107 140 177 219 263 317
#     4  10  20  36  59  83 106 137 179 224 269 318
#     4  10  20  35  52  74 105 142 178 218 264 314
#     4  10  18  30  51  77 107 138 172 219 272 319
#     4  10  23  36  53  76 106 144 182 218 264 322
#
# _framework density 20.108031
#
# number of rings (size 3 to 8) (size 9 to 14) (size 15 to 20)
#    0.000    2.182    0.000    4.636    0.000    5.818 
#    0.000    1.364    0.000    0.000    0.000    0.000 
#    0.000    0.000    0.000    0.000    0.000    0.000 
#
# Total GULP energy -272646.364769 kJ/mol
# GULP energy per Si atom -12393.016580 kJ/mol
# Density = 2.006226 g / cm^3
# Si number density = 20.108031 Si / 1000 Ang^3
#
#
#
# Elastic Constant Matrix: (Units=GPa)
#
#
# Indices 1 2 3 4 5 6 
#
# 1 108.4953 53.8744 22.0199 0.0000 8.9792 0.0000
# 2 53.8744 111.1109 16.6455 0.0000 16.7709 0.0000
# 3 22.0199 16.6455 43.9737 0.0000 5.9836 0.0000
# 4 0.0000 0.0000 0.0000 10.3328 0.0000 -2.2755
# 5 8.9792 16.7709 5.9836 0.0000 42.0572 0.0000
# 6 0.0000 0.0000 0.0000 -2.2755 0.0000 30.9176
#
#
#
# Elastic Compliance Matrix: (Units=1/GPa)
#
#
# Indices 1 2 3 4 5 6 
#
# 1 0.012873 -0.005608 -0.004338 0.000000 0.000105 0.000000
# 2 -0.005608 0.012472 -0.001427 0.000000 -0.003573 0.000000
# 3 -0.004338 -0.001427 0.025748 0.000000 -0.002168 0.000000
# 4 0.000000 0.000000 0.000000 0.098373 0.000000 0.007240
# 5 0.000105 -0.003573 -0.002168 0.000000 0.025488 0.000000
# 6 0.000000 0.000000 0.000000 0.007240 0.000000 0.032877
#
#
# Mechanical properties :
#
#
# Convention : Reuss Voigt Hill
#
# Bulk Modulus (GPa) = 35.27503 49.85106 42.56304
# Shear Modulus (GPa) = 20.83102 28.06421 24.44761
#
# Velocity S-wave (km/s) = 3.22212 3.73992 3.49063
# Velocity P-wave (km/s) = 5.60567 6.59506 6.12039
#
# Compressibility (1/GPa) = 0.02834867
#
# Stress axis : x y z
#
# Youngs Moduli (GPa) = 77.67983 80.17837 38.83776
#
# Poissons Ratio (x) = 0.44963 0.16847
# Poissons Ratio (y) = 0.43562 0.05541
# Poissons Ratio (z) = 0.33696 0.11440
#
# Static dielectric constant tensor:
#      x y z
#    x 4.044470 0.000000 0.068020 
#    y 0.000000 3.753400 0.000000 
#    z 0.068020 0.000000 3.262780 
# 
# 
# High freq. dielectric constant tensor:
#      x y z
#    x 1.799710 0.000000 0.008140 
#    y 0.000000 1.785720 0.000000 
#    z 0.008140 0.000000 1.738280 
# 
# From -- ./inp_files/155825.got.cif
#   From: 2010.06.25/outbox.cif.g09.slc.cpg/sg12_78_cif.got.tgz:155825.got - 2010.06.28 00:19:55.
