data_PCOD8081700
_publ_section_title
;
Structure prediction by ZEFSAII (Michael W. Deem and Ramdas Pophale) SiO2 
 PCOD8081700
Probable space group: C 2/M
;
_chemical_formula_sum "Si O2"
_cell_formula_units_Z 48
_cell_length_a 16.948427
_cell_length_b 14.309454
_cell_length_c 26.239944
_cell_angle_alpha 90.000000
_cell_angle_beta 25.560194
_cell_angle_gamma 90.000000
_cell_volume 2745.712098
_symmetry_space_group_name_H-M "C 2/M"
_symmetry_group_IT_number 12
_symmetry_cell_setting 'monoclinic'
loop_
_space_group_symop_operation_xyz
x,y,z
-x,y,-z
-x,-y,-z
x,-y,z
1/2+x,1/2+y,z
1/2-x,1/2+y,-z
1/2-x,1/2-y,-z
1/2+x,1/2-y,z
loop_
_atom_site_type_symbol
_atom_site_label
_atom_site_fract_x
_atom_site_fract_y
_atom_site_fract_z
Si Si1 0.085822 0.600046 0.506288
Si Si2 0.039916 0.221772 0.847527
Si Si3 0.523337 0.894031 0.241263
Si Si4 0.693124 0.108752 0.033765
Si Si5 0.792260 0.770526 0.609069
Si Si6 0.289729 0.107037 0.766791
O O1 0.187608 0.500000 0.454459
O O2 0.220515 0.688735 0.426944
O O3 0.000000 0.603828 0.500000
O O4 0.935816 0.611543 0.636816
O O5 0.204821 0.234416 0.712250
O O6 0.118658 0.173735 0.852677
O O7 0.949735 0.323424 0.912882
O O8 0.894688 0.149861 0.906671
O O9 0.653439 0.881013 0.116938
O O10 0.322712 0.853600 0.348273
O O11 0.624356 0.850357 0.231503
O O12 0.483822 0.000000 0.277836
O O13 0.676463 0.000000 0.025552
O O14 0.000000 0.803769 0.500000
O O15 0.220027 0.000000 0.814809
#
# Coordination Sequence:
#
# PCOD8081700 Si02
#       6
#     8   8   8   8   8   8
#     4   9  16  27  44  69  97 125 157 197 237 278
#     4  10  18  31  52  75  96 127 167 198 243 288
#     4   9  20  34  48  72 103 130 160 200 244 289
#     4   9  19  34  51  73 100 128 162 203 240 287
#     4  10  18  32  50  73  98 129 164 200 240 288
#     4  10  18  30  50  75 100 126 160 203 247 288
#
# _framework density 17.481804
#
# number of rings (size 3 to 8) (size 9 to 14) (size 15 to 20)
#    0.000    2.500    3.333    0.500    0.000    2.333 
#    0.000    2.500    0.000    1.000    0.000   10.500 
#    0.000    0.000    0.000    0.000    0.000    0.000 
#
# Total GULP energy -297352.858216 kJ/mol
# GULP energy per Si atom -12389.702426 kJ/mol
# Density = 1.744201 g / cm^3
# Si number density = 17.481804 Si / 1000 Ang^3
#
#
#
# Elastic Constant Matrix: (Units=GPa)
#
#
# Indices 1 2 3 4 5 6 
#
# 1 92.1543 39.7454 28.9308 -0.0017 -15.0740 0.0001
# 2 39.7454 96.7304 26.3326 -0.0083 -17.9042 0.0010
# 3 28.9308 26.3326 72.2038 -0.0463 -18.2437 0.0014
# 4 -0.0017 -0.0083 -0.0463 20.9396 0.0009 -3.5349
# 5 -15.0740 -17.9042 -18.2437 0.0009 20.5515 0.0004
# 6 0.0001 0.0010 0.0014 -3.5349 0.0004 22.8119
#
#
#
# Elastic Compliance Matrix: (Units=1/GPa)
#
#
# Indices 1 2 3 4 5 6 
#
# 1 0.014352 -0.004298 -0.003183 -0.000008 0.003956 -0.000001
# 2 -0.004298 0.013916 -0.001400 0.000002 0.007727 0.000000
# 3 -0.003183 -0.001400 0.018999 0.000042 0.013311 0.000005
# 4 -0.000008 0.000002 0.000042 0.049039 0.000030 0.007599
# 5 0.003956 0.007727 0.013311 0.000030 0.070108 0.000002
# 6 -0.000001 0.000000 0.000005 0.007599 0.000002 0.045014
#
#
# Mechanical properties :
#
#
# Convention : Reuss Voigt Hill
#
# Bulk Modulus (GPa) = 33.89491 50.12289 42.00890
# Shear Modulus (GPa) = 20.91823 23.93258 22.42541
#
# Velocity S-wave (km/s) = 3.46290 3.70401 3.58549
# Velocity P-wave (km/s) = 5.95144 6.85760 6.42053
#
# Compressibility (1/GPa) = 0.02950296
#
# Stress axis : x y z
#
# Youngs Moduli (GPa) = 69.67876 71.86217 52.63389
#
# Poissons Ratio (x) = 0.30887 0.16755
# Poissons Ratio (y) = 0.29948 0.07371
# Poissons Ratio (z) = 0.22181 0.10063
#
# Static dielectric constant tensor:
#      x y z
#    x 3.117740 0.000000 0.025550 
#    y 0.000000 3.700180 0.000020 
#    z 0.025550 0.000020 3.186950 
# 
# 
# High freq. dielectric constant tensor:
#      x y z
#    x 1.644390 0.000000 0.003700 
#    y 0.000000 1.681370 0.000000 
#    z 0.003700 0.000000 1.673310 
# 
# From -- ./inp_files/143875.got.cif
#   From: 2010.06.25/outbox.cif.g09.slc.cpg/sg12_72_cif.got.tgz:143875.got - 2010.06.28 00:19:55.
