data_PCOD8081844
_publ_section_title
;
Structure prediction by ZEFSAII (Michael W. Deem and Ramdas Pophale) SiO2 
 PCOD8081844
Probable space group: C 2/M
;
_chemical_formula_sum "Si O2"
_cell_formula_units_Z 56
_cell_length_a 31.825141
_cell_length_b 9.513683
_cell_length_c 18.951225
_cell_angle_alpha 90.000000
_cell_angle_beta 32.887299
_cell_angle_gamma 90.000000
_cell_volume 3115.636508
_symmetry_space_group_name_H-M "C 2/M"
_symmetry_group_IT_number 12
_symmetry_cell_setting 'monoclinic'
loop_
_space_group_symop_operation_xyz
x,y,z
-x,y,-z
-x,-y,-z
x,-y,z
1/2+x,1/2+y,z
1/2-x,1/2+y,-z
1/2-x,1/2-y,-z
1/2+x,1/2-y,z
loop_
_atom_site_type_symbol
_atom_site_label
_atom_site_fract_x
_atom_site_fract_y
_atom_site_fract_z
Si Si1 0.013627 0.838542 0.901504
Si Si2 0.940248 0.161024 0.865851
Si Si3 0.173644 0.838571 0.092830
Si Si4 0.558517 0.833541 0.612011
Si Si5 0.156462 0.654944 0.684355
Si Si6 0.721921 0.846313 0.437971
Si Si7 0.480679 0.339216 0.608029
O O1 0.080656 0.744187 0.774428
O O2 0.939137 0.822291 0.953352
O O3 0.041189 0.000000 0.864788
O O4 0.000000 0.783659 0.000000
O O5 0.860071 0.198510 0.938350
O O6 0.007414 0.262538 0.744393
O O7 0.961481 0.000000 0.815844
O O8 0.108223 0.805403 0.244431
O O9 0.199047 0.000000 0.060660
O O10 0.250000 0.750000 0.000000
O O11 0.647978 0.796066 0.498180
O O12 0.537396 0.768301 0.566713
O O13 0.543771 0.000000 0.634526
O O14 0.135245 0.500000 0.743605
O O15 0.208973 0.734292 0.669063
O O16 0.202530 0.639355 0.547347
O O17 0.749623 0.000000 0.371683
O O18 0.500000 0.312744 0.500000
O O19 0.499131 0.500000 0.603516
#
# Coordination Sequence:
#
# PCOD8081844 Si02
#       7
#     8   8   8   8   8   8   8
#     4  10  20  34  52  72  99 137 175 213 260 312
#     4   9  18  33  52  73  99 133 175 213 254 312
#     4   9  18  33  54  79 102 132 172 214 261 311
#     4  10  18  30  51  78 104 129 167 215 258 303
#     4  10  19  31  48  71  98 129 166 208 251 296
#     4   9  18  31  47  71 100 128 161 206 254 299
#     4   9  19  36  55  76 106 141 175 213 259 317
#
# _framework density 17.973856000000001
#
# number of rings (size 3 to 8) (size 9 to 14) (size 15 to 20)
#    0.000    2.571    1.429    1.714    0.000    4.571 
#    0.000    1.429    0.000    5.143    0.000    0.000 
#    0.000    0.000    0.000    0.000    0.000    0.000 
#
# Total GULP energy -346948.116183 kJ/mol
# GULP energy per Si atom -12391.004149 kJ/mol
# Density = 1.793295 g / cm^3
# Si number density = 17.973856 Si / 1000 Ang^3
#
#
#
# Elastic Constant Matrix: (Units=GPa)
#
#
# Indices 1 2 3 4 5 6 
#
# 1 147.0599 57.5944 54.6571 0.0029 -10.5368 -0.0011
# 2 57.5944 89.1670 29.4672 0.0042 -18.5691 0.0011
# 3 54.6571 29.4672 47.0026 0.0050 -7.7093 -0.0017
# 4 0.0029 0.0042 0.0050 20.2800 -0.0031 -3.5226
# 5 -10.5368 -18.5691 -7.7093 -0.0031 32.5339 0.0012
# 6 -0.0011 0.0011 -0.0017 -3.5226 0.0012 20.9568
#
#
#
# Elastic Compliance Matrix: (Units=1/GPa)
#
#
# Indices 1 2 3 4 5 6 
#
# 1 0.013246 -0.004637 -0.012720 0.000002 -0.001371 0.000000
# 2 -0.004637 0.017089 -0.004128 -0.000001 0.007274 -0.000002
# 3 -0.012720 -0.004128 0.039113 -0.000006 0.002792 0.000001
# 4 0.000002 -0.000001 -0.000006 0.050793 0.000003 0.008538
# 5 -0.001371 0.007274 0.002792 0.000003 0.035106 -0.000002
# 6 0.000000 -0.000002 0.000001 0.008538 -0.000002 0.049152
#
#
# Mechanical properties :
#
#
# Convention : Reuss Voigt Hill
#
# Bulk Modulus (GPa) = 37.76920 62.96299 50.36609
# Shear Modulus (GPa) = 19.50868 24.18820 21.84844
#
# Velocity S-wave (km/s) = 3.29810 3.67242 3.49028
# Velocity P-wave (km/s) = 5.96342 7.28619 6.65774
#
# Compressibility (1/GPa) = 0.02647660
#
# Stress axis : x y z
#
# Youngs Moduli (GPa) = 75.49698 58.51634 25.56685
#
# Poissons Ratio (x) = 0.27136 0.32522
# Poissons Ratio (y) = 0.35011 0.10554
# Poissons Ratio (z) = 0.96034 0.24156
#
# Static dielectric constant tensor:
#      x y z
#    x 3.492130 0.000000 -0.039280 
#    y 0.000000 3.560910 0.000000 
#    z -0.039280 0.000000 2.958490 
# 
# 
# High freq. dielectric constant tensor:
#      x y z
#    x 1.700920 0.000000 -0.009620 
#    y 0.000000 1.704010 0.000000 
#    z -0.009620 0.000000 1.653920 
# 
# From -- ./inp_files/292389.got.cif
#   From: 2010.06.25/outbox.cif.g09.slc.cpg/sg12_147_cif.got.tgz:292389.got - 2010.06.28 00:19:55.
