data_PCOD8081187
_publ_section_title
;
Structure prediction by ZEFSAII (Michael W. Deem and Ramdas Pophale) SiO2 
 PCOD8081187
Probable space group: C 2/M
;
_chemical_formula_sum "Si O2"
_cell_formula_units_Z 36
_cell_length_a 12.642753
_cell_length_b 19.413977
_cell_length_c 19.860195
_cell_angle_alpha 90.000000
_cell_angle_beta 154.678889
_cell_angle_gamma 90.000000
_cell_volume 2084.825606
_symmetry_space_group_name_H-M "C 2/M"
_symmetry_group_IT_number 12
_symmetry_cell_setting 'monoclinic'
loop_
_space_group_symop_operation_xyz
x,y,z
-x,y,-z
-x,-y,-z
x,-y,z
1/2+x,1/2+y,z
1/2-x,1/2+y,-z
1/2-x,1/2-y,-z
1/2+x,1/2-y,z
loop_
_atom_site_type_symbol
_atom_site_label
_atom_site_fract_x
_atom_site_fract_y
_atom_site_fract_z
Si Si1 0.935378 0.921744 0.884580
Si Si2 0.358951 0.683238 0.097030
Si Si3 0.500000 0.782960 0.000000
Si Si4 0.726809 0.256185 0.592246
Si Si5 0.418268 0.811287 0.299448
O O1 0.664002 0.887224 0.724677
O O2 0.129357 0.881153 0.947838
O O3 0.923562 0.000000 0.852310
O O4 0.000000 0.916495 0.000000
O O5 0.638182 0.700084 0.282283
O O6 0.176175 0.668044 0.055478
O O7 0.250000 0.750000 0.000000
O O8 0.329278 0.735187 0.853107
O O9 0.500000 0.293960 0.500000
O O10 0.610073 0.215355 0.463736
O O11 0.929049 0.311905 0.683392
#
# Coordination Sequence:
#
# PCOD8081187 Si02
#       5
#     8   8   4   8   8
#     4  11  21  34  52  77 107 142 178 213 267 321
#     4  11  19  33  54  76 108 137 177 220 263 306
#     4  10  18  32  56  78 102 136 176 222 266 298
#     4  10  18  29  51  77 103 128 171 221 261 304
#     4  10  18  31  49  79 104 129 171 219 260 306
#
# _framework density 17.267631000000002
#
# number of rings (size 3 to 8) (size 9 to 14) (size 15 to 20)
#    0.000    1.556    5.556    1.333    0.000    0.000 
#    0.000    2.778    0.000    0.667    0.000   10.889 
#    0.000    0.000    0.000    0.000    0.000    0.000 
#
# Total GULP energy -223010.508899 kJ/mol
# GULP energy per Si atom -12389.472717 kJ/mol
# Density = 1.722833 g / cm^3
# Si number density = 17.267631 Si / 1000 Ang^3
#
#
#
# Elastic Constant Matrix: (Units=GPa)
#
#
# Indices 1 2 3 4 5 6 
#
# 1 103.5949 58.2134 31.3251 0.0029 24.9343 0.0001
# 2 58.2134 113.1166 29.1894 0.0011 10.5815 0.0037
# 3 31.3251 29.1894 93.1900 -0.0276 2.5187 0.0032
# 4 0.0029 0.0011 -0.0276 15.3717 -0.0030 3.3764
# 5 24.9343 10.5815 2.5187 -0.0030 43.9007 0.0018
# 6 0.0001 0.0037 0.0032 3.3764 0.0018 26.3216
#
#
#
# Elastic Compliance Matrix: (Units=1/GPa)
#
#
# Indices 1 2 3 4 5 6 
#
# 1 0.016222 -0.006856 -0.003106 -0.000010 -0.007383 0.000003
# 2 -0.006856 0.012722 -0.001705 -0.000002 0.000925 -0.000001
# 3 -0.003106 -0.001705 0.012269 0.000024 0.001471 -0.000004
# 4 -0.000010 -0.000002 0.000024 0.066941 0.000010 -0.008587
# 5 -0.007383 0.000925 0.001471 0.000010 0.026664 -0.000003
# 6 0.000003 -0.000001 -0.000004 -0.008587 -0.000003 0.039093
#
#
# Mechanical properties :
#
#
# Convention : Reuss Voigt Hill
#
# Bulk Modulus (GPa) = 55.93241 60.81748 58.37494
# Shear Modulus (GPa) = 24.60563 29.86371 27.23467
#
# Velocity S-wave (km/s) = 3.77896 4.16319 3.97572
# Velocity P-wave (km/s) = 7.17652 7.64242 7.41313
#
# Compressibility (1/GPa) = 0.01787872
#
# Stress axis : x y z
#
# Youngs Moduli (GPa) = 61.64554 78.60193 81.50536
#
# Poissons Ratio (x) = 0.53891 0.25314
# Poissons Ratio (y) = 0.42265 0.13899
# Poissons Ratio (z) = 0.19146 0.13404
#
# Static dielectric constant tensor:
#      x y z
#    x 4.075450 0.000020 0.195910 
#    y 0.000020 2.919930 -0.000010 
#    z 0.195910 -0.000010 3.442200 
# 
# 
# High freq. dielectric constant tensor:
#      x y z
#    x 1.698760 0.000000 0.001990 
#    y 0.000000 1.597720 0.000000 
#    z 0.001990 0.000000 1.678520 
# 
# From -- ./inp_files/157060.got.cif
#   From: 2010.06.25/outbox.cif.g09.slc.cpg/sg12_79_cif.got.tgz:157060.got - 2010.06.28 00:19:55.
