data_PCOD8081791
_publ_section_title
;
Structure prediction by ZEFSAII (Michael W. Deem and Ramdas Pophale) SiO2 
 PCOD8081791
Probable space group: C 2/M
;
_chemical_formula_sum "Si O2"
_cell_formula_units_Z 32
_cell_length_a 20.177287
_cell_length_b 8.731995
_cell_length_c 29.010095
_cell_angle_alpha 90.000000
_cell_angle_beta 159.761605
_cell_angle_gamma 90.000000
_cell_volume 1768.112485
_symmetry_space_group_name_H-M "C 2/M"
_symmetry_group_IT_number 12
_symmetry_cell_setting 'monoclinic'
loop_
_space_group_symop_operation_xyz
x,y,z
-x,y,-z
-x,-y,-z
x,-y,z
1/2+x,1/2+y,z
1/2-x,1/2+y,-z
1/2-x,1/2-y,-z
1/2+x,1/2-y,z
loop_
_atom_site_type_symbol
_atom_site_label
_atom_site_fract_x
_atom_site_fract_y
_atom_site_fract_z
Si Si1 0.691781 0.681650 0.647569
Si Si2 0.717571 0.321725 0.100038
Si Si3 0.917405 0.678349 0.138877
Si Si4 0.191406 0.680129 0.176093
O O1 0.500000 0.753029 0.500000
O O2 0.689718 0.500000 0.640956
O O3 0.698652 0.729017 0.705721
O O4 0.877283 0.748611 0.741770
O O5 0.663244 0.500000 0.066402
O O6 0.883169 0.289143 0.170733
O O7 0.791266 0.266088 0.198189
O O8 0.529749 0.227320 0.963399
O O9 0.915060 0.500000 0.126106
O O10 0.750000 0.750000 0.000000
O O11 0.202919 0.500000 0.175115
#
# Coordination Sequence:
#
# PCOD8081791 Si02
#       4
#     8   8   8   8
#     4   9  18  33  52  74 100 132 170 207 246 295
#     4  10  19  30  48  74 104 130 158 205 256 296
#     4  10  19  32  52  76 100 130 167 209 249 291
#     4  10  18  30  51  74  98 130 168 206 242 292
#
# _framework density 18.098396999999999
#
# number of rings (size 3 to 8) (size 9 to 14) (size 15 to 20)
#    0.000    2.250    2.500    3.000    0.000    1.000 
#    0.000    1.250    0.000    6.750    0.000    0.000 
#    0.000    0.000    0.000    0.000    0.000    0.000 
#
# Total GULP energy -198362.757674 kJ/mol
# GULP energy per Si atom -12397.672355 kJ/mol
# Density = 1.805720 g / cm^3
# Si number density = 18.098397 Si / 1000 Ang^3
#
#
#
# Elastic Constant Matrix: (Units=GPa)
#
#
# Indices 1 2 3 4 5 6 
#
# 1 158.5078 32.6170 83.8818 -0.2659 -5.4765 0.1090
# 2 32.6170 29.1090 12.6678 -0.2132 -1.7700 0.0829
# 3 83.8818 12.6678 130.2839 -0.3812 -5.5033 0.1703
# 4 -0.2659 -0.2132 -0.3812 12.9987 0.1327 -0.8128
# 5 -5.4765 -1.7700 -5.5033 0.1327 29.8884 -0.0256
# 6 0.1090 0.0829 0.1703 -0.8128 -0.0256 24.9858
#
#
#
# Elastic Compliance Matrix: (Units=1/GPa)
#
#
# Indices 1 2 3 4 5 6 
#
# 1 0.012046 -0.010556 -0.006715 -0.000126 0.000346 0.000025
# 2 -0.010556 0.045190 0.002454 0.000579 0.001191 -0.000101
# 3 -0.006715 0.002454 0.011807 0.000235 0.001088 -0.000051
# 4 -0.000126 0.000579 0.000235 0.077104 -0.000286 0.002505
# 5 0.000346 0.001191 0.001088 -0.000286 0.033793 0.000012
# 6 0.000025 -0.000101 -0.000051 0.002505 0.000012 0.040105
#
#
# Mechanical properties :
#
#
# Convention : Reuss Voigt Hill
#
# Bulk Modulus (GPa) = 25.37395 64.02597 44.69996
# Shear Modulus (GPa) = 19.02470 26.15686 22.59078
#
# Velocity S-wave (km/s) = 3.24571 3.80578 3.53685
# Velocity P-wave (km/s) = 5.30062 7.40036 6.43669
#
# Compressibility (1/GPa) = 0.03941050
#
# Stress axis : x y z
#
# Youngs Moduli (GPa) = 83.01228 22.12867 84.69393
#
# Poissons Ratio (x) = 0.23358 0.56875
# Poissons Ratio (y) = 0.87625 -0.20787
# Poissons Ratio (z) = 0.55746 -0.05431
#
# Static dielectric constant tensor:
#      x y z
#    x 3.994390 -0.000030 -0.014770 
#    y -0.000030 3.177070 -0.000150 
#    z -0.014770 -0.000150 3.313250 
# 
# 
# High freq. dielectric constant tensor:
#      x y z
#    x 1.721730 0.000000 -0.006850 
#    y 0.000000 1.683730 -0.000010 
#    z -0.006850 -0.000010 1.668730 
# 
# From -- ./inp_files/161790.got.cif
#   From: 2010.06.25/outbox.cif.g09.slc.cpg/sg12_81_cif.got.tgz:161790.got - 2010.06.28 00:19:55.
