data_PCOD8081476
_publ_section_title
;
Structure prediction by ZEFSAII (Michael W. Deem and Ramdas Pophale) SiO2 
 PCOD8081476
Probable space group: C 2/M
;
_chemical_formula_sum "Si O2"
_cell_formula_units_Z 52
_cell_length_a 5.173894
_cell_length_b 20.053502
_cell_length_c 26.611315
_cell_angle_alpha 90.000000
_cell_angle_beta 103.818675
_cell_angle_gamma 90.000000
_cell_volume 2681.134366
_symmetry_space_group_name_H-M "C 2/M"
_symmetry_group_IT_number 12
_symmetry_cell_setting 'monoclinic'
loop_
_space_group_symop_operation_xyz
x,y,z
-x,y,-z
-x,-y,-z
x,-y,z
1/2+x,1/2+y,z
1/2-x,1/2+y,-z
1/2-x,1/2-y,-z
1/2+x,1/2-y,z
loop_
_atom_site_type_symbol
_atom_site_label
_atom_site_fract_x
_atom_site_fract_y
_atom_site_fract_z
Si Si1 0.000000 0.295015 0.000000
Si Si2 0.138009 0.790641 0.680213
Si Si3 0.583165 0.206615 0.110264
Si Si4 0.716175 0.078093 0.472807
Si Si5 0.173216 0.573497 0.748264
Si Si6 0.695892 0.923645 0.356750
Si Si7 0.780238 0.142599 0.218017
O O1 0.942249 0.334216 0.944644
O O2 0.250000 0.250000 0.000000
O O3 0.360489 0.747954 0.661200
O O4 0.108448 0.866108 0.656284
O O5 0.230597 0.795860 0.743068
O O6 0.295041 0.233782 0.113348
O O7 0.686953 0.158303 0.157870
O O8 0.500000 0.111150 0.500000
O O9 0.636607 0.092412 0.411831
O O10 0.000000 0.110673 0.500000
O O11 0.730024 0.000000 0.484583
O O12 0.280474 0.500000 0.763944
O O13 0.411424 0.622909 0.771125
O O14 0.083310 0.581833 0.686002
O O15 0.915013 0.585108 0.771092
O O16 0.813931 0.000000 0.355937
#
# Coordination Sequence:
#
# PCOD8081476 Si02
#       7
#     4   8   8   8   8   8   8
#     4   8  16  28  44  68  99 132 167 212 258 304
#     4  11  22  36  53  79 112 142 173 214 266 318
#     4  10  18  30  48  73 104 135 170 211 258 315
#     4   9  18  32  53  80 104 129 171 224 268 307
#     4  10  21  35  52  77 105 134 175 220 262 309
#     4   9  20  38  59  81 108 143 181 221 266 323
#     4  11  20  33  52  76 104 141 175 210 262 322
#
# _framework density 19.394777000000001
#
# number of rings (size 3 to 8) (size 9 to 14) (size 15 to 20)
#    0.000    2.154    0.000    4.154    0.000    4.308 
#    0.000   10.000    0.000    2.769    0.000    3.231 
#    0.000    0.000    0.000    0.000    0.000    0.000 
#
# Total GULP energy -322136.718190 kJ/mol
# GULP energy per Si atom -12389.873777 kJ/mol
# Density = 1.935063 g / cm^3
# Si number density = 19.394777 Si / 1000 Ang^3
#
#
#
# Elastic Constant Matrix: (Units=GPa)
#
#
# Indices 1 2 3 4 5 6 
#
# 1 112.8271 23.2230 31.2290 0.0000 -2.3912 0.0000
# 2 23.2230 70.3922 28.0448 0.0000 -6.0279 0.0000
# 3 31.2290 28.0448 160.8014 0.0000 -9.8465 0.0000
# 4 0.0000 0.0000 0.0000 20.8276 0.0000 2.0335
# 5 -2.3912 -6.0279 -9.8465 0.0000 22.5911 0.0000
# 6 0.0000 0.0000 0.0000 2.0335 0.0000 17.0237
#
#
#
# Elastic Compliance Matrix: (Units=1/GPa)
#
#
# Indices 1 2 3 4 5 6 
#
# 1 0.009812 -0.002683 -0.001457 0.000000 -0.000312 0.000000
# 2 -0.002683 0.016200 -0.002113 0.000000 0.003118 0.000000
# 3 -0.001457 -0.002113 0.007014 0.000000 0.002339 0.000000
# 4 0.000000 0.000000 0.000000 0.048580 0.000000 -0.005803
# 5 -0.000312 0.003118 0.002339 0.000000 0.046083 0.000000
# 6 0.000000 0.000000 0.000000 -0.005803 0.000000 0.059435
#
#
# Mechanical properties :
#
#
# Convention : Reuss Voigt Hill
#
# Bulk Modulus (GPa) = 48.73569 56.55716 52.64642
# Shear Modulus (GPa) = 24.21653 29.52341 26.86997
#
# Velocity S-wave (km/s) = 3.53740 3.90582 3.72617
# Velocity P-wave (km/s) = 6.47048 7.04023 6.76136
#
# Compressibility (1/GPa) = 0.02051884
#
# Stress axis : x y z
#
# Youngs Moduli (GPa) = 101.91578 61.72696 142.58091
#
# Poissons Ratio (x) = 0.16564 0.20770
# Poissons Ratio (y) = 0.27349 0.30133
# Poissons Ratio (z) = 0.14846 0.13045
#
# Static dielectric constant tensor:
#      x y z
#    x 3.664970 0.000000 -0.087530 
#    y 0.000000 3.248140 0.000000 
#    z -0.087530 0.000000 3.921420 
# 
# 
# High freq. dielectric constant tensor:
#      x y z
#    x 1.768810 0.000000 -0.002800 
#    y 0.000000 1.704480 0.000000 
#    z -0.002800 0.000000 1.758470 
# 
# From -- ./inp_files/354900.got.cif
#   From: 2010.06.25/outbox.cif.g09.slc.cpg/sg12_178_cif.got.tgz:354900.got - 2010.06.28 00:19:55.
