data_PCOD8081381
_publ_section_title
;
Structure prediction by ZEFSAII (Michael W. Deem and Ramdas Pophale) SiO2 
 PCOD8081381
Probable space group: C 2/M
;
_chemical_formula_sum "Si O2"
_cell_formula_units_Z 64
_cell_length_a 30.655636
_cell_length_b 9.373457
_cell_length_c 12.406662
_cell_angle_alpha 90.000000
_cell_angle_beta 86.914911
_cell_angle_gamma 90.000000
_cell_volume 3559.878682
_symmetry_space_group_name_H-M "C 2/M"
_symmetry_group_IT_number 12
_symmetry_cell_setting 'monoclinic'
loop_
_space_group_symop_operation_xyz
x,y,z
-x,y,-z
-x,-y,-z
x,-y,z
1/2+x,1/2+y,z
1/2-x,1/2+y,-z
1/2-x,1/2-y,-z
1/2+x,1/2-y,z
loop_
_atom_site_type_symbol
_atom_site_label
_atom_site_fract_x
_atom_site_fract_y
_atom_site_fract_z
Si Si1 0.008796 0.330487 0.670999
Si Si2 0.707186 0.164164 0.036991
Si Si3 0.629927 0.165772 0.901421
Si Si4 0.773839 0.336665 0.727349
Si Si5 0.163666 0.329985 0.467198
Si Si6 0.467402 0.829324 0.096942
Si Si7 0.689406 0.834193 0.698496
Si Si8 0.566898 0.830164 0.468604
O O1 0.010104 0.500000 0.676034
O O2 0.016231 0.268369 0.789812
O O3 0.046403 0.275700 0.584323
O O4 0.962063 0.278808 0.629614
O O5 0.698916 0.175315 0.165816
O O6 0.714282 0.000000 0.999824
O O7 0.750000 0.250000 0.000000
O O8 0.664620 0.230411 0.982702
O O9 0.581397 0.232201 0.919648
O O10 0.646894 0.192690 0.777729
O O11 0.625888 0.000000 0.927431
O O12 0.761322 0.500000 0.704229
O O13 0.803466 0.271851 0.627921
O O14 0.729768 0.247900 0.745173
O O15 0.161819 0.500000 0.465831
O O16 0.179833 0.274191 0.580823
O O17 0.115535 0.267202 0.450033
O O18 0.466684 0.000000 0.099604
O O19 0.500000 0.772927 0.000000
O O20 0.701679 0.000000 0.693654
O O21 0.567840 0.000000 0.471097
#
# Coordination Sequence:
#
# PCOD8081381 Si02
#       8
#     8   8   8   8   8   8   8   8
#     4   8  13  21  34  52  75 107 144 177 210 254
#     4  10  19  32  48  65  89 119 152 190 225 264
#     4   9  17  28  43  62  83 116 157 186 218 269
#     4  10  20  31  44  65  91 116 147 191 231 261
#     4   9  17  27  40  61  87 117 150 182 223 269
#     4   9  16  24  35  55  84 114 143 177 219 267
#     4  10  18  30  48  64  86 121 155 183 218 270
#     4   8  13  22  36  53  76 108 145 179 210 256
#
# _framework density 17.978141000000001
#
# number of rings (size 3 to 8) (size 9 to 14) (size 15 to 20)
#    0.000    2.875    1.250    1.875    0.000    4.000 
#    0.000    5.000    0.000    0.000    0.000    0.000 
#    0.000    2.000    0.000   28.375    0.000   31.250 
#
# Total GULP energy -396643.414723 kJ/mol
# GULP energy per Si atom -12395.106710 kJ/mol
# Density = 1.793722 g / cm^3
# Si number density = 17.978141 Si / 1000 Ang^3
#
#
#
# Elastic Constant Matrix: (Units=GPa)
#
#
# Indices 1 2 3 4 5 6 
#
# 1 133.4629 18.4439 72.0996 0.0000 4.1082 0.0000
# 2 18.4439 15.8220 15.1417 0.0000 -1.1110 0.0000
# 3 72.0996 15.1417 130.3638 0.0000 8.1295 0.0000
# 4 0.0000 0.0000 0.0000 10.5086 0.0000 0.6859
# 5 4.1082 -1.1110 8.1295 0.0000 31.0021 0.0000
# 6 0.0000 0.0000 0.0000 0.6859 0.0000 12.5388
#
#
#
# Elastic Compliance Matrix: (Units=1/GPa)
#
#
# Indices 1 2 3 4 5 6 
#
# 1 0.011582 -0.008354 -0.005410 0.000000 -0.000416 0.000000
# 2 -0.008354 0.077840 -0.004741 0.000000 0.005140 0.000000
# 3 -0.005410 -0.004741 0.011365 0.000000 -0.002433 0.000000
# 4 0.000000 0.000000 0.000000 0.095501 0.000000 -0.005224
# 5 -0.000416 0.005140 -0.002433 0.000000 0.033133 0.000000
# 6 0.000000 0.000000 0.000000 -0.005224 0.000000 0.080038
#
#
# Mechanical properties :
#
#
# Convention : Reuss Voigt Hill
#
# Bulk Modulus (GPa) = 15.67948 54.55768 35.11858
# Shear Modulus (GPa) = 13.59698 22.40747 18.00223
#
# Velocity S-wave (km/s) = 2.75309 3.53423 3.16783
# Velocity P-wave (km/s) = 4.34124 6.86054 5.74079
#
# Compressibility (1/GPa) = 0.06377763
#
# Stress axis : x y z
#
# Youngs Moduli (GPa) = 86.33830 12.84691 87.98851
#
# Poissons Ratio (x) = 0.10732 0.47598
# Poissons Ratio (y) = 0.72126 0.41718
# Poissons Ratio (z) = 0.46705 0.06091
#
# Static dielectric constant tensor:
#      x y z
#    x 3.608260 0.000000 0.108860 
#    y 0.000000 2.624620 0.000000 
#    z 0.108860 0.000000 3.601330 
# 
# 
# High freq. dielectric constant tensor:
#      x y z
#    x 1.705330 0.000000 0.007310 
#    y 0.000000 1.612080 0.000000 
#    z 0.007310 0.000000 1.709460 
# 
# From -- ./inp_files/182047.got.cif
#   From: 2010.06.25/outbox.cif.g09.slc.cpg/sg12_92_cif.got.tgz:182047.got - 2010.06.28 00:19:55.
