data_PCOD8081457
_publ_section_title
;
Structure prediction by ZEFSAII (Michael W. Deem and Ramdas Pophale) SiO2 
 PCOD8081457
Probable space group: C 2/M
;
_chemical_formula_sum "Si O2"
_cell_formula_units_Z 56
_cell_length_a 24.949957
_cell_length_b 9.563060
_cell_length_c 25.197320
_cell_angle_alpha 90.000000
_cell_angle_beta 145.201214
_cell_angle_gamma 90.000000
_cell_volume 3431.041654
_symmetry_space_group_name_H-M "C 2/M"
_symmetry_group_IT_number 12
_symmetry_cell_setting 'monoclinic'
loop_
_space_group_symop_operation_xyz
x,y,z
-x,y,-z
-x,-y,-z
x,-y,z
1/2+x,1/2+y,z
1/2-x,1/2+y,-z
1/2-x,1/2-y,-z
1/2+x,1/2-y,z
loop_
_atom_site_type_symbol
_atom_site_label
_atom_site_fract_x
_atom_site_fract_y
_atom_site_fract_z
Si Si1 0.285977 0.161725 0.414786
Si Si2 0.603913 0.837311 0.600988
Si Si3 0.085562 0.165064 0.404829
Si Si4 0.616459 0.662992 0.713399
Si Si5 0.114768 0.161697 0.913364
Si Si6 0.260140 0.339874 0.086861
Si Si7 0.082178 0.163276 0.282828
O O1 0.324762 0.196957 0.388345
O O2 0.333943 0.257217 0.497531
O O3 0.175115 0.195948 0.324536
O O4 0.304801 0.000000 0.444801
O O5 0.500000 0.787435 0.500000
O O6 0.640048 0.750703 0.680416
O O7 0.603340 0.000000 0.615743
O O8 0.090533 0.224591 0.349012
O O9 0.985369 0.205166 0.347701
O O10 0.104890 0.000000 0.423422
O O11 0.619882 0.500000 0.701973
O O12 0.694330 0.702382 0.820224
O O13 0.162659 0.186734 0.895489
O O14 0.008697 0.222432 0.822267
O O15 0.117021 0.000000 0.931911
O O16 0.168162 0.246361 0.002682
O O17 0.227617 0.500000 0.060392
O O18 0.063282 0.000000 0.274800
#
# Coordination Sequence:
#
# PCOD8081457 Si02
#       7
#     8   8   8   8   8   8   8
#     4  10  20  33  48  67  95 131 162 192 233 277
#     4  10  20  33  47  67  96 126 160 202 236 265
#     4  10  18  30  48  71  97 125 156 192 231 280
#     4  10  19  31  50  71  95 126 157 191 235 283
#     4   9  16  29  49  71  95 122 152 188 232 284
#     4   9  17  30  47  71  98 121 149 190 238 281
#     4   9  17  31  50  70  96 128 158 189 232 284
#
# _framework density 16.321574999999999
#
# number of rings (size 3 to 8) (size 9 to 14) (size 15 to 20)
#    0.000    2.429    2.857    0.429    0.000    1.429 
#    0.000    1.429    0.000    0.857    0.000    6.000 
#    0.000    0.000    0.000    0.000    0.000    0.000 
#
# Total GULP energy -347220.927345 kJ/mol
# GULP energy per Si atom -12400.747405 kJ/mol
# Density = 1.628443 g / cm^3
# Si number density = 16.321575 Si / 1000 Ang^3
#
#
#
# Elastic Constant Matrix: (Units=GPa)
#
#
# Indices 1 2 3 4 5 6 
#
# 1 89.1701 31.1256 61.1272 0.0000 6.3979 0.0000
# 2 31.1256 44.7350 56.4736 0.0000 -0.4888 0.0000
# 3 61.1272 56.4736 147.5814 0.0000 3.8421 0.0000
# 4 0.0000 0.0000 0.0000 30.0560 0.0000 -4.9647
# 5 6.3979 -0.4888 3.8421 0.0000 24.4862 0.0000
# 6 0.0000 0.0000 0.0000 -4.9647 0.0000 17.2180
#
#
#
# Elastic Compliance Matrix: (Units=1/GPa)
#
#
# Indices 1 2 3 4 5 6 
#
# 1 0.016658 -0.005890 -0.004548 0.000000 -0.003756 0.000000
# 2 -0.005890 0.045622 -0.015144 0.000000 0.004826 0.000000
# 3 -0.004548 -0.015144 0.014491 0.000000 -0.001388 0.000000
# 4 0.000000 0.000000 0.000000 0.034935 0.000000 0.010073
# 5 -0.003756 0.004826 -0.001388 0.000000 0.042135 0.000000
# 6 0.000000 0.000000 0.000000 0.010073 0.000000 0.060983
#
#
# Mechanical properties :
#
#
# Convention : Reuss Voigt Hill
#
# Bulk Modulus (GPa) = 39.05113 64.32657 51.68885
# Shear Modulus (GPa) = 18.21340 23.20272 20.70806
#
# Velocity S-wave (km/s) = 3.34415 3.77450 3.56582
# Velocity P-wave (km/s) = 6.23611 7.64809 6.97791
#
# Compressibility (1/GPa) = 0.02560745
#
# Stress axis : x y z
#
# Youngs Moduli (GPa) = 60.03289 21.91903 69.00935
#
# Poissons Ratio (x) = 0.12910 0.31385
# Poissons Ratio (y) = 0.35358 1.04508
# Poissons Ratio (z) = 0.27302 0.33194
#
# Static dielectric constant tensor:
#      x y z
#    x 2.970100 0.000000 0.041830 
#    y 0.000000 2.942830 0.000000 
#    z 0.041830 0.000000 3.166800 
# 
# 
# High freq. dielectric constant tensor:
#      x y z
#    x 1.612760 0.000000 0.000980 
#    y 0.000000 1.612840 0.000000 
#    z 0.000980 0.000000 1.630300 
# 
# From -- ./inp_files/165024.got.cif
#   From: 2010.06.25/outbox.cif.g09.slc.cpg/sg12_83_cif.got.tgz:165024.got - 2010.06.28 00:19:55.
