data_PCOD8081468
_publ_section_title
;
Structure prediction by ZEFSAII (Michael W. Deem and Ramdas Pophale) SiO2 
 PCOD8081468
Probable space group: C 2/M
;
_chemical_formula_sum "Si O2"
_cell_formula_units_Z 60
_cell_length_a 23.595593
_cell_length_b 9.399750
_cell_length_c 17.519650
_cell_angle_alpha 90.000000
_cell_angle_beta 121.785880
_cell_angle_gamma 90.000000
_cell_volume 3302.958084
_symmetry_space_group_name_H-M "C 2/M"
_symmetry_group_IT_number 12
_symmetry_cell_setting 'monoclinic'
loop_
_space_group_symop_operation_xyz
x,y,z
-x,y,-z
-x,-y,-z
x,-y,z
1/2+x,1/2+y,z
1/2-x,1/2+y,-z
1/2-x,1/2-y,-z
1/2+x,1/2-y,z
loop_
_atom_site_type_symbol
_atom_site_label
_atom_site_fract_x
_atom_site_fract_y
_atom_site_fract_z
Si Si1 0.984488 0.658830 0.709184
Si Si2 0.171391 0.166622 0.751534
Si Si3 0.000000 0.253596 0.000000
Si Si4 0.708584 0.336854 0.212563
Si Si5 0.406530 0.839688 0.801944
Si Si6 0.126013 0.155216 0.004856
Si Si7 0.364181 0.839376 0.132979
Si Si8 0.479125 0.335514 0.402566
O O1 0.962407 0.500000 0.670734
O O2 0.059851 0.660139 0.789492
O O3 0.976074 0.757426 0.629246
O O4 0.940978 0.715853 0.748865
O O5 0.223765 0.245178 0.733232
O O6 0.176860 0.239407 0.838627
O O7 0.099093 0.192218 0.663952
O O8 0.188446 0.000000 0.770969
O O9 0.052678 0.159464 0.990470
O O10 0.958843 0.346077 0.909386
O O11 0.721652 0.500000 0.246710
O O12 0.654097 0.268194 0.229583
O O13 0.682520 0.327784 0.108123
O O14 0.379387 0.000000 0.772891
O O15 0.140823 0.279207 0.955708
O O16 0.131455 0.000000 0.969056
O O17 0.334874 0.000000 0.113591
O O18 0.500000 0.275927 0.500000
O O19 0.497236 0.500000 0.407883
#
# Coordination Sequence:
#
# PCOD8081468 Si02
#       8
#     8   8   4   8   8   8   8   8
#     4   9  18  32  50  79 110 136 169 212 262 309
#     4  10  20  36  56  76 100 134 168 207 259 317
#     4  10  18  30  48  72 102 140 182 228 262 294
#     4  10  22  36  49  71 102 141 181 218 255 300
#     4  10  19  32  51  75 105 141 181 220 258 305
#     4  10  20  32  46  68  99 137 182 223 261 300
#     4  10  19  32  50  73 101 135 173 220 264 304
#     4   9  19  36  59  86 108 128 160 206 263 323
#
# _framework density 18.165534000000001
#
# number of rings (size 3 to 8) (size 9 to 14) (size 15 to 20)
#    0.000    2.267    1.333    1.600    0.000    5.600 
#    0.000    0.000    0.000    0.800    0.000    0.000 
#    0.000    0.000    0.000    0.000    0.000    0.000 
#
# Total GULP energy -371948.311397 kJ/mol
# GULP energy per Si atom -12398.277047 kJ/mol
# Density = 1.812419 g / cm^3
# Si number density = 18.165534 Si / 1000 Ang^3
#
#
#
# Elastic Constant Matrix: (Units=GPa)
#
#
# Indices 1 2 3 4 5 6 
#
# 1 112.4344 60.8988 37.5813 0.0000 -15.9520 0.0000
# 2 60.8988 126.7683 38.4793 0.0000 -12.2162 0.0000
# 3 37.5813 38.4793 60.6217 0.0000 -21.5168 0.0000
# 4 0.0000 0.0000 0.0000 18.7144 0.0000 -6.9183
# 5 -15.9520 -12.2162 -21.5168 0.0000 22.9883 0.0000
# 6 0.0000 0.0000 0.0000 -6.9183 0.0000 31.8706
#
#
#
# Elastic Compliance Matrix: (Units=1/GPa)
#
#
# Indices 1 2 3 4 5 6 
#
# 1 0.013318 -0.004859 -0.004205 0.000000 0.002723 0.000000
# 2 -0.004859 0.011557 -0.005002 0.000000 -0.001912 0.000000
# 3 -0.004205 -0.005002 0.030397 0.000000 0.022875 0.000000
# 4 0.000000 0.000000 0.000000 0.058097 0.000000 0.012611
# 5 0.002723 -0.001912 0.022875 0.000000 0.065784 0.000000
# 6 0.000000 0.000000 0.000000 0.012611 0.000000 0.034115
#
#
# Mechanical properties :
#
#
# Convention : Reuss Voigt Hill
#
# Bulk Modulus (GPa) = 36.84781 63.74923 50.29852
# Shear Modulus (GPa) = 19.96434 25.57233 22.76833
#
# Velocity S-wave (km/s) = 3.31875 3.75605 3.54415
# Velocity P-wave (km/s) = 5.91726 7.34713 6.67062
#
# Compressibility (1/GPa) = 0.02713866
#
# Stress axis : x y z
#
# Youngs Moduli (GPa) = 75.08709 86.53033 32.89800
#
# Poissons Ratio (x) = 0.42044 0.13835
# Poissons Ratio (y) = 0.36484 0.16456
# Poissons Ratio (z) = 0.31578 0.43283
#
# Static dielectric constant tensor:
#      x y z
#    x 3.374420 0.000000 -0.101720 
#    y 0.000000 3.480390 0.000000 
#    z -0.101720 0.000000 3.110530 
# 
# 
# High freq. dielectric constant tensor:
#      x y z
#    x 1.707010 0.000000 -0.007710 
#    y 0.000000 1.712510 0.000000 
#    z -0.007710 0.000000 1.664660 
# 
# From -- ./inp_files/288370.got.cif
#   From: 2010.06.25/outbox.cif.g09.slc.cpg/sg12_145_cif.got.tgz:288370.got - 2010.06.28 00:19:55.
