data_PCOD8081691
_publ_section_title
;
Structure prediction by ZEFSAII (Michael W. Deem and Ramdas Pophale) SiO2 
 PCOD8081691
Probable space group: C 2/M
;
_chemical_formula_sum "Si O2"
_cell_formula_units_Z 64
_cell_length_a 29.224467
_cell_length_b 9.511515
_cell_length_c 12.260026
_cell_angle_alpha 90.000000
_cell_angle_beta 85.010403
_cell_angle_gamma 90.000000
_cell_volume 3394.992390
_symmetry_space_group_name_H-M "C 2/M"
_symmetry_group_IT_number 12
_symmetry_cell_setting 'monoclinic'
loop_
_space_group_symop_operation_xyz
x,y,z
-x,y,-z
-x,-y,-z
x,-y,z
1/2+x,1/2+y,z
1/2-x,1/2+y,-z
1/2-x,1/2-y,-z
1/2+x,1/2-y,z
loop_
_atom_site_type_symbol
_atom_site_label
_atom_site_fract_x
_atom_site_fract_y
_atom_site_fract_z
Si Si1 0.316558 0.843287 0.470671
Si Si2 0.447990 0.152883 0.525934
Si Si3 0.950555 0.664635 0.969693
Si Si4 0.601560 0.666629 0.622679
Si Si5 0.804412 0.660323 0.724000
Si Si6 0.618727 0.163115 0.824462
Si Si7 0.405838 0.833843 0.759609
Si Si8 0.278421 0.158068 0.249217
O O1 0.353243 0.720812 0.447513
O O2 0.296821 0.825766 0.595475
O O3 0.279732 0.825751 0.381092
O O4 0.338467 0.000000 0.454295
O O5 0.500000 0.117212 0.500000
O O6 0.439478 0.277063 0.442419
O O7 0.435107 0.209852 0.648189
O O8 0.422285 0.000000 0.512156
O O9 0.958624 0.500000 0.952911
O O10 0.908254 0.695769 0.059394
O O11 0.932825 0.730830 0.858662
O O12 0.000000 0.729233 0.000000
O O13 0.601601 0.500000 0.632919
O O14 0.595199 0.736223 0.741610
O O15 0.799702 0.500000 0.762762
O O16 0.853440 0.722499 0.754750
O O17 0.762547 0.745021 0.788426
O O18 0.673095 0.200500 0.818001
O O19 0.612909 0.000000 0.791181
O O20 0.403026 0.000000 0.774230
O O21 0.265926 0.000000 0.218730
#
# Coordination Sequence:
#
# PCOD8081691 Si02
#       8
#     8   8   8   8   8   8   8   8
#     4   9  17  32  50  72 106 146 181 221 268 314
#     4  10  20  34  56  80 109 145 179 219 273 334
#     4   9  18  33  59  88 106 129 179 238 278 317
#     4  11  21  32  51  79 112 146 179 219 267 328
#     4  10  18  30  50  74 109 145 178 221 269 324
#     4   9  19  36  56  79 110 141 180 233 276 313
#     4   9  18  33  52  82 113 137 175 228 278 318
#     4   9  18  30  47  73 107 144 184 221 263 321
#
# _framework density 18.851292000000001
#
# number of rings (size 3 to 8) (size 9 to 14) (size 15 to 20)
#    0.000    2.500    1.250    2.250    1.750    2.750 
#    0.000    0.625    0.000    1.875    0.000    0.000 
#    0.000    0.000    0.000    0.000    0.000    0.000 
#
# Total GULP energy -396428.822104 kJ/mol
# GULP energy per Si atom -12388.400691 kJ/mol
# Density = 1.880839 g / cm^3
# Si number density = 18.851292 Si / 1000 Ang^3
#
#
#
# Elastic Constant Matrix: (Units=GPa)
#
#
# Indices 1 2 3 4 5 6 
#
# 1 133.9014 34.5102 60.9069 0.0000 2.6565 0.0000
# 2 34.5102 74.7037 31.4979 0.0000 1.5511 0.0000
# 3 60.9069 31.4979 67.4697 0.0000 -0.4022 0.0000
# 4 0.0000 0.0000 0.0000 8.6265 0.0000 0.8254
# 5 2.6565 1.5511 -0.4022 0.0000 18.3726 0.0000
# 6 0.0000 0.0000 0.0000 0.8254 0.0000 24.7527
#
#
#
# Elastic Compliance Matrix: (Units=1/GPa)
#
#
# Indices 1 2 3 4 5 6 
#
# 1 0.012843 -0.001243 -0.011026 0.000000 -0.001993 0.000000
# 2 -0.001243 0.016833 -0.006745 0.000000 -0.001389 0.000000
# 3 -0.011026 -0.006745 0.027940 0.000000 0.002775 0.000000
# 4 0.000000 0.000000 0.000000 0.116293 0.000000 -0.003878
# 5 -0.001993 -0.001389 0.002775 0.000000 0.054895 0.000000
# 6 0.000000 0.000000 0.000000 -0.003878 0.000000 0.040529
#
#
# Mechanical properties :
#
#
# Convention : Reuss Voigt Hill
#
# Bulk Modulus (GPa) = 51.04714 58.87831 54.96272
# Shear Modulus (GPa) = 15.92915 20.29434 18.11174
#
# Velocity S-wave (km/s) = 2.91002 3.28464 3.10299
# Velocity P-wave (km/s) = 6.19908 6.75914 6.48516
#
# Compressibility (1/GPa) = 0.01958974
#
# Stress axis : x y z
#
# Youngs Moduli (GPa) = 77.86227 59.40698 35.79113
#
# Poissons Ratio (x) = 0.07383 0.39462
# Poissons Ratio (y) = 0.09677 0.24140
# Poissons Ratio (z) = 0.85848 0.40069
#
# Static dielectric constant tensor:
#      x y z
#    x 3.913840 0.000000 0.210810 
#    y 0.000000 3.206620 0.000000 
#    z 0.210810 0.000000 3.454360 
# 
# 
# High freq. dielectric constant tensor:
#      x y z
#    x 1.735700 0.000000 -0.001040 
#    y 0.000000 1.691910 0.000000 
#    z -0.001040 0.000000 1.715880 
# 
# From -- ./inp_files/187578.got.cif
#   From: 2010.06.25/outbox.cif.g09.slc.cpg/sg12_94_cif.got.tgz:187578.got - 2010.06.28 00:19:55.
