data_PCOD8081290
_publ_section_title
;
Structure prediction by ZEFSAII (Michael W. Deem and Ramdas Pophale) SiO2 
 PCOD8081290
Probable space group: C 2/M
;
_chemical_formula_sum "Si O2"
_cell_formula_units_Z 48
_cell_length_a 17.133630
_cell_length_b 25.853675
_cell_length_c 13.045707
_cell_angle_alpha 90.000000
_cell_angle_beta 151.997925
_cell_angle_gamma 90.000000
_cell_volume 2713.177205
_symmetry_space_group_name_H-M "C 2/M"
_symmetry_group_IT_number 12
_symmetry_cell_setting 'monoclinic'
loop_
_space_group_symop_operation_xyz
x,y,z
-x,y,-z
-x,-y,-z
x,-y,z
1/2+x,1/2+y,z
1/2-x,1/2+y,-z
1/2-x,1/2-y,-z
1/2+x,1/2-y,z
loop_
_atom_site_type_symbol
_atom_site_label
_atom_site_fract_x
_atom_site_fract_y
_atom_site_fract_z
Si Si1 0.095979 0.677342 0.703323
Si Si2 0.398008 0.791620 0.673622
Si Si3 0.734845 0.219873 0.162825
Si Si4 0.789000 0.141089 0.404813
Si Si5 0.834680 0.866608 0.128072
Si Si6 0.802117 0.057960 0.262197
O O1 0.181688 0.724633 0.743226
O O2 0.000000 0.647778 0.500000
O O3 0.972743 0.697911 0.648755
O O4 0.234272 0.637122 0.905309
O O5 0.250000 0.750000 0.500000
O O6 0.329872 0.846760 0.637309
O O7 0.537132 0.772758 0.916358
O O8 0.786082 0.191439 0.327526
O O9 0.806413 0.187533 0.151376
O O10 0.725434 0.090968 0.267553
O O11 0.969106 0.128306 0.660961
O O12 0.757504 0.914243 0.103449
O O13 0.000000 0.058279 0.500000
O O14 0.728896 0.000000 0.179646
#
# Coordination Sequence:
#
# PCOD8081290 Si02
#       6
#     8   8   8   8   8   8
#     4  11  21  32  45  61  90 131 169 192 220 274
#     4  11  20  29  44  67  95 126 162 196 231 272
#     4  10  18  30  46  64  92 126 157 187 232 285
#     4  10  18  30  49  73  98 120 150 199 245 280
#     4   9  17  30  48  67  93 123 153 187 229 280
#     4   8  15  29  52  78  97 117 148 188 240 298
#
# _framework density 17.691435999999999
#
# number of rings (size 3 to 8) (size 9 to 14) (size 15 to 20)
#    0.000    2.167    0.000    8.000    0.000    0.000 
#    0.000    2.500    0.000   18.500    0.000    0.000 
#    0.000    5.333    0.000    0.000    0.000    0.000 
#
# Total GULP energy -297463.595472 kJ/mol
# GULP energy per Si atom -12394.316478 kJ/mol
# Density = 1.765117 g / cm^3
# Si number density = 17.691436 Si / 1000 Ang^3
#
#
#
# Elastic Constant Matrix: (Units=GPa)
#
#
# Indices 1 2 3 4 5 6 
#
# 1 61.1514 31.0488 40.8566 0.0000 -4.6430 0.0000
# 2 31.0488 96.1692 30.5779 0.0000 -9.6893 0.0000
# 3 40.8566 30.5779 112.1964 0.0000 -17.4082 0.0000
# 4 0.0000 0.0000 0.0000 14.9338 0.0000 0.7944
# 5 -4.6430 -9.6893 -17.4082 0.0000 31.5965 0.0000
# 6 0.0000 0.0000 0.0000 0.7944 0.0000 16.7899
#
#
#
# Elastic Compliance Matrix: (Units=1/GPa)
#
#
# Indices 1 2 3 4 5 6 
#
# 1 0.024107 -0.005599 -0.007621 0.000000 -0.002373 0.000000
# 2 -0.005599 0.012796 -0.001058 0.000000 0.002518 0.000000
# 3 -0.007621 -0.001058 0.012851 0.000000 0.005636 0.000000
# 4 0.000000 0.000000 0.000000 0.067131 0.000000 -0.003176
# 5 -0.002373 0.002518 0.005636 0.000000 0.035178 0.000000
# 6 0.000000 0.000000 0.000000 -0.003176 0.000000 0.059710
#
#
# Mechanical properties :
#
#
# Convention : Reuss Voigt Hill
#
# Bulk Modulus (GPa) = 47.17300 52.72041 49.94671
# Shear Modulus (GPa) = 20.21056 23.79960 22.00508
#
# Velocity S-wave (km/s) = 3.38360 3.67176 3.53062
# Velocity P-wave (km/s) = 6.47975 6.91668 6.70178
#
# Compressibility (1/GPa) = 0.02119857
#
# Stress axis : x y z
#
# Youngs Moduli (GPa) = 41.48119 78.14869 77.81562
#
# Poissons Ratio (x) = 0.43757 0.59303
# Poissons Ratio (y) = 0.23226 0.08231
# Poissons Ratio (z) = 0.31613 0.08266
#
# Static dielectric constant tensor:
#      x y z
#    x 3.241360 0.000000 -0.087160 
#    y 0.000000 3.175760 0.000000 
#    z -0.087160 0.000000 3.612740 
# 
# 
# High freq. dielectric constant tensor:
#      x y z
#    x 1.668610 0.000000 0.002680 
#    y 0.000000 1.640690 0.000000 
#    z 0.002680 0.000000 1.693460 
# 
# From -- ./inp_files/64692.got.cif
#   From: 2010.06.25/outbox.cif.g09.slc.cpg/sg12_33_cif.got.tgz:64692.got - 2010.06.28 00:19:55.
