data_PCOD8081015
_publ_section_title
;
Structure prediction by ZEFSAII (Michael W. Deem and Ramdas Pophale) SiO2 
 PCOD8081015
Probable space group: C 2/M
;
_chemical_formula_sum "Si O2"
_cell_formula_units_Z 48
_cell_length_a 28.284670
_cell_length_b 8.671336
_cell_length_c 11.280445
_cell_angle_alpha 90.000000
_cell_angle_beta 102.446575
_cell_angle_gamma 90.000000
_cell_volume 2701.683402
_symmetry_space_group_name_H-M "C 2/M"
_symmetry_group_IT_number 12
_symmetry_cell_setting 'monoclinic'
loop_
_space_group_symop_operation_xyz
x,y,z
-x,y,-z
-x,-y,-z
x,-y,z
1/2+x,1/2+y,z
1/2-x,1/2+y,-z
1/2-x,1/2-y,-z
1/2+x,1/2-y,z
loop_
_atom_site_type_symbol
_atom_site_label
_atom_site_fract_x
_atom_site_fract_y
_atom_site_fract_z
Si Si1 0.154903 0.681095 0.271980
Si Si2 0.860226 0.819158 0.479778
Si Si3 0.044737 0.179654 0.608488
Si Si4 0.023853 0.319172 0.845531
Si Si5 0.931616 0.181147 0.904481
Si Si6 0.742978 0.678467 0.621950
O O1 0.145812 0.500000 0.248914
O O2 0.141291 0.724517 0.399353
O O3 0.122551 0.774689 0.161818
O O4 0.211209 0.730682 0.271968
O O5 0.906618 0.766859 0.430941
O O6 0.812573 0.783969 0.370143
O O7 0.863088 0.000000 0.513798
O O8 0.040852 0.281047 0.723335
O O9 0.000000 0.217842 0.500000
O O10 0.046039 0.000000 0.643732
O O11 0.026619 0.500000 0.870285
O O12 0.968968 0.262516 0.834857
O O13 0.059539 0.234773 0.956541
O O14 0.939574 0.000000 0.899143
O O15 0.750034 0.500000 0.607089
O O16 0.750000 0.750000 0.500000
#
# Coordination Sequence:
#
# PCOD8081015 Si02
#       6
#     8   8   8   8   8   8
#     4  10  18  29  48  75 103 128 163 208 250 287
#     4   9  17  30  48  71 102 138 170 199 240 293
#     4  10  20  33  50  73 102 135 167 197 234 287
#     4  11  22  36  53  74 100 127 160 201 245 288
#     4  11  21  35  54  73  97 128 163 200 242 294
#     4   8  15  27  44  68  98 131 164 202 244 286
#
# _framework density 17.766701000000001
#
# number of rings (size 3 to 8) (size 9 to 14) (size 15 to 20)
#    0.000    2.167    0.000    5.500    0.000    3.000 
#    0.000    0.000    0.000    1.000    0.000    0.000 
#    0.000    0.000    0.000    0.000    0.000    0.000 
#
# Total GULP energy -297424.685663 kJ/mol
# GULP energy per Si atom -12392.695236 kJ/mol
# Density = 1.772626 g / cm^3
# Si number density = 17.766701 Si / 1000 Ang^3
#
#
#
# Elastic Constant Matrix: (Units=GPa)
#
#
# Indices 1 2 3 4 5 6 
#
# 1 131.2998 18.9748 50.6768 0.0000 25.0255 0.0000
# 2 18.9748 39.8185 16.3051 0.0000 4.7138 0.0000
# 3 50.6768 16.3051 73.8158 0.0000 15.8178 0.0000
# 4 0.0000 0.0000 0.0000 26.8452 0.0000 0.7140
# 5 25.0255 4.7138 15.8178 0.0000 32.9798 0.0000
# 6 0.0000 0.0000 0.0000 0.7140 0.0000 19.7904
#
#
#
# Elastic Compliance Matrix: (Units=1/GPa)
#
#
# Indices 1 2 3 4 5 6 
#
# 1 0.011326 -0.002254 -0.006136 0.000000 -0.005329 0.000000
# 2 -0.002254 0.028098 -0.004642 0.000000 -0.000079 0.000000
# 3 -0.006136 -0.004642 0.019666 0.000000 -0.004113 0.000000
# 4 0.000000 0.000000 0.000000 0.037286 0.000000 -0.001345
# 5 -0.005329 -0.000079 -0.004113 0.000000 0.036349 0.000000
# 6 0.000000 0.000000 0.000000 -0.001345 0.000000 0.050578
#
#
# Mechanical properties :
#
#
# Convention : Reuss Voigt Hill
#
# Bulk Modulus (GPa) = 30.27829 46.31638 38.29733
# Shear Modulus (GPa) = 22.68842 26.52158 24.60500
#
# Velocity S-wave (km/s) = 3.57742 3.86783 3.72545
# Velocity P-wave (km/s) = 5.84320 6.78768 6.33307
#
# Compressibility (1/GPa) = 0.03302696
#
# Stress axis : x y z
#
# Youngs Moduli (GPa) = 88.29462 35.58935 50.84825
#
# Poissons Ratio (x) = 0.08021 0.31199
# Poissons Ratio (y) = 0.19899 0.23605
# Poissons Ratio (z) = 0.54175 0.16522
#
# Static dielectric constant tensor:
#      x y z
#    x 3.830490 0.000000 0.431120 
#    y 0.000000 2.505530 0.000000 
#    z 0.431120 0.000000 3.136370 
# 
# 
# High freq. dielectric constant tensor:
#      x y z
#    x 1.691470 0.000000 0.030180 
#    y 0.000000 1.693930 0.000000 
#    z 0.030180 0.000000 1.662790 
# 
# From -- ./inp_files/179220.got.cif
#   From: 2010.06.25/outbox.cif.g09.slc.cpg/sg12_90_cif.got.tgz:179220.got - 2010.06.28 00:19:55.
