data_PCOD8081141
_publ_section_title
;
Structure prediction by ZEFSAII (Michael W. Deem and Ramdas Pophale) SiO2 
 PCOD8081141
Probable space group: C 2/M
;
_chemical_formula_sum "Si O2"
_cell_formula_units_Z 56
_cell_length_a 27.280314
_cell_length_b 9.240455
_cell_length_c 13.486674
_cell_angle_alpha 90.000000
_cell_angle_beta 115.476214
_cell_angle_gamma 90.000000
_cell_volume 3069.175904
_symmetry_space_group_name_H-M "C 2/M"
_symmetry_group_IT_number 12
_symmetry_cell_setting 'monoclinic'
loop_
_space_group_symop_operation_xyz
x,y,z
-x,y,-z
-x,-y,-z
x,-y,z
1/2+x,1/2+y,z
1/2-x,1/2+y,-z
1/2-x,1/2-y,-z
1/2+x,1/2-y,z
loop_
_atom_site_type_symbol
_atom_site_label
_atom_site_fract_x
_atom_site_fract_y
_atom_site_fract_z
Si Si1 0.838465 0.329500 0.405105
Si Si2 0.550336 0.671917 0.813966
Si Si3 0.163118 0.165384 0.394477
Si Si4 0.946851 0.671083 0.391789
Si Si5 0.942541 0.164998 0.818643
Si Si6 0.878099 0.171877 0.947093
Si Si7 0.722937 0.329068 0.253014
O O1 0.841858 0.500000 0.422384
O O2 0.828654 0.262748 0.503177
O O3 0.893572 0.272159 0.403277
O O4 0.785999 0.285564 0.291507
O O5 0.546430 0.500000 0.792339
O O6 0.553795 0.750736 0.713181
O O7 0.498309 0.735439 0.827968
O O8 0.603194 0.714760 0.926017
O O9 0.100970 0.179095 0.306663
O O10 0.202104 0.227479 0.341813
O O11 0.177372 0.000000 0.433636
O O12 0.945070 0.500000 0.372645
O O13 0.000000 0.716582 0.500000
O O14 0.919832 0.236733 0.900622
O O15 0.956403 0.000000 0.854904
O O16 0.816813 0.230290 0.869548
O O17 0.878960 0.000000 0.935586
O O18 0.716203 0.500000 0.250109
#
# Coordination Sequence:
#
# PCOD8081141 Si02
#       7
#     8   8   8   8   8   8   8
#     4  10  19  31  47  64  86 122 160 186 216 264
#     4  10  18  29  50  74  91 114 150 188 221 257
#     4   9  16  27  46  71  96 117 140 181 230 267
#     4  10  22  37  48  61  88 125 157 185 221 264
#     4   8  14  25  44  72  99 118 139 174 225 277
#     4   8  14  26  46  72  97 116 140 179 225 272
#     4   8  15  28  46  69  94 118 145 179 223 273
#
# _framework density 18.245940000000001
#
# number of rings (size 3 to 8) (size 9 to 14) (size 15 to 20)
#    0.000    3.000    0.000    3.429    0.000    2.571 
#    0.000    0.714    0.000    6.000    0.000    0.000 
#    0.000    0.000    0.000    0.000    0.000    0.000 
#
# Total GULP energy -346942.537571 kJ/mol
# GULP energy per Si atom -12390.804913 kJ/mol
# Density = 1.820441 g / cm^3
# Si number density = 18.245940 Si / 1000 Ang^3
#
#
#
# Elastic Constant Matrix: (Units=GPa)
#
#
# Indices 1 2 3 4 5 6 
#
# 1 136.4835 20.1621 71.4969 0.0000 22.7972 0.0000
# 2 20.1621 14.9437 26.3938 0.0000 2.4303 0.0000
# 3 71.4969 26.3938 138.4528 0.0000 13.1703 0.0000
# 4 0.0000 0.0000 0.0000 18.9914 0.0000 -1.6358
# 5 22.7972 2.4303 13.1703 0.0000 18.7432 0.0000
# 6 0.0000 0.0000 0.0000 -1.6358 0.0000 8.1855
#
#
#
# Elastic Compliance Matrix: (Units=1/GPa)
#
#
# Indices 1 2 3 4 5 6 
#
# 1 0.012418 -0.008276 -0.003751 0.000000 -0.011395 0.000000
# 2 -0.008276 0.106406 -0.016777 0.000000 0.008058 0.000000
# 3 -0.003751 -0.016777 0.012556 0.000000 -0.002085 0.000000
# 4 0.000000 0.000000 0.000000 0.053578 0.000000 0.010707
# 5 -0.011395 0.008058 -0.002085 0.000000 0.067633 0.000000
# 6 0.000000 0.000000 0.000000 0.010707 0.000000 0.124307
#
#
# Mechanical properties :
#
#
# Convention : Reuss Voigt Hill
#
# Bulk Modulus (GPa) = 13.55534 58.44286 35.99910
# Shear Modulus (GPa) = 10.89093 20.63914 15.76504
#
# Velocity S-wave (km/s) = 2.44580 3.36693 2.94263
# Velocity P-wave (km/s) = 3.92699 6.87132 5.59626
#
# Compressibility (1/GPa) = 0.07377165
#
# Stress axis : x y z
#
# Youngs Moduli (GPa) = 80.53050 9.39793 79.64099
#
# Poissons Ratio (x) = 0.07778 0.29872
# Poissons Ratio (y) = 0.66648 1.33617
# Poissons Ratio (z) = 0.30206 0.15767
#
# Static dielectric constant tensor:
#      x y z
#    x 3.815930 0.000000 0.328710 
#    y 0.000000 2.848850 0.000000 
#    z 0.328710 0.000000 3.437930 
# 
# 
# High freq. dielectric constant tensor:
#      x y z
#    x 1.713040 0.000000 0.019670 
#    y 0.000000 1.649550 0.000000 
#    z 0.019670 0.000000 1.707770 
# 
# From -- ./inp_files/173999.got.cif
#   From: 2010.06.25/outbox.cif.g09.slc.cpg/sg12_87_cif.got.tgz:173999.got - 2010.06.28 00:19:55.
