data_PCOD8081990
_publ_section_title
;
Structure prediction by ZEFSAII (Michael W. Deem and Ramdas Pophale) SiO2 
 PCOD8081990
Probable space group: C 2/M
;
_chemical_formula_sum "Si O2"
_cell_formula_units_Z 64
_cell_length_a 25.682317
_cell_length_b 8.945142
_cell_length_c 14.781133
_cell_angle_alpha 90.000000
_cell_angle_beta 81.618432
_cell_angle_gamma 90.000000
_cell_volume 3359.430319
_symmetry_space_group_name_H-M "C 2/M"
_symmetry_group_IT_number 12
_symmetry_cell_setting 'monoclinic'
loop_
_space_group_symop_operation_xyz
x,y,z
-x,y,-z
-x,-y,-z
x,-y,z
1/2+x,1/2+y,z
1/2-x,1/2+y,-z
1/2-x,1/2-y,-z
1/2+x,1/2-y,z
loop_
_atom_site_type_symbol
_atom_site_label
_atom_site_fract_x
_atom_site_fract_y
_atom_site_fract_z
Si Si1 0.034229 0.670998 0.402408
Si Si2 0.401597 0.176676 0.926419
Si Si3 0.359659 0.331392 0.637430
Si Si4 0.315805 0.667779 0.842983
Si Si5 0.500672 0.823806 0.214284
Si Si6 0.598463 0.822474 0.869718
Si Si7 0.211435 0.321935 0.773653
Si Si8 0.260781 0.823696 0.592193
O O1 0.053914 0.500000 0.386793
O O2 0.082227 0.782256 0.403331
O O3 0.000000 0.690883 0.500000
O O4 0.001909 0.717420 0.320310
O O5 0.343678 0.232287 0.911857
O O6 0.447965 0.241520 0.850520
O O7 0.399850 0.000000 0.921577
O O8 0.412823 0.231864 0.025466
O O9 0.349260 0.500000 0.604520
O O10 0.353167 0.325061 0.746355
O O11 0.320514 0.214825 0.601541
O O12 0.311724 0.500000 0.881748
O O13 0.257268 0.727394 0.832762
O O14 0.447292 0.756518 0.183733
O O15 0.500027 0.000000 0.199351
O O16 0.655477 0.763718 0.823728
O O17 0.599133 0.000000 0.864896
O O18 0.214373 0.500000 0.758650
O O19 0.220583 0.244756 0.675088
O O20 0.250000 0.750000 0.500000
O O21 0.252941 0.000000 0.589372
#
# Coordination Sequence:
#
# PCOD8081990 Si02
#       8
#     8   8   8   8   8   8   8   8
#     4  10  20  33  52  82 113 143 184 232 285 338
#     4  10  18  30  54  81 102 137 190 233 276 332
#     4  10  20  36  56  78 108 145 184 226 278 332
#     4   9  18  32  51  74 104 141 178 224 279 336
#     4   9  17  31  51  77 109 141 181 232 278 325
#     4   9  18  32  52  78 109 145 185 231 279 332
#     4   9  19  36  54  77 111 147 184 225 277 333
#     4  11  22  37  59  84 110 142 184 228 276 332
#
# _framework density 19.050850000000001
#
# number of rings (size 3 to 8) (size 9 to 14) (size 15 to 20)
#    0.000    2.375    1.250    2.625    0.000    5.250 
#    0.000    3.125    0.000    3.750    0.000    0.000 
#    0.000    0.000    0.000    0.000    0.000    0.000 
#
# Total GULP energy -396745.277429 kJ/mol
# GULP energy per Si atom -12398.289920 kJ/mol
# Density = 1.900749 g / cm^3
# Si number density = 19.050850 Si / 1000 Ang^3
#
#
#
# Elastic Constant Matrix: (Units=GPa)
#
#
# Indices 1 2 3 4 5 6 
#
# 1 132.1282 24.4547 71.9690 0.0000 -1.4584 0.0000
# 2 24.4547 48.5377 29.4764 0.0000 0.3583 0.0000
# 3 71.9690 29.4764 132.3672 0.0000 10.2294 0.0000
# 4 0.0000 0.0000 0.0000 18.9024 0.0000 3.2036
# 5 -1.4584 0.3583 10.2294 0.0000 26.9201 0.0000
# 6 0.0000 0.0000 0.0000 3.2036 0.0000 27.3867
#
#
#
# Elastic Compliance Matrix: (Units=1/GPa)
#
#
# Indices 1 2 3 4 5 6 
#
# 1 0.011159 -0.002111 -0.005817 0.000000 0.002843 0.000000
# 2 -0.002111 0.024304 -0.004359 0.000000 0.001218 0.000000
# 3 -0.005817 -0.004359 0.012062 0.000000 -0.004841 0.000000
# 4 0.000000 0.000000 0.000000 0.053973 0.000000 -0.006314
# 5 0.002843 0.001218 -0.004841 0.000000 0.039124 0.000000
# 6 0.000000 0.000000 0.000000 -0.006314 0.000000 0.037253
#
#
# Mechanical properties :
#
#
# Convention : Reuss Voigt Hill
#
# Bulk Modulus (GPa) = 43.56834 62.75924 53.16379
# Shear Modulus (GPa) = 23.79837 27.11736 25.45786
#
# Velocity S-wave (km/s) = 3.53824 3.77692 3.65952
# Velocity P-wave (km/s) = 6.29375 7.21351 6.76927
#
# Compressibility (1/GPa) = 0.02295245
#
# Stress axis : x y z
#
# Youngs Moduli (GPa) = 89.61541 41.14558 82.90421
#
# Poissons Ratio (x) = 0.08684 0.48224
# Poissons Ratio (y) = 0.18914 0.36136
# Poissons Ratio (z) = 0.52128 0.17934
#
# Static dielectric constant tensor:
#      x y z
#    x 3.739160 0.000000 0.138690 
#    y 0.000000 3.237720 0.000000 
#    z 0.138690 0.000000 3.580240 
# 
# 
# High freq. dielectric constant tensor:
#      x y z
#    x 1.747450 0.000000 0.005240 
#    y 0.000000 1.707590 0.000000 
#    z 0.005240 0.000000 1.739940 
# 
# From -- ./inp_files/243921.got.cif
#   From: 2010.06.25/outbox.cif.g09.slc.cpg/sg12_122_cif.got.tgz:243921.got - 2010.06.28 00:19:55.
