data_PCOD8081499
_publ_section_title
;
Structure prediction by ZEFSAII (Michael W. Deem and Ramdas Pophale) SiO2 
 PCOD8081499
Probable space group: C 2/M
;
_chemical_formula_sum "Si O2"
_cell_formula_units_Z 44
_cell_length_a 28.523033
_cell_length_b 9.943969
_cell_length_c 12.558583
_cell_angle_alpha 90.000000
_cell_angle_beta 136.454002
_cell_angle_gamma 90.000000
_cell_volume 2454.004894
_symmetry_space_group_name_H-M "C 2/M"
_symmetry_group_IT_number 12
_symmetry_cell_setting 'monoclinic'
loop_
_space_group_symop_operation_xyz
x,y,z
-x,y,-z
-x,-y,-z
x,-y,z
1/2+x,1/2+y,z
1/2-x,1/2+y,-z
1/2-x,1/2-y,-z
1/2+x,1/2-y,z
loop_
_atom_site_type_symbol
_atom_site_label
_atom_site_fract_x
_atom_site_fract_y
_atom_site_fract_z
Si Si1 0.865916 0.149322 0.688899
Si Si2 0.310203 0.347781 0.825506
Si Si3 0.477616 0.159108 0.576248
Si Si4 0.424084 0.847101 0.075982
Si Si5 0.340577 0.156247 0.455333
Si Si6 0.500000 0.753154 0.000000
O O1 0.818665 0.173096 0.713417
O O2 0.844512 0.260468 0.569712
O O3 0.944907 0.159407 0.851785
O O4 0.853996 0.000000 0.622092
O O5 0.330750 0.500000 0.891436
O O6 0.231127 0.319173 0.722089
O O7 0.356950 0.244920 0.967599
O O8 0.500000 0.222981 0.500000
O O9 0.526957 0.210657 0.751170
O O10 0.400263 0.203444 0.473839
O O11 0.482622 0.000000 0.578696
O O12 0.401643 0.000000 0.061884
O O13 0.463127 0.845023 0.027463
O O14 0.349350 0.000000 0.501818
#
# Coordination Sequence:
#
# PCOD8081499 Si02
#       6
#     8   8   8   8   8   4
#     4  10  19  30  47  74 107 140 168 201 252 309
#     4   9  20  34  49  73 108 141 165 200 258 315
#     4   9  18  34  55  77  99 130 175 218 254 294
#     4  10  19  32  53  78 102 132 172 216 251 294
#     4  10  19  34  53  74 101 136 175 211 250 300
#     4  10  18  30  48  78 106 136 166 204 258 308
#
# _framework density 17.929874999999999
#
# number of rings (size 3 to 8) (size 9 to 14) (size 15 to 20)
#    0.000    2.364    1.818    1.091    0.000    4.364 
#    0.000    0.909    0.000    2.182    0.000    0.000 
#    0.000    0.000    0.000    0.000    0.000    0.000 
#
# Total GULP energy -272775.986018 kJ/mol
# GULP energy per Si atom -12398.908455 kJ/mol
# Density = 1.788907 g / cm^3
# Si number density = 17.929875 Si / 1000 Ang^3
#
#
#
# Elastic Constant Matrix: (Units=GPa)
#
#
# Indices 1 2 3 4 5 6 
#
# 1 90.3559 41.8046 64.0115 0.0000 19.1727 0.0000
# 2 41.8046 71.7026 45.5712 0.0000 10.3550 0.0000
# 3 64.0115 45.5712 106.9365 0.0000 17.1124 0.0000
# 4 0.0000 0.0000 0.0000 26.3709 0.0000 6.8024
# 5 19.1727 10.3550 17.1124 0.0000 29.2610 0.0000
# 6 0.0000 0.0000 0.0000 6.8024 0.0000 10.0696
#
#
#
# Elastic Compliance Matrix: (Units=1/GPa)
#
#
# Indices 1 2 3 4 5 6 
#
# 1 0.021966 -0.005708 -0.009638 0.000000 -0.006736 0.000000
# 2 -0.005708 0.020741 -0.005346 0.000000 -0.000473 0.000000
# 3 -0.009638 -0.005346 0.017746 0.000000 -0.002171 0.000000
# 4 0.000000 0.000000 0.000000 0.045923 0.000000 -0.031023
# 5 -0.006736 -0.000473 -0.002171 0.000000 0.040026 0.000000
# 6 0.000000 0.000000 0.000000 -0.031023 0.000000 0.120265
#
#
# Mechanical properties :
#
#
# Convention : Reuss Voigt Hill
#
# Bulk Modulus (GPa) = 52.44397 63.52996 57.98697
# Shear Modulus (GPa) = 15.90294 20.98082 18.44188
#
# Velocity S-wave (km/s) = 2.98140 3.42447 3.21059
# Velocity P-wave (km/s) = 6.41597 7.15160 6.79375
#
# Compressibility (1/GPa) = 0.01906797
#
# Stress axis : x y z
#
# Youngs Moduli (GPa) = 45.52582 48.21458 56.35004
#
# Poissons Ratio (x) = 0.27522 0.54310
# Poissons Ratio (y) = 0.25988 0.30125
# Poissons Ratio (z) = 0.43877 0.25775
#
# Static dielectric constant tensor:
#      x y z
#    x 3.429800 0.000000 0.142900 
#    y 0.000000 3.128280 0.000000 
#    z 0.142900 0.000000 3.294280 
# 
# 
# High freq. dielectric constant tensor:
#      x y z
#    x 1.682560 0.000000 0.021620 
#    y 0.000000 1.676480 0.000000 
#    z 0.021620 0.000000 1.686720 
# 
# From -- ./inp_files/188482.got.cif
#   From: 2010.06.25/outbox.cif.g09.slc.cpg/sg12_95_cif.got.tgz:188482.got - 2010.06.28 00:19:55.
