data_PCOD8081336
_publ_section_title
;
Structure prediction by ZEFSAII (Michael W. Deem and Ramdas Pophale) SiO2 
 PCOD8081336
Probable space group: C 2/M
;
_chemical_formula_sum "Si O2"
_cell_formula_units_Z 48
_cell_length_a 33.294109
_cell_length_b 7.881321
_cell_length_c 11.009750
_cell_angle_alpha 90.000000
_cell_angle_beta 108.461210
_cell_angle_gamma 90.000000
_cell_volume 2740.303862
_symmetry_space_group_name_H-M "C 2/M"
_symmetry_group_IT_number 12
_symmetry_cell_setting 'monoclinic'
loop_
_space_group_symop_operation_xyz
x,y,z
-x,y,-z
-x,-y,-z
x,-y,z
1/2+x,1/2+y,z
1/2-x,1/2+y,-z
1/2-x,1/2-y,-z
1/2+x,1/2-y,z
loop_
_atom_site_type_symbol
_atom_site_label
_atom_site_fract_x
_atom_site_fract_y
_atom_site_fract_z
Si Si1 0.375895 0.306204 0.823318
Si Si2 0.069897 0.500000 0.053261
Si Si3 0.295311 0.807064 0.427906
Si Si4 0.210267 0.305922 0.304230
Si Si5 0.476430 0.304127 0.603258
Si Si6 0.496456 0.000000 0.796403
Si Si7 0.382074 0.304596 0.549761
O O1 0.391589 0.500000 0.861546
O O2 0.325521 0.293826 0.807582
O O3 0.382781 0.246323 0.690743
O O4 0.402283 0.172353 0.928578
O O5 0.042629 0.500000 0.149454
O O6 0.040848 0.500000 0.907374
O O7 0.259368 0.717679 0.307980
O O8 0.292208 0.731442 0.561162
O O9 0.344338 0.783008 0.434730
O O10 0.282152 0.000000 0.412255
O O11 0.196575 0.500000 0.285730
O O12 0.500000 0.278490 0.500000
O O13 0.480929 0.500000 0.654748
O O14 0.427089 0.259174 0.533254
O O15 0.495582 0.172816 0.717600
O O16 0.371656 0.500000 0.532555
#
# Coordination Sequence:
#
# PCOD8081336 Si02
#       7
#     8   4   8   8   8   4   8
#     4  10  18  30  47  66  97 135 168 200 244 296
#     4  11  22  34  50  76 100 138 174 210 249 300
#     4   9  16  22  35  59  90 127 160 195 235 288
#     4   9  15  24  38  58  90 128 165 196 233 288
#     4  10  21  37  56  76  99 133 169 213 261 305
#     4  11  23  36  54  74 103 131 176 214 254 299
#     4   9  17  28  44  65  93 128 165 198 246 297
#
# _framework density 17.516304000000002
#
# number of rings (size 3 to 8) (size 9 to 14) (size 15 to 20)
#    0.000    2.333    2.500    1.250    2.333    4.667 
#    0.000    1.667    0.000    0.000    0.000    0.000 
#    0.000    1.333    0.667    0.000    0.000    0.000 
#
# Total GULP energy -297371.017430 kJ/mol
# GULP energy per Si atom -12390.459060 kJ/mol
# Density = 1.747644 g / cm^3
# Si number density = 17.516304 Si / 1000 Ang^3
#
#
#
# Elastic Constant Matrix: (Units=GPa)
#
#
# Indices 1 2 3 4 5 6 
#
# 1 113.2798 43.8149 49.2478 0.0000 32.5248 0.0000
# 2 43.8149 104.3993 45.0496 0.0000 20.5392 0.0000
# 3 49.2478 45.0496 55.9918 0.0000 21.3212 0.0000
# 4 0.0000 0.0000 0.0000 18.6481 0.0000 8.7646
# 5 32.5248 20.5392 21.3212 0.0000 27.7641 0.0000
# 6 0.0000 0.0000 0.0000 8.7646 0.0000 25.4288
#
#
#
# Elastic Compliance Matrix: (Units=1/GPa)
#
#
# Indices 1 2 3 4 5 6 
#
# 1 0.016595 -0.000447 -0.009836 0.000000 -0.011556 0.000000
# 2 -0.000447 0.014811 -0.010672 0.000000 -0.002239 0.000000
# 3 -0.009836 -0.010672 0.039152 0.000000 -0.010650 0.000000
# 4 0.000000 0.000000 0.000000 0.063991 0.000000 -0.022056
# 5 -0.011556 -0.002239 -0.010650 0.000000 0.059390 0.000000
# 6 0.000000 0.000000 0.000000 -0.022056 0.000000 0.046927
#
#
# Mechanical properties :
#
#
# Convention : Reuss Voigt Hill
#
# Bulk Modulus (GPa) = 34.90397 61.09950 48.00173
# Shear Modulus (GPa) = 17.10425 23.40545 20.25485
#
# Velocity S-wave (km/s) = 3.12825 3.65939 3.40419
# Velocity P-wave (km/s) = 5.74611 7.26719 6.55095
#
# Compressibility (1/GPa) = 0.02865004
#
# Stress axis : x y z
#
# Youngs Moduli (GPa) = 60.26063 67.51557 25.54123
#
# Poissons Ratio (x) = 0.03015 0.25122
# Poissons Ratio (y) = 0.02691 0.27256
# Poissons Ratio (z) = 0.59272 0.72049
#
# Static dielectric constant tensor:
#      x y z
#    x 3.480560 0.000000 0.414230 
#    y 0.000000 3.302430 0.000000 
#    z 0.414230 0.000000 2.732920 
# 
# 
# High freq. dielectric constant tensor:
#      x y z
#    x 1.678950 0.000000 0.050590 
#    y 0.000000 1.693130 0.000000 
#    z 0.050590 0.000000 1.600620 
# 
# From -- ./inp_files/185973.got.cif
#   From: 2010.06.25/outbox.cif.g09.slc.cpg/sg12_93_cif.got.tgz:185973.got - 2010.06.28 00:19:55.
