data_PCOD8081293
_publ_section_title
;
Structure prediction by ZEFSAII (Michael W. Deem and Ramdas Pophale) SiO2 
 PCOD8081293
Probable space group: C 2/M
;
_chemical_formula_sum "Si O2"
_cell_formula_units_Z 64
_cell_length_a 19.632156
_cell_length_b 18.833196
_cell_length_c 18.949558
_cell_angle_alpha 90.000000
_cell_angle_beta 32.480660
_cell_angle_gamma 90.000000
_cell_volume 3762.508050
_symmetry_space_group_name_H-M "C 2/M"
_symmetry_group_IT_number 12
_symmetry_cell_setting 'monoclinic'
loop_
_space_group_symop_operation_xyz
x,y,z
-x,y,-z
-x,-y,-z
x,-y,z
1/2+x,1/2+y,z
1/2-x,1/2+y,-z
1/2-x,1/2-y,-z
1/2+x,1/2-y,z
loop_
_atom_site_type_symbol
_atom_site_label
_atom_site_fract_x
_atom_site_fract_y
_atom_site_fract_z
Si Si1 0.221914 0.296765 0.592388
Si Si2 0.587717 0.420379 0.181991
Si Si3 0.429689 0.194647 0.852788
Si Si4 0.144524 0.325567 0.291294
Si Si5 0.701919 0.081612 0.114122
Si Si6 0.294901 0.582956 0.435022
Si Si7 0.298324 0.293649 0.854432
Si Si8 0.846964 0.324054 0.555670
O O1 0.250000 0.250000 0.500000
O O2 0.262097 0.377600 0.538124
O O3 0.303252 0.258086 0.582319
O O4 0.075845 0.294069 0.743160
O O5 0.609293 0.500000 0.190206
O O6 0.442511 0.406107 0.290084
O O7 0.639122 0.371838 0.201418
O O8 0.665107 0.405712 0.042206
O O9 0.409646 0.117387 0.834680
O O10 0.381015 0.252656 0.840412
O O11 0.349653 0.201917 0.994894
O O12 0.213730 0.382537 0.180603
O O13 0.190088 0.245865 0.230616
O O14 0.184031 0.343023 0.336372
O O15 0.994698 0.330341 0.410505
O O16 0.666621 0.000000 0.154825
O O17 0.258017 0.500000 0.473743
O O18 0.221399 0.618606 0.434110
#
# Coordination Sequence:
#
# PCOD8081293 Si02
#       8
#     8   8   8   8   8   8   8   8
#     4  10  18  30  46  65  90 118 146 187 234 265
#     4   9  17  29  48  72  93 116 150 192 232 263
#     4   9  17  26  45  70  87 113 153 190 226 261
#     4  10  20  32  47  65  88 127 160 180 222 270
#     4   9  17  30  47  69  96 121 149 186 224 267
#     4  10  19  31  49  71  93 118 149 187 231 273
#     4   9  15  29  47  65  89 115 151 192 220 262
#     4  10  21  33  45  66  94 121 154 189 221 269
#
# _framework density 17.009930000000001
#
# number of rings (size 3 to 8) (size 9 to 14) (size 15 to 20)
#    0.000    2.500    0.000    6.000    0.000    2.500 
#    0.000    3.750    0.000    3.000    0.000    3.500 
#    0.000    5.000    0.000    0.000    0.000    0.000 
#
# Total GULP energy -396646.903403 kJ/mol
# GULP energy per Si atom -12395.215731 kJ/mol
# Density = 1.697121 g / cm^3
# Si number density = 17.009930 Si / 1000 Ang^3
#
#
#
# Elastic Constant Matrix: (Units=GPa)
#
#
# Indices 1 2 3 4 5 6 
#
# 1 25.2693 27.5565 14.1068 -0.0006 -6.8372 -0.0003
# 2 27.5565 119.6446 37.4518 0.0024 -1.0461 -0.0010
# 3 14.1068 37.4518 72.5279 0.0066 -7.0487 -0.0030
# 4 -0.0006 0.0024 0.0066 25.1333 -0.0018 0.2014
# 5 -6.8372 -1.0461 -7.0487 -0.0018 21.2026 -0.0006
# 6 -0.0003 -0.0010 -0.0030 0.2014 -0.0006 18.8854
#
#
#
# Elastic Compliance Matrix: (Units=1/GPa)
#
#
# Indices 1 2 3 4 5 6 
#
# 1 0.059975 -0.012575 -0.003464 0.000005 0.017568 0.000000
# 2 -0.012575 0.012639 -0.004561 -0.000001 -0.004948 0.000000
# 3 -0.003464 -0.004561 0.017244 -0.000004 0.004390 0.000003
# 4 0.000005 -0.000001 -0.000004 0.039791 0.000004 -0.000424
# 5 0.017568 -0.004948 0.004390 0.000004 0.054045 0.000003
# 6 0.000000 0.000000 0.000003 -0.000424 0.000003 0.052955
#
#
# Mechanical properties :
#
#
# Convention : Reuss Voigt Hill
#
# Bulk Modulus (GPa) = 20.55269 41.74131 31.14700
# Shear Modulus (GPa) = 17.00280 22.26604 19.63442
#
# Velocity S-wave (km/s) = 3.16505 3.62194 3.40117
# Velocity P-wave (km/s) = 5.04635 6.48721 5.81161
#
# Compressibility (1/GPa) = 0.04865542
#
# Stress axis : x y z
#
# Youngs Moduli (GPa) = 16.67371 79.12011 57.99217
#
# Poissons Ratio (x) = 0.99496 0.20090
# Poissons Ratio (y) = 0.20968 0.26453
# Poissons Ratio (z) = 0.05776 0.36090
#
# Static dielectric constant tensor:
#      x y z
#    x 2.936850 -0.000010 0.008270 
#    y -0.000010 3.651740 0.000000 
#    z 0.008270 0.000000 3.357700 
# 
# 
# High freq. dielectric constant tensor:
#      x y z
#    x 1.606710 0.000000 -0.007270 
#    y 0.000000 1.663720 0.000000 
#    z -0.007270 0.000000 1.671170 
# 
# From -- ./inp_files/322429.got.cif
#   From: 2010.06.25/outbox.cif.g09.slc.cpg/sg12_162_cif.got.tgz:322429.got - 2010.06.28 00:19:55.
