data_PCOD8081424
_publ_section_title
;
Structure prediction by ZEFSAII (Michael W. Deem and Ramdas Pophale) SiO2 
 PCOD8081424
Probable space group: C 2/M
;
_chemical_formula_sum "Si O2"
_cell_formula_units_Z 48
_cell_length_a 26.543929
_cell_length_b 9.021563
_cell_length_c 11.822341
_cell_angle_alpha 90.000000
_cell_angle_beta 103.716616
_cell_angle_gamma 90.000000
_cell_volume 2750.328163
_symmetry_space_group_name_H-M "C 2/M"
_symmetry_group_IT_number 12
_symmetry_cell_setting 'monoclinic'
loop_
_space_group_symop_operation_xyz
x,y,z
-x,y,-z
-x,-y,-z
x,-y,z
1/2+x,1/2+y,z
1/2-x,1/2+y,-z
1/2-x,1/2-y,-z
1/2+x,1/2-y,z
loop_
_atom_site_type_symbol
_atom_site_label
_atom_site_fract_x
_atom_site_fract_y
_atom_site_fract_z
Si Si1 0.857733 0.675393 0.583562
Si Si2 0.627086 0.334889 0.751899
Si Si3 0.716162 0.332330 0.615346
Si Si4 0.942390 0.325288 0.447697
Si Si5 0.304703 0.672901 0.010094
Si Si6 0.316212 0.326837 0.759680
O O1 0.853932 0.500000 0.591578
O O2 0.803441 0.738982 0.503969
O O3 0.906832 0.724519 0.534726
O O4 0.862051 0.749550 0.710364
O O5 0.606366 0.500000 0.765905
O O6 0.669697 0.337493 0.678118
O O7 0.578703 0.238335 0.682212
O O8 0.652312 0.265051 0.878978
O O9 0.732103 0.500000 0.588365
O O10 0.762166 0.249163 0.701702
O O11 0.942410 0.500000 0.434868
O O12 0.000000 0.263340 0.500000
O O13 0.295360 0.500000 0.029161
O O14 0.327394 0.701677 0.897533
O O15 0.250000 0.750000 0.000000
O O16 0.313614 0.500000 0.730017
#
# Coordination Sequence:
#
# PCOD8081424 Si02
#       6
#     8   8   8   8   8   8
#     4  10  20  33  49  70  98 128 162 204 252 300
#     4   9  18  32  50  75 102 129 165 206 246 291
#     4  10  18  30  48  69  99 133 167 204 241 289
#     4   9  19  36  57  78  97 121 159 210 261 303
#     4  10  20  33  49  71 102 138 173 206 237 283
#     4  11  21  31  46  69 101 137 169 200 238 287
#
# _framework density 17.452462000000001
#
# number of rings (size 3 to 8) (size 9 to 14) (size 15 to 20)
#    0.000    2.167    1.667    2.000    0.000    3.000 
#    0.000    0.000    0.000    1.000    0.000    7.000 
#    0.000    0.000    0.000    0.000    0.000    0.000 
#
# Total GULP energy -297563.103093 kJ/mol
# GULP energy per Si atom -12398.462629 kJ/mol
# Density = 1.741274 g / cm^3
# Si number density = 17.452462 Si / 1000 Ang^3
#
#
#
# Elastic Constant Matrix: (Units=GPa)
#
#
# Indices 1 2 3 4 5 6 
#
# 1 76.0108 31.9024 48.1973 0.0000 18.2951 0.0000
# 2 31.9024 75.9369 49.4859 0.0000 1.3626 0.0000
# 3 48.1973 49.4859 131.5433 0.0000 11.1833 0.0000
# 4 0.0000 0.0000 0.0000 26.4775 0.0000 -0.1244
# 5 18.2951 1.3626 11.1833 0.0000 22.4295 0.0000
# 6 0.0000 0.0000 0.0000 -0.1244 0.0000 21.7227
#
#
#
# Elastic Compliance Matrix: (Units=1/GPa)
#
#
# Indices 1 2 3 4 5 6 
#
# 1 0.022389 -0.006154 -0.004561 0.000000 -0.015614 0.000000
# 2 -0.006154 0.019252 -0.005551 0.000000 0.006617 0.000000
# 3 -0.004561 -0.005551 0.011504 0.000000 -0.001678 0.000000
# 4 0.000000 0.000000 0.000000 0.037769 0.000000 0.000216
# 5 -0.015614 0.006617 -0.001678 0.000000 0.057755 0.000000
# 6 0.000000 0.000000 0.000000 0.000216 0.000000 0.046036
#
#
# Mechanical properties :
#
#
# Convention : Reuss Voigt Hill
#
# Bulk Modulus (GPa) = 48.50781 60.29581 54.40181
# Shear Modulus (GPa) = 21.35775 24.38631 22.87203
#
# Velocity S-wave (km/s) = 3.50203 3.74210 3.62406
# Velocity P-wave (km/s) = 6.64883 7.30032 6.98218
#
# Compressibility (1/GPa) = 0.02061524
#
# Stress axis : x y z
#
# Youngs Moduli (GPa) = 44.66496 51.94135 86.92671
#
# Poissons Ratio (x) = 0.31963 0.39646
# Poissons Ratio (y) = 0.27485 0.48249
# Poissons Ratio (z) = 0.20371 0.28830
#
# Static dielectric constant tensor:
#      x y z
#    x 3.152510 0.000000 -0.114930 
#    y 0.000000 3.376400 0.000000 
#    z -0.114930 0.000000 3.536350 
# 
# 
# High freq. dielectric constant tensor:
#      x y z
#    x 1.644260 0.000000 -0.012200 
#    y 0.000000 1.680060 0.000000 
#    z -0.012200 0.000000 1.677130 
# 
# From -- ./inp_files/172094.got.cif
#   From: 2010.06.25/outbox.cif.g09.slc.cpg/sg12_87_cif.got.tgz:172094.got - 2010.06.28 00:19:55.
