data_PCOD8081585
_publ_section_title
;
Structure prediction by ZEFSAII (Michael W. Deem and Ramdas Pophale) SiO2 
 PCOD8081585
Probable space group: C 2/M
;
_chemical_formula_sum "Si O2"
_cell_formula_units_Z 64
_cell_length_a 23.801478
_cell_length_b 8.627028
_cell_length_c 30.586946
_cell_angle_alpha 90.000000
_cell_angle_beta 145.976532
_cell_angle_gamma 90.000000
_cell_volume 3514.200284
_symmetry_space_group_name_H-M "C 2/M"
_symmetry_group_IT_number 12
_symmetry_cell_setting 'monoclinic'
loop_
_space_group_symop_operation_xyz
x,y,z
-x,y,-z
-x,-y,-z
x,-y,z
1/2+x,1/2+y,z
1/2-x,1/2+y,-z
1/2-x,1/2-y,-z
1/2+x,1/2-y,z
loop_
_atom_site_type_symbol
_atom_site_label
_atom_site_fract_x
_atom_site_fract_y
_atom_site_fract_z
Si Si1 0.698659 0.183764 0.739917
Si Si2 0.020995 0.821717 0.407119
Si Si3 0.299172 0.821521 0.164793
Si Si4 0.990440 0.822133 0.696946
Si Si5 0.103301 0.679383 0.542537
Si Si6 0.459167 0.182012 0.762600
Si Si7 0.311771 0.816532 0.079515
Si Si8 0.782239 0.319466 0.710514
O O1 0.593540 0.265877 0.662100
O O2 0.743280 0.243559 0.816118
O O3 0.777260 0.227275 0.753029
O O4 0.680250 0.000000 0.729056
O O5 0.063251 0.801382 0.384792
O O6 0.092843 0.722225 0.484780
O O7 0.024532 0.000000 0.424126
O O8 0.418213 0.798118 0.243374
O O9 0.264085 0.751085 0.095080
O O10 0.272425 0.000000 0.145664
O O11 0.922809 0.772321 0.694948
O O12 0.027138 0.000000 0.725492
O O13 0.131630 0.500000 0.566123
O O14 0.189974 0.781443 0.619518
O O15 0.000000 0.720072 0.500000
O O16 0.571647 0.233808 0.848799
O O17 0.385413 0.232271 0.753974
O O18 0.451221 0.000000 0.748328
O O19 0.304085 0.000000 0.073248
O O20 0.250000 0.750000 0.000000
O O21 0.781776 0.500000 0.721029
#
# Coordination Sequence:
#
# PCOD8081585 Si02
#       8
#     8   8   8   8   8   8   8   8
#     4  10  18  30  49  73  99 131 169 208 251 294
#     4  10  19  31  49  73  99 128 166 213 258 297
#     4   8  16  30  48  71 103 135 162 198 245 295
#     4   9  17  29  49  75  98 124 165 212 250 290
#     4  11  22  34  49  72 100 131 171 214 255 297
#     4   9  20  37  53  72 102 137 167 198 247 305
#     4   9  17  32  54  80 105 129 160 199 243 292
#     4  11  22  35  52  72  98 134 171 209 253 299
#
# _framework density 18.211825000000001
#
# number of rings (size 3 to 8) (size 9 to 14) (size 15 to 20)
#    0.000    2.375    1.250    2.625    0.000    5.500 
#    0.000    0.625    0.000    0.750    0.000    5.250 
#    0.000    0.000    0.000    0.000    0.000    0.000 
#
# Total GULP energy -396483.214309 kJ/mol
# GULP energy per Si atom -12390.100447 kJ/mol
# Density = 1.817037 g / cm^3
# Si number density = 18.211825 Si / 1000 Ang^3
#
#
#
# Elastic Constant Matrix: (Units=GPa)
#
#
# Indices 1 2 3 4 5 6 
#
# 1 128.9687 24.2209 63.6794 0.0000 -31.7085 0.0005
# 2 24.2209 20.2259 16.4274 -0.0006 -4.2004 0.0005
# 3 63.6794 16.4274 95.5228 0.0003 -34.2796 0.0000
# 4 0.0000 -0.0006 0.0003 24.4369 0.0001 -5.9350
# 5 -31.7085 -4.2004 -34.2796 0.0001 33.9560 -0.0001
# 6 0.0005 0.0005 0.0000 -5.9350 -0.0001 26.0077
#
#
#
# Elastic Compliance Matrix: (Units=1/GPa)
#
#
# Indices 1 2 3 4 5 6 
#
# 1 0.013966 -0.011292 -0.005001 0.000000 0.006596 0.000000
# 2 -0.011292 0.067041 -0.007542 0.000001 -0.009866 -0.000001
# 3 -0.005001 -0.007542 0.020525 0.000000 0.015117 0.000000
# 4 0.000000 0.000001 0.000000 0.043323 0.000000 0.009886
# 5 0.006596 -0.009866 0.015117 0.000000 0.049650 0.000000
# 6 0.000000 -0.000001 0.000000 0.009886 0.000000 0.040706
#
#
# Mechanical properties :
#
#
# Convention : Reuss Voigt Hill
#
# Bulk Modulus (GPa) = 18.56638 50.37474 34.47056
# Shear Modulus (GPa) = 16.62047 26.23943 21.42995
#
# Velocity S-wave (km/s) = 3.02424 3.79989 3.43404
# Velocity P-wave (km/s) = 4.73408 6.85367 5.89000
#
# Compressibility (1/GPa) = 0.05386079
#
# Stress axis : x y z
#
# Youngs Moduli (GPa) = 71.60503 14.91625 48.72202
#
# Poissons Ratio (x) = 0.16844 0.24366
# Poissons Ratio (y) = 0.80859 0.36745
# Poissons Ratio (z) = 0.35810 0.11249
#
# Static dielectric constant tensor:
#      x y z
#    x 3.706030 0.000000 -0.607330 
#    y 0.000000 3.327150 0.000000 
#    z -0.607330 0.000000 3.523600 
# 
# 
# High freq. dielectric constant tensor:
#      x y z
#    x 1.701010 0.000000 -0.044070 
#    y 0.000000 1.706680 0.000000 
#    z -0.044070 0.000000 1.675920 
# 
# From -- ./inp_files/365212.got.cif
#   From: 2010.06.25/outbox.cif.g09.slc.cpg/sg12_183_cif.got.tgz:365212.got - 2010.06.28 00:19:55.
