data_PCOD8081318
_publ_section_title
;
Structure prediction by ZEFSAII (Michael W. Deem and Ramdas Pophale) SiO2 
 PCOD8081318
Probable space group: C 2/M
;
_chemical_formula_sum "Si O2"
_cell_formula_units_Z 60
_cell_length_a 30.432328
_cell_length_b 9.096115
_cell_length_c 11.771678
_cell_angle_alpha 90.000000
_cell_angle_beta 79.724302
_cell_angle_gamma 90.000000
_cell_volume 3206.323103
_symmetry_space_group_name_H-M "C 2/M"
_symmetry_group_IT_number 12
_symmetry_cell_setting 'monoclinic'
loop_
_space_group_symop_operation_xyz
x,y,z
-x,y,-z
-x,-y,-z
x,-y,z
1/2+x,1/2+y,z
1/2-x,1/2+y,-z
1/2-x,1/2-y,-z
1/2+x,1/2-y,z
loop_
_atom_site_type_symbol
_atom_site_label
_atom_site_fract_x
_atom_site_fract_y
_atom_site_fract_z
Si Si1 0.108951 0.824450 0.185404
Si Si2 0.000000 0.740081 0.000000
Si Si3 0.630870 0.169987 0.390478
Si Si4 0.295944 0.171754 0.452019
Si Si5 0.490367 0.665754 0.757737
Si Si6 0.068949 0.835601 0.574914
Si Si7 0.858741 0.835354 0.264717
Si Si8 0.899995 0.335555 0.036559
O O1 0.140607 0.759078 0.269318
O O2 0.058730 0.768308 0.236933
O O3 0.113257 0.000000 0.175607
O O4 0.120975 0.754726 0.058711
O O5 0.994959 0.834845 0.116815
O O6 0.954083 0.648573 0.010009
O O7 0.672225 0.196414 0.454545
O O8 0.584945 0.231129 0.465993
O O9 0.624065 0.000000 0.364728
O O10 0.250000 0.250000 0.500000
O O11 0.315783 0.245636 0.329045
O O12 0.288493 0.000000 0.431387
O O13 0.490422 0.500000 0.716801
O O14 0.526118 0.741672 0.656275
O O15 0.107292 0.849578 0.648990
O O16 0.059159 0.000000 0.530764
O O17 0.882831 0.747155 0.154705
O O18 0.844654 0.000000 0.231003
O O19 0.880463 0.500000 0.043132
#
# Coordination Sequence:
#
# PCOD8081318 Si02
#       8
#     8   4   8   8   8   8   8   8
#     4  10  21  35  52  73 101 145 191 227 264 316
#     4  10  18  30  46  72 105 148 189 236 277 316
#     4  10  21  37  54  76 107 139 172 217 270 325
#     4  10  21  38  62  90 114 138 170 216 274 334
#     4   9  17  29  47  71 100 138 188 235 270 308
#     4   9  17  31  50  73 100 138 182 227 271 313
#     4  10  19  33  55  82 111 144 182 226 274 324
#     4  11  21  33  50  76 111 148 187 232 277 321
#
# _framework density 18.713024000000001
#
# number of rings (size 3 to 8) (size 9 to 14) (size 15 to 20)
#    0.000    2.133    1.333    2.400    0.000    3.733 
#    0.000    4.000    0.000    0.800    0.000    0.000 
#    0.000    0.000    0.000    0.000    0.000    0.000 
#
# Total GULP energy -371806.045643 kJ/mol
# GULP energy per Si atom -12393.534855 kJ/mol
# Density = 1.867043 g / cm^3
# Si number density = 18.713024 Si / 1000 Ang^3
#
#
#
# Elastic Constant Matrix: (Units=GPa)
#
#
# Indices 1 2 3 4 5 6 
#
# 1 40.5717 32.2647 25.4179 0.0000 -8.4922 0.0000
# 2 32.2647 133.7954 53.7445 0.0000 -1.8404 0.0000
# 3 25.4179 53.7445 95.2328 0.0000 1.6074 0.0000
# 4 0.0000 0.0000 0.0000 31.0965 0.0000 -1.7569
# 5 -8.4922 -1.8404 1.6074 0.0000 26.7048 0.0000
# 6 0.0000 0.0000 0.0000 -1.7569 0.0000 18.8582
#
#
#
# Elastic Compliance Matrix: (Units=1/GPa)
#
#
# Indices 1 2 3 4 5 6 
#
# 1 0.035711 -0.005884 -0.006402 0.000000 0.011336 0.000000
# 2 -0.005884 0.010661 -0.004431 0.000000 -0.000870 0.000000
# 3 -0.006402 -0.004431 0.014765 0.000000 -0.003230 0.000000
# 4 0.000000 0.000000 0.000000 0.032328 0.000000 0.003012
# 5 0.011336 -0.000870 -0.003230 0.000000 0.041186 0.000000
# 6 0.000000 0.000000 0.000000 0.003012 0.000000 0.053308
#
#
# Mechanical properties :
#
#
# Convention : Reuss Voigt Hill
#
# Bulk Modulus (GPa) = 36.09909 54.71712 45.40811
# Shear Modulus (GPa) = 21.68002 25.87674 23.77838
#
# Velocity S-wave (km/s) = 3.40744 3.72266 3.56854
# Velocity P-wave (km/s) = 5.90031 6.91240 6.42631
#
# Compressibility (1/GPa) = 0.02770153
#
# Stress axis : x y z
#
# Youngs Moduli (GPa) = 28.00291 93.79849 67.72917
#
# Poissons Ratio (x) = 0.55191 0.43360
# Poissons Ratio (y) = 0.16477 0.30014
# Poissons Ratio (z) = 0.17927 0.41566
#
# Static dielectric constant tensor:
#      x y z
#    x 3.217050 0.000000 -0.067000 
#    y 0.000000 3.497200 0.000000 
#    z -0.067000 0.000000 3.576650 
# 
# 
# High freq. dielectric constant tensor:
#      x y z
#    x 1.690190 0.000000 0.002580 
#    y 0.000000 1.724830 0.000000 
#    z 0.002580 0.000000 1.733280 
# 
# From -- ./inp_files/187357.got.cif
#   From: 2010.06.25/outbox.cif.g09.slc.cpg/sg12_94_cif.got.tgz:187357.got - 2010.06.28 00:19:55.
