data_PCOD8081999
_publ_section_title
;
Structure prediction by ZEFSAII (Michael W. Deem and Ramdas Pophale) SiO2 
 PCOD8081999
Probable space group: C 2/M
;
_chemical_formula_sum "Si O2"
_cell_formula_units_Z 40
_cell_length_a 18.937151
_cell_length_b 11.415273
_cell_length_c 17.492952
_cell_angle_alpha 90.000000
_cell_angle_beta 151.534978
_cell_angle_gamma 90.000000
_cell_volume 1802.346504
_symmetry_space_group_name_H-M "C 2/M"
_symmetry_group_IT_number 12
_symmetry_cell_setting 'monoclinic'
loop_
_space_group_symop_operation_xyz
x,y,z
-x,y,-z
-x,-y,-z
x,-y,z
1/2+x,1/2+y,z
1/2-x,1/2+y,-z
1/2-x,1/2-y,-z
1/2+x,1/2-y,z
loop_
_atom_site_type_symbol
_atom_site_label
_atom_site_fract_x
_atom_site_fract_y
_atom_site_fract_z
Si Si1 0.260911 0.500000 0.790454
Si Si2 0.693934 0.258410 0.726774
Si Si3 0.012615 0.810341 0.766204
Si Si4 0.822055 0.368678 0.987167
Si Si5 0.971876 0.000000 0.847081
Si Si6 0.392596 0.361524 0.499535
O O1 0.162682 0.618447 0.699194
O O2 0.354319 0.500000 0.802409
O O3 0.362937 0.500000 0.962213
O O4 0.823907 0.292201 0.910146
O O5 0.553066 0.332236 0.618620
O O6 0.729099 0.301044 0.672858
O O7 0.162164 0.869379 0.875664
O O8 0.888181 0.805650 0.580656
O O9 0.946542 0.885806 0.771941
O O10 0.053432 0.681767 0.836676
O O11 0.869095 0.500000 0.011699
O O12 0.366844 0.500000 0.479016
#
# Coordination Sequence:
#
# PCOD8081999 Si02
#       6
#     4   8   8   8   4   8
#     4  11  24  35  56  76 108 156 182 218 256 323
#     4  10  19  34  51  83 110 140 179 217 275 325
#     4  10  18  32  55  79 105 140 175 221 270 322
#     4  10  18  30  54  84 109 131 171 232 279 315
#     4  11  20  40  56  73 110 145 193 215 255 331
#     4  10  19  33  58  85 111 138 170 232 281 323
#
# _framework density 22.193290999999999
#
# number of rings (size 3 to 8) (size 9 to 14) (size 15 to 20)
#    0.000    1.800    4.000    3.600    0.000    1.600 
#    1.800    1.000    0.000    4.800    0.000    0.000 
#    0.000    0.000    0.000    0.000    0.000    0.000 
#
# Total GULP energy -247860.646948 kJ/mol
# GULP energy per Si atom -12393.032347 kJ/mol
# Density = 2.214278 g / cm^3
# Si number density = 22.193291 Si / 1000 Ang^3
#
#
#
# Elastic Constant Matrix: (Units=GPa)
#
#
# Indices 1 2 3 4 5 6 
#
# 1 51.5956 19.5296 38.7166 0.0000 -40.3160 0.0000
# 2 19.5296 171.2539 47.8364 0.0000 -35.5228 0.0000
# 3 38.7166 47.8364 73.8248 0.0002 -52.8016 0.0000
# 4 0.0000 0.0000 0.0002 23.7096 0.0001 -15.4162
# 5 -40.3160 -35.5228 -52.8016 0.0001 45.7045 0.0000
# 6 0.0000 0.0000 0.0000 -15.4162 0.0000 24.8358
#
#
#
# Elastic Compliance Matrix: (Units=1/GPa)
#
#
# Indices 1 2 3 4 5 6 
#
# 1 0.092603 0.005051 0.054079 -0.000002 0.148088 -0.000001
# 2 0.005051 0.007416 -0.000835 0.000000 0.009255 0.000000
# 3 0.054079 -0.000835 0.111566 -0.000002 0.175944 -0.000002
# 4 -0.000002 0.000000 -0.000002 0.070720 -0.000004 0.043897
# 5 0.148088 0.009255 0.175944 -0.000004 0.362967 -0.000003
# 6 -0.000001 0.000000 -0.000002 0.043897 -0.000003 0.067513
#
#
# Mechanical properties :
#
#
# Convention : Reuss Voigt Hill
#
# Bulk Modulus (GPa) = 3.04715 56.53770 29.79243
# Shear Modulus (GPa) = 7.08631 31.55608 19.32119
#
# Velocity S-wave (km/s) = 1.78883 3.77487 2.95377
# Velocity P-wave (km/s) = 2.37541 6.67307 5.00862
#
# Compressibility (1/GPa) = 0.32817517
#
# Stress axis : x y z
#
# Youngs Moduli (GPa) = 10.79877 134.83848 8.96331
#
# Poissons Ratio (x) = -0.68111 -0.48472
# Poissons Ratio (y) = -0.05455 0.00749
# Poissons Ratio (z) = -0.58398 0.11261
#
# Static dielectric constant tensor:
#      x y z
#    x 4.035380 0.000000 -1.117500 
#    y 0.000000 3.899390 0.000000 
#    z -1.117500 0.000000 4.533110 
# 
# 
# High freq. dielectric constant tensor:
#      x y z
#    x 1.848220 0.000000 -0.058470 
#    y 0.000000 1.876060 0.000000 
#    z -0.058470 0.000000 1.857300 
# 
# From -- ./inp_files/173327.got.cif
#   From: 2010.06.25/outbox.cif.g09.slc.cpg/sg12_87_cif.got.tgz:173327.got - 2010.06.28 00:19:55.
