data_PCOD8081105
_publ_section_title
;
Structure prediction by ZEFSAII (Michael W. Deem and Ramdas Pophale) SiO2 
 PCOD8081105
Probable space group: C 2/M
;
_chemical_formula_sum "Si O2"
_cell_formula_units_Z 56
_cell_length_a 18.370350
_cell_length_b 13.307784
_cell_length_c 12.917178
_cell_angle_alpha 90.000000
_cell_angle_beta 111.081061
_cell_angle_gamma 90.000000
_cell_volume 2946.498326
_symmetry_space_group_name_H-M "C 2/M"
_symmetry_group_IT_number 12
_symmetry_cell_setting 'monoclinic'
loop_
_space_group_symop_operation_xyz
x,y,z
-x,y,-z
-x,-y,-z
x,-y,z
1/2+x,1/2+y,z
1/2-x,1/2+y,-z
1/2-x,1/2-y,-z
1/2+x,1/2-y,z
loop_
_atom_site_type_symbol
_atom_site_label
_atom_site_fract_x
_atom_site_fract_y
_atom_site_fract_z
Si Si1 0.908956 0.386598 0.468618
Si Si2 0.909610 0.615317 0.853040
Si Si3 0.262493 0.199048 0.675698
Si Si4 0.637515 0.227081 0.748961
Si Si5 0.349825 0.303183 0.555191
Si Si6 0.081673 0.380857 0.912937
Si Si7 0.009648 0.885253 0.624285
O O1 0.886117 0.500000 0.490403
O O2 0.873634 0.361950 0.338780
O O3 0.877926 0.309603 0.539229
O O4 0.000000 0.374609 0.500000
O O5 0.922421 0.500000 0.881701
O O6 0.837360 0.631512 0.739409
O O7 0.991277 0.651841 0.844005
O O8 0.895994 0.660167 0.961118
O O9 0.222409 0.226691 0.764648
O O10 0.293001 0.295842 0.625775
O O11 0.197274 0.146999 0.566730
O O12 0.637154 0.179344 0.862447
O O13 0.572555 0.314279 0.709938
O O14 0.423070 0.370617 0.627424
O O15 0.095099 0.500000 0.904974
O O16 0.000000 0.853809 0.500000
O O17 0.036733 0.000000 0.652790
#
# Coordination Sequence:
#
# PCOD8081105 Si02
#       7
#     8   8   8   8   8   8   8
#     4  10  18  29  49  77 104 133 174 214 256 311
#     4   9  19  35  54  83 106 131 176 217 269 322
#     4  10  21  31  52  74 109 141 168 216 258 310
#     4  11  19  35  52  77 107 138 177 215 261 312
#     4  10  19  37  47  75 109 143 177 209 256 311
#     4   9  19  36  59  79 104 135 170 222 270 319
#     4  11  20  34  53  71 101 143 181 213 246 296
#
# _framework density 19.005610000000001
#
# number of rings (size 3 to 8) (size 9 to 14) (size 15 to 20)
#    0.000    2.000    4.286    2.143    0.000    2.286 
#    0.000    6.429    0.000    0.000    0.000    9.000 
#    0.000    0.000    0.000    0.000    0.000    0.000 
#
# Total GULP energy -346974.226999 kJ/mol
# GULP energy per Si atom -12391.936679 kJ/mol
# Density = 1.896235 g / cm^3
# Si number density = 19.005610 Si / 1000 Ang^3
#
#
#
# Elastic Constant Matrix: (Units=GPa)
#
#
# Indices 1 2 3 4 5 6 
#
# 1 88.0872 9.7318 26.6650 0.0000 -4.9787 0.0000
# 2 9.7318 56.0241 17.4539 0.0000 1.8219 0.0000
# 3 26.6650 17.4539 55.1526 0.0000 -6.8319 0.0000
# 4 0.0000 0.0000 0.0000 28.3153 0.0000 2.9585
# 5 -4.9787 1.8219 -6.8319 0.0000 36.5768 0.0000
# 6 0.0000 0.0000 0.0000 2.9585 0.0000 22.9339
#
#
#
# Elastic Compliance Matrix: (Units=1/GPa)
#
#
# Indices 1 2 3 4 5 6 
#
# 1 0.013320 -0.000394 -0.006233 0.000000 0.000669 0.000000
# 2 -0.000394 0.019989 -0.006414 0.000000 -0.002247 0.000000
# 3 -0.006233 -0.006414 0.023656 0.000000 0.003890 0.000000
# 4 0.000000 0.000000 0.000000 0.035799 0.000000 -0.004618
# 5 0.000669 -0.002247 0.003890 0.000000 0.028269 0.000000
# 6 0.000000 0.000000 0.000000 -0.004618 0.000000 0.044199
#
#
# Mechanical properties :
#
#
# Convention : Reuss Voigt Hill
#
# Bulk Modulus (GPa) = 32.37784 34.10725 33.24255
# Shear Modulus (GPa) = 24.80045 27.25942 26.02993
#
# Velocity S-wave (km/s) = 3.61626 3.79130 3.70482
# Velocity P-wave (km/s) = 5.87447 6.09509 5.98580
#
# Compressibility (1/GPa) = 0.03088532
#
# Stress axis : x y z
#
# Youngs Moduli (GPa) = 75.07299 50.02722 42.27183
#
# Poissons Ratio (x) = 0.01970 0.26346
# Poissons Ratio (y) = 0.02957 0.27112
# Poissons Ratio (z) = 0.46790 0.32087
#
# Static dielectric constant tensor:
#      x y z
#    x 3.673120 0.000000 -0.021020 
#    y 0.000000 3.190000 0.000000 
#    z -0.021020 0.000000 3.227860 
# 
# 
# High freq. dielectric constant tensor:
#      x y z
#    x 1.754580 0.000000 -0.004260 
#    y 0.000000 1.704780 0.000000 
#    z -0.004260 0.000000 1.713250 
# 
# From -- ./inp_files/156137.got.cif
#   From: 2010.06.25/outbox.cif.g09.slc.cpg/sg12_79_cif.got.tgz:156137.got - 2010.06.28 00:19:55.
