data_PCOD8081435
_publ_section_title
;
Structure prediction by ZEFSAII (Michael W. Deem and Ramdas Pophale) SiO2 
 PCOD8081435
Probable space group: C 2/M
;
_chemical_formula_sum "Si O2"
_cell_formula_units_Z 48
_cell_length_a 27.710491
_cell_length_b 8.510458
_cell_length_c 23.828666
_cell_angle_alpha 90.000000
_cell_angle_beta 150.073789
_cell_angle_gamma 90.000000
_cell_volume 2803.475018
_symmetry_space_group_name_H-M "C 2/M"
_symmetry_group_IT_number 12
_symmetry_cell_setting 'monoclinic'
loop_
_space_group_symop_operation_xyz
x,y,z
-x,y,-z
-x,-y,-z
x,-y,z
1/2+x,1/2+y,z
1/2-x,1/2+y,-z
1/2-x,1/2-y,-z
1/2+x,1/2-y,z
loop_
_atom_site_type_symbol
_atom_site_label
_atom_site_fract_x
_atom_site_fract_y
_atom_site_fract_z
Si Si1 0.862223 0.684766 0.557820
Si Si2 0.461938 0.186567 0.547183
Si Si3 0.545681 0.181789 0.124845
Si Si4 0.860793 0.818270 0.674396
Si Si5 0.853281 0.686586 0.329129
Si Si6 0.637764 0.684527 0.110030
O O1 0.875272 0.500000 0.581088
O O2 0.928296 0.750829 0.573675
O O3 0.895989 0.775166 0.647453
O O4 0.751585 0.725307 0.431504
O O5 0.391564 0.252763 0.427423
O O6 0.572449 0.239092 0.645310
O O7 0.453778 0.000000 0.539499
O O8 0.577250 0.216918 0.219811
O O9 0.609217 0.283940 0.145790
O O10 0.560908 0.000000 0.126178
O O11 0.432827 0.225257 0.003773
O O12 0.880390 0.000000 0.705986
O O13 0.850045 0.500000 0.329928
O O14 0.746023 0.750484 0.208343
O O15 0.630538 0.500000 0.090974
#
# Coordination Sequence:
#
# PCOD8081435 Si02
#       6
#     8   8   8   8   8   8
#     4   9  17  29  47  70  95 122 150 184 226 270
#     4   8  13  24  43  69  97 121 148 180 218 266
#     4  11  21  32  46  66  92 122 154 188 228 270
#     4  10  19  31  47  68  93 121 153 188 226 269
#     4   8  14  24  43  70  96 121 148 181 219 264
#     4  10  18  30  48  70  94 120 151 186 226 269
#
# _framework density 17.121607999999998
#
# number of rings (size 3 to 8) (size 9 to 14) (size 15 to 20)
#    0.000    2.667    0.000    5.500    0.000    3.333 
#    0.000    0.000    0.000    3.000    0.000    7.000 
#    0.000    0.000    0.000    0.000    0.000    0.000 
#
# Total GULP energy -297545.724030 kJ/mol
# GULP energy per Si atom -12397.738501 kJ/mol
# Density = 1.708264 g / cm^3
# Si number density = 17.121608 Si / 1000 Ang^3
#
#
#
# Elastic Constant Matrix: (Units=GPa)
#
#
# Indices 1 2 3 4 5 6 
#
# 1 126.5397 10.4475 62.5151 0.0000 4.5779 0.0000
# 2 10.4475 35.7272 21.0158 0.0000 -1.5175 0.0000
# 3 62.5151 21.0158 113.2373 0.0000 4.6553 0.0000
# 4 0.0000 0.0000 0.0000 17.7583 0.0000 -7.1966
# 5 4.5779 -1.5175 4.6553 0.0000 29.3396 0.0000
# 6 0.0000 0.0000 0.0000 -7.1966 0.0000 16.7933
#
#
#
# Elastic Compliance Matrix: (Units=1/GPa)
#
#
# Indices 1 2 3 4 5 6 
#
# 1 0.010886 0.000341 -0.006044 0.000000 -0.000722 0.000000
# 2 0.000341 0.031624 -0.006163 0.000000 0.002560 0.000000
# 3 -0.006044 -0.006163 0.013373 0.000000 -0.001498 0.000000
# 4 0.000000 0.000000 0.000000 0.068147 0.000000 0.029204
# 5 -0.000722 0.002560 -0.001498 0.000000 0.034566 0.000000
# 6 0.000000 0.000000 0.000000 0.029204 0.000000 0.072063
#
#
# Mechanical properties :
#
#
# Convention : Reuss Voigt Hill
#
# Bulk Modulus (GPa) = 31.10171 51.49565 41.29868
# Shear Modulus (GPa) = 18.86030 24.87995 21.87013
#
# Velocity S-wave (km/s) = 3.32256 3.81613 3.57787
# Velocity P-wave (km/s) = 5.73793 7.03981 6.42194
#
# Compressibility (1/GPa) = 0.03215258
#
# Stress axis : x y z
#
# Youngs Moduli (GPa) = 91.85761 31.62160 74.77845
#
# Poissons Ratio (x) = -0.01078 0.45194
# Poissons Ratio (y) = -0.03132 0.46083
# Poissons Ratio (z) = 0.55516 0.19487
#
# Static dielectric constant tensor:
#      x y z
#    x 3.335530 0.000000 0.117210 
#    y 0.000000 2.915630 0.000000 
#    z 0.117210 0.000000 3.257700 
# 
# 
# High freq. dielectric constant tensor:
#      x y z
#    x 1.651830 0.000000 0.001420 
#    y 0.000000 1.638770 0.000000 
#    z 0.001420 0.000000 1.651790 
# 
# From -- ./inp_files/352753.got.cif
#   From: 2010.06.25/outbox.cif.g09.slc.cpg/sg12_177_cif.got.tgz:352753.got - 2010.06.28 00:19:55.
