data_PCOD8081497
_publ_section_title
;
Structure prediction by ZEFSAII (Michael W. Deem and Ramdas Pophale) SiO2 
 PCOD8081497
Probable space group: C 2/M
;
_chemical_formula_sum "Si O2"
_cell_formula_units_Z 56
_cell_length_a 11.167769
_cell_length_b 20.508878
_cell_length_c 15.264136
_cell_angle_alpha 90.000000
_cell_angle_beta 116.044157
_cell_angle_gamma 90.000000
_cell_volume 3141.067952
_symmetry_space_group_name_H-M "C 2/M"
_symmetry_group_IT_number 12
_symmetry_cell_setting 'monoclinic'
loop_
_space_group_symop_operation_xyz
x,y,z
-x,y,-z
-x,-y,-z
x,-y,z
1/2+x,1/2+y,z
1/2-x,1/2+y,-z
1/2-x,1/2-y,-z
1/2+x,1/2-y,z
loop_
_atom_site_type_symbol
_atom_site_label
_atom_site_fract_x
_atom_site_fract_y
_atom_site_fract_z
Si Si1 0.653619 0.825215 0.542319
Si Si2 0.874096 0.802970 0.127262
Si Si3 0.797675 0.666618 0.771125
Si Si4 0.765445 0.336482 0.087906
Si Si5 0.335431 0.317949 0.761099
Si Si6 0.651567 0.670794 0.550358
Si Si7 0.482565 0.075715 0.095896
O O1 0.500000 0.852860 0.500000
O O2 0.735709 0.845081 0.655510
O O3 0.643689 0.747831 0.533318
O O4 0.740746 0.854213 0.488573
O O5 0.766295 0.838108 0.153407
O O6 0.867782 0.724194 0.132813
O O7 0.010712 0.833746 0.208093
O O8 0.851268 0.819233 0.018065
O O9 0.840033 0.740296 0.768819
O O10 0.700915 0.647185 0.660822
O O11 0.918056 0.615979 0.810292
O O12 0.702347 0.352775 0.160879
O O13 0.836166 0.401719 0.076990
O O14 0.500000 0.642442 0.500000
O O15 0.502912 0.000000 0.121764
O O16 0.500000 0.092783 0.000000
#
# Coordination Sequence:
#
# PCOD8081497 Si02
#       7
#     8   8   8   8   8   8   8
#     4   9  18  28  41  70 106 143 168 195 259 322
#     4  10  18  30  48  77 109 130 161 215 260 323
#     4  10  19  30  51  75 103 138 176 206 261 308
#     4  10  20  30  50  74 103 136 169 205 263 308
#     4  10  19  29  50  76 111 135 163 212 266 319
#     4   9  17  29  46  68 104 137 168 210 256 315
#     4  11  22  37  53  72 104 141 182 217 246 301
#
# _framework density 17.828332
#
# number of rings (size 3 to 8) (size 9 to 14) (size 15 to 20)
#    0.000    2.143    2.857    1.286    2.000    3.429 
#    0.000    0.000    0.000    3.000    0.000    2.000 
#    0.000    0.000    0.000    0.000    0.000    0.000 
#
# Total GULP energy -346972.933470 kJ/mol
# GULP energy per Si atom -12391.890481 kJ/mol
# Density = 1.778775 g / cm^3
# Si number density = 17.828332 Si / 1000 Ang^3
#
#
#
# Elastic Constant Matrix: (Units=GPa)
#
#
# Indices 1 2 3 4 5 6 
#
# 1 90.5579 13.3597 34.1660 0.0000 7.8865 0.0000
# 2 13.3597 32.2945 13.9961 0.0000 0.5743 0.0000
# 3 34.1660 13.9961 94.0575 0.0000 -0.3257 0.0000
# 4 0.0000 0.0000 0.0000 9.6926 0.0000 0.1617
# 5 7.8865 0.5743 -0.3257 0.0000 33.8242 0.0000
# 6 0.0000 0.0000 0.0000 0.1617 0.0000 13.6800
#
#
#
# Elastic Compliance Matrix: (Units=1/GPa)
#
#
# Indices 1 2 3 4 5 6 
#
# 1 0.013502 -0.003634 -0.004375 0.000000 -0.003129 0.000000
# 2 -0.003634 0.034090 -0.003752 0.000000 0.000232 0.000000
# 3 -0.004375 -0.003752 0.012783 0.000000 0.001207 0.000000
# 4 0.000000 0.000000 0.000000 0.103192 0.000000 -0.001220
# 5 -0.003129 0.000232 0.001207 0.000000 0.030302 0.000000
# 6 0.000000 0.000000 0.000000 -0.001220 0.000000 0.073114
#
#
# Mechanical properties :
#
#
# Convention : Reuss Voigt Hill
#
# Bulk Modulus (GPa) = 27.13377 37.77263 32.45320
# Shear Modulus (GPa) = 16.51318 21.79856 19.15587
#
# Velocity S-wave (km/s) = 3.04671 3.50049 3.28146
# Velocity P-wave (km/s) = 5.25634 6.12950 5.70964
#
# Compressibility (1/GPa) = 0.03685444
#
# Stress axis : x y z
#
# Youngs Moduli (GPa) = 74.06503 29.33392 78.22706
#
# Poissons Ratio (x) = 0.10660 0.34221
# Poissons Ratio (y) = 0.26915 0.29350
# Poissons Ratio (z) = 0.32400 0.11006
#
# Static dielectric constant tensor:
#      x y z
#    x 3.472110 0.000000 -0.001380 
#    y 0.000000 2.637920 0.000000 
#    z -0.001380 0.000000 3.420990 
# 
# 
# High freq. dielectric constant tensor:
#      x y z
#    x 1.702220 0.000000 0.001070 
#    y 0.000000 1.607850 0.000000 
#    z 0.001070 0.000000 1.703890 
# 
# From -- ./inp_files/133318.got.cif
#   From: 2010.06.25/outbox.cif.g09.slc.cpg/sg12_67_cif.got.tgz:133318.got - 2010.06.28 00:19:55.
