data_PCOD8081875
_publ_section_title
;
Structure prediction by ZEFSAII (Michael W. Deem and Ramdas Pophale) SiO2 
 PCOD8081875
Probable space group: C 2/M
;
_chemical_formula_sum "Si O2"
_cell_formula_units_Z 64
_cell_length_a 30.885697
_cell_length_b 8.566394
_cell_length_c 12.128743
_cell_angle_alpha 90.000000
_cell_angle_beta 81.641237
_cell_angle_gamma 90.000000
_cell_volume 3174.922660
_symmetry_space_group_name_H-M "C 2/M"
_symmetry_group_IT_number 12
_symmetry_cell_setting 'monoclinic'
loop_
_space_group_symop_operation_xyz
x,y,z
-x,y,-z
-x,-y,-z
x,-y,z
1/2+x,1/2+y,z
1/2-x,1/2+y,-z
1/2-x,1/2-y,-z
1/2+x,1/2-y,z
loop_
_atom_site_type_symbol
_atom_site_label
_atom_site_fract_x
_atom_site_fract_y
_atom_site_fract_z
Si Si1 0.601119 0.683864 0.088005
Si Si2 0.580620 0.316568 0.854991
Si Si3 0.531864 0.823280 0.590358
Si Si4 0.991551 0.818842 0.812061
Si Si5 0.213000 0.684404 0.594526
Si Si6 0.380819 0.314273 0.387356
Si Si7 0.188920 0.681316 0.057725
Si Si8 0.771070 0.182566 0.168897
O O1 0.605113 0.500000 0.109131
O O2 0.555939 0.758509 0.150302
O O3 0.642107 0.772025 0.127524
O O4 0.604544 0.727846 0.957796
O O5 0.576107 0.500000 0.841324
O O6 0.530430 0.251120 0.875788
O O7 0.608262 0.254326 0.740945
O O8 0.500000 0.819529 0.500000
O O9 0.507697 0.708566 0.683057
O O10 0.580890 0.756430 0.547844
O O11 0.536041 0.000000 0.634111
O O12 0.984221 0.000000 0.839382
O O13 0.213305 0.500000 0.585781
O O14 0.250000 0.750000 0.500000
O O15 0.166718 0.747567 0.565370
O O16 0.220731 0.731455 0.718873
O O17 0.380004 0.500000 0.400007
O O18 0.192695 0.500000 0.029977
O O19 0.223602 0.729985 0.138644
O O20 0.194798 0.772011 0.939785
O O21 0.775904 0.000000 0.191374
#
# Coordination Sequence:
#
# PCOD8081875 Si02
#       8
#     8   8   8   8   8   8   8   8
#     4  10  18  30  51  80 113 148 185 228 283 347
#     4   8  15  29  52  79 108 142 181 224 272 329
#     4  10  21  38  58  80 109 151 195 241 292 340
#     4   9  18  32  51  77 108 145 187 233 284 340
#     4  12  25  42  64  91 122 154 195 248 305 361
#     4  10  20  37  62  89 114 147 192 238 287 345
#     4  10  21  36  57  85 116 154 195 241 295 353
#     4  10  21  40  62  83 113 154 198 244 295 352
#
# _framework density 20.157971
#
# number of rings (size 3 to 8) (size 9 to 14) (size 15 to 20)
#    0.000    2.125    0.000    4.500    0.000    5.500 
#    2.250    2.500    0.000    3.750    0.000    0.000 
#    0.000    0.000    0.000    0.000    0.000    0.000 
#
# Total GULP energy -396596.063213 kJ/mol
# GULP energy per Si atom -12393.626975 kJ/mol
# Density = 2.011209 g / cm^3
# Si number density = 20.157971 Si / 1000 Ang^3
#
#
#
# Elastic Constant Matrix: (Units=GPa)
#
#
# Indices 1 2 3 4 5 6 
#
# 1 182.8762 44.0691 38.2940 0.0000 -8.4664 0.0000
# 2 44.0691 71.7127 19.7496 0.0000 4.5721 0.0000
# 3 38.2940 19.7496 41.6890 0.0000 7.3336 0.0000
# 4 0.0000 0.0000 0.0000 23.7305 0.0000 -0.3328
# 5 -8.4664 4.5721 7.3336 0.0000 26.2932 0.0000
# 6 0.0000 0.0000 0.0000 -0.3328 0.0000 31.5986
#
#
#
# Elastic Compliance Matrix: (Units=1/GPa)
#
#
# Indices 1 2 3 4 5 6 
#
# 1 0.007867 -0.003358 -0.006503 0.000000 0.004931 0.000000
# 2 -0.003358 0.017483 -0.004703 0.000000 -0.002810 0.000000
# 3 -0.006503 -0.004703 0.034086 0.000000 -0.010783 0.000000
# 4 0.000000 0.000000 0.000000 0.042146 0.000000 0.000444
# 5 0.004931 -0.002810 -0.010783 0.000000 0.043117 0.000000
# 6 0.000000 0.000000 0.000000 0.000444 0.000000 0.031652
#
#
# Mechanical properties :
#
#
# Convention : Reuss Voigt Hill
#
# Bulk Modulus (GPa) = 32.99629 55.61149 44.30389
# Shear Modulus (GPa) = 23.19304 29.26882 26.23093
#
# Velocity S-wave (km/s) = 3.39568 3.81461 3.61122
# Velocity P-wave (km/s) = 5.63725 6.85926 6.27805
#
# Compressibility (1/GPa) = 0.03030643
#
# Stress axis : x y z
#
# Youngs Moduli (GPa) = 127.10525 57.19983 29.33767
#
# Poissons Ratio (x) = 0.19208 0.19079
# Poissons Ratio (y) = 0.42684 0.13798
# Poissons Ratio (z) = 0.82661 0.26903
#
# Static dielectric constant tensor:
#      x y z
#    x 4.070250 0.000000 0.033720 
#    y 0.000000 3.561660 0.000000 
#    z 0.033720 0.000000 3.500110 
# 
# 
# High freq. dielectric constant tensor:
#      x y z
#    x 1.813670 0.000000 0.004270 
#    y 0.000000 1.773470 0.000000 
#    z 0.004270 0.000000 1.758500 
# 
# From -- ./inp_files/187511.got.cif
#   From: 2010.06.25/outbox.cif.g09.slc.cpg/sg12_94_cif.got.tgz:187511.got - 2010.06.28 00:19:55.
