data_PCOD8081268
_publ_section_title
;
Structure prediction by ZEFSAII (Michael W. Deem and Ramdas Pophale) SiO2 
 PCOD8081268
Probable space group: C 2/M
;
_chemical_formula_sum "Si O2"
_cell_formula_units_Z 36
_cell_length_a 10.767491
_cell_length_b 33.640155
_cell_length_c 5.147169
_cell_angle_alpha 90.000000
_cell_angle_beta 76.029622
_cell_angle_gamma 90.000000
_cell_volume 1809.259961
_symmetry_space_group_name_H-M "C 2/M"
_symmetry_group_IT_number 12
_symmetry_cell_setting 'monoclinic'
loop_
_space_group_symop_operation_xyz
x,y,z
-x,y,-z
-x,-y,-z
x,-y,z
1/2+x,1/2+y,z
1/2-x,1/2+y,-z
1/2-x,1/2-y,-z
1/2+x,1/2-y,z
loop_
_atom_site_type_symbol
_atom_site_label
_atom_site_fract_x
_atom_site_fract_y
_atom_site_fract_z
Si Si1 0.852448 0.716357 0.407514
Si Si2 0.348330 0.455684 0.576088
Si Si3 0.245923 0.679214 0.056444
Si Si4 0.500000 0.730851 0.000000
Si Si5 0.848166 0.907851 0.075288
O O1 0.750000 0.750000 0.500000
O O2 0.858701 0.690581 0.668702
O O3 0.813017 0.686697 0.194904
O O4 0.982442 0.740021 0.260461
O O5 0.500000 0.458586 0.500000
O O6 0.289926 0.500000 0.578008
O O7 0.301081 0.428052 0.364815
O O8 0.302748 0.436711 0.868355
O O9 0.375535 0.704625 0.016529
O O10 0.277014 0.633393 0.074323
O O11 0.000000 0.900464 0.000000
#
# Coordination Sequence:
#
# PCOD8081268 Si02
#       5
#     8   8   8   4   8
#     4  10  22  34  49  69  91 123 164 206 250 279
#     4   9  17  28  44  65  92 125 161 185 221 282
#     4  11  21  34  49  72  94 125 167 205 235 284
#     4  10  20  36  50  66  93 128 163 206 238 288
#     4  10  18  30  45  67  93 128 156 195 234 266
#
# _framework density 19.897638000000001
#
# number of rings (size 3 to 8) (size 9 to 14) (size 15 to 20)
#    0.000    2.000    1.111    4.667    0.000   10.667 
#    0.000    0.000    0.000    0.000    0.000    0.000 
#    0.000    0.000    0.000   70.000    0.000    0.000 
#
# Total GULP energy -223106.482478 kJ/mol
# GULP energy per Si atom -12394.804582 kJ/mol
# Density = 1.985235 g / cm^3
# Si number density = 19.897638 Si / 1000 Ang^3
#
#
#
# Elastic Constant Matrix: (Units=GPa)
#
#
# Indices 1 2 3 4 5 6 
#
# 1 24.8487 24.4713 16.7226 0.0000 12.0412 0.0000
# 2 24.4713 157.9480 52.4043 0.0000 13.9133 0.0000
# 3 16.7226 52.4043 130.1055 0.0000 22.4782 0.0000
# 4 0.0000 0.0000 0.0000 29.5081 0.0000 9.1113
# 5 12.0412 13.9133 22.4782 0.0000 30.3698 0.0000
# 6 0.0000 0.0000 0.0000 9.1113 0.0000 17.2730
#
#
#
# Elastic Compliance Matrix: (Units=1/GPa)
#
#
# Indices 1 2 3 4 5 6 
#
# 1 0.056688 -0.006695 -0.001417 0.000000 -0.018360 0.000000
# 2 -0.006695 0.008146 -0.002562 0.000000 0.000819 0.000000
# 3 -0.001417 -0.002562 0.009861 0.000000 -0.005563 0.000000
# 4 0.000000 0.000000 0.000000 0.040483 0.000000 -0.021354
# 5 -0.018360 0.000819 -0.005563 0.000000 0.043949 0.000000
# 6 0.000000 0.000000 0.000000 -0.021354 0.000000 0.069158
#
#
# Mechanical properties :
#
#
# Convention : Reuss Voigt Hill
#
# Bulk Modulus (GPa) = 18.74557 55.56652 37.15604
# Shear Modulus (GPa) = 18.69738 30.05043 24.37390
#
# Velocity S-wave (km/s) = 3.06874 3.89041 3.50375
# Velocity P-wave (km/s) = 4.69017 6.94026 5.92304
#
# Compressibility (1/GPa) = 0.05334593
#
# Stress axis : x y z
#
# Youngs Moduli (GPa) = 17.64044 122.75255 101.40566
#
# Poissons Ratio (x) = 0.82186 0.14374
# Poissons Ratio (y) = 0.11811 0.25982
# Poissons Ratio (z) = 0.02500 0.31451
#
# Static dielectric constant tensor:
#      x y z
#    x 3.264980 0.000000 -0.122440 
#    y 0.000000 3.771270 0.000000 
#    z -0.122440 0.000000 4.503810 
# 
# 
# High freq. dielectric constant tensor:
#      x y z
#    x 1.728710 0.000000 0.016290 
#    y 0.000000 1.778240 0.000000 
#    z 0.016290 0.000000 1.800200 
# 
# From -- ./inp_files/7487.got.cif
#   From: 2010.06.25/outbox.cif.g09.slc.cpg/sg12_4_cif.got.tgz:7487.got - 2010.06.28 00:19:55.
