data_PCOD8081397
_publ_section_title
;
Structure prediction by ZEFSAII (Michael W. Deem and Ramdas Pophale) SiO2 
 PCOD8081397
Probable space group: C 2/M
;
_chemical_formula_sum "Si O2"
_cell_formula_units_Z 48
_cell_length_a 27.555529
_cell_length_b 9.104713
_cell_length_c 12.074118
_cell_angle_alpha 90.000000
_cell_angle_beta 71.786476
_cell_angle_gamma 90.000000
_cell_volume 2877.448375
_symmetry_space_group_name_H-M "C 2/M"
_symmetry_group_IT_number 12
_symmetry_cell_setting 'monoclinic'
loop_
_space_group_symop_operation_xyz
x,y,z
-x,y,-z
-x,-y,-z
x,-y,z
1/2+x,1/2+y,z
1/2-x,1/2+y,-z
1/2-x,1/2-y,-z
1/2+x,1/2-y,z
loop_
_atom_site_type_symbol
_atom_site_label
_atom_site_fract_x
_atom_site_fract_y
_atom_site_fract_z
Si Si1 0.606620 0.328774 0.751266
Si Si2 0.886220 0.831146 0.579206
Si Si3 0.945944 0.172095 0.995241
Si Si4 0.061595 0.170230 0.245225
Si Si5 0.538446 0.174211 0.629687
Si Si6 0.303090 0.330300 0.468774
O O1 0.595545 0.500000 0.735026
O O2 0.563155 0.233160 0.724768
O O3 0.662080 0.285993 0.662648
O O4 0.600600 0.292976 0.886376
O O5 0.887771 0.811828 0.712294
O O6 0.930142 0.729639 0.497901
O O7 0.831872 0.786657 0.563177
O O8 0.897583 0.000000 0.537396
O O9 0.929497 0.232850 0.885659
O O10 0.953942 0.000000 0.978635
O O11 0.000000 0.240312 0.000000
O O12 0.018383 0.263529 0.337121
O O13 0.045020 0.000000 0.252938
O O14 0.537125 0.000000 0.630293
O O15 0.289939 0.500000 0.475329
O O16 0.250000 0.250000 0.500000
#
# Coordination Sequence:
#
# PCOD8081397 Si02
#       6
#     8   8   8   8   8   8
#     4   9  17  32  50  70  95 123 160 197 227 271
#     4   9  19  33  48  67  91 121 159 195 232 279
#     4   9  15  26  49  73  92 121 162 196 220 260
#     4  10  18  30  48  67  92 128 160 190 227 270
#     4  11  20  28  42  67  99 130 158 190 229 274
#     4   9  18  32  51  71  90 115 151 198 243 282
#
# _framework density 16.681446000000001
#
# number of rings (size 3 to 8) (size 9 to 14) (size 15 to 20)
#    0.000    2.500    1.667    3.000    0.000    5.333 
#    0.000    1.667    0.000    1.000    0.000    0.000 
#    0.000    0.000    0.000    0.000    0.000    0.667 
#
# Total GULP energy -297364.474532 kJ/mol
# GULP energy per Si atom -12390.186439 kJ/mol
# Density = 1.664348 g / cm^3
# Si number density = 16.681446 Si / 1000 Ang^3
#
#
#
# Elastic Constant Matrix: (Units=GPa)
#
#
# Indices 1 2 3 4 5 6 
#
# 1 117.1582 33.1483 76.4943 0.0000 7.0788 0.0000
# 2 33.1483 54.6090 23.6117 0.0000 1.8125 0.0000
# 3 76.4943 23.6117 117.1627 0.0000 21.9703 0.0000
# 4 0.0000 0.0000 0.0000 7.1121 0.0000 -2.5968
# 5 7.0788 1.8125 21.9703 0.0000 24.5929 0.0000
# 6 0.0000 0.0000 0.0000 -2.5968 0.0000 22.9633
#
#
#
# Elastic Compliance Matrix: (Units=1/GPa)
#
#
# Indices 1 2 3 4 5 6 
#
# 1 0.016968 -0.005758 -0.010909 0.000000 0.005286 0.000000
# 2 -0.005758 0.022150 -0.000852 0.000000 0.000786 0.000000
# 3 -0.010909 -0.000852 0.018293 0.000000 -0.013139 0.000000
# 4 0.000000 0.000000 0.000000 0.146661 0.000000 0.016585
# 5 0.005286 0.000786 -0.013139 0.000000 0.050821 0.000000
# 6 0.000000 0.000000 0.000000 0.016585 0.000000 0.045423
#
#
# Mechanical properties :
#
#
# Convention : Reuss Voigt Hill
#
# Bulk Modulus (GPa) = 44.69730 61.71540 53.20635
# Shear Modulus (GPa) = 14.58531 21.31202 17.94867
#
# Velocity S-wave (km/s) = 2.96014 3.57821 3.28375
# Velocity P-wave (km/s) = 6.20774 7.35855 6.80750
#
# Compressibility (1/GPa) = 0.02237272
#
# Stress axis : x y z
#
# Youngs Moduli (GPa) = 58.93471 45.14772 54.66583
#
# Poissons Ratio (x) = 0.25998 0.59635
# Poissons Ratio (y) = 0.33937 0.04655
# Poissons Ratio (z) = 0.64291 0.03845
#
# Static dielectric constant tensor:
#      x y z
#    x 2.981340 0.000000 0.245490 
#    y 0.000000 2.895780 0.000000 
#    z 0.245490 0.000000 3.395790 
# 
# 
# High freq. dielectric constant tensor:
#      x y z
#    x 1.613980 0.000000 0.020250 
#    y 0.000000 1.619380 0.000000 
#    z 0.020250 0.000000 1.643580 
# 
# From -- ./inp_files/179176.got.cif
#   From: 2010.06.25/outbox.cif.g09.slc.cpg/sg12_90_cif.got.tgz:179176.got - 2010.06.28 00:19:55.
