data_PCOD8081209
_publ_section_title
;
Structure prediction by ZEFSAII (Michael W. Deem and Ramdas Pophale) SiO2 
 PCOD8081209
Probable space group: C 2/M
;
_chemical_formula_sum "Si O2"
_cell_formula_units_Z 56
_cell_length_a 20.226342
_cell_length_b 8.571801
_cell_length_c 29.402264
_cell_angle_alpha 90.000000
_cell_angle_beta 145.258991
_cell_angle_gamma 90.000000
_cell_volume 2904.987935
_symmetry_space_group_name_H-M "C 2/M"
_symmetry_group_IT_number 12
_symmetry_cell_setting 'monoclinic'
loop_
_space_group_symop_operation_xyz
x,y,z
-x,y,-z
-x,-y,-z
x,-y,z
1/2+x,1/2+y,z
1/2-x,1/2+y,-z
1/2-x,1/2-y,-z
1/2+x,1/2-y,z
loop_
_atom_site_type_symbol
_atom_site_label
_atom_site_fract_x
_atom_site_fract_y
_atom_site_fract_z
Si Si1 0.463218 0.682387 0.839595
Si Si2 0.288272 0.819156 0.425049
Si Si3 0.071618 0.319199 0.349125
Si Si4 0.914019 0.317768 0.177790
Si Si5 0.265395 0.318843 0.315083
Si Si6 0.188239 0.181465 0.008122
Si Si7 0.493384 0.318688 0.592933
O O1 0.433877 0.500000 0.826258
O O2 0.519685 0.716988 0.822392
O O3 0.344487 0.778417 0.778909
O O4 0.553204 0.738255 0.931023
O O5 0.184188 0.781547 0.400691
O O6 0.250701 0.778483 0.352872
O O7 0.401108 0.718415 0.501422
O O8 0.319594 0.000000 0.446827
O O9 0.105106 0.500000 0.363363
O O10 0.033425 0.284292 0.378433
O O11 0.964661 0.274775 0.255645
O O12 0.934033 0.500000 0.177577
O O13 0.773727 0.279428 0.099101
O O14 0.266958 0.500000 0.328690
O O15 0.380775 0.269131 0.353945
O O16 0.180123 0.000000 0.995432
O O17 0.250000 0.250000 0.000000
O O18 0.488671 0.500000 0.603151
#
# Coordination Sequence:
#
# PCOD8081209 Si02
#       7
#     8   8   8   8   8   8   8
#     4  10  18  29  51  81 111 141 179 226 270 321
#     4  12  24  39  61  85 110 139 180 231 277 328
#     4  11  22  37  59  84 113 147 184 225 271 326
#     4   9  17  31  52  77 110 146 179 219 269 325
#     4  11  23  39  58  80 110 147 185 226 276 329
#     4   8  15  27  45  75 109 140 175 218 268 317
#     4  11  25  42  58  78 109 147 186 229 276 327
#
# _framework density 19.277189
#
# number of rings (size 3 to 8) (size 9 to 14) (size 15 to 20)
#    0.000    1.714    1.429    3.857    0.000    5.143 
#    0.000    0.000    0.000    0.857    0.000    6.000 
#    0.000    0.000    0.000    0.000    0.000    0.000 
#
# Total GULP energy -347073.211442 kJ/mol
# GULP energy per Si atom -12395.471837 kJ/mol
# Density = 1.923331 g / cm^3
# Si number density = 19.277189 Si / 1000 Ang^3
#
#
#
# Elastic Constant Matrix: (Units=GPa)
#
#
# Indices 1 2 3 4 5 6 
#
# 1 72.1757 20.2077 33.0685 0.0000 20.8296 -0.0002
# 2 20.2077 40.1471 22.2137 0.0001 3.6200 -0.0005
# 3 33.0685 22.2137 140.5876 0.0000 36.8464 -0.0001
# 4 0.0000 0.0001 0.0000 27.4390 0.0000 4.0173
# 5 20.8296 3.6200 36.8464 0.0000 20.9292 0.0000
# 6 -0.0002 -0.0005 -0.0001 4.0173 0.0000 23.3428
#
#
#
# Elastic Compliance Matrix: (Units=1/GPa)
#
#
# Indices 1 2 3 4 5 6 
#
# 1 0.023282 -0.011162 0.003443 0.000000 -0.027302 0.000000
# 2 -0.011162 0.032970 -0.007429 0.000000 0.018484 0.000001
# 3 0.003443 -0.007429 0.014925 0.000000 -0.028417 0.000000
# 4 0.000000 0.000000 0.000000 0.037387 0.000000 -0.006434
# 5 -0.027302 0.018484 -0.028417 0.000000 0.121783 0.000000
# 6 0.000000 0.000001 0.000000 -0.006434 0.000000 0.043947
#
#
# Mechanical properties :
#
#
# Convention : Reuss Voigt Hill
#
# Bulk Modulus (GPa) = 24.46091 44.87669 34.66880
# Shear Modulus (GPa) = 15.71260 26.17024 20.94142
#
# Velocity S-wave (km/s) = 2.85807 3.68853 3.29953
# Velocity P-wave (km/s) = 4.85881 6.43976 5.70432
#
# Compressibility (1/GPa) = 0.04088156
#
# Stress axis : x y z
#
# Youngs Moduli (GPa) = 42.95184 30.33046 67.00305
#
# Poissons Ratio (x) = 0.33854 -0.23068
# Poissons Ratio (y) = 0.47942 0.49773
# Poissons Ratio (z) = -0.14787 0.22531
#
# Static dielectric constant tensor:
#      x y z
#    x 3.109900 0.000000 0.232780 
#    y 0.000000 3.465280 0.000000 
#    z 0.232780 0.000000 4.274290 
# 
# 
# High freq. dielectric constant tensor:
#      x y z
#    x 1.701960 0.000000 0.017220 
#    y 0.000000 1.754300 0.000000 
#    z 0.017220 0.000000 1.778680 
# 
# From -- ./inp_files/281037.got.cif
#   From: 2010.06.25/outbox.cif.g09.slc.cpg/sg12_141_cif.got.tgz:281037.got - 2010.06.28 00:19:55.
