data_PCOD8081627
_publ_section_title
;
Structure prediction by ZEFSAII (Michael W. Deem and Ramdas Pophale) SiO2 
 PCOD8081627
Probable space group: C 2/M
;
_chemical_formula_sum "Si O2"
_cell_formula_units_Z 64
_cell_length_a 29.743697
_cell_length_b 9.112310
_cell_length_c 16.952470
_cell_angle_alpha 90.000000
_cell_angle_beta 134.347942
_cell_angle_gamma 90.000000
_cell_volume 3285.701517
_symmetry_space_group_name_H-M "C 2/M"
_symmetry_group_IT_number 12
_symmetry_cell_setting 'monoclinic'
loop_
_space_group_symop_operation_xyz
x,y,z
-x,y,-z
-x,-y,-z
x,-y,z
1/2+x,1/2+y,z
1/2-x,1/2+y,-z
1/2-x,1/2-y,-z
1/2+x,1/2-y,z
loop_
_atom_site_type_symbol
_atom_site_label
_atom_site_fract_x
_atom_site_fract_y
_atom_site_fract_z
Si Si1 0.556671 0.831063 0.399162
Si Si2 0.651687 0.334018 0.955922
Si Si3 0.628429 0.172528 0.643510
Si Si4 0.044684 0.166501 0.950532
Si Si5 0.760557 0.326678 0.824824
Si Si6 0.364868 0.168170 0.833180
Si Si7 0.068115 0.827349 0.710296
Si Si8 0.576228 0.833392 0.249222
O O1 0.605451 0.790375 0.527420
O O2 0.495059 0.730512 0.326256
O O3 0.593405 0.801551 0.361558
O O4 0.535025 0.000000 0.380132
O O5 0.677946 0.500000 0.993451
O O6 0.705369 0.223209 0.052236
O O7 0.589696 0.315284 0.931436
O O8 0.629585 0.296134 0.840042
O O9 0.695050 0.246507 0.737758
O O10 0.577560 0.242032 0.640203
O O11 0.633501 0.000000 0.665371
O O12 0.977857 0.226612 0.844541
O O13 0.036466 0.000000 0.966636
O O14 0.073138 0.249866 0.060387
O O15 0.749272 0.500000 0.814324
O O16 0.801665 0.274887 0.798993
O O17 0.363613 0.189828 0.736048
O O18 0.372645 0.000000 0.867227
O O19 0.060558 0.000000 0.685476
O O20 0.551740 0.000000 0.210565
#
# Coordination Sequence:
#
# PCOD8081627 Si02
#       8
#     8   8   8   8   8   8   8   8
#     4  10  22  39  59  83 113 149 187 228 277 333
#     4   9  19  35  55  82 116 148 177 221 278 334
#     4  11  24  41  59  80 109 148 191 233 280 333
#     4  10  18  30  49  79 116 148 179 221 274 328
#     4  10  21  38  59  82 110 147 191 232 273 324
#     4   9  19  34  53  79 110 146 186 226 270 326
#     4  11  22  38  61  88 115 143 181 229 283 335
#     4  10  19  33  54  79 110 147 185 224 271 328
#
# _framework density 19.478335999999999
#
# number of rings (size 3 to 8) (size 9 to 14) (size 15 to 20)
#    0.000    2.000    1.250    2.250    0.000    7.000 
#    0.000    0.625    0.000    0.000    0.000    0.000 
#    0.000    0.000    0.000    0.000    0.000    0.000 
#
# Total GULP energy -396753.675888 kJ/mol
# GULP energy per Si atom -12398.552372 kJ/mol
# Density = 1.943400 g / cm^3
# Si number density = 19.478336 Si / 1000 Ang^3
#
#
#
# Elastic Constant Matrix: (Units=GPa)
#
#
# Indices 1 2 3 4 5 6 
#
# 1 41.3174 21.7873 25.4543 0.0000 -13.0647 0.0000
# 2 21.7873 77.7144 31.9866 0.0000 -1.2496 0.0000
# 3 25.4543 31.9866 72.7039 0.0000 -12.2050 0.0000
# 4 0.0000 0.0000 0.0000 22.2144 0.0000 4.2168
# 5 -13.0647 -1.2496 -12.2050 0.0000 33.8269 0.0000
# 6 0.0000 0.0000 0.0000 4.2168 0.0000 26.4400
#
#
#
# Elastic Compliance Matrix: (Units=1/GPa)
#
#
# Indices 1 2 3 4 5 6 
#
# 1 0.035979 -0.006687 -0.007838 0.000000 0.010821 0.000000
# 2 -0.006687 0.017089 -0.005860 0.000000 -0.004066 0.000000
# 3 -0.007838 -0.005860 0.019727 0.000000 0.003874 0.000000
# 4 0.000000 0.000000 0.000000 0.046421 0.000000 -0.007404
# 5 0.010821 -0.004066 0.003874 0.000000 0.034989 0.000000
# 6 0.000000 0.000000 0.000000 -0.007404 0.000000 0.039002
#
#
# Mechanical properties :
#
#
# Convention : Reuss Voigt Hill
#
# Bulk Modulus (GPa) = 31.22490 38.91020 35.06755
# Shear Modulus (GPa) = 20.43716 23.99676 22.21696
#
# Velocity S-wave (km/s) = 3.24269 3.51375 3.38094
# Velocity P-wave (km/s) = 5.48502 6.03999 5.76918
#
# Compressibility (1/GPa) = 0.03202573
#
# Stress axis : x y z
#
# Youngs Moduli (GPa) = 27.79365 58.51826 50.69188
#
# Poissons Ratio (x) = 0.39129 0.39734
# Poissons Ratio (y) = 0.18585 0.29704
# Poissons Ratio (z) = 0.21786 0.34290
#
# Static dielectric constant tensor:
#      x y z
#    x 3.731330 0.000000 -0.394210 
#    y 0.000000 3.613010 0.000000 
#    z -0.394210 0.000000 3.585640 
# 
# 
# High freq. dielectric constant tensor:
#      x y z
#    x 1.759780 0.000000 -0.021340 
#    y 0.000000 1.763340 0.000000 
#    z -0.021340 0.000000 1.744160 
# 
# From -- ./inp_files/249985.got.cif
#   From: 2010.06.25/outbox.cif.g09.slc.cpg/sg12_125_cif.got.tgz:249985.got - 2010.06.28 00:19:55.
