data_PCOD8081221
_publ_section_title
;
Structure prediction by ZEFSAII (Michael W. Deem and Ramdas Pophale) SiO2 
 PCOD8081221
Probable space group: C 2/M
;
_chemical_formula_sum "Si O2"
_cell_formula_units_Z 48
_cell_length_a 20.042342
_cell_length_b 17.970728
_cell_length_c 8.861847
_cell_angle_alpha 90.000000
_cell_angle_beta 115.466548
_cell_angle_gamma 90.000000
_cell_volume 2881.691514
_symmetry_space_group_name_H-M "C 2/M"
_symmetry_group_IT_number 12
_symmetry_cell_setting 'monoclinic'
loop_
_space_group_symop_operation_xyz
x,y,z
-x,y,-z
-x,-y,-z
x,-y,z
1/2+x,1/2+y,z
1/2-x,1/2+y,-z
1/2-x,1/2-y,-z
1/2+x,1/2-y,z
loop_
_atom_site_type_symbol
_atom_site_label
_atom_site_fract_x
_atom_site_fract_y
_atom_site_fract_z
Si Si1 0.986746 0.297280 0.821744
Si Si2 0.742313 0.811042 0.178025
Si Si3 0.639718 0.205703 0.817182
Si Si4 0.135826 0.649991 0.492575
Si Si5 0.234196 0.083967 0.528161
Si Si6 0.345175 0.716602 0.681377
O O1 0.942757 0.356333 0.672000
O O2 0.933883 0.224615 0.793129
O O3 0.061872 0.272601 0.815380
O O4 0.000000 0.333527 0.000000
O O5 0.822030 0.782501 0.198903
O O6 0.751426 0.882676 0.292115
O O7 0.698477 0.742039 0.211797
O O8 0.692672 0.836835 0.987010
O O9 0.624929 0.150789 0.661466
O O10 0.189380 0.583294 0.493129
O O11 0.177686 0.727044 0.479065
O O12 0.172619 0.131982 0.379638
O O13 0.205076 0.000000 0.515508
#
# Coordination Sequence:
#
# PCOD8081221 Si02
#       6
#     8   8   8   8   8   8
#     4  10  18  29  52  81 103 128 164 215 265 293
#     4  10  18  31  54  77 101 128 176 211 253 297
#     4  11  17  29  55  81 101 125 160 230 254 286
#     4   9  18  30  51  76 101 122 175 208 247 295
#     4  11  19  34  52  72 105 143 170 203 253 306
#     4   9  17  33  50  75 101 127 174 210 242 306
#
# _framework density 16.656884000000002
#
# number of rings (size 3 to 8) (size 9 to 14) (size 15 to 20)
#    1.000    1.000    5.000    1.500    0.000    0.000 
#    0.000    0.833    0.000    9.000    0.000    0.000 
#    0.000    0.000    0.000    0.000    0.000    0.000 
#
# Total GULP energy -297408.608551 kJ/mol
# GULP energy per Si atom -12392.025356 kJ/mol
# Density = 1.661897 g / cm^3
# Si number density = 16.656884 Si / 1000 Ang^3
#
#
#
# Elastic Constant Matrix: (Units=GPa)
#
#
# Indices 1 2 3 4 5 6 
#
# 1 96.2541 -4.7267 10.4877 0.0000 -5.1895 0.0000
# 2 -4.7267 54.7351 2.0368 0.0000 -7.5805 0.0000
# 3 10.4877 2.0368 100.8431 0.0000 -17.1495 0.0000
# 4 0.0000 0.0000 0.0000 10.5615 0.0000 -0.1421
# 5 -5.1895 -7.5805 -17.1495 0.0000 28.8185 0.0000
# 6 0.0000 0.0000 0.0000 -0.1421 0.0000 11.7672
#
#
#
# Elastic Compliance Matrix: (Units=1/GPa)
#
#
# Indices 1 2 3 4 5 6 
#
# 1 0.010632 0.001189 -0.000836 0.000000 0.001730 0.000000
# 2 0.001189 0.019118 0.000425 0.000000 0.005496 0.000000
# 3 -0.000836 0.000425 0.011113 0.000000 0.006574 0.000000
# 4 0.000000 0.000000 0.000000 0.094699 0.000000 0.001143
# 5 0.001730 0.005496 0.006574 0.000000 0.040369 0.000000
# 6 0.000000 0.000000 0.000000 0.001143 0.000000 0.084996
#
#
# Mechanical properties :
#
#
# Convention : Reuss Voigt Hill
#
# Bulk Modulus (GPa) = 23.57457 29.71422 26.64439
# Shear Modulus (GPa) = 18.28086 26.49839 22.38963
#
# Velocity S-wave (km/s) = 3.31644 3.99286 3.67027
# Velocity P-wave (km/s) = 5.37111 6.25579 5.83026
#
# Compressibility (1/GPa) = 0.04241860
#
# Stress axis : x y z
#
# Youngs Moduli (GPa) = 94.05695 52.30736 89.98676
#
# Poissons Ratio (x) = -0.06218 0.07518
# Poissons Ratio (y) = -0.11182 -0.03823
# Poissons Ratio (z) = 0.07859 -0.02222
#
# Static dielectric constant tensor:
#      x y z
#    x 3.160790 0.000000 -0.057700 
#    y 0.000000 2.476870 0.000000 
#    z -0.057700 0.000000 3.336480 
# 
# 
# High freq. dielectric constant tensor:
#      x y z
#    x 1.650240 0.000000 -0.005050 
#    y 0.000000 1.565070 0.000000 
#    z -0.005050 0.000000 1.660130 
# 
# From -- ./inp_files/167845.got.cif
#   From: 2010.06.25/outbox.cif.g09.slc.cpg/sg12_84_cif.got.tgz:167845.got - 2010.06.28 00:19:55.
