data_PCOD8081247
_publ_section_title
;
Structure prediction by ZEFSAII (Michael W. Deem and Ramdas Pophale) SiO2 
 PCOD8081247
Probable space group: C 2/M
;
_chemical_formula_sum "Si O2"
_cell_formula_units_Z 56
_cell_length_a 28.861381
_cell_length_b 8.727597
_cell_length_c 13.878539
_cell_angle_alpha 90.000000
_cell_angle_beta 104.073639
_cell_angle_gamma 90.000000
_cell_volume 3390.940048
_symmetry_space_group_name_H-M "C 2/M"
_symmetry_group_IT_number 12
_symmetry_cell_setting 'monoclinic'
loop_
_space_group_symop_operation_xyz
x,y,z
-x,y,-z
-x,-y,-z
x,-y,z
1/2+x,1/2+y,z
1/2-x,1/2+y,-z
1/2-x,1/2-y,-z
1/2+x,1/2-y,z
loop_
_atom_site_type_symbol
_atom_site_label
_atom_site_fract_x
_atom_site_fract_y
_atom_site_fract_z
Si Si1 0.554735 0.679068 0.137761
Si Si2 0.767473 0.182362 0.608192
Si Si3 0.553040 0.679112 0.914554
Si Si4 0.714854 0.826121 0.766220
Si Si5 0.143523 0.681502 0.881452
Si Si6 0.188535 0.175594 0.087663
Si Si7 0.645717 0.821720 0.249430
O O1 0.559972 0.500000 0.159652
O O2 0.500899 0.732975 0.134403
O O3 0.590436 0.768399 0.227353
O O4 0.566574 0.715895 0.032006
O O5 0.750000 0.250000 0.500000
O O6 0.733078 0.252219 0.675875
O O7 0.821903 0.233560 0.655953
O O8 0.766336 0.000000 0.604746
O O9 0.558789 0.500000 0.896990
O O10 0.588101 0.771758 0.861183
O O11 0.665337 0.764529 0.788355
O O12 0.754712 0.810377 0.869795
O O13 0.706657 0.000000 0.732520
O O14 0.149667 0.500000 0.897932
O O15 0.174751 0.770456 0.975352
O O16 0.162612 0.284105 0.150690
O O17 0.171585 0.000000 0.095734
O O18 0.649362 0.000000 0.273442
#
# Coordination Sequence:
#
# PCOD8081247 Si02
#       7
#     8   8   8   8   8   8   8
#     4   9  17  31  47  64  92 130 167 199 237 281
#     4  10  20  37  56  74  97 124 155 196 241 288
#     4   9  18  30  45  64  92 132 168 198 236 278
#     4   8  18  32  46  65  93 126 156 190 236 284
#     4  11  19  28  43  67  95 126 162 197 232 275
#     4  10  18  30  44  61  92 132 165 194 230 274
#     4  11  20  30  48  74  98 124 160 200 240 285
#
# _framework density 16.514593999999999
#
# number of rings (size 3 to 8) (size 9 to 14) (size 15 to 20)
#    0.000    2.286    1.429    4.714    0.000    0.571 
#    0.000    9.286    0.000    0.000    0.000    1.000 
#    0.000    8.000    0.000    0.000    0.000    0.000 
#
# Total GULP energy -347023.534470 kJ/mol
# GULP energy per Si atom -12393.697660 kJ/mol
# Density = 1.647701 g / cm^3
# Si number density = 16.514594 Si / 1000 Ang^3
#
#
#
# Elastic Constant Matrix: (Units=GPa)
#
#
# Indices 1 2 3 4 5 6 
#
# 1 112.9727 35.9055 54.3931 0.0000 4.3522 0.0000
# 2 35.9055 64.5062 29.8772 0.0000 3.5310 0.0000
# 3 54.3931 29.8772 88.7800 0.0000 6.9919 0.0000
# 4 0.0000 0.0000 0.0000 22.1598 0.0000 4.6056
# 5 4.3522 3.5310 6.9919 0.0000 17.6668 0.0000
# 6 0.0000 0.0000 0.0000 4.6056 0.0000 24.6518
#
#
#
# Elastic Compliance Matrix: (Units=1/GPa)
#
#
# Indices 1 2 3 4 5 6 
#
# 1 0.013522 -0.004376 -0.006831 0.000000 0.000247 0.000000
# 2 -0.004376 0.019809 -0.003879 0.000000 -0.001346 0.000000
# 3 -0.006831 -0.003879 0.017094 0.000000 -0.004307 0.000000
# 4 0.000000 0.000000 0.000000 0.046950 0.000000 -0.008771
# 5 0.000247 -0.001346 -0.004307 0.000000 0.058516 0.000000
# 6 0.000000 0.000000 0.000000 -0.008771 0.000000 0.042204
#
#
# Mechanical properties :
#
#
# Convention : Reuss Voigt Hill
#
# Bulk Modulus (GPa) = 49.37950 56.29008 52.83479
# Shear Modulus (GPa) = 21.27499 22.63454 21.95477
#
# Velocity S-wave (km/s) = 3.59312 3.70615 3.65007
# Velocity P-wave (km/s) = 6.86873 7.24383 7.05877
#
# Compressibility (1/GPa) = 0.02025132
#
# Stress axis : x y z
#
# Youngs Moduli (GPa) = 73.95271 50.48313 58.50060
#
# Poissons Ratio (x) = 0.22092 0.39964
# Poissons Ratio (y) = 0.32363 0.22693
# Poissons Ratio (z) = 0.50520 0.19583
#
# Static dielectric constant tensor:
#      x y z
#    x 3.384690 0.000000 -0.003120 
#    y 0.000000 3.008430 0.000000 
#    z -0.003120 0.000000 2.895990 
# 
# 
# High freq. dielectric constant tensor:
#      x y z
#    x 1.641280 0.000000 0.008220 
#    y 0.000000 1.630890 0.000000 
#    z 0.008220 0.000000 1.590630 
# 
# From -- ./inp_files/247916.got.cif
#   From: 2010.06.25/outbox.cif.g09.slc.cpg/sg12_124_cif.got.tgz:247916.got - 2010.06.28 00:19:55.
