data_PCOD8081559
_publ_section_title
;
Structure prediction by ZEFSAII (Michael W. Deem and Ramdas Pophale) SiO2 
 PCOD8081559
Probable space group: C 2/M
;
_chemical_formula_sum "Si O2"
_cell_formula_units_Z 56
_cell_length_a 19.298795
_cell_length_b 9.116249
_cell_length_c 24.195220
_cell_angle_alpha 90.000000
_cell_angle_beta 48.187120
_cell_angle_gamma 90.000000
_cell_volume 3172.651016
_symmetry_space_group_name_H-M "C 2/M"
_symmetry_group_IT_number 12
_symmetry_cell_setting 'monoclinic'
loop_
_space_group_symop_operation_xyz
x,y,z
-x,y,-z
-x,-y,-z
x,-y,z
1/2+x,1/2+y,z
1/2-x,1/2+y,-z
1/2-x,1/2-y,-z
1/2+x,1/2-y,z
loop_
_atom_site_type_symbol
_atom_site_label
_atom_site_fract_x
_atom_site_fract_y
_atom_site_fract_z
Si Si1 0.061357 0.669090 0.298229
Si Si2 0.433356 0.170394 0.581359
Si Si3 0.748673 0.170161 0.801816
Si Si4 0.783298 0.331729 0.060929
Si Si5 0.060240 0.329203 0.741021
Si Si6 0.886447 0.328762 0.900725
Si Si7 0.774953 0.825719 0.294883
O O1 0.094874 0.500000 0.274834
O O2 0.024140 0.698369 0.380236
O O3 0.147723 0.774121 0.240239
O O4 0.979198 0.703562 0.299105
O O5 0.500000 0.246983 0.500000
O O6 0.328067 0.232074 0.634165
O O7 0.427112 0.000000 0.570871
O O8 0.688576 0.193428 0.890043
O O9 0.699828 0.260998 0.778931
O O10 0.752211 0.000000 0.782981
O O11 0.755580 0.500000 0.065368
O O12 0.693130 0.238482 0.094808
O O13 0.869390 0.289234 0.974539
O O14 0.084149 0.500000 0.735795
O O15 0.153540 0.235040 0.697933
O O16 0.986969 0.273641 0.826601
O O17 0.881724 0.500000 0.891488
O O18 0.780177 0.000000 0.289166
#
# Coordination Sequence:
#
# PCOD8081559 Si02
#       7
#     8   8   8   8   8   8   8
#     4   9  17  30  51  76  98 128 166 197 234 287
#     4   8  15  31  54  76  96 122 159 199 238 286
#     4  10  18  30  49  72  98 127 164 207 246 286
#     4   9  17  28  45  71  96 124 164 206 245 283
#     4  10  19  32  49  71 101 133 163 199 242 288
#     4   9  17  29  46  68  97 130 162 200 244 286
#     4  10  21  34  51  72  97 129 164 200 243 294
#
# _framework density 17.650853000000001
#
# number of rings (size 3 to 8) (size 9 to 14) (size 15 to 20)
#    0.000    2.714    1.429    1.714    0.000    1.714 
#    0.000    1.429    0.000   15.000    0.000    0.000 
#    0.000    0.000    0.000    0.000    0.000    0.000 
#
# Total GULP energy -347046.339815 kJ/mol
# GULP energy per Si atom -12394.512136 kJ/mol
# Density = 1.761068 g / cm^3
# Si number density = 17.650853 Si / 1000 Ang^3
#
#
#
# Elastic Constant Matrix: (Units=GPa)
#
#
# Indices 1 2 3 4 5 6 
#
# 1 109.8388 33.9486 50.8041 0.0000 4.2656 0.0000
# 2 33.9486 48.7077 25.6544 0.0000 1.8574 0.0002
# 3 50.8041 25.6544 112.0573 0.0000 9.5656 0.0000
# 4 0.0000 0.0000 0.0000 14.8146 0.0000 0.1739
# 5 4.2656 1.8574 9.5656 0.0000 20.1914 0.0000
# 6 0.0000 0.0002 0.0000 0.1739 0.0000 30.3334
#
#
#
# Elastic Compliance Matrix: (Units=1/GPa)
#
#
# Indices 1 2 3 4 5 6 
#
# 1 0.013302 -0.006931 -0.004438 0.000000 -0.000070 0.000000
# 2 -0.006931 0.026960 -0.003067 0.000000 0.000437 0.000000
# 3 -0.004438 -0.003067 0.012020 0.000000 -0.004475 0.000000
# 4 0.000000 0.000000 0.000000 0.067505 0.000000 -0.000387
# 5 -0.000070 0.000437 -0.004475 0.000000 0.051621 0.000000
# 6 0.000000 0.000000 0.000000 -0.000387 0.000000 0.032969
#
#
# Mechanical properties :
#
#
# Convention : Reuss Voigt Hill
#
# Bulk Modulus (GPa) = 42.71693 54.60202 48.65948
# Shear Modulus (GPa) = 20.74225 23.74764 22.24494
#
# Velocity S-wave (km/s) = 3.43175 3.67196 3.55389
# Velocity P-wave (km/s) = 6.32109 6.99853 6.66842
#
# Compressibility (1/GPa) = 0.02340992
#
# Stress axis : x y z
#
# Youngs Moduli (GPa) = 75.17699 37.09145 83.19266
#
# Poissons Ratio (x) = 0.25709 0.36921
# Poissons Ratio (y) = 0.52106 0.25517
# Poissons Ratio (z) = 0.33363 0.11377
#
# Static dielectric constant tensor:
#      x y z
#    x 3.105180 0.000000 0.144890 
#    y 0.000000 3.148770 0.000000 
#    z 0.144890 0.000000 3.605960 
# 
# 
# High freq. dielectric constant tensor:
#      x y z
#    x 1.662480 0.000000 0.017530 
#    y 0.000000 1.669520 0.000000 
#    z 0.017530 0.000000 1.680510 
# 
# From -- ./inp_files/345457.got.cif
#   From: 2010.06.25/outbox.cif.g09.slc.cpg/sg12_173_cif.got.tgz:345457.got - 2010.06.28 00:19:55.
