data_PCOD8081160
_publ_section_title
;
Structure prediction by ZEFSAII (Michael W. Deem and Ramdas Pophale) SiO2 
 PCOD8081160
Probable space group: C 2/M
;
_chemical_formula_sum "Si O2"
_cell_formula_units_Z 48
_cell_length_a 13.708867
_cell_length_b 15.236570
_cell_length_c 20.889046
_cell_angle_alpha 90.000000
_cell_angle_beta 142.901992
_cell_angle_gamma 90.000000
_cell_volume 2631.809796
_symmetry_space_group_name_H-M "C 2/M"
_symmetry_group_IT_number 12
_symmetry_cell_setting 'monoclinic'
loop_
_space_group_symop_operation_xyz
x,y,z
-x,y,-z
-x,-y,-z
x,-y,z
1/2+x,1/2+y,z
1/2-x,1/2+y,-z
1/2-x,1/2-y,-z
1/2+x,1/2-y,z
loop_
_atom_site_type_symbol
_atom_site_label
_atom_site_fract_x
_atom_site_fract_y
_atom_site_fract_z
Si Si1 0.637963 0.803634 0.753409
Si Si2 0.975256 0.189960 0.763791
Si Si3 0.858570 0.397816 0.376025
Si Si4 0.026767 0.745463 0.100578
Si Si5 0.315774 0.597439 0.953388
Si Si6 0.708350 0.903143 0.038710
O O1 0.489345 0.747830 0.706054
O O2 0.586974 0.850823 0.661054
O O3 0.783989 0.735340 0.815707
O O4 0.693594 0.876303 0.833228
O O5 0.803870 0.141993 0.678506
O O6 0.002397 0.254442 0.838445
O O7 0.119110 0.118880 0.839224
O O8 0.829398 0.500000 0.346992
O O9 0.000000 0.381404 0.500000
O O10 0.970102 0.838454 0.040838
O O11 0.927401 0.668344 0.013517
O O12 0.383975 0.500000 0.976085
O O13 0.215622 0.599178 0.966179
O O14 0.656472 0.000000 0.035555
#
# Coordination Sequence:
#
# PCOD8081160 Si02
#       6
#     8   8   8   8   8   8
#     4  11  20  32  57  79 107 141 186 219 267 328
#     4  10  19  35  54  79 110 143 179 225 269 323
#     4  10  23  41  58  80 107 135 181 244 295 331
#     4  10  19  32  47  77 119 148 174 217 257 310
#     4  10  18  29  50  77 108 145 181 217 263 316
#     4  10  18  31  50  75 113 154 178 207 257 314
#
# _framework density 18.238399999999999
#
# number of rings (size 3 to 8) (size 9 to 14) (size 15 to 20)
#    0.000    1.833    3.333    2.500    0.000    6.000 
#    0.000    2.500    0.000    0.000    0.000    0.000 
#    0.000   12.000    0.000    0.000    0.000    0.000 
#
# Total GULP energy -297513.183736 kJ/mol
# GULP energy per Si atom -12396.382656 kJ/mol
# Density = 1.819689 g / cm^3
# Si number density = 18.238400 Si / 1000 Ang^3
#
#
#
# Elastic Constant Matrix: (Units=GPa)
#
#
# Indices 1 2 3 4 5 6 
#
# 1 100.1084 54.8454 40.7847 0.0000 -10.2419 0.0000
# 2 54.8454 126.0528 53.0980 0.0000 5.7422 0.0000
# 3 40.7847 53.0980 89.9906 0.0000 -2.9761 0.0000
# 4 0.0000 0.0000 0.0000 22.7911 0.0000 -8.0432
# 5 -10.2419 5.7422 -2.9761 0.0000 21.3104 0.0000
# 6 0.0000 0.0000 0.0000 -8.0432 0.0000 0.6463
#
#
#
# Elastic Compliance Matrix: (Units=1/GPa)
#
#
# Indices 1 2 3 4 5 6 
#
# 1 0.015291 -0.005634 -0.003328 0.000000 0.008403 0.000000
# 2 -0.005634 0.012937 -0.005309 0.000000 -0.006935 0.000000
# 3 -0.003328 -0.005309 0.015821 0.000000 0.002041 0.000000
# 4 0.000000 0.000000 0.000000 -0.012935 0.000000 -0.160982
# 5 0.008403 -0.006935 0.002041 0.000000 0.053118 0.000000
# 6 0.000000 0.000000 0.000000 -0.160982 0.000000 -0.456158
#
#
# Mechanical properties :
#
#
# Convention : Reuss Voigt Hill
#
# Bulk Modulus (GPa) = 64.48972 68.17865 66.33419
# Shear Modulus (GPa) = -14.78349 20.11113 2.66382
#
# Velocity S-wave (km/s) = -2.85014 3.32427 1.20985
# Velocity P-wave (km/s) = 4.96034 7.22478 6.19687
#
# Compressibility (1/GPa) = 0.01550635
#
# Stress axis : x y z
#
# Youngs Moduli (GPa) = 65.39627 77.29791 63.20844
#
# Poissons Ratio (x) = 0.43551 0.21036
# Poissons Ratio (y) = 0.36845 0.33559
# Poissons Ratio (z) = 0.21764 0.41039
#
# Static dielectric constant tensor:
#      x y z
#    x 3.506710 0.000000 -0.082490 
#    y 0.000000 3.456490 0.000000 
#    z -0.082490 0.000000 3.029270 
# 
# 
# High freq. dielectric constant tensor:
#      x y z
#    x 1.726550 0.000000 -0.002790 
#    y 0.000000 1.702530 0.000000 
#    z -0.002790 0.000000 1.667090 
# 
# From -- ./inp_files/310527.got.cif
#   From: 2010.06.25/outbox.cif.g09.slc.cpg/sg12_156_cif.got.tgz:310527.got - 2010.06.28 00:19:55.
