data_PCOD8081893
_publ_section_title
;
Structure prediction by ZEFSAII (Michael W. Deem and Ramdas Pophale) SiO2 
 PCOD8081893
Probable space group: C 2/M
;
_chemical_formula_sum "Si O2"
_cell_formula_units_Z 40
_cell_length_a 21.051311
_cell_length_b 14.263943
_cell_length_c 20.549918
_cell_angle_alpha 90.000000
_cell_angle_beta 21.716165
_cell_angle_gamma 90.000000
_cell_volume 2283.184374
_symmetry_space_group_name_H-M "C 2/M"
_symmetry_group_IT_number 12
_symmetry_cell_setting 'monoclinic'
loop_
_space_group_symop_operation_xyz
x,y,z
-x,y,-z
-x,-y,-z
x,-y,z
1/2+x,1/2+y,z
1/2-x,1/2+y,-z
1/2-x,1/2-y,-z
1/2+x,1/2-y,z
loop_
_atom_site_type_symbol
_atom_site_label
_atom_site_fract_x
_atom_site_fract_y
_atom_site_fract_z
Si Si1 0.102264 0.759488 0.734435
Si Si2 0.851562 0.896274 0.816487
Si Si3 0.709079 0.392905 0.977038
Si Si4 0.008712 0.393307 0.067095
Si Si5 0.540603 0.214319 0.647774
O O1 0.112392 0.679205 0.779540
O O2 0.285679 0.813850 0.555992
O O3 0.069721 0.707724 0.697167
O O4 0.954617 0.834414 0.892169
O O5 0.000904 0.821175 0.663929
O O6 0.932940 0.000000 0.732634
O O7 0.769296 0.882031 0.966087
O O8 0.704058 0.880351 0.904224
O O9 0.683861 0.500000 0.979371
O O10 0.882871 0.353316 0.778566
O O11 0.945991 0.500000 0.139668
O O12 0.000000 0.367796 0.000000
#
# Coordination Sequence:
#
# PCOD8081893 Si02
#       5
#     8   8   8   8   8
#     4  10  19  32  50  76 103 131 171 209 254 305
#     4   9  16  30  49  72 104 134 164 203 251 306
#     4  10  18  31  51  74 103 132 163 211 262 300
#     4  10  19  32  52  75 104 142 173 199 242 303
#     4  10  18  30  52  76 101 132 165 211 264 300
#
# _framework density 17.519390000000001
#
# number of rings (size 3 to 8) (size 9 to 14) (size 15 to 20)
#    0.000    2.200    4.000    1.200    0.000    1.600 
#    0.000    5.000    0.000    4.200    0.000    1.400 
#    0.000    0.000    0.000    0.000    0.000    0.000 
#
# Total GULP energy -247959.811071 kJ/mol
# GULP energy per Si atom -12397.990554 kJ/mol
# Density = 1.747952 g / cm^3
# Si number density = 17.519390 Si / 1000 Ang^3
#
#
#
# Elastic Constant Matrix: (Units=GPa)
#
#
# Indices 1 2 3 4 5 6 
#
# 1 65.0637 42.0981 23.9667 0.0617 3.0814 0.0223
# 2 42.0981 108.3891 62.1105 0.2024 3.6224 -0.0382
# 3 23.9667 62.1105 131.1301 0.2248 -10.1344 -0.0283
# 4 0.0617 0.2024 0.2248 14.1348 -0.0619 -0.4877
# 5 3.0814 3.6224 -10.1344 -0.0619 12.6030 -0.0134
# 6 0.0223 -0.0382 -0.0283 -0.4877 -0.0134 23.9560
#
#
#
# Elastic Compliance Matrix: (Units=1/GPa)
#
#
# Indices 1 2 3 4 5 6 
#
# 1 0.020635 -0.007701 -0.000366 0.000011 -0.003126 -0.000033
# 2 -0.007701 0.016579 -0.007110 -0.000128 -0.008600 0.000018
# 3 -0.000366 -0.007110 0.011969 -0.000035 0.011757 0.000009
# 4 0.000011 -0.000128 -0.000035 0.070801 0.000355 0.001441
# 5 -0.003126 -0.008600 0.011757 0.000355 0.092038 0.000062
# 6 -0.000033 0.000018 0.000009 0.001441 0.000062 0.041773
#
#
# Mechanical properties :
#
#
# Convention : Reuss Voigt Hill
#
# Bulk Modulus (GPa) = 53.10404 62.32596 57.71500
# Shear Modulus (GPa) = 17.21629 21.89927 19.55778
#
# Velocity S-wave (km/s) = 3.13820 3.53937 3.34481
# Velocity P-wave (km/s) = 6.59610 7.23571 6.92329
#
# Compressibility (1/GPa) = 0.01883096
#
# Stress axis : x y z
#
# Youngs Moduli (GPa) = 48.46198 60.31897 83.54911
#
# Poissons Ratio (x) = 0.46449 0.03055
# Poissons Ratio (y) = 0.37318 0.59399
# Poissons Ratio (z) = 0.01772 0.42884
#
# Static dielectric constant tensor:
#      x y z
#    x 2.961310 -0.000040 -0.138820 
#    y -0.000040 3.367900 0.000040 
#    z -0.138820 0.000040 3.179020 
# 
# 
# High freq. dielectric constant tensor:
#      x y z
#    x 1.635040 0.000000 -0.019200 
#    y 0.000000 1.677740 0.000000 
#    z -0.019200 0.000000 1.667490 
# 
# From -- ./inp_files/58934.got.cif
#   From: 2010.06.25/outbox.cif.g09.slc.cpg/sg12_30_cif.got.tgz:58934.got - 2010.06.28 00:19:55.
