data_PCOD8081784
_publ_section_title
;
Structure prediction by ZEFSAII (Michael W. Deem and Ramdas Pophale) SiO2 
 PCOD8081784
Probable space group: C 2/M
;
_chemical_formula_sum "Si O2"
_cell_formula_units_Z 64
_cell_length_a 12.543294
_cell_length_b 13.407278
_cell_length_c 21.619420
_cell_angle_alpha 90.000000
_cell_angle_beta 71.394232
_cell_angle_gamma 90.000000
_cell_volume 3445.750025
_symmetry_space_group_name_H-M "C 2/M"
_symmetry_group_IT_number 12
_symmetry_cell_setting 'monoclinic'
loop_
_space_group_symop_operation_xyz
x,y,z
-x,y,-z
-x,-y,-z
x,-y,z
1/2+x,1/2+y,z
1/2-x,1/2+y,-z
1/2-x,1/2-y,-z
1/2+x,1/2-y,z
loop_
_atom_site_type_symbol
_atom_site_label
_atom_site_fract_x
_atom_site_fract_y
_atom_site_fract_z
Si Si1 0.021669 0.886740 0.925609
Si Si2 0.024255 0.888984 0.412386
Si Si3 0.736400 0.885854 0.174541
Si Si4 0.742910 0.805043 0.599821
Si Si5 0.396842 0.800209 0.484973
Si Si6 0.916044 0.112209 0.734024
Si Si7 0.198687 0.277844 0.746263
Si Si8 0.964454 0.742878 0.832339
O O1 0.154184 0.878704 0.888391
O O2 0.953103 0.806446 0.897451
O O3 0.979518 0.000000 0.919921
O O4 0.000000 0.856865 0.000000
O O5 0.156431 0.881471 0.405679
O O6 0.013257 0.870211 0.341358
O O7 0.944716 0.810742 0.461107
O O8 0.983359 0.000000 0.437792
O O9 0.756306 0.828336 0.235553
O O10 0.635735 0.836189 0.153764
O O11 0.705024 0.000000 0.195902
O O12 0.647275 0.851338 0.570695
O O13 0.794396 0.709607 0.552930
O O14 0.685554 0.769616 0.674333
O O15 0.500000 0.859833 0.500000
O O16 0.785370 0.136039 0.747882
O O17 0.971156 0.179659 0.775295
O O18 0.925651 0.000000 0.755857
O O19 0.084620 0.311914 0.802403
#
# Coordination Sequence:
#
# PCOD8081784 Si02
#       8
#     8   8   8   8   8   8   8   8
#     4   9  18  33  52  75 103 133 164 197 234 277
#     4   9  17  29  47  69  90 114 150 198 244 286
#     4   9  19  34  51  73  99 126 159 199 239 283
#     4   9  17  29  44  63  89 118 149 187 233 284
#     4   9  17  28  44  64  86 116 151 188 232 281
#     4   9  17  29  46  71  97 120 156 202 244 287
#     4   9  18  31  47  68  94 123 156 193 238 287
#     4  10  18  30  51  73  98 131 163 197 236 281
#
# _framework density 18.573605000000001
#
# number of rings (size 3 to 8) (size 9 to 14) (size 15 to 20)
#    0.000    2.875    0.000    1.125    0.000    4.750 
#    0.000    0.625    0.000    1.500    0.000    2.625 
#    0.000    0.000    0.000    0.000    0.000    0.000 
#
# Total GULP energy -396543.025091 kJ/mol
# GULP energy per Si atom -12391.969534 kJ/mol
# Density = 1.853133 g / cm^3
# Si number density = 18.573605 Si / 1000 Ang^3
#
#
#
# Elastic Constant Matrix: (Units=GPa)
#
#
# Indices 1 2 3 4 5 6 
#
# 1 66.1749 3.8634 10.5659 0.0000 8.4986 0.0000
# 2 3.8634 48.1436 8.0357 0.0000 -0.0146 0.0000
# 3 10.5659 8.0357 93.1137 0.0000 10.5936 0.0000
# 4 0.0000 0.0000 0.0000 16.7924 0.0000 -0.6211
# 5 8.4986 -0.0146 10.5936 0.0000 22.7959 0.0000
# 6 0.0000 0.0000 0.0000 -0.6211 0.0000 17.5277
#
#
#
# Elastic Compliance Matrix: (Units=1/GPa)
#
#
# Indices 1 2 3 4 5 6 
#
# 1 0.016055 -0.001106 -0.001104 0.000000 -0.005473 0.000000
# 2 -0.001106 0.021169 -0.001847 0.000000 0.001284 0.000000
# 3 -0.001104 -0.001847 0.011590 0.000000 -0.004976 0.000000
# 4 0.000000 0.000000 0.000000 0.059629 0.000000 0.002113
# 5 -0.005473 0.001284 -0.004976 0.000000 0.048221 0.000000
# 6 0.000000 0.000000 0.000000 0.002113 0.000000 0.057127
#
#
# Mechanical properties :
#
#
# Convention : Reuss Voigt Hill
#
# Bulk Modulus (GPa) = 24.56991 28.04023 26.30507
# Shear Modulus (GPa) = 21.23390 23.75436 22.49413
#
# Velocity S-wave (km/s) = 3.38484 3.58009 3.48383
# Velocity P-wave (km/s) = 5.34165 5.67618 5.51146
#
# Compressibility (1/GPa) = 0.04070019
#
# Stress axis : x y z
#
# Youngs Moduli (GPa) = 62.28520 47.23957 86.27866
#
# Poissons Ratio (x) = 0.05224 0.09522
# Poissons Ratio (y) = 0.06888 0.15940
# Poissons Ratio (z) = 0.06874 0.08727
#
# Static dielectric constant tensor:
#      x y z
#    x 3.603900 0.000000 0.154180 
#    y 0.000000 3.117050 0.000000 
#    z 0.154180 0.000000 3.455200 
# 
# 
# High freq. dielectric constant tensor:
#      x y z
#    x 1.727680 0.000000 0.007500 
#    y 0.000000 1.683890 0.000000 
#    z 0.007500 0.000000 1.720640 
# 
# From -- ./inp_files/305440.got.cif
#   From: 2010.06.25/outbox.cif.g09.slc.cpg/sg12_153_cif.got.tgz:305440.got - 2010.06.28 00:19:55.
