data_PCOD8081866
_publ_section_title
;
Structure prediction by ZEFSAII (Michael W. Deem and Ramdas Pophale) SiO2 
 PCOD8081866
Probable space group: C 2/M
;
_chemical_formula_sum "Si O2"
_cell_formula_units_Z 56
_cell_length_a 20.348065
_cell_length_b 9.011209
_cell_length_c 29.930314
_cell_angle_alpha 90.000000
_cell_angle_beta 146.126861
_cell_angle_gamma 90.000000
_cell_volume 3058.792917
_symmetry_space_group_name_H-M "C 2/M"
_symmetry_group_IT_number 12
_symmetry_cell_setting 'monoclinic'
loop_
_space_group_symop_operation_xyz
x,y,z
-x,y,-z
-x,-y,-z
x,-y,z
1/2+x,1/2+y,z
1/2-x,1/2+y,-z
1/2-x,1/2-y,-z
1/2+x,1/2-y,z
loop_
_atom_site_type_symbol
_atom_site_label
_atom_site_fract_x
_atom_site_fract_y
_atom_site_fract_z
Si Si1 0.963773 0.325144 0.334752
Si Si2 0.731277 0.171386 0.188931
Si Si3 0.946125 0.672885 0.167461
Si Si4 0.520754 0.829406 0.915182
Si Si5 0.412873 0.674219 0.680069
Si Si6 0.809380 0.329910 0.493197
Si Si7 0.704543 0.673798 0.079477
O O1 0.945763 0.500000 0.317250
O O2 0.839064 0.250637 0.275316
O O3 0.015146 0.258656 0.317855
O O4 0.050697 0.289701 0.426533
O O5 0.618028 0.193215 0.156114
O O6 0.709614 0.242470 0.128807
O O7 0.762092 0.000000 0.199213
O O8 0.975166 0.500000 0.189298
O O9 0.818974 0.714705 0.115165
O O10 0.947345 0.721330 0.116694
O O11 0.047461 0.764878 0.249769
O O12 0.557561 0.000000 0.944456
O O13 0.589260 0.725613 0.988173
O O14 0.440739 0.500000 0.692088
O O15 0.270050 0.705327 0.595540
O O16 0.797490 0.500000 0.498592
O O17 0.750000 0.250000 0.500000
O O18 0.695487 0.500000 0.083775
#
# Coordination Sequence:
#
# PCOD8081866 Si02
#       7
#     8   8   8   8   8   8   8
#     4  10  18  31  51  76 107 139 172 214 261 307
#     4  11  22  36  55  78 106 140 178 218 259 309
#     4  10  21  37  55  77 107 141 175 215 263 309
#     4  10  23  40  55  74 105 143 179 216 260 311
#     4  10  18  30  51  79 107 137 173 212 257 311
#     4   8  16  28  45  73 106 135 167 210 257 304
#     4  11  22  36  57  81 104 133 175 223 266 312
#
# _framework density 18.307874999999999
#
# number of rings (size 3 to 8) (size 9 to 14) (size 15 to 20)
#    0.000    2.000    1.429    2.571    0.000    5.143 
#    0.000    0.000    0.000    0.857    0.000    6.000 
#    0.000    0.000    0.000    0.000    0.000    0.000 
#
# Total GULP energy -347069.603520 kJ/mol
# GULP energy per Si atom -12395.342983 kJ/mol
# Density = 1.826621 g / cm^3
# Si number density = 18.307875 Si / 1000 Ang^3
#
#
#
# Elastic Constant Matrix: (Units=GPa)
#
#
# Indices 1 2 3 4 5 6 
#
# 1 51.5518 17.8119 8.4869 0.0000 6.0553 -0.0002
# 2 17.8119 74.4979 44.1437 0.0001 3.3843 -0.0006
# 3 8.4869 44.1437 120.4534 0.0000 14.4174 -0.0001
# 4 0.0000 0.0001 0.0000 34.0807 0.0000 0.4256
# 5 6.0553 3.3843 14.4174 0.0000 4.9037 0.0001
# 6 -0.0002 -0.0006 -0.0001 0.4256 0.0001 21.0760
#
#
#
# Elastic Compliance Matrix: (Units=1/GPa)
#
#
# Indices 1 2 3 4 5 6 
#
# 1 0.026684 -0.008266 0.006805 0.000000 -0.047253 0.000000
# 2 -0.008266 0.020047 -0.009767 0.000000 0.025088 0.000000
# 3 0.006805 -0.009767 0.017900 0.000000 -0.054290 0.000000
# 4 0.000000 0.000000 0.000000 0.029350 0.000000 -0.000593
# 5 -0.047253 0.025088 -0.054290 0.000000 0.404579 -0.000001
# 6 0.000000 0.000000 0.000000 -0.000593 -0.000001 0.047459
#
#
# Mechanical properties :
#
#
# Convention : Reuss Voigt Hill
#
# Bulk Modulus (GPa) = 23.71060 43.04313 33.37687
# Shear Modulus (GPa) = 8.58319 23.74945 16.16632
#
# Velocity S-wave (km/s) = 2.16759 3.60561 2.97480
# Velocity P-wave (km/s) = 4.38677 6.39497 5.48358
#
# Compressibility (1/GPa) = 0.04217522
#
# Stress axis : x y z
#
# Youngs Moduli (GPa) = 37.47576 49.88166 55.86524
#
# Poissons Ratio (x) = 0.41230 -0.38016
# Poissons Ratio (y) = 0.30976 0.54566
# Poissons Ratio (z) = -0.25502 0.48722
#
# Static dielectric constant tensor:
#      x y z
#    x 3.100830 0.000000 0.116610 
#    y 0.000000 3.445540 0.000000 
#    z 0.116610 0.000000 4.066080 
# 
# 
# High freq. dielectric constant tensor:
#      x y z
#    x 1.668110 0.000000 0.008790 
#    y 0.000000 1.720530 0.000000 
#    z 0.008790 0.000000 1.732450 
# 
# From -- ./inp_files/275688.got.cif
#   From: 2010.06.25/outbox.cif.g09.slc.cpg/sg12_138_cif.got.tgz:275688.got - 2010.06.28 00:19:55.
