data_PCOD8081320
_publ_section_title
;
Structure prediction by ZEFSAII (Michael W. Deem and Ramdas Pophale) SiO2 
 PCOD8081320
Probable space group: C 2/M
;
_chemical_formula_sum "Si O2"
_cell_formula_units_Z 44
_cell_length_a 23.697723
_cell_length_b 9.183677
_cell_length_c 16.684137
_cell_angle_alpha 90.000000
_cell_angle_beta 42.920348
_cell_angle_gamma 90.000000
_cell_volume 2472.646029
_symmetry_space_group_name_H-M "C 2/M"
_symmetry_group_IT_number 12
_symmetry_cell_setting 'monoclinic'
loop_
_space_group_symop_operation_xyz
x,y,z
-x,y,-z
-x,-y,-z
x,-y,z
1/2+x,1/2+y,z
1/2-x,1/2+y,-z
1/2-x,1/2-y,-z
1/2+x,1/2-y,z
loop_
_atom_site_type_symbol
_atom_site_label
_atom_site_fract_x
_atom_site_fract_y
_atom_site_fract_z
Si Si1 0.183514 0.174640 0.125078
Si Si2 0.318929 0.664926 0.693982
Si Si3 0.500000 0.237236 0.500000
Si Si4 0.625682 0.662484 0.629254
Si Si5 0.481808 0.162620 0.696091
Si Si6 0.778273 0.336833 0.353035
O O1 0.203177 0.227227 0.195422
O O2 0.093350 0.235633 0.196567
O O3 0.184122 0.000000 0.115215
O O4 0.250000 0.250000 0.000000
O O5 0.291109 0.500000 0.719592
O O6 0.417284 0.667645 0.573840
O O7 0.262882 0.740009 0.683226
O O8 0.488118 0.144093 0.593078
O O9 0.588731 0.500000 0.681301
O O10 0.563349 0.765002 0.646459
O O11 0.708643 0.650311 0.492543
O O12 0.646994 0.735007 0.693321
O O13 0.470688 0.000000 0.742758
O O14 0.812843 0.500000 0.300150
#
# Coordination Sequence:
#
# PCOD8081320 Si02
#       6
#     8   8   4   8   8   8
#     4  10  21  37  56  77 102 135 174 215 258 306
#     4   9  17  30  52  76 103 137 171 208 253 308
#     4  10  18  30  46  76 107 136 167 210 253 306
#     4  10  19  31  48  73 104 140 174 207 250 303
#     4  11  21  33  51  76 106 138 170 212 257 305
#     4   9  17  31  48  72 104 139 173 207 247 302
#
# _framework density 17.794702000000001
#
# number of rings (size 3 to 8) (size 9 to 14) (size 15 to 20)
#    0.000    2.182    1.818    2.182    0.000    2.182 
#    0.000    1.818    0.000    1.091    0.000    7.636 
#    0.000    0.000    0.000    0.000    0.000    0.000 
#
# Total GULP energy -272604.926346 kJ/mol
# GULP energy per Si atom -12391.133016 kJ/mol
# Density = 1.775420 g / cm^3
# Si number density = 17.794702 Si / 1000 Ang^3
#
#
#
# Elastic Constant Matrix: (Units=GPa)
#
#
# Indices 1 2 3 4 5 6 
#
# 1 120.4652 47.2136 21.6888 0.0002 0.5998 -0.0001
# 2 47.2136 105.9042 26.4874 -0.0007 -1.6543 0.0006
# 3 21.6888 26.4874 73.0397 0.0004 4.0901 0.0000
# 4 0.0002 -0.0007 0.0004 19.8617 -0.0001 -3.6963
# 5 0.5998 -1.6543 4.0901 -0.0001 15.3705 0.0000
# 6 -0.0001 0.0006 0.0000 -3.6963 0.0000 27.6708
#
#
#
# Elastic Compliance Matrix: (Units=1/GPa)
#
#
# Indices 1 2 3 4 5 6 
#
# 1 0.010213 -0.004188 -0.001489 0.000000 -0.000453 0.000000
# 2 -0.004188 0.012172 -0.003302 0.000001 0.002352 0.000000
# 3 -0.001489 -0.003302 0.015580 0.000000 -0.004443 0.000000
# 4 0.000000 0.000001 0.000000 0.051632 0.000000 0.006897
# 5 -0.000453 0.002352 -0.004443 0.000000 0.066513 0.000000
# 6 0.000000 0.000000 0.000000 0.006897 0.000000 0.037060
#
#
# Mechanical properties :
#
#
# Convention : Reuss Voigt Hill
#
# Bulk Modulus (GPa) = 49.98227 54.46542 52.22385
# Shear Modulus (GPa) = 22.95730 26.18190 24.56960
#
# Velocity S-wave (km/s) = 3.59572 3.83995 3.71984
# Velocity P-wave (km/s) = 6.73708 7.09468 6.91819
#
# Compressibility (1/GPa) = 0.02000709
#
# Stress axis : x y z
#
# Youngs Moduli (GPa) = 97.91724 82.15491 64.18662
#
# Poissons Ratio (x) = 0.34404 0.09555
# Poissons Ratio (y) = 0.41005 0.21196
# Poissons Ratio (z) = 0.14576 0.27130
#
# Static dielectric constant tensor:
#      x y z
#    x 3.688950 0.000000 0.095240 
#    y 0.000000 3.354170 0.000000 
#    z 0.095240 0.000000 2.966950 
# 
# 
# High freq. dielectric constant tensor:
#      x y z
#    x 1.700780 0.000000 0.000860 
#    y 0.000000 1.684950 0.000000 
#    z 0.000860 0.000000 1.641800 
# 
# From -- ./inp_files/237141.got.cif
#   From: 2010.06.25/outbox.cif.g09.slc.cpg/sg12_119_cif.got.tgz:237141.got - 2010.06.28 00:19:55.
