data_PCOD8081643
_publ_section_title
;
Structure prediction by ZEFSAII (Michael W. Deem and Ramdas Pophale) SiO2 
 PCOD8081643
Probable space group: C 2/M
;
_chemical_formula_sum "Si O2"
_cell_formula_units_Z 48
_cell_length_a 20.479831
_cell_length_b 8.894551
_cell_length_c 16.790835
_cell_angle_alpha 90.000000
_cell_angle_beta 116.153037
_cell_angle_gamma 90.000000
_cell_volume 2745.460436
_symmetry_space_group_name_H-M "C 2/M"
_symmetry_group_IT_number 12
_symmetry_cell_setting 'monoclinic'
loop_
_space_group_symop_operation_xyz
x,y,z
-x,y,-z
-x,-y,-z
x,-y,z
1/2+x,1/2+y,z
1/2-x,1/2+y,-z
1/2-x,1/2-y,-z
1/2+x,1/2-y,z
loop_
_atom_site_type_symbol
_atom_site_label
_atom_site_fract_x
_atom_site_fract_y
_atom_site_fract_z
Si Si1 0.614790 0.829968 0.596058
Si Si2 0.206532 0.672726 0.047170
Si Si3 0.041401 0.668455 0.406437
Si Si4 0.945869 0.825728 0.043153
Si Si5 0.465430 0.179874 0.216462
Si Si6 0.666778 0.671527 0.768918
O O1 0.537972 0.832389 0.598251
O O2 0.600188 0.756598 0.499359
O O3 0.669237 0.730558 0.678739
O O4 0.645464 0.000000 0.606206
O O5 0.192268 0.500000 0.016125
O O6 0.252053 0.685602 0.153228
O O7 0.250000 0.750000 0.000000
O O8 0.130610 0.753749 0.021246
O O9 0.070030 0.500000 0.411783
O O10 0.029437 0.739652 0.311788
O O11 0.981867 0.746841 0.139062
O O12 0.933687 0.000000 0.055923
O O13 0.000000 0.799072 0.000000
O O14 0.386205 0.232818 0.203027
O O15 0.465135 0.000000 0.213812
O O16 0.639443 0.500000 0.754670
#
# Coordination Sequence:
#
# PCOD8081643 Si02
#       6
#     8   8   8   8   8   8
#     4   8  13  24  41  62  93 129 162 196 239 295
#     4  11  22  35  54  76 102 135 172 211 252 303
#     4   7  12  23  40  64  92 124 162 200 239 291
#     4  11  24  39  53  73 103 134 169 215 260 304
#     4  10  18  30  50  71  95 131 170 206 248 300
#     4  10  19  29  44  71 103 129 161 206 251 294
#
# _framework density 17.483405000000001
#
# number of rings (size 3 to 8) (size 9 to 14) (size 15 to 20)
#    0.000    2.500    1.667    4.000    0.000    3.333 
#    0.000    7.500    0.000    0.000    0.000    1.167 
#    0.000    0.000    0.000    0.000    0.000    0.000 
#
# Total GULP energy -297325.869581 kJ/mol
# GULP energy per Si atom -12388.577899 kJ/mol
# Density = 1.744361 g / cm^3
# Si number density = 17.483405 Si / 1000 Ang^3
#
#
#
# Elastic Constant Matrix: (Units=GPa)
#
#
# Indices 1 2 3 4 5 6 
#
# 1 48.9614 37.4053 37.2888 0.0000 0.9458 0.0000
# 2 37.4053 101.3722 63.5844 0.0000 -2.8531 0.0000
# 3 37.2888 63.5844 173.6311 0.0000 -7.5940 0.0000
# 4 0.0000 0.0000 0.0000 29.5763 0.0000 -0.9686
# 5 0.9458 -2.8531 -7.5940 0.0000 13.4526 0.0000
# 6 0.0000 0.0000 0.0000 -0.9686 0.0000 18.3514
#
#
#
# Elastic Compliance Matrix: (Units=1/GPa)
#
#
# Indices 1 2 3 4 5 6 
#
# 1 0.030107 -0.009162 -0.003371 0.000000 -0.005963 0.000000
# 2 -0.009162 0.015595 -0.003661 0.000000 0.001885 0.000000
# 3 -0.003371 -0.003661 0.007998 0.000000 0.003975 0.000000
# 4 0.000000 0.000000 0.000000 0.033869 0.000000 0.001788
# 5 -0.005963 0.001885 0.003975 0.000000 0.077398 0.000000
# 6 0.000000 0.000000 0.000000 0.001788 0.000000 0.054586
#
#
# Mechanical properties :
#
#
# Convention : Reuss Voigt Hill
#
# Bulk Modulus (GPa) = 46.92482 66.72463 56.82473
# Shear Modulus (GPa) = 19.30168 24.65515 21.97842
#
# Velocity S-wave (km/s) = 3.32625 3.75934 3.54941
# Velocity P-wave (km/s) = 6.45367 7.55585 7.02641
#
# Compressibility (1/GPa) = 0.02131068
#
# Stress axis : x y z
#
# Youngs Moduli (GPa) = 33.21514 64.12472 125.03523
#
# Poissons Ratio (x) = 0.58753 0.42152
# Poissons Ratio (y) = 0.30433 0.45771
# Poissons Ratio (z) = 0.11197 0.23474
#
# Static dielectric constant tensor:
#      x y z
#    x 2.482210 0.000000 -0.131940 
#    y 0.000000 3.289170 0.000000 
#    z -0.131940 0.000000 4.096900 
# 
# 
# High freq. dielectric constant tensor:
#      x y z
#    x 1.600740 0.000000 -0.000590 
#    y 0.000000 1.670130 0.000000 
#    z -0.000590 0.000000 1.710170 
# 
# From -- ./inp_files/280530.got.cif
#   From: 2010.06.25/outbox.cif.g09.slc.cpg/sg12_141_cif.got.tgz:280530.got - 2010.06.28 00:19:55.
