data_PCOD8081891
_publ_section_title
;
Structure prediction by ZEFSAII (Michael W. Deem and Ramdas Pophale) SiO2 
 PCOD8081891
Probable space group: C 2/M
;
_chemical_formula_sum "Si O2"
_cell_formula_units_Z 64
_cell_length_a 24.623667
_cell_length_b 9.105474
_cell_length_c 23.790532
_cell_angle_alpha 90.000000
_cell_angle_beta 46.828228
_cell_angle_gamma 90.000000
_cell_volume 3890.174714
_symmetry_space_group_name_H-M "C 2/M"
_symmetry_group_IT_number 12
_symmetry_cell_setting 'monoclinic'
loop_
_space_group_symop_operation_xyz
x,y,z
-x,y,-z
-x,-y,-z
x,-y,z
1/2+x,1/2+y,z
1/2-x,1/2+y,-z
1/2-x,1/2-y,-z
1/2+x,1/2-y,z
loop_
_atom_site_type_symbol
_atom_site_label
_atom_site_fract_x
_atom_site_fract_y
_atom_site_fract_z
Si Si1 0.322768 0.672502 0.680701
Si Si2 0.589548 0.667714 0.574063
Si Si3 0.114606 0.171102 0.684613
Si Si4 0.436454 0.838887 0.998556
Si Si5 0.267403 0.669015 0.597478
Si Si6 0.668910 0.174743 0.837264
Si Si7 0.450633 0.175465 0.167985
Si Si8 0.474119 0.173434 0.579548
O O1 0.337881 0.500000 0.675312
O O2 0.304973 0.716465 0.629365
O O3 0.254205 0.723293 0.769053
O O4 0.394612 0.758208 0.651252
O O5 0.566305 0.500000 0.577355
O O6 0.586580 0.702811 0.641852
O O7 0.673305 0.696044 0.493693
O O8 0.533093 0.776434 0.583868
O O9 0.197043 0.231829 0.634522
O O10 0.055106 0.250113 0.767260
O O11 0.116270 0.000000 0.697168
O O12 0.474079 0.763563 0.916886
O O13 0.409849 0.000000 0.998162
O O14 0.500000 0.854906 0.000000
O O15 0.366241 0.758062 0.079376
O O16 0.240926 0.500000 0.619525
O O17 0.621911 0.225821 0.816160
O O18 0.661831 0.000000 0.845923
O O19 0.453765 0.000000 0.171847
O O20 0.500000 0.229645 0.500000
O O21 0.467065 0.000000 0.586165
#
# Coordination Sequence:
#
# PCOD8081891 Si02
#       8
#     8   8   8   8   8   8   8   8
#     4  10  18  30  52  74  95 127 162 196 234 283
#     4  10  22  38  52  67  91 128 169 201 236 281
#     4  11  22  32  46  71 101 130 160 198 238 279
#     4   7  11  20  40  67  94 121 154 195 227 266
#     4  10  19  33  52  71  93 126 165 197 231 283
#     4   8  13  24  43  71  97 121 158 195 230 275
#     4   9  15  27  46  68  95 129 162 190 228 280
#     4  11  23  36  51  72  95 121 158 204 249 284
#
# _framework density 16.451703999999999
#
# number of rings (size 3 to 8) (size 9 to 14) (size 15 to 20)
#    0.000    2.500    2.500    2.625    0.000    2.500 
#    0.000    0.000    0.000    4.125    0.000    0.875 
#    0.000    0.000    0.000    0.000    0.000    0.000 
#
# Total GULP energy -396599.234257 kJ/mol
# GULP energy per Si atom -12393.726071 kJ/mol
# Density = 1.641426 g / cm^3
# Si number density = 16.451704 Si / 1000 Ang^3
#
#
#
# Elastic Constant Matrix: (Units=GPa)
#
#
# Indices 1 2 3 4 5 6 
#
# 1 55.5183 30.4045 42.4430 -0.0007 2.5850 0.0004
# 2 30.4045 45.7109 38.7865 -0.0016 1.7978 0.0000
# 3 42.4430 38.7865 152.1545 -0.0008 2.5815 0.0009
# 4 -0.0007 -0.0016 -0.0008 16.3885 0.0004 2.2038
# 5 2.5850 1.7978 2.5815 0.0004 18.0000 -0.0003
# 6 0.0004 0.0000 0.0009 2.2038 -0.0003 22.8864
#
#
#
# Elastic Compliance Matrix: (Units=1/GPa)
#
#
# Indices 1 2 3 4 5 6 
#
# 1 0.030409 -0.016558 -0.004226 0.000000 -0.002107 0.000000
# 2 -0.016558 0.036987 -0.004799 0.000003 -0.000628 0.000000
# 3 -0.004226 -0.004799 0.008978 0.000000 -0.000201 0.000000
# 4 0.000000 0.000003 0.000000 0.061819 -0.000002 -0.005953
# 5 -0.002107 -0.000628 -0.000201 -0.000002 0.055950 0.000001
# 6 0.000000 0.000000 0.000000 -0.005953 0.000001 0.044267
#
#
# Mechanical properties :
#
#
# Convention : Reuss Voigt Hill
#
# Bulk Modulus (GPa) = 39.67001 52.96131 46.31566
# Shear Modulus (GPa) = 16.77983 20.90496 18.84239
#
# Velocity S-wave (km/s) = 3.19712 3.56854 3.38792
# Velocity P-wave (km/s) = 6.14769 7.01720 6.59679
#
# Compressibility (1/GPa) = 0.02520796
#
# Stress axis : x y z
#
# Youngs Moduli (GPa) = 32.88549 27.03668 111.38546
#
# Poissons Ratio (x) = 0.44766 0.47069
# Poissons Ratio (y) = 0.54451 0.53455
# Poissons Ratio (z) = 0.13897 0.12975
#
# Static dielectric constant tensor:
#      x y z
#    x 2.764560 0.000000 -0.016130 
#    y 0.000000 2.839090 0.000000 
#    z -0.016130 0.000000 3.586690 
# 
# 
# High freq. dielectric constant tensor:
#      x y z
#    x 1.592710 0.000000 -0.002650 
#    y 0.000000 1.606560 0.000000 
#    z -0.002650 0.000000 1.652700 
# 
# From -- ./inp_files/348531.got.cif
#   From: 2010.06.25/outbox.cif.g09.slc.cpg/sg12_175_cif.got.tgz:348531.got - 2010.06.28 00:19:55.
