data_PCOD8081371
_publ_section_title
;
Structure prediction by ZEFSAII (Michael W. Deem and Ramdas Pophale) SiO2 
 PCOD8081371
Probable space group: C 2/M
;
_chemical_formula_sum "Si O2"
_cell_formula_units_Z 56
_cell_length_a 20.646040
_cell_length_b 8.851860
_cell_length_c 17.492828
_cell_angle_alpha 90.000000
_cell_angle_beta 105.236636
_cell_angle_gamma 90.000000
_cell_volume 3084.540804
_symmetry_space_group_name_H-M "C 2/M"
_symmetry_group_IT_number 12
_symmetry_cell_setting 'monoclinic'
loop_
_space_group_symop_operation_xyz
x,y,z
-x,y,-z
-x,-y,-z
x,-y,z
1/2+x,1/2+y,z
1/2-x,1/2+y,-z
1/2-x,1/2-y,-z
1/2+x,1/2-y,z
loop_
_atom_site_type_symbol
_atom_site_label
_atom_site_fract_x
_atom_site_fract_y
_atom_site_fract_z
Si Si1 0.727791 0.176873 0.670827
Si Si2 0.820356 0.677631 0.500864
Si Si3 0.850454 0.321453 0.916618
Si Si4 0.211892 0.679926 0.834352
Si Si5 0.093698 0.679213 0.904903
Si Si6 0.551764 0.820962 0.188798
Si Si7 0.129004 0.178993 0.344003
O O1 0.671368 0.210770 0.587935
O O2 0.705042 0.244045 0.745398
O O3 0.800911 0.241167 0.669734
O O4 0.737740 0.000000 0.683123
O O5 0.819251 0.500000 0.516930
O O6 0.750000 0.750000 0.500000
O O7 0.877418 0.755823 0.571041
O O8 0.839128 0.500000 0.913914
O O9 0.779144 0.240580 0.893680
O O10 0.894204 0.270127 0.857648
O O11 0.888932 0.266018 0.004422
O O12 0.213919 0.500000 0.836900
O O13 0.148709 0.742439 0.862391
O O14 0.092519 0.500000 0.902132
O O15 0.020714 0.741477 0.859299
O O16 0.568631 0.743752 0.274722
O O17 0.551260 0.000000 0.199120
O O18 0.124825 0.000000 0.346247
#
# Coordination Sequence:
#
# PCOD8081371 Si02
#       7
#     8   8   8   8   8   8   8
#     4   8  15  27  45  69  96 122 154 196 238 282
#     4   9  16  27  44  70 100 128 158 198 245 291
#     4  10  19  32  50  73  98 126 164 208 246 286
#     4  10  18  32  52  72  98 130 162 199 243 292
#     4   9  19  33  50  71  97 131 167 201 242 291
#     4  10  19  32  50  71  97 131 167 203 242 290
#     4  10  18  30  47  71  99 126 160 203 248 291
#
# _framework density 18.155052000000001
#
# number of rings (size 3 to 8) (size 9 to 14) (size 15 to 20)
#    0.000    2.571    1.429    2.571    0.000    1.714 
#    0.000    2.143    0.000    2.571    0.000    6.000 
#    0.000    0.000    0.000    0.000    0.000    0.000 
#
# Total GULP energy -347057.364906 kJ/mol
# GULP energy per Si atom -12394.905889 kJ/mol
# Density = 1.811373 g / cm^3
# Si number density = 18.155052 Si / 1000 Ang^3
#
#
#
# Elastic Constant Matrix: (Units=GPa)
#
#
# Indices 1 2 3 4 5 6 
#
# 1 74.7451 18.4760 38.9165 0.0000 13.3182 0.0000
# 2 18.4760 38.8722 34.1725 0.0000 4.4414 0.0000
# 3 38.9165 34.1725 167.3075 0.0000 14.9081 0.0000
# 4 0.0000 0.0000 0.0000 25.5816 0.0000 5.5889
# 5 13.3182 4.4414 14.9081 0.0000 15.1579 0.0000
# 6 0.0000 0.0000 0.0000 5.5889 0.0000 16.2035
#
#
#
# Elastic Compliance Matrix: (Units=1/GPa)
#
#
# Indices 1 2 3 4 5 6 
#
# 1 0.017916 -0.005379 -0.001980 0.000000 -0.012218 0.000000
# 2 -0.005379 0.033110 -0.005555 0.000000 0.000488 0.000000
# 3 -0.001980 -0.005555 0.007971 0.000000 -0.004472 0.000000
# 4 0.000000 0.000000 0.000000 0.042276 0.000000 -0.014582
# 5 -0.012218 0.000488 -0.004472 0.000000 0.080963 0.000000
# 6 0.000000 0.000000 0.000000 -0.014582 0.000000 0.066745
#
#
# Mechanical properties :
#
#
# Convention : Reuss Voigt Hill
#
# Bulk Modulus (GPa) = 30.14894 51.56163 40.85528
# Shear Modulus (GPa) = 17.49079 24.01258 20.75168
#
# Velocity S-wave (km/s) = 3.10725 3.64076 3.38453
# Velocity P-wave (km/s) = 5.43284 6.79234 6.15027
#
# Compressibility (1/GPa) = 0.03316866
#
# Stress axis : x y z
#
# Youngs Moduli (GPa) = 55.81466 30.20277 125.46023
#
# Poissons Ratio (x) = 0.16246 0.24842
# Poissons Ratio (y) = 0.30023 0.69692
# Poissons Ratio (z) = 0.11052 0.16777
#
# Static dielectric constant tensor:
#      x y z
#    x 3.232260 0.000000 -0.122890 
#    y 0.000000 3.069320 0.000000 
#    z -0.122890 0.000000 3.930190 
# 
# 
# High freq. dielectric constant tensor:
#      x y z
#    x 1.664570 0.000000 -0.001110 
#    y 0.000000 1.675880 0.000000 
#    z -0.001110 0.000000 1.729510 
# 
# From -- ./inp_files/280161.got.cif
#   From: 2010.06.25/outbox.cif.g09.slc.cpg/sg12_141_cif.got.tgz:280161.got - 2010.06.28 00:19:55.
