data_PCOD8081608
_publ_section_title
;
Structure prediction by ZEFSAII (Michael W. Deem and Ramdas Pophale) SiO2 
 PCOD8081608
Probable space group: C 2/M
;
_chemical_formula_sum "Si O2"
_cell_formula_units_Z 56
_cell_length_a 20.532645
_cell_length_b 8.943053
_cell_length_c 19.710213
_cell_angle_alpha 90.000000
_cell_angle_beta 121.406021
_cell_angle_gamma 90.000000
_cell_volume 3089.039999
_symmetry_space_group_name_H-M "C 2/M"
_symmetry_group_IT_number 12
_symmetry_cell_setting 'monoclinic'
loop_
_space_group_symop_operation_xyz
x,y,z
-x,y,-z
-x,-y,-z
x,-y,z
1/2+x,1/2+y,z
1/2-x,1/2+y,-z
1/2-x,1/2-y,-z
1/2+x,1/2-y,z
loop_
_atom_site_type_symbol
_atom_site_label
_atom_site_fract_x
_atom_site_fract_y
_atom_site_fract_z
Si Si1 0.298610 0.177051 0.585700
Si Si2 0.823026 0.675914 0.006363
Si Si3 0.942035 0.671297 0.408012
Si Si4 0.735715 0.674994 0.833308
Si Si5 0.410176 0.322730 0.161922
Si Si6 0.715669 0.323117 0.674205
Si Si7 0.473283 0.175825 0.682580
O O1 0.250000 0.250000 0.500000
O O2 0.268308 0.237061 0.641859
O O3 0.386140 0.227727 0.626916
O O4 0.290106 0.000000 0.574420
O O5 0.824739 0.500000 0.022437
O O6 0.897747 0.753898 0.079310
O O7 0.750000 0.750000 0.000000
O O8 0.812198 0.707297 0.919480
O O9 0.915084 0.500000 0.388489
O O10 0.870552 0.774329 0.385217
O O11 0.000000 0.695389 0.500000
O O12 0.982210 0.723529 0.360814
O O13 0.722205 0.500000 0.819499
O O14 0.658905 0.737766 0.827709
O O15 0.744949 0.743367 0.762686
O O16 0.412417 0.500000 0.157197
O O17 0.489928 0.262270 0.233968
O O18 0.719131 0.500000 0.677001
O O19 0.478148 0.000000 0.699288
#
# Coordination Sequence:
#
# PCOD8081608 Si02
#       7
#     8   8   8   8   8   8   8
#     4  10  22  38  56  75 101 137 176 215 257 309
#     4   9  16  27  45  72 106 139 167 206 255 309
#     4  10  20  33  50  73 102 132 163 208 262 311
#     4   8  15  28  47  73 103 129 162 208 253 296
#     4  10  18  30  49  75 104 135 170 214 258 303
#     4  10  19  34  54  76 101 131 170 213 255 303
#     4  10  20  34  51  74 103 136 172 211 257 311
#
# _framework density 18.128610999999999
#
# number of rings (size 3 to 8) (size 9 to 14) (size 15 to 20)
#    0.000    2.429    1.429    2.571    0.000    2.571 
#    0.000    0.714    0.000    0.857    0.000    6.000 
#    0.000    0.000    0.000    0.000    0.000    0.000 
#
# Total GULP energy -347067.519906 kJ/mol
# GULP energy per Si atom -12395.268568 kJ/mol
# Density = 1.808735 g / cm^3
# Si number density = 18.128611 Si / 1000 Ang^3
#
#
#
# Elastic Constant Matrix: (Units=GPa)
#
#
# Indices 1 2 3 4 5 6 
#
# 1 67.3536 22.6850 38.9522 0.0000 1.2235 0.0000
# 2 22.6850 44.2133 41.5197 0.0000 2.2597 0.0000
# 3 38.9522 41.5197 147.6124 0.0000 1.8703 0.0000
# 4 0.0000 0.0000 0.0000 29.9565 0.0000 2.3885
# 5 1.2235 2.2597 1.8703 0.0000 25.8838 0.0000
# 6 0.0000 0.0000 0.0000 2.3885 0.0000 17.4186
#
#
#
# Elastic Compliance Matrix: (Units=1/GPa)
#
#
# Indices 1 2 3 4 5 6 
#
# 1 0.018923 -0.006818 -0.003075 0.000000 -0.000077 0.000000
# 2 -0.006818 0.033303 -0.007542 0.000000 -0.002040 0.000000
# 3 -0.003075 -0.007542 0.009706 0.000000 0.000102 0.000000
# 4 0.000000 0.000000 0.000000 0.033751 0.000000 -0.004628
# 5 -0.000077 -0.002040 0.000102 0.000000 0.038809 0.000000
# 6 0.000000 0.000000 0.000000 -0.004628 0.000000 0.058044
#
#
# Mechanical properties :
#
#
# Convention : Reuss Voigt Hill
#
# Bulk Modulus (GPa) = 36.95193 51.72145 44.33669
# Shear Modulus (GPa) = 21.14834 25.05330 23.10082
#
# Velocity S-wave (km/s) = 3.41922 3.72153 3.57357
# Velocity P-wave (km/s) = 6.00129 6.85992 6.44492
#
# Compressibility (1/GPa) = 0.02706219
#
# Stress axis : x y z
#
# Youngs Moduli (GPa) = 52.84623 30.02763 103.02849
#
# Poissons Ratio (x) = 0.20471 0.31679
# Poissons Ratio (y) = 0.36028 0.77708
# Poissons Ratio (z) = 0.16249 0.22648
#
# Static dielectric constant tensor:
#      x y z
#    x 3.284620 0.000000 -0.262000 
#    y 0.000000 3.203530 0.000000 
#    z -0.262000 0.000000 3.898490 
# 
# 
# High freq. dielectric constant tensor:
#      x y z
#    x 1.664190 0.000000 -0.007360 
#    y 0.000000 1.687620 0.000000 
#    z -0.007360 0.000000 1.726090 
# 
# From -- ./inp_files/319639.got.cif
#   From: 2010.06.25/outbox.cif.g09.slc.cpg/sg12_160_cif.got.tgz:319639.got - 2010.06.28 00:19:55.
