data_PCOD8081534
_publ_section_title
;
Structure prediction by ZEFSAII (Michael W. Deem and Ramdas Pophale) SiO2 
 PCOD8081534
Probable space group: C 2/M
;
_chemical_formula_sum "Si O2"
_cell_formula_units_Z 40
_cell_length_a 20.689550
_cell_length_b 7.695252
_cell_length_c 19.588856
_cell_angle_alpha 90.000000
_cell_angle_beta 134.386918
_cell_angle_gamma 90.000000
_cell_volume 2228.772158
_symmetry_space_group_name_H-M "C 2/M"
_symmetry_group_IT_number 12
_symmetry_cell_setting 'monoclinic'
loop_
_space_group_symop_operation_xyz
x,y,z
-x,y,-z
-x,-y,-z
x,-y,z
1/2+x,1/2+y,z
1/2-x,1/2+y,-z
1/2-x,1/2-y,-z
1/2+x,1/2-y,z
loop_
_atom_site_type_symbol
_atom_site_label
_atom_site_fract_x
_atom_site_fract_y
_atom_site_fract_z
Si Si1 0.902225 0.793874 0.453678
Si Si2 0.931969 0.798431 0.763532
Si Si3 0.482135 0.000000 0.097031
Si Si4 0.273332 0.693649 0.751068
Si Si5 0.853025 0.796652 0.564935
Si Si6 0.853090 0.500000 0.884988
O O1 0.829206 0.710753 0.349425
O O2 0.888904 0.717373 0.520273
O O3 0.000000 0.735095 0.500000
O O4 0.889835 0.000000 0.443134
O O5 0.010153 0.675322 0.852066
O O6 0.838556 0.770083 0.735149
O O7 0.913532 0.730976 0.673033
O O8 0.963439 0.000000 0.790283
O O9 0.560301 0.000000 0.099043
O O10 0.385079 0.000000 0.987499
O O11 0.289253 0.500000 0.791906
O O12 0.293368 0.828488 0.826789
O O13 0.750000 0.750000 0.500000
O O14 0.863569 0.000000 0.569904
#
# Coordination Sequence:
#
# PCOD8081534 Si02
#       6
#     8   8   4   8   8   4
#     4  10  20  33  49  72 107 141 172 211 251 301
#     4   9  18  30  46  74 102 128 168 210 250 301
#     4   9  18  30  50  70 101 134 160 213 262 300
#     4  10  18  30  49  71 100 134 168 208 250 304
#     4  10  19  29  48  73 101 138 171 203 251 303
#     4   9  18  32  47  72 100 132 169 203 262 312
#
# _framework density 17.947099999999999
#
# number of rings (size 3 to 8) (size 9 to 14) (size 15 to 20)
#    0.000    2.400    3.000    0.000    1.400    1.200 
#    0.000    4.000    0.000    0.000    0.000    1.400 
#    0.000    0.000    0.000    0.000    0.000    0.000 
#
# Total GULP energy -247951.434279 kJ/mol
# GULP energy per Si atom -12397.571714 kJ/mol
# Density = 1.790625 g / cm^3
# Si number density = 17.947100 Si / 1000 Ang^3
#
#
#
# Elastic Constant Matrix: (Units=GPa)
#
#
# Indices 1 2 3 4 5 6 
#
# 1 73.2718 21.8599 42.5542 0.0000 -3.6784 0.0000
# 2 21.8599 95.9744 69.2195 0.0000 -3.1188 0.0000
# 3 42.5542 69.2195 168.3971 0.0000 -12.7145 0.0000
# 4 0.0000 0.0000 0.0000 25.5871 0.0000 0.6236
# 5 -3.6784 -3.1188 -12.7145 0.0000 15.7729 0.0000
# 6 0.0000 0.0000 0.0000 0.6236 0.0000 10.7848
#
#
#
# Elastic Compliance Matrix: (Units=1/GPa)
#
#
# Indices 1 2 3 4 5 6 
#
# 1 0.016074 -0.001060 -0.003577 0.000000 0.000656 0.000000
# 2 -0.001060 0.014946 -0.006039 0.000000 -0.002160 0.000000
# 3 -0.003577 -0.006039 0.009766 0.000000 0.005844 0.000000
# 4 0.000000 0.000000 0.000000 0.039137 0.000000 -0.002263
# 5 0.000656 -0.002160 0.005844 0.000000 0.067837 0.000000
# 6 0.000000 0.000000 0.000000 -0.002263 0.000000 0.092854
#
#
# Mechanical properties :
#
#
# Convention : Reuss Voigt Hill
#
# Bulk Modulus (GPa) = 51.45450 67.21228 59.33339
# Shear Modulus (GPa) = 18.62590 24.02959 21.32775
#
# Velocity S-wave (km/s) = 3.22502 3.66308 3.45101
# Velocity P-wave (km/s) = 6.52687 7.44462 7.00080
#
# Compressibility (1/GPa) = 0.01943464
#
# Stress axis : x y z
#
# Youngs Moduli (GPa) = 62.21115 66.90730 102.40035
#
# Poissons Ratio (x) = 0.07094 0.36625
# Poissons Ratio (y) = 0.06596 0.61836
# Poissons Ratio (z) = 0.22251 0.40403
#
# Static dielectric constant tensor:
#      x y z
#    x 3.134830 0.000000 -0.242260 
#    y 0.000000 3.431430 0.000000 
#    z -0.242260 0.000000 3.501500 
# 
# 
# High freq. dielectric constant tensor:
#      x y z
#    x 1.642950 0.000000 -0.010380 
#    y 0.000000 1.703030 0.000000 
#    z -0.010380 0.000000 1.692160 
# 
# From -- ./inp_files/179690.got.cif
#   From: 2010.06.25/outbox.cif.g09.slc.cpg/sg12_90_cif.got.tgz:179690.got - 2010.06.28 00:19:55.
