data_PCOD8081674
_publ_section_title
;
Structure prediction by ZEFSAII (Michael W. Deem and Ramdas Pophale) SiO2 
 PCOD8081674
Probable space group: C 2/M
;
_chemical_formula_sum "Si O2"
_cell_formula_units_Z 64
_cell_length_a 29.067777
_cell_length_b 8.812580
_cell_length_c 15.811464
_cell_angle_alpha 90.000000
_cell_angle_beta 62.368463
_cell_angle_gamma 90.000000
_cell_volume 3588.355162
_symmetry_space_group_name_H-M "C 2/M"
_symmetry_group_IT_number 12
_symmetry_cell_setting 'monoclinic'
loop_
_space_group_symop_operation_xyz
x,y,z
-x,y,-z
-x,-y,-z
x,-y,z
1/2+x,1/2+y,z
1/2-x,1/2+y,-z
1/2-x,1/2-y,-z
1/2+x,1/2-y,z
loop_
_atom_site_type_symbol
_atom_site_label
_atom_site_fract_x
_atom_site_fract_y
_atom_site_fract_z
Si Si1 0.865759 0.319411 0.342377
Si Si2 0.915440 0.676335 0.545994
Si Si3 0.326712 0.179279 0.899152
Si Si4 0.461700 0.678640 0.345437
Si Si5 0.221007 0.179202 0.904304
Si Si6 0.294425 0.680924 0.273232
Si Si7 0.067408 0.320942 0.276154
Si Si8 0.309502 0.823245 0.555918
O O1 0.868052 0.500000 0.337717
O O2 0.923187 0.257708 0.311601
O O3 0.845744 0.252789 0.270891
O O4 0.827212 0.258753 0.449618
O O5 0.927500 0.500000 0.516736
O O6 0.948996 0.774366 0.452380
O O7 0.930864 0.723065 0.626776
O O8 0.854305 0.709714 0.586441
O O9 0.278847 0.233443 0.881035
O O10 0.380053 0.237887 0.812654
O O11 0.327034 0.000000 0.906760
O O12 0.321428 0.248911 0.997030
O O13 0.457175 0.500000 0.338745
O O14 0.519627 0.733915 0.273616
O O15 0.208759 0.236703 0.820539
O O16 0.216570 0.000000 0.914056
O O17 0.296915 0.500000 0.276157
O O18 0.244166 0.749209 0.365474
O O19 0.060453 0.500000 0.270328
O O20 0.300058 0.000000 0.554736
#
# Coordination Sequence:
#
# PCOD8081674 Si02
#       8
#     8   8   8   8   8   8   8   8
#     4  10  20  34  50  69  96 131 170 207 243 285
#     4   9  17  31  50  72 100 133 167 200 237 286
#     4   9  18  33  53  76 102 132 164 197 237 289
#     4  11  22  34  48  69  99 132 166 205 248 289
#     4   9  18  32  51  76 105 133 159 194 242 292
#     4  10  18  30  50  74 100 130 164 201 244 290
#     4  10  19  32  52  74  97 130 169 204 241 287
#     4   8  15  28  47  71  99 130 163 198 235 282
#
# _framework density 17.835470000000001
#
# number of rings (size 3 to 8) (size 9 to 14) (size 15 to 20)
#    0.000    2.500    0.000    3.750    0.000    6.000 
#    0.000    2.500    0.000    6.750    0.000    5.250 
#    0.000    0.000    0.000    0.000    0.000    0.000 
#
# Total GULP energy -396800.530828 kJ/mol
# GULP energy per Si atom -12400.016588 kJ/mol
# Density = 1.779488 g / cm^3
# Si number density = 17.835470 Si / 1000 Ang^3
#
#
#
# Elastic Constant Matrix: (Units=GPa)
#
#
# Indices 1 2 3 4 5 6 
#
# 1 129.0922 35.2255 69.5230 0.0000 6.1725 0.0000
# 2 35.2255 45.4991 30.7069 0.0000 2.6091 0.0000
# 3 69.5230 30.7069 88.7226 0.0000 4.0678 0.0000
# 4 0.0000 0.0000 0.0000 24.2475 0.0000 1.6094
# 5 6.1725 2.6091 4.0678 0.0000 29.0007 0.0000
# 6 0.0000 0.0000 0.0000 1.6094 0.0000 27.1608
#
#
#
# Elastic Compliance Matrix: (Units=1/GPa)
#
#
# Indices 1 2 3 4 5 6 
#
# 1 0.014123 -0.004477 -0.009459 0.000000 -0.001276 0.000000
# 2 -0.004477 0.030137 -0.006886 0.000000 -0.000793 0.000000
# 3 -0.009459 -0.006886 0.021081 0.000000 -0.000324 0.000000
# 4 0.000000 0.000000 0.000000 0.041404 0.000000 -0.002453
# 5 -0.001276 -0.000793 -0.000324 0.000000 0.034870 0.000000
# 6 0.000000 0.000000 0.000000 -0.002453 0.000000 0.036963
#
#
# Mechanical properties :
#
#
# Convention : Reuss Voigt Hill
#
# Bulk Modulus (GPa) = 42.19800 59.35830 50.77815
# Shear Modulus (GPa) = 21.91804 24.60571 23.26187
#
# Velocity S-wave (km/s) = 3.50937 3.71832 3.61536
# Velocity P-wave (km/s) = 6.33497 7.19638 6.77937
#
# Compressibility (1/GPa) = 0.02369781
#
# Stress axis : x y z
#
# Youngs Moduli (GPa) = 70.80508 33.18130 47.43599
#
# Poissons Ratio (x) = 0.14857 0.44869
# Poissons Ratio (y) = 0.31702 0.32663
# Poissons Ratio (z) = 0.66973 0.22848
#
# Static dielectric constant tensor:
#      x y z
#    x 3.429680 0.000000 -0.027480 
#    y 0.000000 3.039640 0.000000 
#    z -0.027480 0.000000 3.292200 
# 
# 
# High freq. dielectric constant tensor:
#      x y z
#    x 1.694950 0.000000 -0.000770 
#    y 0.000000 1.671010 0.000000 
#    z -0.000770 0.000000 1.669590 
# 
# From -- ./inp_files/249007.got.cif
#   From: 2010.06.25/outbox.cif.g09.slc.cpg/sg12_125_cif.got.tgz:249007.got - 2010.06.28 00:19:55.
