data_PCOD8081202
_publ_section_title
;
Structure prediction by ZEFSAII (Michael W. Deem and Ramdas Pophale) SiO2 
 PCOD8081202
Probable space group: C 2/M
;
_chemical_formula_sum "Si O2"
_cell_formula_units_Z 56
_cell_length_a 17.065451
_cell_length_b 15.098303
_cell_length_c 21.349003
_cell_angle_alpha 90.000000
_cell_angle_beta 147.891566
_cell_angle_gamma 90.000000
_cell_volume 2923.787389
_symmetry_space_group_name_H-M "C 2/M"
_symmetry_group_IT_number 12
_symmetry_cell_setting 'monoclinic'
loop_
_space_group_symop_operation_xyz
x,y,z
-x,y,-z
-x,-y,-z
x,-y,z
1/2+x,1/2+y,z
1/2-x,1/2+y,-z
1/2-x,1/2-y,-z
1/2+x,1/2-y,z
loop_
_atom_site_type_symbol
_atom_site_label
_atom_site_fract_x
_atom_site_fract_y
_atom_site_fract_z
Si Si1 0.467797 0.330726 0.825238
Si Si2 0.758722 0.900698 0.931062
Si Si3 0.557716 0.830025 0.278536
Si Si4 0.868934 0.096732 0.514051
Si Si5 0.470614 0.219247 0.598799
Si Si6 0.711522 0.594611 0.400532
Si Si7 0.746926 0.604605 0.216541
O O1 0.435535 0.233406 0.776911
O O2 0.414954 0.400000 0.737342
O O3 0.383210 0.352127 0.832011
O O4 0.642504 0.338478 0.957432
O O5 0.585421 0.890914 0.826486
O O6 0.795591 0.879904 0.884006
O O7 0.805921 0.000000 0.979010
O O8 0.702840 0.890551 0.376095
O O9 0.545183 0.776651 0.336094
O O10 0.975269 0.181324 0.571229
O O11 0.869353 0.094350 0.588564
O O12 0.926570 0.000000 0.527735
O O13 0.324902 0.175214 0.470700
O O14 0.606532 0.160375 0.667979
O O15 0.794872 0.500000 0.448454
O O16 0.771523 0.500000 0.247596
#
# Coordination Sequence:
#
# PCOD8081202 Si02
#       7
#     8   8   8   8   8   8   8
#     4  12  20  33  52  80 115 138 174 221 266 311
#     4  10  21  36  54  77 107 145 184 215 259 321
#     4  10  19  35  54  78 106 142 181 222 263 314
#     4  10  18  33  56  77 104 141 179 222 266 313
#     4  10  18  36  52  75 109 144 180 212 260 327
#     4  10  18  29  51  80 109 137 170 217 272 317
#     4  10  22  36  54  78 111 149 176 209 268 329
#
# _framework density 19.153238999999999
#
# number of rings (size 3 to 8) (size 9 to 14) (size 15 to 20)
#    0.000    1.714    2.857    3.857    0.000    5.143 
#    0.000    1.429    0.000    2.571    0.000    0.000 
#    0.000    9.143    0.000    0.000    0.000    0.000 
#
# Total GULP energy -346990.379871 kJ/mol
# GULP energy per Si atom -12392.513567 kJ/mol
# Density = 1.910965 g / cm^3
# Si number density = 19.153239 Si / 1000 Ang^3
#
#
#
# Elastic Constant Matrix: (Units=GPa)
#
#
# Indices 1 2 3 4 5 6 
#
# 1 37.6123 21.6443 22.2252 0.0027 -1.4626 0.0009
# 2 21.6443 119.1494 30.1764 0.0056 -2.9251 0.0018
# 3 22.2252 30.1764 106.2932 0.0073 -0.7760 0.0030
# 4 0.0027 0.0056 0.0073 22.4046 0.0034 3.6446
# 5 -1.4626 -2.9251 -0.7760 0.0034 17.3746 0.0010
# 6 0.0009 0.0018 0.0030 3.6446 0.0010 18.3571
#
#
#
# Elastic Compliance Matrix: (Units=1/GPa)
#
#
# Indices 1 2 3 4 5 6 
#
# 1 0.032479 -0.004461 -0.005512 -0.000001 0.001737 0.000000
# 2 -0.004461 0.009690 -0.001810 -0.000001 0.001175 0.000000
# 3 -0.005512 -0.001810 0.011072 -0.000002 -0.000274 -0.000001
# 4 -0.000001 -0.000001 -0.000002 0.046123 -0.000009 -0.009157
# 5 0.001737 0.001175 -0.000274 -0.000009 0.057887 -0.000001
# 6 0.000000 0.000000 -0.000001 -0.009157 -0.000001 0.056293
#
#
# Mechanical properties :
#
#
# Convention : Reuss Voigt Hill
#
# Bulk Modulus (GPa) = 33.69761 45.68295 39.69028
# Shear Modulus (GPa) = 20.24268 24.22785 22.23527
#
# Velocity S-wave (km/s) = 3.25450 3.56047 3.41092
# Velocity P-wave (km/s) = 5.63509 6.38793 6.02328
#
# Compressibility (1/GPa) = 0.02967569
#
# Stress axis : x y z
#
# Youngs Moduli (GPa) = 30.78919 103.19453 90.31639
#
# Poissons Ratio (x) = 0.46039 0.49781
# Poissons Ratio (y) = 0.13736 0.16344
# Poissons Ratio (z) = 0.16971 0.18675
#
# Static dielectric constant tensor:
#      x y z
#    x 3.171960 0.000000 -0.036010 
#    y 0.000000 3.816400 0.000000 
#    z -0.036010 0.000000 3.529310 
# 
# 
# High freq. dielectric constant tensor:
#      x y z
#    x 1.703650 0.000000 -0.006320 
#    y 0.000000 1.752120 0.000000 
#    z -0.006320 0.000000 1.750890 
# 
# From -- ./inp_files/189590.got.cif
#   From: 2010.06.25/outbox.cif.g09.slc.cpg/sg12_95_cif.got.tgz:189590.got - 2010.06.28 00:19:55.
