data_PCOD8081452
_publ_section_title
;
Structure prediction by ZEFSAII (Michael W. Deem and Ramdas Pophale) SiO2 
 PCOD8081452
Probable space group: C 2/M
;
_chemical_formula_sum "Si O2"
_cell_formula_units_Z 48
_cell_length_a 22.355721
_cell_length_b 8.663709
_cell_length_c 19.842190
_cell_angle_alpha 90.000000
_cell_angle_beta 43.616858
_cell_angle_gamma 90.000000
_cell_volume 2651.098394
_symmetry_space_group_name_H-M "C 2/M"
_symmetry_group_IT_number 12
_symmetry_cell_setting 'monoclinic'
loop_
_space_group_symop_operation_xyz
x,y,z
-x,y,-z
-x,-y,-z
x,-y,z
1/2+x,1/2+y,z
1/2-x,1/2+y,-z
1/2-x,1/2-y,-z
1/2+x,1/2-y,z
loop_
_atom_site_type_symbol
_atom_site_label
_atom_site_fract_x
_atom_site_fract_y
_atom_site_fract_z
Si Si1 0.599066 0.680182 0.909130
Si Si2 0.340204 0.681644 0.288978
Si Si3 0.804493 0.816958 0.517169
Si Si4 0.447931 0.818701 0.322543
Si Si5 0.313041 0.179147 0.037685
Si Si6 0.876806 0.821048 0.854086
O O1 0.612106 0.500000 0.913228
O O2 0.627488 0.725876 0.811199
O O3 0.659353 0.776544 0.909952
O O4 0.500000 0.730272 0.000000
O O5 0.337450 0.500000 0.303301
O O6 0.242917 0.751562 0.377321
O O7 0.407622 0.753385 0.286603
O O8 0.750000 0.750000 0.500000
O O9 0.902296 0.755302 0.426330
O O10 0.803647 0.000000 0.518921
O O11 0.548959 0.776853 0.243223
O O12 0.433975 0.000000 0.335897
O O13 0.211835 0.219578 0.112091
O O14 0.329925 0.000000 0.009609
O O15 0.369810 0.275860 0.938308
O O16 0.901218 0.000000 0.829815
#
# Coordination Sequence:
#
# PCOD8081452 Si02
#       6
#     8   8   8   8   8   8
#     4  10  21  35  52  74 103 138 169 201 246 298
#     4  10  19  32  50  74 105 138 169 205 251 299
#     4  10  18  30  48  71 101 134 167 207 253 297
#     4  11  20  31  51  78 103 130 168 210 252 297
#     4  10  21  35  53  76 101 132 169 208 248 293
#     4  10  20  35  53  74 102 133 166 206 252 298
#
# _framework density 18.105703999999999
#
# number of rings (size 3 to 8) (size 9 to 14) (size 15 to 20)
#    0.000    1.833    0.000    7.500    0.000    5.000 
#    0.000    0.000    0.000    1.000    0.000    7.000 
#    0.000    0.000    0.000    0.000    0.000    0.000 
#
# Total GULP energy -297642.952312 kJ/mol
# GULP energy per Si atom -12401.789680 kJ/mol
# Density = 1.806450 g / cm^3
# Si number density = 18.105704 Si / 1000 Ang^3
#
#
#
# Elastic Constant Matrix: (Units=GPa)
#
#
# Indices 1 2 3 4 5 6 
#
# 1 66.8044 31.5968 46.9715 0.0000 0.7604 -0.0002
# 2 31.5968 111.8861 59.2707 0.0004 -0.0581 -0.0011
# 3 46.9715 59.2707 165.2663 -0.0002 -2.9734 0.0003
# 4 0.0000 0.0004 -0.0002 34.2974 0.0000 -1.6167
# 5 0.7604 -0.0581 -2.9734 0.0000 21.5070 0.0000
# 6 -0.0002 -0.0011 0.0003 -1.6167 0.0000 25.6480
#
#
#
# Elastic Compliance Matrix: (Units=1/GPa)
#
#
# Indices 1 2 3 4 5 6 
#
# 1 0.019625 -0.003179 -0.004461 0.000000 -0.001319 0.000000
# 2 -0.003179 0.011555 -0.003246 0.000000 -0.000305 0.000001
# 3 -0.004461 -0.003246 0.008507 0.000000 0.001325 0.000000
# 4 0.000000 0.000000 0.000000 0.029244 0.000000 0.001843
# 5 -0.001319 -0.000305 0.001325 0.000000 0.046726 0.000000
# 6 0.000000 0.000001 0.000000 0.001843 0.000000 0.039106
#
#
# Mechanical properties :
#
#
# Convention : Reuss Voigt Hill
#
# Bulk Modulus (GPa) = 55.82443 68.84831 62.33637
# Shear Modulus (GPa) = 27.39654 30.03165 28.71409
#
# Velocity S-wave (km/s) = 3.89414 4.07711 3.98667
# Velocity P-wave (km/s) = 7.14972 7.76351 7.46293
#
# Compressibility (1/GPa) = 0.01791330
#
# Stress axis : x y z
#
# Youngs Moduli (GPa) = 50.95646 86.54378 117.55469
#
# Poissons Ratio (x) = 0.27516 0.52442
# Poissons Ratio (y) = 0.16201 0.38156
# Poissons Ratio (z) = 0.22732 0.28091
#
# Static dielectric constant tensor:
#      x y z
#    x 3.011320 0.000000 -0.085590 
#    y 0.000000 3.407570 0.000000 
#    z -0.085590 0.000000 3.971850 
# 
# 
# High freq. dielectric constant tensor:
#      x y z
#    x 1.659400 0.000000 -0.008690 
#    y 0.000000 1.717240 0.000000 
#    z -0.008690 0.000000 1.719240 
# 
# From -- ./inp_files/319571.got.cif
#   From: 2010.06.25/outbox.cif.g09.slc.cpg/sg12_160_cif.got.tgz:319571.got - 2010.06.28 00:19:55.
