data_PCOD8081778
_publ_section_title
;
Structure prediction by ZEFSAII (Michael W. Deem and Ramdas Pophale) SiO2 
 PCOD8081778
Probable space group: C 2/M
;
_chemical_formula_sum "Si O2"
_cell_formula_units_Z 64
_cell_length_a 20.231612
_cell_length_b 9.244979
_cell_length_c 23.275917
_cell_angle_alpha 90.000000
_cell_angle_beta 122.693045
_cell_angle_gamma 90.000000
_cell_volume 3663.842036
_symmetry_space_group_name_H-M "C 2/M"
_symmetry_group_IT_number 12
_symmetry_cell_setting 'monoclinic'
loop_
_space_group_symop_operation_xyz
x,y,z
-x,y,-z
-x,-y,-z
x,-y,z
1/2+x,1/2+y,z
1/2-x,1/2+y,-z
1/2-x,1/2-y,-z
1/2+x,1/2-y,z
loop_
_atom_site_type_symbol
_atom_site_label
_atom_site_fract_x
_atom_site_fract_y
_atom_site_fract_z
Si Si1 0.693909 0.666986 0.676063
Si Si2 0.458554 0.328649 0.326081
Si Si3 0.130824 0.169419 0.436796
Si Si4 0.331205 0.330379 0.036706
Si Si5 0.274605 0.169179 0.424556
Si Si6 0.133324 0.170386 0.822964
Si Si7 0.286721 0.166692 0.833872
Si Si8 0.911458 0.170377 0.957830
O O1 0.690945 0.500000 0.655001
O O2 0.607772 0.715924 0.658494
O O3 0.720846 0.767008 0.636754
O O4 0.759411 0.689068 0.755713
O O5 0.464386 0.500000 0.326089
O O6 0.544307 0.267298 0.382060
O O7 0.433612 0.266570 0.251242
O O8 0.187921 0.199129 0.409548
O O9 0.159822 0.254577 0.506012
O O10 0.128763 0.000000 0.451131
O O11 0.313896 0.500000 0.027716
O O12 0.381922 0.289249 0.117689
O O13 0.250000 0.250000 0.000000
O O14 0.378248 0.278850 0.003476
O O15 0.293215 0.000000 0.431251
O O16 0.219006 0.228438 0.844339
O O17 0.135319 0.000000 0.813253
O O18 0.365338 0.256657 0.883476
O O19 0.304971 0.000000 0.855232
O O20 0.906167 0.000000 0.946265
O O21 0.000000 0.226067 0.000000
#
# Coordination Sequence:
#
# PCOD8081778 Si02
#       8
#     8   8   8   8   8   8   8   8
#     4   9  18  33  54  76  97 125 164 207 246 289
#     4   8  15  30  52  75  95 121 166 212 242 277
#     4   9  18  34  54  74  97 130 169 204 237 282
#     4  10  18  30  51  73  95 128 166 205 245 288
#     4  10  20  33  50  75 104 135 164 194 242 295
#     4   8  14  27  49  74  94 117 160 211 246 279
#     4   9  17  32  53  73  94 128 167 203 246 292
#     4  10  21  34  46  71 106 134 161 201 254 297
#
# _framework density 17.468001999999998
#
# number of rings (size 3 to 8) (size 9 to 14) (size 15 to 20)
#    0.000    2.875    1.250    1.875    0.000    1.750 
#    2.250    3.125    0.000    1.500    0.000    0.000 
#    0.000    0.000    0.000    0.000    0.000    0.000 
#
# Total GULP energy -396664.733413 kJ/mol
# GULP energy per Si atom -12395.772919 kJ/mol
# Density = 1.742824 g / cm^3
# Si number density = 17.468002 Si / 1000 Ang^3
#
#
#
# Elastic Constant Matrix: (Units=GPa)
#
#
# Indices 1 2 3 4 5 6 
#
# 1 104.6260 36.9001 73.3610 0.0000 10.2057 0.0000
# 2 36.9001 42.2429 44.4606 0.0000 0.8232 0.0000
# 3 73.3610 44.4606 125.1663 0.0000 9.0112 0.0000
# 4 0.0000 0.0000 0.0000 27.4484 0.0000 -1.7265
# 5 10.2057 0.8232 9.0112 0.0000 34.0443 0.0000
# 6 0.0000 0.0000 0.0000 -1.7265 0.0000 21.8774
#
#
#
# Elastic Compliance Matrix: (Units=1/GPa)
#
#
# Indices 1 2 3 4 5 6 
#
# 1 0.017814 -0.007586 -0.007518 0.000000 -0.003167 0.000000
# 2 -0.007586 0.041282 -0.010510 0.000000 0.004058 0.000000
# 3 -0.007518 -0.010510 0.016258 0.000000 -0.001796 0.000000
# 4 0.000000 0.000000 0.000000 0.036614 0.000000 0.002890
# 5 -0.003167 0.004058 -0.001796 0.000000 0.030700 0.000000
# 6 0.000000 0.000000 0.000000 0.002890 0.000000 0.045937
#
#
# Mechanical properties :
#
#
# Convention : Reuss Voigt Hill
#
# Bulk Modulus (GPa) = 41.44937 64.60874 53.02905
# Shear Modulus (GPa) = 20.17153 24.49492 22.33323
#
# Velocity S-wave (km/s) = 3.40188 3.74876 3.57952
# Velocity P-wave (km/s) = 6.26184 7.47026 6.89258
#
# Compressibility (1/GPa) = 0.02412582
#
# Stress axis : x y z
#
# Youngs Moduli (GPa) = 56.13628 24.22392 61.50753
#
# Poissons Ratio (x) = 0.18377 0.46242
# Poissons Ratio (y) = 0.42586 0.64641
# Poissons Ratio (z) = 0.42204 0.25458
#
# Static dielectric constant tensor:
#      x y z
#    x 4.023250 0.000000 -0.009150 
#    y 0.000000 2.963160 0.000000 
#    z -0.009150 0.000000 3.901800 
# 
# 
# High freq. dielectric constant tensor:
#      x y z
#    x 1.664700 0.000000 -0.001300 
#    y 0.000000 1.646240 0.000000 
#    z -0.001300 0.000000 1.686290 
# 
# From -- ./inp_files/345571.got.cif
#   From: 2010.06.25/outbox.cif.g09.slc.cpg/sg12_173_cif.got.tgz:345571.got - 2010.06.28 00:19:55.
