data_PCOD8081946
_publ_section_title
;
Structure prediction by ZEFSAII (Michael W. Deem and Ramdas Pophale) SiO2 
 PCOD8081946
Probable space group: C 2/M
;
_chemical_formula_sum "Si O2"
_cell_formula_units_Z 56
_cell_length_a 23.403396
_cell_length_b 8.720892
_cell_length_c 19.490825
_cell_angle_alpha 90.000000
_cell_angle_beta 51.872440
_cell_angle_gamma 90.000000
_cell_volume 3129.284181
_symmetry_space_group_name_H-M "C 2/M"
_symmetry_group_IT_number 12
_symmetry_cell_setting 'monoclinic'
loop_
_space_group_symop_operation_xyz
x,y,z
-x,y,-z
-x,-y,-z
x,-y,z
1/2+x,1/2+y,z
1/2-x,1/2+y,-z
1/2-x,1/2-y,-z
1/2+x,1/2-y,z
loop_
_atom_site_type_symbol
_atom_site_label
_atom_site_fract_x
_atom_site_fract_y
_atom_site_fract_z
Si Si1 0.925572 0.668368 0.014680
Si Si2 0.645621 0.320002 0.812662
Si Si3 0.817707 0.318319 0.488332
Si Si4 0.016141 0.681899 0.823123
Si Si5 0.034149 0.819953 0.666773
Si Si6 0.196892 0.318731 0.347586
Si Si7 0.953101 0.679796 0.601702
O O1 0.888578 0.500000 0.038489
O O2 0.947379 0.727397 0.922572
O O3 0.872400 0.783958 0.094206
O O4 0.000000 0.653344 0.000000
O O5 0.638937 0.500000 0.804552
O O6 0.592039 0.235757 0.799944
O O7 0.726914 0.257745 0.738599
O O8 0.813517 0.500000 0.489999
O O9 0.750000 0.250000 0.500000
O O10 0.889908 0.265794 0.396989
O O11 0.817092 0.252795 0.566102
O O12 0.020388 0.500000 0.809857
O O13 0.999976 0.765981 0.763875
O O14 0.979816 0.776773 0.646224
O O15 0.047627 0.000000 0.657517
O O16 0.198885 0.500000 0.351026
O O17 0.130174 0.269044 0.348617
O O18 0.960913 0.500000 0.612733
O O19 0.000000 0.721064 0.500000
#
# Coordination Sequence:
#
# PCOD8081946 Si02
#       7
#     8   8   8   8   8   8   8
#     4   8  16  31  50  74 105 140 178 213 253 317
#     4  10  18  30  52  83 114 138 167 216 270 319
#     4  11  21  36  54  77 108 144 178 213 260 315
#     4  10  20  35  54  76 105 144 183 216 257 318
#     4  12  24  36  52  79 109 136 174 227 273 316
#     4   9  19  34  53  76 103 136 177 215 255 312
#     4  10  19  38  61  74  94 140 187 221 260 315
#
# _framework density 17.895467
#
# number of rings (size 3 to 8) (size 9 to 14) (size 15 to 20)
#    0.000    2.000    1.429    4.286    0.000    4.571 
#    0.000    3.571    0.000    0.857    0.000    0.000 
#    0.000    0.000    0.000    0.000    0.000    0.000 
#
# Total GULP energy -347171.672374 kJ/mol
# GULP energy per Si atom -12398.988299 kJ/mol
# Density = 1.785474 g / cm^3
# Si number density = 17.895467 Si / 1000 Ang^3
#
#
#
# Elastic Constant Matrix: (Units=GPa)
#
#
# Indices 1 2 3 4 5 6 
#
# 1 87.7615 31.2817 39.8230 -0.0002 14.8637 0.0003
# 2 31.2817 65.5928 31.9591 -0.0005 2.7928 0.0009
# 3 39.8230 31.9591 114.5141 0.0003 15.4978 0.0001
# 4 -0.0002 -0.0005 0.0003 26.2986 -0.0001 2.6647
# 5 14.8637 2.7928 15.4978 -0.0001 19.7133 -0.0004
# 6 0.0003 0.0009 0.0001 2.6647 -0.0004 26.6224
#
#
#
# Elastic Compliance Matrix: (Units=1/GPa)
#
#
# Indices 1 2 3 4 5 6 
#
# 1 0.016387 -0.006084 -0.002736 0.000000 -0.009343 0.000000
# 2 -0.006084 0.019945 -0.004128 0.000000 0.005007 -0.000001
# 3 -0.002736 -0.004128 0.011725 0.000000 -0.006570 0.000000
# 4 0.000000 0.000000 0.000000 0.038414 0.000000 -0.003845
# 5 -0.009343 0.005007 -0.006570 0.000000 0.062227 0.000001
# 6 0.000000 -0.000001 0.000000 -0.003845 0.000001 0.037947
#
#
# Mechanical properties :
#
#
# Convention : Reuss Voigt Hill
#
# Bulk Modulus (GPa) = 45.12553 52.66622 48.89587
# Shear Modulus (GPa) = 22.73439 25.51382 24.12411
#
# Velocity S-wave (km/s) = 3.56813 3.77996 3.67557
# Velocity P-wave (km/s) = 6.49972 6.96740 6.73762
#
# Compressibility (1/GPa) = 0.02216040
#
# Stress axis : x y z
#
# Youngs Moduli (GPa) = 61.02355 50.13688 85.28460
#
# Poissons Ratio (x) = 0.30504 0.23337
# Poissons Ratio (y) = 0.37127 0.35208
# Poissons Ratio (z) = 0.16698 0.20698
#
# Static dielectric constant tensor:
#      x y z
#    x 3.228620 0.000000 0.046330 
#    y 0.000000 3.215980 0.000010 
#    z 0.046330 0.000010 3.734060 
# 
# 
# High freq. dielectric constant tensor:
#      x y z
#    x 1.670290 0.000000 0.004040 
#    y 0.000000 1.686400 0.000000 
#    z 0.004040 0.000000 1.702280 
# 
# From -- ./inp_files/280879.got.cif
#   From: 2010.06.25/outbox.cif.g09.slc.cpg/sg12_141_cif.got.tgz:280879.got - 2010.06.28 00:19:55.
