data_PCOD8081480
_publ_section_title
;
Structure prediction by ZEFSAII (Michael W. Deem and Ramdas Pophale) SiO2 
 PCOD8081480
Probable space group: C 2/M
;
_chemical_formula_sum "Si O2"
_cell_formula_units_Z 56
_cell_length_a 13.759849
_cell_length_b 14.332524
_cell_length_c 20.625212
_cell_angle_alpha 90.000000
_cell_angle_beta 131.841248
_cell_angle_gamma 90.000000
_cell_volume 3030.321346
_symmetry_space_group_name_H-M "C 2/M"
_symmetry_group_IT_number 12
_symmetry_cell_setting 'monoclinic'
loop_
_space_group_symop_operation_xyz
x,y,z
-x,y,-z
-x,-y,-z
x,-y,z
1/2+x,1/2+y,z
1/2-x,1/2+y,-z
1/2-x,1/2-y,-z
1/2+x,1/2-y,z
loop_
_atom_site_type_symbol
_atom_site_label
_atom_site_fract_x
_atom_site_fract_y
_atom_site_fract_z
Si Si1 0.554024 0.733808 0.771530
Si Si2 0.297993 0.108442 0.105717
Si Si3 0.766878 0.236294 0.612600
Si Si4 0.121098 0.690757 0.669103
Si Si5 0.859243 0.892477 0.842747
Si Si6 0.661422 0.889763 0.455234
Si Si7 0.871660 0.109377 0.088632
O O1 0.574503 0.833685 0.816660
O O2 0.401748 0.709464 0.707961
O O3 0.598914 0.734173 0.716462
O O4 0.644103 0.657844 0.848376
O O5 0.182038 0.138489 0.103337
O O6 0.333819 0.000000 0.129341
O O7 0.250801 0.132955 0.012192
O O8 0.652939 0.244572 0.616092
O O9 0.734137 0.151017 0.550198
O O10 0.781582 0.335262 0.582144
O O11 0.243578 0.625711 0.740353
O O12 0.992952 0.626978 0.605327
O O13 0.996164 0.845545 0.883321
O O14 0.891765 0.000000 0.858121
O O15 0.689702 0.000000 0.460931
O O16 0.880834 0.000000 0.104452
#
# Coordination Sequence:
#
# PCOD8081480 Si02
#       7
#     8   8   8   8   8   8   8
#     4  10  20  33  52  76 107 144 179 216 266 322
#     4   9  18  31  50  76 103 136 179 225 267 314
#     4  10  21  37  55  82 114 139 177 229 276 323
#     4  10  19  34  55  80 112 140 178 222 266 319
#     4   9  16  27  48  77 105 133 171 219 272 314
#     4  10  22  38  60  85 109 143 183 223 272 330
#     4  10  18  30  48  73 109 143 176 218 264 313
#
# _framework density 18.479887999999999
#
# number of rings (size 3 to 8) (size 9 to 14) (size 15 to 20)
#    0.000    2.286    1.429    1.714    0.000    7.429 
#    0.000    0.714    0.000   11.143    0.000    2.000 
#    0.000    0.000    0.000    0.000    0.000    0.000 
#
# Total GULP energy -347056.732710 kJ/mol
# GULP energy per Si atom -12394.883311 kJ/mol
# Density = 1.843783 g / cm^3
# Si number density = 18.479888 Si / 1000 Ang^3
#
#
#
# Elastic Constant Matrix: (Units=GPa)
#
#
# Indices 1 2 3 4 5 6 
#
# 1 55.2367 39.6992 31.7617 0.0000 -12.4908 0.0000
# 2 39.6992 85.5715 50.2946 0.0000 -12.7584 0.0000
# 3 31.7617 50.2946 114.4087 0.0000 -6.1374 0.0000
# 4 0.0000 0.0000 0.0000 29.4012 0.0000 3.2953
# 5 -12.4908 -12.7584 -6.1374 0.0000 27.4535 0.0000
# 6 0.0000 0.0000 0.0000 3.2953 0.0000 17.7937
#
#
#
# Elastic Compliance Matrix: (Units=1/GPa)
#
#
# Indices 1 2 3 4 5 6 
#
# 1 0.029223 -0.010634 -0.003026 0.000000 0.007677 0.000000
# 2 -0.010634 0.020612 -0.005926 0.000000 0.003416 0.000000
# 3 -0.003026 -0.005926 0.012109 0.000000 -0.001423 0.000000
# 4 0.000000 0.000000 0.000000 0.034733 0.000000 -0.006432
# 5 0.007677 0.003416 -0.001423 0.000000 0.041187 0.000000
# 6 0.000000 0.000000 0.000000 -0.006432 0.000000 0.057391
#
#
# Mechanical properties :
#
#
# Convention : Reuss Voigt Hill
#
# Bulk Modulus (GPa) = 43.91307 55.41420 49.66364
# Shear Modulus (GPa) = 20.65967 23.82712 22.24340
#
# Velocity S-wave (km/s) = 3.34721 3.59465 3.47314
# Velocity P-wave (km/s) = 6.22516 6.87605 6.55868
#
# Compressibility (1/GPa) = 0.02277226
#
# Stress axis : x y z
#
# Youngs Moduli (GPa) = 34.21975 48.51630 82.58180
#
# Poissons Ratio (x) = 0.51593 0.24990
# Poissons Ratio (y) = 0.36390 0.48934
# Poissons Ratio (z) = 0.10355 0.28748
#
# Static dielectric constant tensor:
#      x y z
#    x 3.426390 0.000000 -0.012940 
#    y 0.000000 3.203020 0.000000 
#    z -0.012940 0.000000 3.614820 
# 
# 
# High freq. dielectric constant tensor:
#      x y z
#    x 1.698640 0.000000 -0.001520 
#    y 0.000000 1.689710 0.000000 
#    z -0.001520 0.000000 1.738960 
# 
# From -- ./inp_files/214223.got.cif
#   From: 2010.06.25/outbox.cif.g09.slc.cpg/sg12_108_cif.got.tgz:214223.got - 2010.06.28 00:19:55.
