data_PCOD8081703
_publ_section_title
;
Structure prediction by ZEFSAII (Michael W. Deem and Ramdas Pophale) SiO2 
 PCOD8081703
Probable space group: C 2/M
;
_chemical_formula_sum "Si O2"
_cell_formula_units_Z 64
_cell_length_a 20.094317
_cell_length_b 9.095303
_cell_length_c 21.363963
_cell_angle_alpha 90.000000
_cell_angle_beta 68.665611
_cell_angle_gamma 90.000000
_cell_volume 3636.993506
_symmetry_space_group_name_H-M "C 2/M"
_symmetry_group_IT_number 12
_symmetry_cell_setting 'monoclinic'
loop_
_space_group_symop_operation_xyz
x,y,z
-x,y,-z
-x,-y,-z
x,-y,z
1/2+x,1/2+y,z
1/2-x,1/2+y,-z
1/2-x,1/2-y,-z
1/2+x,1/2-y,z
loop_
_atom_site_type_symbol
_atom_site_label
_atom_site_fract_x
_atom_site_fract_y
_atom_site_fract_z
Si Si1 0.419197 0.828210 0.541760
Si Si2 0.725921 0.825274 0.944362
Si Si3 0.677689 0.171046 0.539005
Si Si4 0.927187 0.328213 0.057669
Si Si5 0.172296 0.172989 0.325932
Si Si6 0.670695 0.830160 0.680963
Si Si7 0.879936 0.836357 0.189777
Si Si8 0.721254 0.166838 0.191963
O O1 0.500000 0.787216 0.500000
O O2 0.379551 0.779421 0.492245
O O3 0.391728 0.735892 0.610215
O O4 0.408464 0.000000 0.560562
O O5 0.642648 0.785628 0.959444
O O6 0.776843 0.759185 0.872914
O O7 0.737351 0.000000 0.944054
O O8 0.750000 0.750000 0.000000
O O9 0.750000 0.250000 0.500000
O O10 0.649723 0.213531 0.617579
O O11 0.694188 0.000000 0.530539
O O12 0.927242 0.500000 0.071027
O O13 0.928610 0.250048 0.124178
O O14 0.000000 0.276165 0.000000
O O15 0.246399 0.209627 0.335675
O O16 0.169434 0.251987 0.259126
O O17 0.161852 0.000000 0.319403
O O18 0.617300 0.739990 0.743550
O O19 0.657463 0.000000 0.700281
O O20 0.799433 0.835854 0.193868
O O21 0.910548 0.000000 0.185890
O O22 0.694214 0.000000 0.188618
#
# Coordination Sequence:
#
# PCOD8081703 Si02
#       8
#     8   8   8   8   8   8   8   8
#     4  10  21  35  51  72 101 135 170 205 248 302
#     4  10  19  32  52  78 106 134 168 209 252 295
#     4  10  19  32  51  75 100 127 165 208 251 296
#     4   9  18  33  53  75 101 135 172 204 241 295
#     4  10  18  30  50  75 100 128 166 208 253 298
#     4   9  17  29  47  72  99 126 160 206 253 295
#     4   9  17  28  46  74 102 129 162 204 251 293
#     4   9  17  30  49  74 102 131 167 207 250 297
#
# _framework density 17.596951000000001
#
# number of rings (size 3 to 8) (size 9 to 14) (size 15 to 20)
#    0.000    2.500    1.250    1.500    0.000    5.000 
#    0.000    0.000    2.750    0.000    0.000    0.000 
#    0.000    0.000    0.000    0.000    0.000    0.000 
#
# Total GULP energy -396778.988745 kJ/mol
# GULP energy per Si atom -12399.343398 kJ/mol
# Density = 1.755690 g / cm^3
# Si number density = 17.596951 Si / 1000 Ang^3
#
#
#
# Elastic Constant Matrix: (Units=GPa)
#
#
# Indices 1 2 3 4 5 6 
#
# 1 67.9429 36.7980 60.6863 0.0000 1.5470 -0.0001
# 2 36.7980 88.4260 79.0076 -0.0001 0.3688 -0.0003
# 3 60.6863 79.0076 179.3007 0.0000 3.4550 0.0000
# 4 0.0000 -0.0001 0.0000 38.4763 0.0000 0.4899
# 5 1.5470 0.3688 3.4550 0.0000 25.5883 0.0000
# 6 -0.0001 -0.0003 0.0000 0.4899 0.0000 17.3739
#
#
#
# Elastic Compliance Matrix: (Units=1/GPa)
#
#
# Indices 1 2 3 4 5 6 
#
# 1 0.021977 -0.004134 -0.005607 0.000000 -0.000512 0.000000
# 2 -0.004134 0.019448 -0.007189 0.000000 0.000940 0.000000
# 3 -0.005607 -0.007189 0.010662 0.000000 -0.000997 0.000000
# 4 0.000000 0.000000 0.000000 0.025999 0.000000 -0.000733
# 5 -0.000512 0.000940 -0.000997 0.000000 0.039232 0.000000
# 6 0.000000 0.000000 0.000000 -0.000733 0.000000 0.057578
#
#
# Mechanical properties :
#
#
# Convention : Reuss Voigt Hill
#
# Bulk Modulus (GPa) = 54.86017 76.51703 65.68860
# Shear Modulus (GPa) = 23.27403 26.89954 25.08679
#
# Velocity S-wave (km/s) = 3.64073 3.91403 3.77985
# Velocity P-wave (km/s) = 6.99406 8.00023 7.51401
#
# Compressibility (1/GPa) = 0.01822816
#
# Stress axis : x y z
#
# Youngs Moduli (GPa) = 45.50255 51.41847 93.79214
#
# Poissons Ratio (x) = 0.21254 0.52589
# Poissons Ratio (y) = 0.18809 0.67425
# Poissons Ratio (z) = 0.25513 0.36964
#
# Static dielectric constant tensor:
#      x y z
#    x 2.943470 0.000000 0.104530 
#    y 0.000000 3.375000 0.000000 
#    z 0.104530 0.000000 3.448610 
# 
# 
# High freq. dielectric constant tensor:
#      x y z
#    x 1.635060 0.000000 0.007680 
#    y 0.000000 1.687570 0.000000 
#    z 0.007680 0.000000 1.695260 
# 
# From -- ./inp_files/319941.got.cif
#   From: 2010.06.25/outbox.cif.g09.slc.cpg/sg12_160_cif.got.tgz:319941.got - 2010.06.28 00:19:55.
