data_PCOD8081612
_publ_section_title
;
Structure prediction by ZEFSAII (Michael W. Deem and Ramdas Pophale) SiO2 
 PCOD8081612
Probable space group: C 2/M
;
_chemical_formula_sum "Si O2"
_cell_formula_units_Z 48
_cell_length_a 26.972851
_cell_length_b 10.357889
_cell_length_c 18.890220
_cell_angle_alpha 90.000000
_cell_angle_beta 29.357285
_cell_angle_gamma 90.000000
_cell_volume 2587.357064
_symmetry_space_group_name_H-M "C 2/M"
_symmetry_group_IT_number 12
_symmetry_cell_setting 'monoclinic'
loop_
_space_group_symop_operation_xyz
x,y,z
-x,y,-z
-x,-y,-z
x,-y,z
1/2+x,1/2+y,z
1/2-x,1/2+y,-z
1/2-x,1/2-y,-z
1/2+x,1/2-y,z
loop_
_atom_site_type_symbol
_atom_site_label
_atom_site_fract_x
_atom_site_fract_y
_atom_site_fract_z
Si Si1 0.735515 0.140111 0.460700
Si Si2 0.913062 0.231085 0.159403
Si Si3 0.778189 0.352012 0.214488
Si Si4 0.946608 0.149123 0.491578
Si Si5 0.943475 0.348918 0.907896
Si Si6 0.478640 0.851293 0.339229
O O1 0.750000 0.250000 0.500000
O O2 0.831555 0.127594 0.288197
O O3 0.637369 0.171082 0.537027
O O4 0.723084 0.000000 0.513547
O O5 0.849264 0.337183 0.194851
O O6 0.960270 0.292327 0.170946
O O7 0.000000 0.169954 0.000000
O O8 0.756705 0.500000 0.226469
O O9 0.666871 0.291295 0.360958
O O10 0.838583 0.292798 0.071301
O O11 0.006448 0.246063 0.364473
O O12 0.000000 0.157074 0.500000
O O13 0.948712 0.000000 0.460764
O O14 0.947961 0.500000 0.916452
O O15 0.950280 0.317411 0.816420
O O16 0.496920 0.000000 0.341509
#
# Coordination Sequence:
#
# PCOD8081612 Si02
#       6
#     8   8   8   8   8   8
#     4  11  22  34  50  76 110 144 175 210 252 305
#     4  10  18  30  49  75 107 142 173 206 250 305
#     4   9  17  30  51  76 104 139 173 210 253 300
#     4  10  21  37  57  79 101 129 171 221 269 314
#     4   9  17  30  49  77 108 137 173 208 245 304
#     4  10  20  35  54  76 104 136 173 216 258 305
#
# _framework density 18.551749000000001
#
# number of rings (size 3 to 8) (size 9 to 14) (size 15 to 20)
#    0.000    2.167    3.333    0.500    0.000    4.000 
#    0.000    0.833    0.000    1.000    0.000    0.000 
#    0.000    0.000    0.000    0.000    0.000    0.000 
#
# Total GULP energy -297366.680104 kJ/mol
# GULP energy per Si atom -12390.278338 kJ/mol
# Density = 1.850952 g / cm^3
# Si number density = 18.551749 Si / 1000 Ang^3
#
#
#
# Elastic Constant Matrix: (Units=GPa)
#
#
# Indices 1 2 3 4 5 6 
#
# 1 57.1850 35.9165 18.8421 0.0011 15.1428 -0.0001
# 2 35.9165 77.8156 25.7818 0.0045 20.2595 -0.0009
# 3 18.8421 25.7818 78.3825 0.0035 16.1104 -0.0008
# 4 0.0011 0.0045 0.0035 19.3120 -0.0014 3.0085
# 5 15.1428 20.2595 16.1104 -0.0014 24.0497 0.0002
# 6 -0.0001 -0.0009 -0.0008 3.0085 0.0002 22.2922
#
#
#
# Elastic Compliance Matrix: (Units=1/GPa)
#
#
# Indices 1 2 3 4 5 6 
#
# 1 0.025927 -0.009561 -0.001609 0.000001 -0.007193 0.000000
# 2 -0.009561 0.020607 -0.002492 -0.000005 -0.009670 0.000001
# 3 -0.001609 -0.002492 0.015452 -0.000003 -0.007238 0.000001
# 4 0.000001 -0.000005 -0.000003 0.052893 0.000009 -0.007138
# 5 -0.007193 -0.009670 -0.007238 0.000009 0.059104 -0.000002
# 6 0.000000 0.000001 0.000001 -0.007138 -0.000002 0.045822
#
#
# Mechanical properties :
#
#
# Convention : Reuss Voigt Hill
#
# Bulk Modulus (GPa) = 28.85070 41.60710 35.22890
# Shear Modulus (GPa) = 19.32850 21.98696 20.65773
#
# Velocity S-wave (km/s) = 3.23130 3.44636 3.34056
# Velocity P-wave (km/s) = 5.43203 6.18974 5.82322
#
# Compressibility (1/GPa) = 0.03466121
#
# Stress axis : x y z
#
# Youngs Moduli (GPa) = 38.56976 48.52666 64.71514
#
# Poissons Ratio (x) = 0.46397 0.10415
# Poissons Ratio (y) = 0.36877 0.16129
# Poissons Ratio (z) = 0.06207 0.12095
#
# Static dielectric constant tensor:
#      x y z
#    x 3.093230 0.000000 0.055210 
#    y 0.000000 3.187270 0.000000 
#    z 0.055210 0.000000 3.992000 
# 
# 
# High freq. dielectric constant tensor:
#      x y z
#    x 1.690660 0.000000 0.006650 
#    y 0.000000 1.693300 0.000000 
#    z 0.006650 0.000000 1.738650 
# 
# From -- ./inp_files/165167.got.cif
#   From: 2010.06.25/outbox.cif.g09.slc.cpg/sg12_83_cif.got.tgz:165167.got - 2010.06.28 00:19:55.
