data_PCOD8081625
_publ_section_title
;
Structure prediction by ZEFSAII (Michael W. Deem and Ramdas Pophale) SiO2 
 PCOD8081625
Probable space group: C 2/M
;
_chemical_formula_sum "Si O2"
_cell_formula_units_Z 40
_cell_length_a 25.274458
_cell_length_b 8.367111
_cell_length_c 14.257277
_cell_angle_alpha 90.000000
_cell_angle_beta 135.927940
_cell_angle_gamma 90.000000
_cell_volume 2097.153131
_symmetry_space_group_name_H-M "C 2/M"
_symmetry_group_IT_number 12
_symmetry_cell_setting 'monoclinic'
loop_
_space_group_symop_operation_xyz
x,y,z
-x,y,-z
-x,-y,-z
x,-y,z
1/2+x,1/2+y,z
1/2-x,1/2+y,-z
1/2-x,1/2-y,-z
1/2+x,1/2-y,z
loop_
_atom_site_type_symbol
_atom_site_label
_atom_site_fract_x
_atom_site_fract_y
_atom_site_fract_z
Si Si1 0.587795 0.314283 0.894953
Si Si2 0.270057 0.185674 0.813152
Si Si3 0.178432 0.310778 0.850824
Si Si4 0.540921 0.814808 0.147618
Si Si5 0.794703 0.814695 0.645292
O O1 0.568263 0.500000 0.872355
O O2 0.604232 0.259468 0.808543
O O3 0.514755 0.216104 0.836225
O O4 0.658910 0.281845 0.053763
O O5 0.190906 0.242657 0.761518
O O6 0.263590 0.218431 0.695120
O O7 0.284400 0.000000 0.850957
O O8 0.173814 0.500000 0.842958
O O9 0.250000 0.250000 0.000000
O O10 0.615926 0.710356 0.256155
O O11 0.564132 0.000000 0.172633
O O12 0.500000 0.760285 0.000000
O O13 0.750000 0.750000 0.500000
O O14 0.777266 0.000000 0.637933
#
# Coordination Sequence:
#
# PCOD8081625 Si02
#       5
#     8   8   8   8   8
#     4  11  20  32  53  83 115 148 187 234 286 338
#     4  11  20  34  54  80 113 149 189 235 283 336
#     4  10  18  30  49  77 111 147 185 231 284 336
#     4  11  22  37  59  85 116 151 190 237 288 337
#     4  12  25  41  60  84 115 153 194 235 285 342
#
# _framework density 19.073477
#
# number of rings (size 3 to 8) (size 9 to 14) (size 15 to 20)
#    0.000    1.000    2.000   10.200    0.000    0.800 
#    0.000    0.000    0.000    1.200    0.000    8.400 
#    0.000    0.000    0.000    0.000    0.000    0.000 
#
# Total GULP energy -248051.464006 kJ/mol
# GULP energy per Si atom -12402.573200 kJ/mol
# Density = 1.903006 g / cm^3
# Si number density = 19.073477 Si / 1000 Ang^3
#
#
#
# Elastic Constant Matrix: (Units=GPa)
#
#
# Indices 1 2 3 4 5 6 
#
# 1 158.6600 14.5890 37.0386 0.0000 -15.5693 0.0000
# 2 14.5890 93.8561 11.5106 0.0000 1.5089 0.0000
# 3 37.0386 11.5106 66.9198 0.0000 -5.4627 0.0000
# 4 0.0000 0.0000 0.0000 22.4751 0.0000 -1.8217
# 5 -15.5693 1.5089 -5.4627 0.0000 19.9467 0.0000
# 6 0.0000 0.0000 0.0000 -1.8217 0.0000 37.8354
#
#
#
# Elastic Compliance Matrix: (Units=1/GPa)
#
#
# Indices 1 2 3 4 5 6 
#
# 1 0.007749 -0.000829 -0.003731 0.000000 0.005090 0.000000
# 2 -0.000829 0.011009 -0.001591 0.000000 -0.001916 0.000000
# 3 -0.003731 -0.001591 0.017444 0.000000 0.001985 0.000000
# 4 0.000000 0.000000 0.000000 0.044668 0.000000 0.002151
# 5 0.005090 -0.001916 0.001985 0.000000 0.054795 0.000000
# 6 0.000000 0.000000 0.000000 0.002151 0.000000 0.026534
#
#
# Mechanical properties :
#
#
# Convention : Reuss Voigt Hill
#
# Bulk Modulus (GPa) = 41.84016 49.52360 45.68188
# Shear Modulus (GPa) = 27.40191 33.13797 30.26994
#
# Velocity S-wave (km/s) = 3.79443 4.17272 3.98806
# Velocity P-wave (km/s) = 6.41723 7.01687 6.72374
#
# Compressibility (1/GPa) = 0.02390048
#
# Stress axis : x y z
#
# Youngs Moduli (GPa) = 129.04119 90.83154 57.32585
#
# Poissons Ratio (x) = 0.07528 0.21389
# Poissons Ratio (y) = 0.10695 0.09122
# Poissons Ratio (z) = 0.48147 0.14454
#
# Static dielectric constant tensor:
#      x y z
#    x 4.493960 0.000000 -0.176150 
#    y 0.000000 3.588290 0.000000 
#    z -0.176150 0.000000 3.050980 
# 
# 
# High freq. dielectric constant tensor:
#      x y z
#    x 1.768740 0.000000 -0.014140 
#    y 0.000000 1.762810 0.000000 
#    z -0.014140 0.000000 1.678850 
# 
# From -- ./inp_files/229487.got.cif
#   From: 2010.06.25/outbox.cif.g09.slc.cpg/sg12_115_cif.got.tgz:229487.got - 2010.06.28 00:19:55.
