data_PCOD8081552
_publ_section_title
;
Structure prediction by ZEFSAII (Michael W. Deem and Ramdas Pophale) SiO2 
 PCOD8081552
Probable space group: C 2/M
;
_chemical_formula_sum "Si O2"
_cell_formula_units_Z 64
_cell_length_a 10.360583
_cell_length_b 18.630651
_cell_length_c 19.073633
_cell_angle_alpha 90.000000
_cell_angle_beta 90.000180
_cell_angle_gamma 90.000000
_cell_volume 3681.676681
_symmetry_space_group_name_H-M "C 2/M"
_symmetry_group_IT_number 12
_symmetry_cell_setting 'monoclinic'
loop_
_space_group_symop_operation_xyz
x,y,z
-x,y,-z
-x,-y,-z
x,-y,z
1/2+x,1/2+y,z
1/2-x,1/2+y,-z
1/2-x,1/2-y,-z
1/2+x,1/2-y,z
loop_
_atom_site_type_symbol
_atom_site_label
_atom_site_fract_x
_atom_site_fract_y
_atom_site_fract_z
Si Si1 0.606476 0.414654 0.052930
Si Si2 0.250000 0.835693 0.581215
Si Si3 0.502712 0.164858 0.661654
Si Si4 0.600450 0.083191 0.788816
Si Si5 0.997289 0.835142 0.661654
Si Si6 0.250001 0.665183 0.575994
Si Si7 0.600450 0.583191 0.211183
Si Si8 0.106476 0.414654 0.947070
O O1 0.608445 0.500000 0.047812
O O2 0.569522 0.392068 0.131905
O O3 0.750000 0.385616 0.033546
O O4 0.500000 0.381715 0.000000
O O5 0.374997 0.863124 0.622816
O O6 0.125004 0.863123 0.622817
O O7 0.250001 0.750554 0.574791
O O8 0.250000 0.867267 0.502460
O O9 0.509930 0.129716 0.738248
O O10 0.500000 0.250000 0.670979
O O11 0.623112 0.137582 0.615668
O O12 0.750000 0.097960 0.771545
O O13 0.569522 0.107932 0.868095
O O14 0.566811 0.000000 0.778267
O O15 0.876889 0.862418 0.615668
O O16 0.990070 0.870284 0.738249
O O17 0.566811 0.500000 0.221733
O O18 0.108445 0.500000 0.952188
O O19 0.000000 0.381715 0.000000
#
# Coordination Sequence:
#
# PCOD8081552 Si02
#       8
#     8   8   8   8   8   8   8   8
#     4   8  14  26  45  68  91 117 154 194 228 267
#     4   9  18  28  45  73  96 117 156 206 239 267
#     4  10  18  30  49  72  95 123 158 197 237 277
#     4   9  17  31  51  71  95 130 162 187 227 288
#     4  10  18  30  49  72  95 123 158 197 237 277
#     4   9  16  30  49  67  92 125 160 196 235 277
#     4   9  17  31  51  71  95 130 162 187 227 288
#     4   8  14  26  45  68  91 117 154 194 228 267
#
# _framework density 17.383384
#
# number of rings (size 3 to 8) (size 9 to 14) (size 15 to 20)
#    0.000    3.000    1.250    2.250    0.000    3.000 
#    2.250    0.625    0.000    5.250    0.000    3.500 
#    0.000    0.000    0.000    0.000    0.000    0.000 
#
# Total GULP energy -396706.842196 kJ/mol
# GULP energy per Si atom -12397.088819 kJ/mol
# Density = 1.734382 g / cm^3
# Si number density = 17.383384 Si / 1000 Ang^3
#
#
#
# Elastic Constant Matrix: (Units=GPa)
#
#
# Indices 1 2 3 4 5 6 
#
# 1 146.2667 21.9578 95.0591 0.0000 0.0002 0.0000
# 2 21.9578 19.6010 29.0689 0.0000 -0.0002 0.0000
# 3 95.0591 29.0689 160.9823 0.0000 -0.0004 0.0000
# 4 0.0000 0.0000 0.0000 24.7753 0.0000 -0.0002
# 5 0.0002 -0.0002 -0.0004 0.0000 38.8222 0.0000
# 6 0.0000 0.0000 0.0000 -0.0002 0.0000 12.3390
#
#
#
# Elastic Compliance Matrix: (Units=1/GPa)
#
#
# Indices 1 2 3 4 5 6 
#
# 1 0.011295 -0.003772 -0.005989 0.000000 0.000000 0.000000
# 2 -0.003772 0.070936 -0.010582 0.000000 0.000000 0.000000
# 3 -0.005989 -0.010582 0.011659 0.000000 0.000000 0.000000
# 4 0.000000 0.000000 0.000000 0.040363 0.000000 0.000001
# 5 0.000000 0.000000 0.000000 0.000000 0.025758 0.000000
# 6 0.000000 0.000000 0.000000 0.000001 0.000000 0.081044
#
#
# Mechanical properties :
#
#
# Convention : Reuss Voigt Hill
#
# Bulk Modulus (GPa) = 18.79500 68.78018 43.78759
# Shear Modulus (GPa) = 16.69587 27.23825 21.96706
#
# Velocity S-wave (km/s) = 3.10248 3.96272 3.55869
# Velocity P-wave (km/s) = 4.86511 7.78396 6.49074
#
# Compressibility (1/GPa) = 0.05320565
#
# Stress axis : x y z
#
# Youngs Moduli (GPa) = 88.53427 14.09714 85.77177
#
# Poissons Ratio (x) = 0.05317 0.51365
# Poissons Ratio (y) = 0.33395 0.90762
# Poissons Ratio (z) = 0.53019 0.14917
#
# Static dielectric constant tensor:
#      x y z
#    x 3.439280 0.000000 -0.000010 
#    y 0.000000 2.648580 0.000000 
#    z -0.000010 0.000000 3.399390 
# 
# 
# High freq. dielectric constant tensor:
#      x y z
#    x 1.673620 0.000000 0.000000 
#    y 0.000000 1.609590 0.000000 
#    z 0.000000 0.000000 1.683880 
# 
# From -- ./inp_files/258129.got.cif
#   From: 2010.06.25/outbox.cif.g09.slc.cpg/sg12_130_cif.got.tgz:258129.got - 2010.06.28 00:19:55.
