data_PCOD8081949
_publ_section_title
;
Structure prediction by ZEFSAII (Michael W. Deem and Ramdas Pophale) SiO2 
 PCOD8081949
Probable space group: C 2/M
;
_chemical_formula_sum "Si O2"
_cell_formula_units_Z 40
_cell_length_a 10.716592
_cell_length_b 18.442375
_cell_length_c 15.822999
_cell_angle_alpha 90.000000
_cell_angle_beta 142.274203
_cell_angle_gamma 90.000000
_cell_volume 1913.510677
_symmetry_space_group_name_H-M "C 2/M"
_symmetry_group_IT_number 12
_symmetry_cell_setting 'monoclinic'
loop_
_space_group_symop_operation_xyz
x,y,z
-x,y,-z
-x,-y,-z
x,-y,z
1/2+x,1/2+y,z
1/2-x,1/2+y,-z
1/2-x,1/2-y,-z
1/2+x,1/2-y,z
loop_
_atom_site_type_symbol
_atom_site_label
_atom_site_fract_x
_atom_site_fract_y
_atom_site_fract_z
Si Si1 0.984046 0.362230 0.091917
Si Si2 0.594530 0.421064 0.677091
Si Si3 0.055087 0.919133 0.855751
Si Si4 0.883328 0.787854 0.850663
Si Si5 0.034022 0.768342 0.423859
O O1 0.168253 0.412783 0.222019
O O2 0.006034 0.279514 0.138582
O O3 0.000000 0.355104 0.000000
O O4 0.774663 0.396837 0.012224
O O5 0.518768 0.500000 0.603570
O O6 0.567699 0.417146 0.762718
O O7 0.466627 0.355912 0.568616
O O8 0.889065 0.860986 0.798036
O O9 0.997373 0.000000 0.856783
O O10 0.645321 0.763456 0.733044
O O11 0.000000 0.804868 0.000000
O O12 0.250000 0.750000 0.500000
O O13 0.000000 0.736201 0.500000
#
# Coordination Sequence:
#
# PCOD8081949 Si02
#       5
#     8   8   8   8   8
#     4   8  15  28  49  77 106 139 183 236 286 333
#     4   9  18  33  54  82 114 152 197 243 293 349
#     4  10  18  30  52  83 120 154 189 241 301 353
#     4  10  21  36  57  82 113 153 200 245 290 349
#     4  11  24  42  63  88 121 158 197 245 299 354
#
# _framework density 20.903984999999999
#
# number of rings (size 3 to 8) (size 9 to 14) (size 15 to 20)
#    0.000    2.400    0.000    3.600    0.000    6.400 
#    0.000    1.000    0.000    3.600    0.000    0.000 
#    0.000    0.000    0.000    0.000    0.000    0.000 
#
# Total GULP energy -247845.702836 kJ/mol
# GULP energy per Si atom -12392.285142 kJ/mol
# Density = 2.085641 g / cm^3
# Si number density = 20.903985 Si / 1000 Ang^3
#
#
#
# Elastic Constant Matrix: (Units=GPa)
#
#
# Indices 1 2 3 4 5 6 
#
# 1 70.7903 39.6193 35.1461 -0.0016 14.6085 -0.0004
# 2 39.6193 160.3149 29.6993 -0.0015 13.7993 -0.0006
# 3 35.1461 29.6993 89.7171 -0.0042 13.1221 -0.0011
# 4 -0.0016 -0.0015 -0.0042 24.6852 -0.0031 2.1652
# 5 14.6085 13.7993 13.1221 -0.0031 25.6754 -0.0009
# 6 -0.0004 -0.0006 -0.0011 2.1652 -0.0009 26.0572
#
#
#
# Elastic Compliance Matrix: (Units=1/GPa)
#
#
# Indices 1 2 3 4 5 6 
#
# 1 0.020304 -0.003351 -0.005856 -0.000001 -0.006758 0.000000
# 2 -0.003351 0.007369 -0.000893 0.000000 -0.001597 0.000000
# 3 -0.005856 -0.000893 0.014243 0.000002 -0.003467 0.000000
# 4 -0.000001 0.000000 0.000002 0.040807 0.000004 -0.003391
# 5 -0.006758 -0.001597 -0.003467 0.000004 0.045424 0.000001
# 6 0.000000 0.000000 0.000000 -0.003391 0.000001 0.038659
#
#
# Mechanical properties :
#
#
# Convention : Reuss Voigt Hill
#
# Bulk Modulus (GPa) = 46.05039 58.86128 52.45583
# Shear Modulus (GPa) = 25.74077 29.70741 27.72409
#
# Velocity S-wave (km/s) = 3.51291 3.77389 3.64573
# Velocity P-wave (km/s) = 6.20736 6.87086 6.54752
#
# Compressibility (1/GPa) = 0.02171534
#
# Stress axis : x y z
#
# Youngs Moduli (GPa) = 49.25166 135.70697 70.21013
#
# Poissons Ratio (x) = 0.45478 0.41116
# Poissons Ratio (y) = 0.16505 0.06269
# Poissons Ratio (z) = 0.28842 0.12117
#
# Static dielectric constant tensor:
#      x y z
#    x 3.354250 0.000000 0.039510 
#    y 0.000000 4.091220 0.000000 
#    z 0.039510 0.000000 3.721220 
# 
# 
# High freq. dielectric constant tensor:
#      x y z
#    x 1.781830 0.000000 0.003310 
#    y 0.000000 1.827850 0.000000 
#    z 0.003310 0.000000 1.802430 
# 
# From -- ./inp_files/131360.got.cif
#   From: 2010.06.25/outbox.cif.g09.slc.cpg/sg12_66_cif.got.tgz:131360.got - 2010.06.28 00:19:55.
