data_PCOD8081661
_publ_section_title
;
Structure prediction by ZEFSAII (Michael W. Deem and Ramdas Pophale) SiO2 
 PCOD8081661
Probable space group: C 2/M
;
_chemical_formula_sum "Si O2"
_cell_formula_units_Z 56
_cell_length_a 17.178690
_cell_length_b 18.949693
_cell_length_c 12.654069
_cell_angle_alpha 90.000000
_cell_angle_beta 47.406335
_cell_angle_gamma 90.000000
_cell_volume 3032.506000
_symmetry_space_group_name_H-M "C 2/M"
_symmetry_group_IT_number 12
_symmetry_cell_setting 'monoclinic'
loop_
_space_group_symop_operation_xyz
x,y,z
-x,y,-z
-x,-y,-z
x,-y,z
1/2+x,1/2+y,z
1/2-x,1/2+y,-z
1/2-x,1/2-y,-z
1/2+x,1/2-y,z
loop_
_atom_site_type_symbol
_atom_site_label
_atom_site_fract_x
_atom_site_fract_y
_atom_site_fract_z
Si Si1 0.797036 0.580618 0.218548
Si Si2 0.220330 0.701307 0.429049
Si Si3 0.074958 0.359604 0.719490
Si Si4 0.880564 0.810901 0.630049
Si Si5 0.363735 0.691479 0.890954
Si Si6 0.554703 0.294945 0.836651
Si Si7 0.652097 0.849198 0.042831
O O1 0.768243 0.500000 0.220516
O O2 0.875849 0.583273 0.246128
O O3 0.689758 0.622815 0.342117
O O4 0.853814 0.615206 0.065956
O O5 0.250000 0.750000 0.500000
O O6 0.144050 0.640984 0.548300
O O7 0.151924 0.742292 0.405649
O O8 0.327864 0.669838 0.276703
O O9 0.072436 0.285586 0.784763
O O10 0.952570 0.377160 0.800002
O O11 0.866854 0.791300 0.764485
O O12 0.000000 0.833110 0.500000
O O13 0.476716 0.662012 0.827805
O O14 0.347674 0.763937 0.971839
O O15 0.264798 0.636529 0.999972
O O16 0.500000 0.300093 0.000000
#
# Coordination Sequence:
#
# PCOD8081661 Si02
#       7
#     8   8   8   8   8   8   8
#     4  11  22  33  50  76 107 151 187 211 255 316
#     4  10  19  31  49  77 101 140 174 213 274 316
#     4  10  18  31  49  70 106 138 171 216 257 314
#     4  11  20  33  52  75 111 140 175 224 268 324
#     4   9  19  29  50  77 101 136 172 208 278 321
#     4  10  18  30  50  73 105 137 164 213 270 326
#     4   9  18  31  47  71 103 132 173 214 255 317
#
# _framework density 18.466574999999999
#
# number of rings (size 3 to 8) (size 9 to 14) (size 15 to 20)
#    0.000    2.000    2.857    4.714    6.000    1.429 
#    0.000    0.000    0.000    0.000    0.000    1.000 
#    0.000   16.571    0.000    0.000    0.000    0.000 
#
# Total GULP energy -346875.360579 kJ/mol
# GULP energy per Si atom -12388.405735 kJ/mol
# Density = 1.842454 g / cm^3
# Si number density = 18.466575 Si / 1000 Ang^3
#
#
#
# Elastic Constant Matrix: (Units=GPa)
#
#
# Indices 1 2 3 4 5 6 
#
# 1 110.0855 24.9076 51.5173 0.0000 -20.9200 0.0000
# 2 24.9076 46.6733 24.6452 0.0000 0.3984 0.0000
# 3 51.5173 24.6452 128.8981 0.0000 -27.1625 0.0000
# 4 0.0000 0.0000 0.0000 5.7793 0.0000 1.6230
# 5 -20.9200 0.3984 -27.1625 0.0000 44.0673 0.0000
# 6 0.0000 0.0000 0.0000 1.6230 0.0000 11.2342
#
#
#
# Elastic Compliance Matrix: (Units=1/GPa)
#
#
# Indices 1 2 3 4 5 6 
#
# 1 0.012466 -0.005007 -0.003182 0.000000 0.004002 0.000000
# 2 -0.005007 0.026315 -0.004116 0.000000 -0.005152 0.000000
# 3 -0.003182 -0.004116 0.010925 0.000000 0.005261 0.000000
# 4 0.000000 0.000000 0.000000 0.180349 0.000000 -0.026054
# 5 0.004002 -0.005152 0.005261 0.000000 0.027882 0.000000
# 6 0.000000 0.000000 0.000000 -0.026054 0.000000 0.092777
#
#
# Mechanical properties :
#
#
# Convention : Reuss Voigt Hill
#
# Bulk Modulus (GPa) = 39.84475 54.19967 47.02221
# Shear Modulus (GPa) = 13.03137 24.52195 18.77666
#
# Velocity S-wave (km/s) = 2.65933 3.64800 3.19218
# Velocity P-wave (km/s) = 5.57252 6.86715 6.25343
#
# Compressibility (1/GPa) = 0.02509741
#
# Stress axis : x y z
#
# Youngs Moduli (GPa) = 80.21695 38.00150 91.53041
#
# Poissons Ratio (x) = 0.19026 0.29123
# Poissons Ratio (y) = 0.40163 0.37673
# Poissons Ratio (z) = 0.25523 0.15641
#
# Static dielectric constant tensor:
#      x y z
#    x 4.048870 0.000000 -0.653910 
#    y 0.000000 2.731460 0.000000 
#    z -0.653910 0.000000 4.121850 
# 
# 
# High freq. dielectric constant tensor:
#      x y z
#    x 1.734150 0.000000 -0.024770 
#    y 0.000000 1.626150 0.000000 
#    z -0.024770 0.000000 1.730390 
# 
# From -- ./inp_files/158205.got.cif
#   From: 2010.06.25/outbox.cif.g09.slc.cpg/sg12_80_cif.got.tgz:158205.got - 2010.06.28 00:19:55.
