data_PCOD8081692
_publ_section_title
;
Structure prediction by ZEFSAII (Michael W. Deem and Ramdas Pophale) SiO2 
 PCOD8081692
Probable space group: C 2/M
;
_chemical_formula_sum "Si O2"
_cell_formula_units_Z 56
_cell_length_a 27.976992
_cell_length_b 13.578471
_cell_length_c 25.341635
_cell_angle_alpha 90.000000
_cell_angle_beta 19.656211
_cell_angle_gamma 90.000000
_cell_volume 3238.254986
_symmetry_space_group_name_H-M "C 2/M"
_symmetry_group_IT_number 12
_symmetry_cell_setting 'monoclinic'
loop_
_space_group_symop_operation_xyz
x,y,z
-x,y,-z
-x,-y,-z
x,-y,z
1/2+x,1/2+y,z
1/2-x,1/2+y,-z
1/2-x,1/2-y,-z
1/2+x,1/2-y,z
loop_
_atom_site_type_symbol
_atom_site_label
_atom_site_fract_x
_atom_site_fract_y
_atom_site_fract_z
Si Si1 0.793557 0.382982 0.614171
Si Si2 0.336058 0.613734 0.962200
Si Si3 0.396347 0.801077 0.726848
Si Si4 0.069864 0.889647 0.249456
Si Si5 0.739633 0.611219 0.475589
Si Si6 0.163821 0.608392 0.315551
Si Si7 0.119831 0.199041 0.703265
O O1 0.799166 0.500000 0.601736
O O2 0.758658 0.354672 0.711616
O O3 0.667601 0.335483 0.711418
O O4 0.943503 0.339295 0.439771
O O5 0.376064 0.500000 0.929851
O O6 0.335235 0.635953 0.900543
O O7 0.453100 0.679362 0.870500
O O8 0.182198 0.639096 0.145149
O O9 0.391272 0.684754 0.744021
O O10 0.315830 0.817586 0.754676
O O11 0.905622 0.877377 0.405430
O O12 0.101390 0.000000 0.236932
O O13 0.798743 0.500000 0.410819
O O14 0.855604 0.684043 0.329698
O O15 0.713037 0.638042 0.564233
O O16 0.220445 0.500000 0.239677
O O17 0.000000 0.598918 0.500000
#
# Coordination Sequence:
#
# PCOD8081692 Si02
#       7
#     8   8   8   8   8   8   8
#     4  10  18  30  50  74  93 121 165 202 234 281
#     4  10  20  32  46  70 105 130 150 190 246 290
#     4  11  18  31  50  69  92 134 162 188 237 290
#     4   9  18  32  48  69  98 129 158 198 240 276
#     4   9  17  31  49  69  95 126 160 197 238 278
#     4   8  16  29  46  69  96 120 153 203 245 273
#     4  10  18  31  49  70  95 128 157 194 238 281
#
# _framework density 17.293265000000002
#
# number of rings (size 3 to 8) (size 9 to 14) (size 15 to 20)
#    0.000    2.429    1.429    4.714    0.000    0.000 
#    0.000    1.429    0.000    7.286    0.000    0.000 
#    0.000    2.286    0.000    0.000    0.000    0.000 
#
# Total GULP energy -347157.175722 kJ/mol
# GULP energy per Si atom -12398.470561 kJ/mol
# Density = 1.725390 g / cm^3
# Si number density = 17.293265 Si / 1000 Ang^3
#
#
#
# Elastic Constant Matrix: (Units=GPa)
#
#
# Indices 1 2 3 4 5 6 
#
# 1 106.2767 61.3334 8.8009 0.0006 6.3834 -0.0002
# 2 61.3334 124.4491 24.8140 -0.0129 12.1447 0.0032
# 3 8.8009 24.8140 35.7527 -0.0068 7.6822 0.0034
# 4 0.0006 -0.0129 -0.0068 16.6534 0.0076 0.7794
# 5 6.3834 12.1447 7.6822 0.0076 10.8736 -0.0010
# 6 -0.0002 0.0032 0.0034 0.7794 -0.0010 30.0487
#
#
#
# Elastic Compliance Matrix: (Units=1/GPa)
#
#
# Indices 1 2 3 4 5 6 
#
# 1 0.013235 -0.006722 0.001726 -0.000004 -0.001481 0.000001
# 2 -0.006722 0.013200 -0.006115 0.000011 -0.006476 -0.000001
# 3 0.001726 -0.006115 0.036005 0.000019 -0.019621 -0.000005
# 4 -0.000004 0.000011 0.000019 0.060121 -0.000065 -0.001559
# 5 -0.001481 -0.006476 -0.019621 -0.000065 0.113930 0.000008
# 6 0.000001 -0.000001 -0.000005 -0.001559 0.000008 0.033320
#
#
# Mechanical properties :
#
#
# Convention : Reuss Voigt Hill
#
# Bulk Modulus (GPa) = 24.86511 50.70834 37.78672
# Shear Modulus (GPa) = 16.36990 22.95050 19.66020
#
# Velocity S-wave (km/s) = 3.08003 3.64694 3.37541
# Velocity P-wave (km/s) = 5.20178 6.86439 6.09009
#
# Compressibility (1/GPa) = 0.04021699
#
# Stress axis : x y z
#
# Youngs Moduli (GPa) = 75.55753 75.75930 27.77388
#
# Poissons Ratio (x) = 0.50928 -0.04793
# Poissons Ratio (y) = 0.50792 0.16983
# Poissons Ratio (z) = -0.13040 0.46326
#
# Static dielectric constant tensor:
#      x y z
#    x 3.389290 -0.000010 0.115020 
#    y -0.000010 3.256900 0.000010 
#    z 0.115020 0.000010 2.931360 
# 
# 
# High freq. dielectric constant tensor:
#      x y z
#    x 1.659340 0.000000 0.001320 
#    y 0.000000 1.663350 0.000000 
#    z 0.001320 0.000000 1.638200 
# 
# From -- ./inp_files/352076.got.cif
#   From: 2010.06.25/outbox.cif.g09.slc.cpg/sg12_177_cif.got.tgz:352076.got - 2010.06.28 00:19:55.
