data_PCOD8081505
_publ_section_title
;
Structure prediction by ZEFSAII (Michael W. Deem and Ramdas Pophale) SiO2 
 PCOD8081505
Probable space group: C 2/M
;
_chemical_formula_sum "Si O2"
_cell_formula_units_Z 56
_cell_length_a 21.876684
_cell_length_b 20.494905
_cell_length_c 9.724575
_cell_angle_alpha 90.000000
_cell_angle_beta 127.751491
_cell_angle_gamma 90.000000
_cell_volume 3447.428714
_symmetry_space_group_name_H-M "C 2/M"
_symmetry_group_IT_number 12
_symmetry_cell_setting 'monoclinic'
loop_
_space_group_symop_operation_xyz
x,y,z
-x,y,-z
-x,-y,-z
x,-y,z
1/2+x,1/2+y,z
1/2-x,1/2+y,-z
1/2-x,1/2-y,-z
1/2+x,1/2-y,z
loop_
_atom_site_type_symbol
_atom_site_label
_atom_site_fract_x
_atom_site_fract_y
_atom_site_fract_z
Si Si1 0.337787 0.208224 0.979050
Si Si2 0.575719 0.429051 0.012981
Si Si3 0.522644 0.703165 0.872254
Si Si4 0.286693 0.839853 0.639725
Si Si5 0.293690 0.814263 0.219144
Si Si6 0.756651 0.073764 0.658795
Si Si7 0.862690 0.239718 0.545656
O O1 0.424411 0.235426 0.093511
O O2 0.321753 0.174675 0.102870
O O3 0.324100 0.152281 0.843439
O O4 0.282445 0.269806 0.875493
O O5 0.584440 0.500000 0.947528
O O6 0.565670 0.366373 0.898244
O O7 0.500000 0.432288 0.000000
O O8 0.650269 0.418538 0.213918
O O9 0.446725 0.708395 0.675016
O O10 0.500000 0.706041 0.000000
O O11 0.281142 0.904649 0.539080
O O12 0.198617 0.818195 0.537306
O O13 0.341427 0.786855 0.642450
O O14 0.276140 0.884410 0.259768
O O15 0.360657 0.778714 0.398815
O O16 0.730353 0.000000 0.647704
#
# Coordination Sequence:
#
# PCOD8081505 Si02
#       7
#     8   8   8   8   8   8   8
#     4  10  18  30  49  68 102 124 157 203 257 278
#     4   9  17  26  41  70 104 132 161 195 228 276
#     4  11  17  26  46  76  97 127 160 202 238 291
#     4   9  16  30  45  70  94 126 154 207 239 280
#     4   9  19  33  45  70  98 133 158 201 244 294
#     4  10  18  31  50  70  95 131 169 198 235 289
#     4   9  17  27  47  68 101 124 158 194 249 277
#
# _framework density 16.24399
#
# number of rings (size 3 to 8) (size 9 to 14) (size 15 to 20)
#    0.000    2.429    2.857    2.571    0.000    0.571 
#    0.000    0.714    0.000    0.000    0.000   19.000 
#    0.000    0.429    0.000    0.000    0.000    0.000 
#
# Total GULP energy -346969.215252 kJ/mol
# GULP energy per Si atom -12391.757688 kJ/mol
# Density = 1.620702 g / cm^3
# Si number density = 16.243990 Si / 1000 Ang^3
#
#
#
# Elastic Constant Matrix: (Units=GPa)
#
#
# Indices 1 2 3 4 5 6 
#
# 1 51.9440 33.8682 40.1582 0.0000 -5.8907 0.0000
# 2 33.8682 96.6679 46.4355 0.0000 -2.9828 0.0000
# 3 40.1582 46.4355 99.1963 0.0000 -10.6558 0.0000
# 4 0.0000 0.0000 0.0000 14.0757 0.0000 6.0564
# 5 -5.8907 -2.9828 -10.6558 0.0000 30.0342 0.0000
# 6 0.0000 0.0000 0.0000 6.0564 0.0000 14.8531
#
#
#
# Elastic Compliance Matrix: (Units=1/GPa)
#
#
# Indices 1 2 3 4 5 6 
#
# 1 0.030750 -0.006241 -0.009301 0.000000 0.002112 0.000000
# 2 -0.006241 0.014637 -0.004471 0.000000 -0.001357 0.000000
# 3 -0.009301 -0.004471 0.016317 0.000000 0.003521 0.000000
# 4 0.000000 0.000000 0.000000 0.086161 0.000000 -0.035133
# 5 0.002112 -0.001357 0.003521 0.000000 0.034824 0.000000
# 6 0.000000 0.000000 0.000000 -0.035133 0.000000 0.081652
#
#
# Mechanical properties :
#
#
# Convention : Reuss Voigt Hill
#
# Bulk Modulus (GPa) = 46.12556 54.30355 50.21455
# Shear Modulus (GPa) = 16.04653 20.28233 18.16443
#
# Velocity S-wave (km/s) = 3.14641 3.53739 3.34761
# Velocity P-wave (km/s) = 6.45422 7.08426 6.77657
#
# Compressibility (1/GPa) = 0.02167996
#
# Stress axis : x y z
#
# Youngs Moduli (GPa) = 32.51988 68.31964 61.28395
#
# Poissons Ratio (x) = 0.42637 0.56998
# Poissons Ratio (y) = 0.20295 0.27401
# Poissons Ratio (z) = 0.30246 0.30546
#
# Static dielectric constant tensor:
#      x y z
#    x 2.855030 0.000000 0.061520 
#    y 0.000000 3.161110 0.000000 
#    z 0.061520 0.000000 3.166650 
# 
# 
# High freq. dielectric constant tensor:
#      x y z
#    x 1.605030 0.000000 0.010690 
#    y 0.000000 1.601950 0.000000 
#    z 0.010690 0.000000 1.619900 
# 
# From -- ./inp_files/98907.got.cif
#   From: 2010.06.25/outbox.cif.g09.slc.cpg/sg12_50_cif.got.tgz:98907.got - 2010.06.28 00:19:55.
