data_PCOD8081518
_publ_section_title
;
Structure prediction by ZEFSAII (Michael W. Deem and Ramdas Pophale) SiO2 
 PCOD8081518
Probable space group: C 2/M
;
_chemical_formula_sum "Si O2"
_cell_formula_units_Z 64
_cell_length_a 29.396887
_cell_length_b 9.642745
_cell_length_c 14.357518
_cell_angle_alpha 90.000000
_cell_angle_beta 121.207866
_cell_angle_gamma 90.000000
_cell_volume 3480.938737
_symmetry_space_group_name_H-M "C 2/M"
_symmetry_group_IT_number 12
_symmetry_cell_setting 'monoclinic'
loop_
_space_group_symop_operation_xyz
x,y,z
-x,y,-z
-x,-y,-z
x,-y,z
1/2+x,1/2+y,z
1/2-x,1/2+y,-z
1/2-x,1/2-y,-z
1/2+x,1/2-y,z
loop_
_atom_site_type_symbol
_atom_site_label
_atom_site_fract_x
_atom_site_fract_y
_atom_site_fract_z
Si Si1 0.051251 0.164668 0.607364
Si Si2 0.797250 0.153099 0.020520
Si Si3 0.745821 0.653624 0.221352
Si Si4 0.554496 0.665745 0.013751
Si Si5 0.837936 0.162660 0.361299
Si Si6 0.848629 0.838535 0.763291
Si Si7 0.301151 0.338736 0.526919
Si Si8 0.084840 0.834918 0.842327
O O1 0.103643 0.213006 0.607022
O O2 0.052220 0.216382 0.716461
O O3 0.000000 0.228327 0.500000
O O4 0.047912 0.000000 0.603050
O O5 0.794590 0.141247 0.906954
O O6 0.790562 0.000000 0.058861
O O7 0.750000 0.250000 0.000000
O O8 0.854530 0.217793 0.106966
O O9 0.768082 0.500000 0.270631
O O10 0.795046 0.756066 0.252550
O O11 0.708827 0.718948 0.263308
O O12 0.554704 0.500000 0.014611
O O13 0.601249 0.728329 0.129544
O O14 0.500000 0.722933 0.000000
O O15 0.560014 0.721736 0.912960
O O16 0.826782 0.205462 0.456074
O O17 0.830849 0.000000 0.335872
O O18 0.848893 0.812309 0.652451
O O19 0.849581 0.000000 0.789069
O O20 0.284190 0.500000 0.508649
O O21 0.250000 0.250000 0.500000
O O22 0.086185 0.000000 0.848649
#
# Coordination Sequence:
#
# PCOD8081518 Si02
#       8
#     8   8   8   8   8   8   8   8
#     4   9  18  31  46  64  93 129 160 195 242 289
#     4  10  19  30  47  71  99 130 162 196 241 291
#     4  10  18  30  49  69  97 133 161 192 245 299
#     4   9  16  26  43  67  93 123 160 199 239 286
#     4  10  20  32  48  74 100 126 166 207 238 284
#     4   9  16  28  43  63  93 126 156 193 240 286
#     4  10  19  30  47  69  98 131 162 198 243 290
#     4   9  16  28  44  64  92 124 156 196 242 284
#
# _framework density 18.385846000000001
#
# number of rings (size 3 to 8) (size 9 to 14) (size 15 to 20)
#    0.000    2.500    2.500    0.750    0.000    2.500 
#    0.000    5.000    0.000    0.375    0.000    0.000 
#    0.000    4.500    0.000    0.000    0.000    0.000 
#
# Total GULP energy -396553.149621 kJ/mol
# GULP energy per Si atom -12392.285926 kJ/mol
# Density = 1.834400 g / cm^3
# Si number density = 18.385846 Si / 1000 Ang^3
#
#
#
# Elastic Constant Matrix: (Units=GPa)
#
#
# Indices 1 2 3 4 5 6 
#
# 1 119.3703 21.0636 58.6154 0.0000 9.7314 0.0000
# 2 21.0636 24.4624 13.5382 0.0000 4.7519 0.0000
# 3 58.6154 13.5382 133.9319 0.0000 8.2889 0.0000
# 4 0.0000 0.0000 0.0000 14.4215 0.0000 1.2367
# 5 9.7314 4.7519 8.2889 0.0000 33.1530 0.0000
# 6 0.0000 0.0000 0.0000 1.2367 0.0000 18.5353
#
#
#
# Elastic Compliance Matrix: (Units=1/GPa)
#
#
# Indices 1 2 3 4 5 6 
#
# 1 0.011990 -0.007635 -0.004394 0.000000 -0.001327 0.000000
# 2 -0.007635 0.049061 -0.001342 0.000000 -0.004455 0.000000
# 3 -0.004394 -0.001342 0.009582 0.000000 -0.000914 0.000000
# 4 0.000000 0.000000 0.000000 0.069740 0.000000 -0.004653
# 5 -0.001327 -0.004455 -0.000914 0.000000 0.031420 0.000000
# 6 0.000000 0.000000 0.000000 -0.004653 0.000000 0.054262
#
#
# Mechanical properties :
#
#
# Convention : Reuss Voigt Hill
#
# Bulk Modulus (GPa) = 22.78330 51.57767 37.18048
# Shear Modulus (GPa) = 18.69675 25.52512 22.11093
#
# Velocity S-wave (km/s) = 3.19236 3.73004 3.47162
# Velocity P-wave (km/s) = 5.09970 6.83116 6.02792
#
# Compressibility (1/GPa) = 0.04389180
#
# Stress axis : x y z
#
# Youngs Moduli (GPa) = 83.40208 20.38260 104.36724
#
# Poissons Ratio (x) = 0.15562 0.45855
# Poissons Ratio (y) = 0.63677 0.14007
# Poissons Ratio (z) = 0.36644 0.02736
#
# Static dielectric constant tensor:
#      x y z
#    x 3.452840 0.000000 -0.095000 
#    y 0.000000 2.820230 0.000000 
#    z -0.095000 0.000000 3.805010 
# 
# 
# High freq. dielectric constant tensor:
#      x y z
#    x 1.710890 0.000000 -0.009740 
#    y 0.000000 1.642630 0.000000 
#    z -0.009740 0.000000 1.731670 
# 
# From -- ./inp_files/249206.got.cif
#   From: 2010.06.25/outbox.cif.g09.slc.cpg/sg12_125_cif.got.tgz:249206.got - 2010.06.28 00:19:55.
