data_PCOD8081287
_publ_section_title
;
Structure prediction by ZEFSAII (Michael W. Deem and Ramdas Pophale) SiO2 
 PCOD8081287
Probable space group: C 2/M
;
_chemical_formula_sum "Si O2"
_cell_formula_units_Z 64
_cell_length_a 27.817878
_cell_length_b 9.212192
_cell_length_c 20.678685
_cell_angle_alpha 90.000000
_cell_angle_beta 44.652512
_cell_angle_gamma 90.000000
_cell_volume 3724.302481
_symmetry_space_group_name_H-M "C 2/M"
_symmetry_group_IT_number 12
_symmetry_cell_setting 'monoclinic'
loop_
_space_group_symop_operation_xyz
x,y,z
-x,y,-z
-x,-y,-z
x,-y,z
1/2+x,1/2+y,z
1/2-x,1/2+y,-z
1/2-x,1/2-y,-z
1/2+x,1/2-y,z
loop_
_atom_site_type_symbol
_atom_site_label
_atom_site_fract_x
_atom_site_fract_y
_atom_site_fract_z
Si Si1 0.849809 0.337704 0.487074
Si Si2 0.991520 0.340149 0.692006
Si Si3 0.437838 0.171490 0.606674
Si Si4 0.041450 0.173406 0.899342
Si Si5 0.017246 0.162061 0.783678
Si Si6 0.178618 0.838404 0.604062
Si Si7 0.176611 0.826994 0.358760
Si Si8 0.194353 0.169728 0.735345
O O1 0.823740 0.500000 0.530971
O O2 0.803625 0.278223 0.470380
O O3 0.849151 0.228809 0.547439
O O4 0.927348 0.346684 0.391022
O O5 0.961581 0.500000 0.731678
O O6 0.958001 0.275564 0.659202
O O7 0.972691 0.248080 0.773454
O O8 0.500000 0.210760 0.500000
O O9 0.371777 0.263651 0.650609
O O10 0.421891 0.000000 0.618250
O O11 0.005807 0.227378 0.866857
O O12 0.119631 0.228583 0.826132
O O13 0.042035 0.000000 0.898922
O O14 0.000000 0.237250 0.000000
O O15 0.097566 0.164996 0.692567
O O16 0.988600 0.000000 0.808238
O O17 0.212845 0.802554 0.641255
O O18 0.199430 0.000000 0.560989
O O19 0.252558 0.763971 0.273647
O O20 0.176361 0.000000 0.356892
O O21 0.201237 0.000000 0.745296
#
# Coordination Sequence:
#
# PCOD8081287 Si02
#       8
#     8   8   8   8   8   8   8   8
#     4  10  18  30  46  64  87 122 163 199 238 277
#     4   9  17  29  47  67  90 122 158 198 237 280
#     4  10  19  35  52  66  88 121 165 208 245 283
#     4   8  14  28  53  81 102 123 155 190 227 280
#     4   8  14  25  44  71 100 123 147 188 233 275
#     4   8  15  28  44  64  89 120 158 194 230 273
#     4  12  24  33  44  65  93 124 162 203 241 280
#     4   9  18  33  50  67  94 128 157 191 235 283
#
# _framework density 17.184426999999999
#
# number of rings (size 3 to 8) (size 9 to 14) (size 15 to 20)
#    0.000    2.750    1.250    3.000    0.000    2.250 
#    0.000    1.875    0.000    1.500    0.000    0.875 
#    0.000    0.000    0.000    0.000    0.000    0.000 
#
# Total GULP energy -396669.503357 kJ/mol
# GULP energy per Si atom -12395.921980 kJ/mol
# Density = 1.714531 g / cm^3
# Si number density = 17.184427 Si / 1000 Ang^3
#
#
#
# Elastic Constant Matrix: (Units=GPa)
#
#
# Indices 1 2 3 4 5 6 
#
# 1 143.0951 59.0942 39.2244 0.0016 19.7446 -0.0013
# 2 59.0942 81.8853 30.5653 0.0051 8.5037 0.0013
# 3 39.2244 30.5653 72.3292 0.0018 15.2666 -0.0007
# 4 0.0016 0.0051 0.0018 11.7984 -0.0011 4.6511
# 5 19.7446 8.5037 15.2666 -0.0011 21.5973 0.0017
# 6 -0.0013 0.0013 -0.0007 4.6511 0.0017 26.2870
#
#
#
# Elastic Compliance Matrix: (Units=1/GPa)
#
#
# Indices 1 2 3 4 5 6 
#
# 1 0.011120 -0.006671 -0.001904 0.000001 -0.006193 0.000001
# 2 -0.006671 0.018550 -0.004662 -0.000006 0.002091 0.000000
# 3 -0.001904 -0.004662 0.018892 -0.000002 -0.009778 0.000002
# 4 0.000001 -0.000006 -0.000002 0.091112 0.000009 -0.016121
# 5 -0.006193 0.002091 -0.009778 0.000009 0.058053 -0.000006
# 6 0.000001 0.000000 0.000002 -0.016121 -0.000006 0.040894
#
#
# Mechanical properties :
#
#
# Convention : Reuss Voigt Hill
#
# Bulk Modulus (GPa) = 45.27544 61.67527 53.47535
# Shear Modulus (GPa) = 18.35143 23.16491 20.75817
#
# Velocity S-wave (km/s) = 3.27144 3.67552 3.47935
# Velocity P-wave (km/s) = 6.37759 7.34716 6.87948
#
# Compressibility (1/GPa) = 0.02208703
#
# Stress axis : x y z
#
# Youngs Moduli (GPa) = 89.92999 53.90935 52.93132
#
# Poissons Ratio (x) = 0.35963 0.10078
# Poissons Ratio (y) = 0.59992 0.24679
# Poissons Ratio (z) = 0.17123 0.25135
#
# Static dielectric constant tensor:
#      x y z
#    x 3.359960 -0.000010 0.145290 
#    y -0.000010 3.227420 0.000010 
#    z 0.145290 0.000010 3.076050 
# 
# 
# High freq. dielectric constant tensor:
#      x y z
#    x 1.668460 0.000000 0.006300 
#    y 0.000000 1.648030 0.000000 
#    z 0.006300 0.000000 1.623200 
# 
# From -- ./inp_files/326845.got.cif
#   From: 2010.06.25/outbox.cif.g09.slc.cpg/sg12_164_cif.got.tgz:326845.got - 2010.06.28 00:19:55.
