data_PCOD8081470
_publ_section_title
;
Structure prediction by ZEFSAII (Michael W. Deem and Ramdas Pophale) SiO2 
 PCOD8081470
Probable space group: C 2/M
;
_chemical_formula_sum "Si O2"
_cell_formula_units_Z 48
_cell_length_a 23.411216
_cell_length_b 8.803175
_cell_length_c 13.708485
_cell_angle_alpha 90.000000
_cell_angle_beta 70.526598
_cell_angle_gamma 90.000000
_cell_volume 2663.610150
_symmetry_space_group_name_H-M "C 2/M"
_symmetry_group_IT_number 12
_symmetry_cell_setting 'monoclinic'
loop_
_space_group_symop_operation_xyz
x,y,z
-x,y,-z
-x,-y,-z
x,-y,z
1/2+x,1/2+y,z
1/2-x,1/2+y,-z
1/2-x,1/2-y,-z
1/2+x,1/2-y,z
loop_
_atom_site_type_symbol
_atom_site_label
_atom_site_fract_x
_atom_site_fract_y
_atom_site_fract_z
Si Si1 0.259239 0.176677 0.390956
Si Si2 0.876831 0.321692 0.204942
Si Si3 0.502890 0.321749 0.884995
Si Si4 0.684826 0.677530 0.934196
Si Si5 0.300705 0.174945 0.748364
Si Si6 0.885752 0.324264 0.865689
O O1 0.250000 0.250000 0.500000
O O2 0.326092 0.220940 0.313955
O O3 0.206410 0.230396 0.346836
O O4 0.251927 0.000000 0.408296
O O5 0.874698 0.500000 0.182177
O O6 0.943554 0.269914 0.201395
O O7 0.866821 0.222777 0.113695
O O8 0.514235 0.500000 0.868648
O O9 0.441979 0.280395 0.861789
O O10 0.500000 0.271278 0.000000
O O11 0.679650 0.500000 0.961577
O O12 0.749254 0.726039 0.854142
O O13 0.672789 0.776326 0.037415
O O14 0.365729 0.201524 0.763783
O O15 0.291265 0.000000 0.725679
O O16 0.901524 0.500000 0.875570
#
# Coordination Sequence:
#
# PCOD8081470 Si02
#       6
#     8   8   8   8   8   8
#     4  10  21  37  60  85 106 133 170 217 271 319
#     4  10  20  34  53  78 105 137 179 219 258 308
#     4  11  22  34  50  74 106 146 185 218 258 305
#     4  10  18  30  48  72 105 141 175 214 257 306
#     4   9  20  35  51  75 106 138 174 216 264 314
#     4  11  21  32  49  73 105 145 180 214 257 307
#
# _framework density 18.020655000000001
#
# number of rings (size 3 to 8) (size 9 to 14) (size 15 to 20)
#    0.000    1.833    1.667    3.000    0.000    4.667 
#    0.000    0.000    0.000    1.000    0.000    7.000 
#    0.000    0.000    0.000    0.000    0.000    0.000 
#
# Total GULP energy -297584.535510 kJ/mol
# GULP energy per Si atom -12399.355646 kJ/mol
# Density = 1.797964 g / cm^3
# Si number density = 18.020655 Si / 1000 Ang^3
#
#
#
# Elastic Constant Matrix: (Units=GPa)
#
#
# Indices 1 2 3 4 5 6 
#
# 1 93.5511 29.4453 41.3234 0.0000 13.4887 0.0000
# 2 29.4453 61.9374 38.8922 0.0000 4.8300 0.0000
# 3 41.3234 38.8922 90.5289 0.0000 14.0323 0.0000
# 4 0.0000 0.0000 0.0000 29.0041 0.0000 0.2832
# 5 13.4887 4.8300 14.0323 0.0000 18.3335 0.0000
# 6 0.0000 0.0000 0.0000 0.2832 0.0000 29.4049
#
#
#
# Elastic Compliance Matrix: (Units=1/GPa)
#
#
# Indices 1 2 3 4 5 6 
#
# 1 0.014646 -0.003964 -0.003942 0.000000 -0.006715 0.000000
# 2 -0.003964 0.023226 -0.008705 0.000000 0.003460 0.000000
# 3 -0.003942 -0.008705 0.017904 0.000000 -0.008510 0.000000
# 4 0.000000 0.000000 0.000000 0.034481 0.000000 -0.000332
# 5 -0.006715 0.003460 -0.008510 0.000000 0.065087 0.000000
# 6 0.000000 0.000000 0.000000 -0.000332 0.000000 0.034011
#
#
# Mechanical properties :
#
#
# Convention : Reuss Voigt Hill
#
# Bulk Modulus (GPa) = 44.33618 51.70436 48.02027
# Shear Modulus (GPa) = 21.72999 24.43895 23.08447
#
# Velocity S-wave (km/s) = 3.47628 3.68661 3.58299
# Velocity P-wave (km/s) = 6.38507 6.84656 6.61984
#
# Compressibility (1/GPa) = 0.02255494
#
# Stress axis : x y z
#
# Youngs Moduli (GPa) = 68.27632 43.05468 55.85216
#
# Poissons Ratio (x) = 0.17068 0.22015
# Poissons Ratio (y) = 0.27066 0.48620
# Poissons Ratio (z) = 0.26913 0.37480
#
# Static dielectric constant tensor:
#      x y z
#    x 3.566620 0.000000 -0.005820 
#    y 0.000000 3.328060 0.000000 
#    z -0.005820 0.000000 3.119930 
# 
# 
# High freq. dielectric constant tensor:
#      x y z
#    x 1.700160 0.000000 0.007380 
#    y 0.000000 1.709550 0.000000 
#    z 0.007380 0.000000 1.659500 
# 
# From -- ./inp_files/172131.got.cif
#   From: 2010.06.25/outbox.cif.g09.slc.cpg/sg12_87_cif.got.tgz:172131.got - 2010.06.28 00:19:55.
