data_PCOD8081751
_publ_section_title
;
Structure prediction by ZEFSAII (Michael W. Deem and Ramdas Pophale) SiO2 
 PCOD8081751
Probable space group: C 2/M
;
_chemical_formula_sum "Si O2"
_cell_formula_units_Z 48
_cell_length_a 23.586827
_cell_length_b 9.047073
_cell_length_c 16.854839
_cell_angle_alpha 90.000000
_cell_angle_beta 47.508851
_cell_angle_gamma 90.000000
_cell_volume 2652.128580
_symmetry_space_group_name_H-M "C 2/M"
_symmetry_group_IT_number 12
_symmetry_cell_setting 'monoclinic'
loop_
_space_group_symop_operation_xyz
x,y,z
-x,y,-z
-x,-y,-z
x,-y,z
1/2+x,1/2+y,z
1/2-x,1/2+y,-z
1/2-x,1/2-y,-z
1/2+x,1/2-y,z
loop_
_atom_site_type_symbol
_atom_site_label
_atom_site_fract_x
_atom_site_fract_y
_atom_site_fract_z
Si Si1 0.136269 0.669468 0.097555
Si Si2 0.026720 0.671629 0.693404
Si Si3 0.746824 0.329522 0.877137
Si Si4 0.181751 0.824453 0.517326
Si Si5 0.058959 0.340255 0.379095
Si Si6 0.806972 0.172371 0.676386
O O1 0.154917 0.500000 0.059562
O O2 0.172317 0.703673 0.151890
O O3 0.044207 0.699706 0.178549
O O4 0.175756 0.769388 0.994669
O O5 0.051566 0.500000 0.670526
O O6 0.102589 0.769930 0.633781
O O7 0.990185 0.723561 0.645983
O O8 0.730764 0.500000 0.880006
O O9 0.745249 0.255617 0.790944
O O10 0.250000 0.750000 0.500000
O O11 0.191737 0.773255 0.416206
O O12 0.185513 0.000000 0.521312
O O13 0.101466 0.500000 0.316578
O O14 0.112053 0.210389 0.360929
O O15 0.000000 0.387659 0.500000
O O16 0.789858 0.000000 0.696749
#
# Coordination Sequence:
#
# PCOD8081751 Si02
#       6
#     8   8   8   8   8   8
#     4   9  18  32  50  78 114 149 181 214 259 316
#     4  10  19  34  56  80 111 146 179 218 266 323
#     4  10  19  32  51  78 112 150 185 215 260 319
#     4  11  25  41  57  79 105 140 185 230 278 324
#     4  10  18  30  50  78 110 144 177 210 262 327
#     4  11  22  34  52  79 111 143 179 224 270 320
#
# _framework density 18.098669000000001
#
# number of rings (size 3 to 8) (size 9 to 14) (size 15 to 20)
#    0.000    1.833    3.333    1.500    0.000    4.333 
#    0.000    0.000    0.000    1.000    0.000    7.000 
#    0.000    0.000    0.000    0.000    0.000    0.000 
#
# Total GULP energy -297358.634891 kJ/mol
# GULP energy per Si atom -12389.943120 kJ/mol
# Density = 1.805748 g / cm^3
# Si number density = 18.098669 Si / 1000 Ang^3
#
#
#
# Elastic Constant Matrix: (Units=GPa)
#
#
# Indices 1 2 3 4 5 6 
#
# 1 79.7661 38.0762 40.5802 0.0007 -17.9760 -0.0006
# 2 38.0762 85.8600 53.0285 0.0066 -6.8088 -0.0039
# 3 40.5802 53.0285 103.5056 0.0011 -11.6270 -0.0011
# 4 0.0007 0.0066 0.0011 34.2317 -0.0014 -3.6539
# 5 -17.9760 -6.8088 -11.6270 -0.0014 18.6615 0.0002
# 6 -0.0006 -0.0039 -0.0011 -3.6539 0.0002 26.0902
#
#
#
# Elastic Compliance Matrix: (Units=1/GPa)
#
#
# Indices 1 2 3 4 5 6 
#
# 1 0.020505 -0.005813 -0.003312 0.000001 0.015567 -0.000001
# 2 -0.005813 0.018698 -0.007702 -0.000003 -0.003576 0.000002
# 3 -0.003312 -0.007702 0.015303 0.000001 0.003534 0.000000
# 4 0.000001 -0.000003 0.000001 0.029656 0.000003 0.004153
# 5 0.015567 -0.003576 0.003534 0.000003 0.069478 0.000000
# 6 -0.000001 0.000002 0.000000 0.004153 0.000000 0.038910
#
#
# Mechanical properties :
#
#
# Convention : Reuss Voigt Hill
#
# Bulk Modulus (GPa) = 47.95976 59.16680 53.56328
# Shear Modulus (GPa) = 21.44495 24.95982 23.20238
#
# Velocity S-wave (km/s) = 3.44596 3.71765 3.58438
# Velocity P-wave (km/s) = 6.51072 7.15473 6.84030
#
# Compressibility (1/GPa) = 0.02085081
#
# Stress axis : x y z
#
# Youngs Moduli (GPa) = 48.76939 53.48117 65.34723
#
# Poissons Ratio (x) = 0.31089 0.21644
# Poissons Ratio (y) = 0.28350 0.50332
# Poissons Ratio (z) = 0.16153 0.41192
#
# Static dielectric constant tensor:
#      x y z
#    x 3.021050 0.000000 0.017070 
#    y 0.000000 3.253500 0.000000 
#    z 0.017070 0.000000 3.607970 
# 
# 
# High freq. dielectric constant tensor:
#      x y z
#    x 1.654180 0.000000 -0.004170 
#    y 0.000000 1.703990 0.000000 
#    z -0.004170 0.000000 1.719760 
# 
# From -- ./inp_files/281801.got.cif
#   From: 2010.06.25/outbox.cif.g09.slc.cpg/sg12_141_cif.got.tgz:281801.got - 2010.06.28 00:19:55.
