data_PCOD8081723
_publ_section_title
;
Structure prediction by ZEFSAII (Michael W. Deem and Ramdas Pophale) SiO2 
 PCOD8081723
Probable space group: C 2/M
;
_chemical_formula_sum "Si O2"
_cell_formula_units_Z 48
_cell_length_a 18.577254
_cell_length_b 13.043974
_cell_length_c 14.797240
_cell_angle_alpha 90.000000
_cell_angle_beta 130.603351
_cell_angle_gamma 90.000000
_cell_volume 2722.371426
_symmetry_space_group_name_H-M "C 2/M"
_symmetry_group_IT_number 12
_symmetry_cell_setting 'monoclinic'
loop_
_space_group_symop_operation_xyz
x,y,z
-x,y,-z
-x,-y,-z
x,-y,z
1/2+x,1/2+y,z
1/2-x,1/2+y,-z
1/2-x,1/2-y,-z
1/2+x,1/2-y,z
loop_
_atom_site_type_symbol
_atom_site_label
_atom_site_fract_x
_atom_site_fract_y
_atom_site_fract_z
Si Si1 0.858941 0.805737 0.836987
Si Si2 0.255510 0.114987 0.413435
Si Si3 0.234293 0.882633 0.731153
Si Si4 0.569184 0.380719 0.728459
Si Si5 0.449613 0.619114 0.081681
Si Si6 0.867373 0.188451 0.529048
O O1 0.779041 0.869000 0.717533
O O2 0.828304 0.686549 0.814938
O O3 0.959135 0.812452 0.867494
O O4 0.865852 0.852355 0.943391
O O5 0.165776 0.135671 0.405050
O O6 0.341075 0.191270 0.507818
O O7 0.293725 0.000000 0.456862
O O8 0.162496 0.846778 0.751094
O O9 0.183094 0.870873 0.593384
O O10 0.265986 0.000000 0.770026
O O11 0.547538 0.500000 0.695519
O O12 0.586270 0.354898 0.847498
O O13 0.480469 0.318833 0.615112
O O14 0.477781 0.500000 0.094389
#
# Coordination Sequence:
#
# PCOD8081723 Si02
#       6
#     8   8   8   8   8   8
#     4  10  19  32  52  76  99 128 165 208 250 290
#     4  10  18  30  50  76 103 128 161 207 251 292
#     4  10  21  34  50  74 103 134 165 202 248 299
#     4  10  19  33  53  75 101 130 166 208 247 292
#     4  10  19  33  55  77  97 125 167 213 250 288
#     4  10  19  30  50  76 101 131 165 202 246 295
#
# _framework density 17.631686999999999
#
# number of rings (size 3 to 8) (size 9 to 14) (size 15 to 20)
#    0.000    2.000    1.667    4.000    0.000    2.000 
#    0.000    1.667    0.000   11.000    0.000    0.000 
#    0.000    0.000    0.000    0.000    0.000    0.000 
#
# Total GULP energy -297658.976040 kJ/mol
# GULP energy per Si atom -12402.457335 kJ/mol
# Density = 1.759156 g / cm^3
# Si number density = 17.631687 Si / 1000 Ang^3
#
#
#
# Elastic Constant Matrix: (Units=GPa)
#
#
# Indices 1 2 3 4 5 6 
#
# 1 79.1854 51.6319 37.6142 0.0000 -3.5536 0.0000
# 2 51.6319 117.0128 37.8271 0.0000 7.3413 0.0000
# 3 37.6142 37.8271 90.5525 0.0000 -4.5837 0.0000
# 4 0.0000 0.0000 0.0000 22.0822 0.0000 1.7616
# 5 -3.5536 7.3413 -4.5837 0.0000 14.9891 0.0000
# 6 0.0000 0.0000 0.0000 1.7616 0.0000 24.9618
#
#
#
# Elastic Compliance Matrix: (Units=1/GPa)
#
#
# Indices 1 2 3 4 5 6 
#
# 1 0.020382 -0.007895 -0.004802 0.000000 0.007230 0.000000
# 2 -0.007895 0.013539 -0.002851 0.000000 -0.009375 0.000000
# 3 -0.004802 -0.002851 0.014466 0.000000 0.004682 0.000000
# 4 0.000000 0.000000 0.000000 0.045542 0.000000 -0.003214
# 5 0.007230 -0.009375 0.004682 0.000000 0.074452 0.000000
# 6 0.000000 0.000000 0.000000 -0.003214 0.000000 0.040288
#
#
# Mechanical properties :
#
#
# Convention : Reuss Voigt Hill
#
# Bulk Modulus (GPa) = 57.83343 60.09965 58.96654
# Shear Modulus (GPa) = 20.36412 23.05179 21.70796
#
# Velocity S-wave (km/s) = 3.40218 3.61973 3.51264
# Velocity P-wave (km/s) = 6.95019 7.18541 7.06878
#
# Compressibility (1/GPa) = 0.01729104
#
# Stress axis : x y z
#
# Youngs Moduli (GPa) = 49.06320 73.85829 69.12653
#
# Poissons Ratio (x) = 0.58308 0.33198
# Poissons Ratio (y) = 0.38733 0.19709
# Poissons Ratio (z) = 0.23563 0.21058
#
# Static dielectric constant tensor:
#      x y z
#    x 3.194760 0.000000 -0.265110 
#    y 0.000000 3.215660 0.000000 
#    z -0.265110 0.000000 3.373720 
# 
# 
# High freq. dielectric constant tensor:
#      x y z
#    x 1.665140 0.000000 -0.021740 
#    y 0.000000 1.670710 0.000000 
#    z -0.021740 0.000000 1.687020 
# 
# From -- ./inp_files/214101.got.cif
#   From: 2010.06.25/outbox.cif.g09.slc.cpg/sg12_108_cif.got.tgz:214101.got - 2010.06.28 00:19:55.
