data_PCOD8081837
_publ_section_title
;
Structure prediction by ZEFSAII (Michael W. Deem and Ramdas Pophale) SiO2 
 PCOD8081837
Probable space group: C 2/M
;
_chemical_formula_sum "Si O2"
_cell_formula_units_Z 36
_cell_length_a 8.207636
_cell_length_b 21.261541
_cell_length_c 12.438226
_cell_angle_alpha 90.000000
_cell_angle_beta 64.436054
_cell_angle_gamma 90.000000
_cell_volume 1958.069014
_symmetry_space_group_name_H-M "C 2/M"
_symmetry_group_IT_number 12
_symmetry_cell_setting 'monoclinic'
loop_
_space_group_symop_operation_xyz
x,y,z
-x,y,-z
-x,-y,-z
x,-y,z
1/2+x,1/2+y,z
1/2-x,1/2+y,-z
1/2-x,1/2-y,-z
1/2+x,1/2-y,z
loop_
_atom_site_type_symbol
_atom_site_label
_atom_site_fract_x
_atom_site_fract_y
_atom_site_fract_z
Si Si1 0.456545 0.336559 0.786687
Si Si2 0.663715 0.792737 0.256539
Si Si3 0.672340 0.819694 0.022850
Si Si4 0.383749 0.574046 0.428420
Si Si5 0.500000 0.863480 0.500000
O O1 0.358784 0.282568 0.743943
O O2 0.626074 0.300172 0.784895
O O3 0.511030 0.396607 0.701911
O O4 0.330495 0.361318 0.921312
O O5 0.621406 0.834330 0.161039
O O6 0.544043 0.819074 0.387211
O O7 0.500000 0.829291 0.000000
O O8 0.750000 0.750000 0.000000
O O9 0.500000 0.594096 0.500000
O O10 0.384295 0.500000 0.413551
O O11 0.173955 0.595858 0.487603
#
# Coordination Sequence:
#
# PCOD8081837 Si02
#       5
#     8   8   8   8   4
#     4  10  20  33  55  80 113 141 182 228 272 336
#     4  10  20  32  52  87 112 144 172 225 289 327
#     4  10  18  30  51  77 111 145 173 218 271 334
#     4  10  23  39  58  78 109 154 190 227 268 323
#     4  10  23  36  60  82 113 142 182 234 276 336
#
# _framework density 18.385459999999998
#
# number of rings (size 3 to 8) (size 9 to 14) (size 15 to 20)
#    0.000    2.000    0.000    6.333    7.778    1.778 
#    0.000    0.000    0.000   12.667    0.000    0.000 
#    0.000    0.000    0.000    0.000    0.000    0.000 
#
# Total GULP energy -223035.384448 kJ/mol
# GULP energy per Si atom -12390.854692 kJ/mol
# Density = 1.834361 g / cm^3
# Si number density = 18.385460 Si / 1000 Ang^3
#
#
#
# Elastic Constant Matrix: (Units=GPa)
#
#
# Indices 1 2 3 4 5 6 
#
# 1 90.8913 14.4446 51.4284 0.0000 -4.4010 0.0000
# 2 14.4446 44.8340 33.7337 0.0000 -0.9845 0.0000
# 3 51.4284 33.7337 161.2138 0.0000 -7.3652 0.0000
# 4 0.0000 0.0000 0.0000 17.9016 0.0000 0.9145
# 5 -4.4010 -0.9845 -7.3652 0.0000 31.0292 0.0000
# 6 0.0000 0.0000 0.0000 0.9145 0.0000 22.7913
#
#
#
# Elastic Compliance Matrix: (Units=1/GPa)
#
#
# Indices 1 2 3 4 5 6 
#
# 1 0.013517 -0.001332 -0.003991 0.000000 0.000928 0.000000
# 2 -0.001332 0.026611 -0.005170 0.000000 -0.000572 0.000000
# 3 -0.003991 -0.005170 0.008618 0.000000 0.001316 0.000000
# 4 0.000000 0.000000 0.000000 0.055976 0.000000 -0.002246
# 5 0.000928 -0.000572 0.001316 0.000000 0.032653 0.000000
# 6 0.000000 0.000000 0.000000 -0.002246 0.000000 0.043967
#
#
# Mechanical properties :
#
#
# Convention : Reuss Voigt Hill
#
# Bulk Modulus (GPa) = 36.02163 55.12806 45.57484
# Shear Modulus (GPa) = 23.63183 27.49990 25.56586
#
# Velocity S-wave (km/s) = 3.58907 3.87168 3.73305
# Velocity P-wave (km/s) = 6.06715 7.07363 6.58963
#
# Compressibility (1/GPa) = 0.02776110
#
# Stress axis : x y z
#
# Youngs Moduli (GPa) = 73.98162 37.57901 116.03752
#
# Poissons Ratio (x) = 0.05004 0.46310
# Poissons Ratio (y) = 0.09852 0.59986
# Poissons Ratio (z) = 0.29526 0.19427
#
# Static dielectric constant tensor:
#      x y z
#    x 3.757260 0.000000 0.000100 
#    y 0.000000 2.953200 0.000000 
#    z 0.000100 0.000000 4.060270 
# 
# 
# High freq. dielectric constant tensor:
#      x y z
#    x 1.737950 0.000000 -0.005000 
#    y 0.000000 1.660730 0.000000 
#    z -0.005000 0.000000 1.733560 
# 
# From -- ./inp_files/119609.got.cif
#   From: 2010.06.25/outbox.cif.g09.slc.cpg/sg12_60_cif.got.tgz:119609.got - 2010.06.28 00:19:55.
