data_PCOD8081634
_publ_section_title
;
Structure prediction by ZEFSAII (Michael W. Deem and Ramdas Pophale) SiO2 
 PCOD8081634
Probable space group: C 2/M
;
_chemical_formula_sum "Si O2"
_cell_formula_units_Z 64
_cell_length_a 21.747156
_cell_length_b 20.396381
_cell_length_c 9.640234
_cell_angle_alpha 90.000000
_cell_angle_beta 69.363395
_cell_angle_gamma 90.000000
_cell_volume 4001.678938
_symmetry_space_group_name_H-M "C 2/M"
_symmetry_group_IT_number 12
_symmetry_cell_setting 'monoclinic'
loop_
_space_group_symop_operation_xyz
x,y,z
-x,y,-z
-x,-y,-z
x,-y,z
1/2+x,1/2+y,z
1/2-x,1/2+y,-z
1/2-x,1/2-y,-z
1/2+x,1/2-y,z
loop_
_atom_site_type_symbol
_atom_site_label
_atom_site_fract_x
_atom_site_fract_y
_atom_site_fract_z
Si Si1 0.845317 0.340671 0.657233
Si Si2 0.262822 0.244193 0.273040
Si Si3 0.946409 0.755414 0.437795
Si Si4 0.827254 0.174326 0.432990
Si Si5 0.839761 0.377138 0.174963
Si Si6 0.905792 0.575920 0.853518
Si Si7 0.728727 0.926050 0.510603
Si Si8 0.023186 0.668198 0.833323
O O1 0.790866 0.289651 0.764113
O O2 0.906945 0.301846 0.546750
O O3 0.869057 0.389556 0.756196
O O4 0.814316 0.380624 0.555284
O O5 0.225861 0.207749 0.425778
O O6 0.320810 0.290014 0.289065
O O7 0.299179 0.187670 0.154508
O O8 0.900828 0.816877 0.431136
O O9 0.982405 0.726071 0.274201
O O10 0.000000 0.784576 0.500000
O O11 0.805071 0.098254 0.441547
O O12 0.796393 0.422108 0.310897
O O13 0.902654 0.356717 0.216020
O O14 0.859739 0.418482 0.025022
O O15 0.916941 0.500000 0.808028
O O16 0.976588 0.607902 0.825302
O O17 0.725803 0.000000 0.459383
O O18 0.000000 0.696702 0.000000
#
# Coordination Sequence:
#
# PCOD8081634 Si02
#       8
#     8   8   8   8   8   8   8   8
#     4  10  19  31  47  70  91 118 151 194 227 263
#     4   8  14  28  49  66  86 113 153 193 229 259
#     4  11  17  31  50  69  88 117 153 188 238 263
#     4   8  15  27  46  70  91 109 145 196 229 261
#     4  10  18  32  49  64  88 127 156 187 224 261
#     4  11  23  33  40  63 102 130 152 184 217 260
#     4  10  18  30  50  70  89 121 157 181 218 277
#     4  10  20  32  46  64  91 124 157 188 214 258
#
# _framework density 15.993288
#
# number of rings (size 3 to 8) (size 9 to 14) (size 15 to 20)
#    0.000    2.250    3.750    2.250    0.000    3.250 
#    0.000    0.625    0.000    0.375    0.000    0.000 
#    0.000    0.500    0.000    0.000    0.000    1.750 
#
# Total GULP energy -396590.672294 kJ/mol
# GULP energy per Si atom -12393.458509 kJ/mol
# Density = 1.595689 g / cm^3
# Si number density = 15.993288 Si / 1000 Ang^3
#
#
#
# Elastic Constant Matrix: (Units=GPa)
#
#
# Indices 1 2 3 4 5 6 
#
# 1 88.5461 35.0473 24.4785 0.0000 3.8653 0.0000
# 2 35.0473 51.6142 11.2736 0.0000 -8.8917 0.0000
# 3 24.4785 11.2736 43.7302 0.0000 8.1710 0.0000
# 4 0.0000 0.0000 0.0000 17.3655 0.0000 -0.6410
# 5 3.8653 -8.8917 8.1710 0.0000 14.8956 0.0000
# 6 0.0000 0.0000 0.0000 -0.6410 0.0000 18.3274
#
#
#
# Elastic Compliance Matrix: (Units=1/GPa)
#
#
# Indices 1 2 3 4 5 6 
#
# 1 0.018241 -0.012949 -0.005063 0.000000 -0.009686 0.000000
# 2 -0.012949 0.034407 -0.006782 0.000000 0.027619 0.000000
# 3 -0.005063 -0.006782 0.031154 0.000000 -0.019824 0.000000
# 4 0.000000 0.000000 0.000000 0.057660 0.000000 0.002017
# 5 -0.009686 0.027619 -0.019824 0.000000 0.097009 0.000000
# 6 0.000000 0.000000 0.000000 0.002017 0.000000 0.054634
#
#
# Mechanical properties :
#
#
# Convention : Reuss Voigt Hill
#
# Bulk Modulus (GPa) = 29.22782 36.16549 32.69666
# Shear Modulus (GPa) = 14.12041 17.65709 15.88875
#
# Velocity S-wave (km/s) = 2.97458 3.32630 3.15535
# Velocity P-wave (km/s) = 5.48746 6.11673 5.81062
#
# Compressibility (1/GPa) = 0.03421398
#
# Stress axis : x y z
#
# Youngs Moduli (GPa) = 54.82043 29.06410 32.09864
#
# Poissons Ratio (x) = 0.37636 0.16251
# Poissons Ratio (y) = 0.70988 0.21770
# Poissons Ratio (z) = 0.27754 0.19712
#
# Static dielectric constant tensor:
#      x y z
#    x 3.162330 0.000000 0.014850 
#    y 0.000000 2.988270 0.000000 
#    z 0.014850 0.000000 2.906140 
# 
# 
# High freq. dielectric constant tensor:
#      x y z
#    x 1.611740 0.000000 0.005090 
#    y 0.000000 1.590020 0.000000 
#    z 0.005090 0.000000 1.600460 
# 
# From -- ./inp_files/89129.got.cif
#   From: 2010.06.25/outbox.cif.g09.slc.cpg/sg12_45_cif.got.tgz:89129.got - 2010.06.28 00:19:55.
