data_PCOD8081346
_publ_section_title
;
Structure prediction by ZEFSAII (Michael W. Deem and Ramdas Pophale) SiO2 
 PCOD8081346
Probable space group: C 2/M
;
_chemical_formula_sum "Si O2"
_cell_formula_units_Z 56
_cell_length_a 20.646598
_cell_length_b 8.731508
_cell_length_c 24.553568
_cell_angle_alpha 90.000000
_cell_angle_beta 46.326485
_cell_angle_gamma 90.000000
_cell_volume 3201.567668
_symmetry_space_group_name_H-M "C 2/M"
_symmetry_group_IT_number 12
_symmetry_cell_setting 'monoclinic'
loop_
_space_group_symop_operation_xyz
x,y,z
-x,y,-z
-x,-y,-z
x,-y,z
1/2+x,1/2+y,z
1/2-x,1/2+y,-z
1/2-x,1/2-y,-z
1/2+x,1/2-y,z
loop_
_atom_site_type_symbol
_atom_site_label
_atom_site_fract_x
_atom_site_fract_y
_atom_site_fract_z
Si Si1 0.402497 0.816753 0.807546
Si Si2 0.963143 0.179537 0.185907
Si Si3 0.266651 0.179501 0.049009
Si Si4 0.318699 0.171568 0.337971
Si Si5 0.531462 0.821548 0.041582
Si Si6 0.310589 0.183370 0.511926
Si Si7 0.459525 0.829841 0.353877
O O1 0.457037 0.765876 0.829180
O O2 0.302892 0.750118 0.867129
O O3 0.452297 0.749763 0.723693
O O4 0.400891 0.000000 0.808329
O O5 0.864871 0.232645 0.262839
O O6 0.972263 0.221915 0.117338
O O7 0.973421 0.000000 0.189495
O O8 0.250795 0.000000 0.054217
O O9 0.250000 0.250000 0.000000
O O10 0.364517 0.221868 0.013433
O O11 0.223700 0.249589 0.410505
O O12 0.384580 0.169597 0.350737
O O13 0.298921 0.000000 0.328801
O O14 0.515175 0.000000 0.063328
O O15 0.500000 0.775600 0.000000
O O16 0.250000 0.250000 0.500000
O O17 0.412920 0.238424 0.436034
O O18 0.304405 0.000000 0.516011
O O19 0.489525 0.000000 0.351378
#
# Coordination Sequence:
#
# PCOD8081346 Si02
#       7
#     8   8   8   8   8   8   8
#     4  10  18  30  47  68  96 128 162 199 241 291
#     4  11  20  30  47  70  94 122 161 205 247 291
#     4  11  21  33  52  75  98 126 163 206 249 294
#     4   9  16  26  39  57  85 121 158 195 238 288
#     4  10  22  39  55  70  95 132 167 202 249 300
#     4   9  14  22  35  54  82 118 158 194 234 283
#     4   7  13  23  36  55  83 119 153 189 232 277
#
# _framework density 17.491430000000001
#
# number of rings (size 3 to 8) (size 9 to 14) (size 15 to 20)
#    0.000    2.429    1.429    4.714    0.000    0.857 
#    0.000    2.143    0.000    0.000    0.000    0.000 
#    0.000    1.143    0.000   13.143    0.000    6.571 
#
# Total GULP energy -346888.232049 kJ/mol
# GULP energy per Si atom -12388.865430 kJ/mol
# Density = 1.745162 g / cm^3
# Si number density = 17.491430 Si / 1000 Ang^3
#
#
#
# Elastic Constant Matrix: (Units=GPa)
#
#
# Indices 1 2 3 4 5 6 
#
# 1 52.3471 22.8634 43.6255 0.0001 -3.0564 0.0001
# 2 22.8634 87.1954 56.3236 0.0003 -4.6056 0.0002
# 3 43.6255 56.3236 189.1538 0.0001 -22.5484 -0.0004
# 4 0.0001 0.0003 0.0001 33.7767 0.0000 -3.1062
# 5 -3.0564 -4.6056 -22.5484 0.0000 13.4298 0.0002
# 6 0.0001 0.0002 -0.0004 -3.1062 0.0002 12.7863
#
#
#
# Elastic Compliance Matrix: (Units=1/GPa)
#
#
# Indices 1 2 3 4 5 6 
#
# 1 0.024642 -0.003327 -0.005201 0.000000 -0.004265 0.000000
# 2 -0.003327 0.014733 -0.003885 0.000000 -0.002228 0.000000
# 3 -0.005201 -0.003885 0.009181 0.000000 0.012898 0.000000
# 4 0.000000 0.000000 0.000000 0.030283 0.000000 0.007357
# 5 -0.004265 -0.002228 0.012898 0.000000 0.094382 -0.000001
# 6 0.000000 0.000000 0.000000 0.007357 -0.000001 0.079996
#
#
# Mechanical properties :
#
#
# Convention : Reuss Voigt Hill
#
# Bulk Modulus (GPa) = 42.14280 63.81347 52.97814
# Shear Modulus (GPa) = 17.48542 25.72414 21.60478
#
# Velocity S-wave (km/s) = 3.16516 3.83909 3.51830
# Velocity P-wave (km/s) = 6.12400 7.49756 6.84532
#
# Compressibility (1/GPa) = 0.02372884
#
# Stress axis : x y z
#
# Youngs Moduli (GPa) = 40.58141 67.87566 108.92429
#
# Poissons Ratio (x) = 0.22582 0.56652
# Poissons Ratio (y) = 0.13501 0.42319
# Poissons Ratio (z) = 0.21107 0.26371
#
# Static dielectric constant tensor:
#      x y z
#    x 2.654130 0.000000 -0.272030 
#    y 0.000000 3.285450 0.000000 
#    z -0.272030 0.000000 4.043070 
# 
# 
# High freq. dielectric constant tensor:
#      x y z
#    x 1.590810 0.000000 -0.019400 
#    y 0.000000 1.674780 0.000000 
#    z -0.019400 0.000000 1.710070 
# 
# From -- ./inp_files/345482.got.cif
#   From: 2010.06.25/outbox.cif.g09.slc.cpg/sg12_173_cif.got.tgz:345482.got - 2010.06.28 00:19:55.
