data_PCOD8081992
_publ_section_title
;
Structure prediction by ZEFSAII (Michael W. Deem and Ramdas Pophale) SiO2 
 PCOD8081992
Probable space group: C 2/M
;
_chemical_formula_sum "Si O2"
_cell_formula_units_Z 48
_cell_length_a 19.366756
_cell_length_b 17.598211
_cell_length_c 8.911274
_cell_angle_alpha 90.000000
_cell_angle_beta 66.431478
_cell_angle_gamma 90.000000
_cell_volume 2783.791980
_symmetry_space_group_name_H-M "C 2/M"
_symmetry_group_IT_number 12
_symmetry_cell_setting 'monoclinic'
loop_
_space_group_symop_operation_xyz
x,y,z
-x,y,-z
-x,-y,-z
x,-y,z
1/2+x,1/2+y,z
1/2-x,1/2+y,-z
1/2-x,1/2-y,-z
1/2+x,1/2-y,z
loop_
_atom_site_type_symbol
_atom_site_label
_atom_site_fract_x
_atom_site_fract_y
_atom_site_fract_z
Si Si1 0.303865 0.588991 0.199528
Si Si2 0.305879 0.816833 0.899530
Si Si3 0.921217 0.220531 0.628747
Si Si4 0.889300 0.082945 0.837943
Si Si5 0.704426 0.675921 0.495412
Si Si6 0.271635 0.915395 0.182865
O O1 0.285088 0.500000 0.237423
O O2 0.230643 0.631181 0.197623
O O3 0.325345 0.627828 0.337740
O O4 0.375684 0.599584 0.026376
O O5 0.382824 0.783324 0.767179
O O6 0.250000 0.750000 0.000000
O O7 0.327366 0.866754 0.027628
O O8 0.940313 0.146389 0.714338
O O9 0.868083 0.199088 0.536780
O O10 0.000000 0.253273 0.500000
O O11 0.807536 0.083484 0.833696
O O12 0.927533 0.000000 0.783122
O O13 0.750000 0.750000 0.500000
O O14 0.762332 0.623660 0.351837
O O15 0.304112 0.000000 0.176935
#
# Coordination Sequence:
#
# PCOD8081992 Si02
#       6
#     8   8   8   8   8   8
#     4  10  18  30  54  81 104 131 175 225 260 298
#     4  11  16  33  55  76 100 138 182 218 251 303
#     4  11  22  34  52  78 109 140 174 215 263 313
#     4   8  16  31  50  72 102 141 175 204 251 314
#     4  11  19  32  53  81 108 133 171 220 261 303
#     4   9  17  29  51  78 101 131 177 217 254 304
#
# _framework density 17.242667999999998
#
# number of rings (size 3 to 8) (size 9 to 14) (size 15 to 20)
#    0.000    2.000    6.667    2.000    0.000    1.000 
#    0.000    0.833    0.000    4.000    0.000    1.167 
#    0.000    0.000    0.000    0.000    0.000    0.000 
#
# Total GULP energy -297519.816978 kJ/mol
# GULP energy per Si atom -12396.659041 kJ/mol
# Density = 1.720342 g / cm^3
# Si number density = 17.242668 Si / 1000 Ang^3
#
#
#
# Elastic Constant Matrix: (Units=GPa)
#
#
# Indices 1 2 3 4 5 6 
#
# 1 35.5350 30.8688 37.9991 0.0000 -4.1719 0.0000
# 2 30.8688 122.8519 60.5633 0.0000 0.2851 0.0000
# 3 37.9991 60.5633 121.5634 0.0000 3.5841 0.0000
# 4 0.0000 0.0000 0.0000 39.4095 0.0000 6.5611
# 5 -4.1719 0.2851 3.5841 0.0000 32.2236 0.0000
# 6 0.0000 0.0000 0.0000 6.5611 0.0000 15.3002
#
#
#
# Elastic Compliance Matrix: (Units=1/GPa)
#
#
# Indices 1 2 3 4 5 6 
#
# 1 0.046928 -0.005924 -0.011938 0.000000 0.007456 0.000000
# 2 -0.005924 0.011546 -0.003888 0.000000 -0.000437 0.000000
# 3 -0.011938 -0.003888 0.013985 0.000000 -0.003067 0.000000
# 4 0.000000 0.000000 0.000000 0.027325 0.000000 -0.011718
# 5 0.007456 -0.000437 -0.003067 0.000000 0.032343 0.000000
# 6 0.000000 0.000000 0.000000 -0.011718 0.000000 0.070384
#
#
# Mechanical properties :
#
#
# Convention : Reuss Voigt Hill
#
# Bulk Modulus (GPa) = 34.52962 59.86809 47.19885
# Shear Modulus (GPa) = 19.55702 27.42125 23.48914
#
# Velocity S-wave (km/s) = 3.37148 3.99220 3.69490
# Velocity P-wave (km/s) = 5.93506 7.48642 6.75542
#
# Compressibility (1/GPa) = 0.02896064
#
# Stress axis : x y z
#
# Youngs Moduli (GPa) = 21.30930 86.61093 71.50565
#
# Poissons Ratio (x) = 0.51307 0.85360
# Poissons Ratio (y) = 0.12623 0.27799
# Poissons Ratio (z) = 0.25438 0.33671
#
# Static dielectric constant tensor:
#      x y z
#    x 2.667790 0.000000 0.237390 
#    y 0.000000 3.678170 0.000000 
#    z 0.237390 0.000000 3.531020 
# 
# 
# High freq. dielectric constant tensor:
#      x y z
#    x 1.596210 0.000000 0.023070 
#    y 0.000000 1.682180 0.000000 
#    z 0.023070 0.000000 1.681170 
# 
# From -- ./inp_files/86754.got.cif
#   From: 2010.06.25/outbox.cif.g09.slc.cpg/sg12_44_cif.got.tgz:86754.got - 2010.06.28 00:19:55.
