data_PCOD8081011
_publ_section_title
;
Structure prediction by ZEFSAII (Michael W. Deem and Ramdas Pophale) SiO2 
 PCOD8081011
Probable space group: C 2/M
;
_chemical_formula_sum "Si O2"
_cell_formula_units_Z 60
_cell_length_a 19.554093
_cell_length_b 24.650515
_cell_length_c 14.243961
_cell_angle_alpha 90.000000
_cell_angle_beta 28.817501
_cell_angle_gamma 90.000000
_cell_volume 3309.487130
_symmetry_space_group_name_H-M "C 2/M"
_symmetry_group_IT_number 12
_symmetry_cell_setting 'monoclinic'
loop_
_space_group_symop_operation_xyz
x,y,z
-x,y,-z
-x,-y,-z
x,-y,z
1/2+x,1/2+y,z
1/2-x,1/2+y,-z
1/2-x,1/2-y,-z
1/2+x,1/2-y,z
loop_
_atom_site_type_symbol
_atom_site_label
_atom_site_fract_x
_atom_site_fract_y
_atom_site_fract_z
Si Si1 0.961761 0.157742 0.444542
Si Si2 0.354259 0.302911 0.137743
Si Si3 0.885054 0.344731 0.708668
Si Si4 0.728144 0.561083 0.258510
Si Si5 0.744775 0.874772 0.953293
Si Si6 0.457453 0.801001 0.908724
Si Si7 0.000000 0.609368 0.000000
Si Si8 0.901568 0.268685 0.443197
O O1 0.879717 0.102140 0.563146
O O2 0.877204 0.204761 0.492279
O O3 0.000000 0.182579 0.500000
O O4 0.094096 0.142312 0.219143
O O5 0.265368 0.331380 0.160823
O O6 0.245942 0.298213 0.355035
O O7 0.500000 0.333205 0.000000
O O8 0.405366 0.244030 0.043418
O O9 0.000000 0.373026 0.500000
O O10 0.966131 0.291788 0.653654
O O11 0.842577 0.385485 0.845030
O O12 0.670303 0.500000 0.337871
O O13 0.756141 0.573335 0.114359
O O14 0.871728 0.568078 0.142772
O O15 0.680872 0.822277 0.978470
O O16 0.527405 0.852081 0.877486
O O17 0.572379 0.777075 0.698297
#
# Coordination Sequence:
#
# PCOD8081011 Si02
#       8
#     8   8   8   8   8   8   4   8
#     4  10  18  29  48  75 100 128 172 207 256 302
#     4  11  20  29  42  70 103 137 167 209 243 292
#     4   9  18  33  51  70 101 141 177 201 248 305
#     4  10  21  35  53  74 101 132 170 222 264 303
#     4   9  18  32  52  73  92 132 171 218 251 303
#     4  10  19  32  48  69 103 136 179 205 243 299
#     4  10  19  36  50  72 104 140 173 202 256 316
#     4  10  19  32  50  69  99 146 175 208 242 301
#
# _framework density 18.129697
#
# number of rings (size 3 to 8) (size 9 to 14) (size 15 to 20)
#    0.000    2.133    0.667    5.400    0.000    5.067 
#    2.400    0.000    0.000    0.400    0.000    0.000 
#    0.000    0.533    0.000    2.867    0.000    0.000 
#
# Total GULP energy -371688.777371 kJ/mol
# GULP energy per Si atom -12389.625912 kJ/mol
# Density = 1.808843 g / cm^3
# Si number density = 18.129697 Si / 1000 Ang^3
#
#
#
# Elastic Constant Matrix: (Units=GPa)
#
#
# Indices 1 2 3 4 5 6 
#
# 1 67.5783 20.2794 41.5816 -1.0118 -10.6522 1.2933
# 2 20.2794 71.7159 34.6976 -0.1516 7.6637 0.1934
# 3 41.5816 34.6976 116.4490 0.7468 7.7747 -0.9393
# 4 -1.0118 -0.1516 0.7468 -318.0492 -0.4449 427.6900
# 5 -10.6522 7.6637 7.7747 -0.4449 32.4139 0.5568
# 6 1.2933 0.1934 -0.9393 427.6900 0.5568 -528.3990
#
#
#
# Elastic Compliance Matrix: (Units=1/GPa)
#
#
# Indices 1 2 3 4 5 6 
#
# 1 0.022035 -0.003695 -0.007427 -0.000032 0.009895 0.000050
# 2 -0.003695 0.017154 -0.003496 0.000001 -0.004431 -0.000001
# 3 -0.007427 -0.003496 0.012590 0.000017 -0.004633 -0.000033
# 4 -0.000032 0.000001 0.000017 0.035554 -0.000021 0.028778
# 5 0.009895 -0.004431 -0.004633 -0.000021 0.036261 0.000052
# 6 0.000050 -0.000001 -0.000033 0.028778 0.000052 0.021401
#
#
# Mechanical properties :
#
#
# Convention : Reuss Voigt Hill
#
# Bulk Modulus (GPa) = 44.36092 49.87339 47.11715
# Shear Modulus (GPa) = 27.51114 -152.19454 -62.34170
#
# Velocity S-wave (km/s) = 3.89969 -9.17223 -5.87036
# Velocity P-wave (km/s) = 6.69317 9.19806 4.46126
#
# Compressibility (1/GPa) = 0.02254237
#
# Stress axis : x y z
#
# Youngs Moduli (GPa) = 45.38268 58.29633 79.42690
#
# Poissons Ratio (x) = 0.21541 0.58992
# Poissons Ratio (y) = 0.16769 0.27767
# Poissons Ratio (z) = 0.33707 0.20380
#
# Static dielectric constant tensor:
#      x y z
#    x 3.625610 -0.000040 -0.054950 
#    y -0.000040 2.826070 0.000050 
#    z -0.054950 0.000050 3.627450 
# 
# 
# High freq. dielectric constant tensor:
#      x y z
#    x 1.703330 0.000000 -0.005350 
#    y 0.000000 1.640260 0.000000 
#    z -0.005350 0.000000 1.716770 
# 
# From -- ./inp_files/235446.got.cif
#   From: 2010.06.25/outbox.cif.g09.slc.cpg/sg12_118_cif.got.tgz:235446.got - 2010.06.28 00:19:55.
