data_PCOD8081581
_publ_section_title
;
Structure prediction by ZEFSAII (Michael W. Deem and Ramdas Pophale) SiO2 
 PCOD8081581
Probable space group: C 2/M
;
_chemical_formula_sum "Si O2"
_cell_formula_units_Z 56
_cell_length_a 23.605743
_cell_length_b 8.394150
_cell_length_c 19.358508
_cell_angle_alpha 90.000000
_cell_angle_beta 128.267754
_cell_angle_gamma 90.000000
_cell_volume 3011.654311
_symmetry_space_group_name_H-M "C 2/M"
_symmetry_group_IT_number 12
_symmetry_cell_setting 'monoclinic'
loop_
_space_group_symop_operation_xyz
x,y,z
-x,y,-z
-x,-y,-z
x,-y,z
1/2+x,1/2+y,z
1/2-x,1/2+y,-z
1/2-x,1/2-y,-z
1/2+x,1/2-y,z
loop_
_atom_site_type_symbol
_atom_site_label
_atom_site_fract_x
_atom_site_fract_y
_atom_site_fract_z
Si Si1 0.735173 0.683131 0.701569
Si Si2 0.937596 0.311413 0.759755
Si Si3 0.358727 0.186655 0.972084
Si Si4 0.414984 0.311965 0.158014
Si Si5 0.301721 0.689753 0.183090
Si Si6 0.219538 0.688783 0.405794
Si Si7 0.385131 0.314574 0.853549
O O1 0.714434 0.500000 0.679420
O O2 0.688150 0.757192 0.729666
O O3 0.730402 0.757483 0.620181
O O4 0.817891 0.699792 0.786861
O O5 0.944409 0.500000 0.768574
O O6 0.863095 0.254995 0.667279
O O7 0.945335 0.237400 0.843025
O O8 0.002864 0.238686 0.764010
O O9 0.275368 0.245896 0.905534
O O10 0.406481 0.276803 0.949120
O O11 0.365385 0.000000 0.964514
O O12 0.389390 0.228770 0.069291
O O13 0.406819 0.500000 0.144739
O O14 0.365959 0.244989 0.183821
O O15 0.303342 0.500000 0.186948
O O16 0.222110 0.500000 0.406788
O O17 0.250000 0.750000 0.500000
O O18 0.366394 0.500000 0.830545
#
# Coordination Sequence:
#
# PCOD8081581 Si02
#       7
#     8   8   8   8   8   8   8
#     4   8  15  31  51  73 100 132 160 191 241 298
#     4  10  21  37  51  69  99 135 163 191 244 310
#     4  10  19  33  50  69  97 136 171 204 247 295
#     4  11  21  32  48  73  99 128 168 215 247 276
#     4   8  16  31  51  71  97 131 170 207 241 280
#     4   9  18  32  55  80 101 122 153 194 240 295
#     4  10  18  30  49  73  97 124 163 213 249 281
#
# _framework density 18.594432000000001
#
# number of rings (size 3 to 8) (size 9 to 14) (size 15 to 20)
#    0.000    2.571    0.000    4.714    0.000    3.429 
#    0.000    9.286    0.000    0.857    0.000    6.000 
#    0.000    0.000    0.000    0.000    0.000    0.000 
#
# Total GULP energy -346885.995416 kJ/mol
# GULP energy per Si atom -12388.785551 kJ/mol
# Density = 1.855211 g / cm^3
# Si number density = 18.594432 Si / 1000 Ang^3
#
#
#
# Elastic Constant Matrix: (Units=GPa)
#
#
# Indices 1 2 3 4 5 6 
#
# 1 115.8211 16.1892 57.4063 0.0000 -13.0404 0.0000
# 2 16.1892 36.2296 6.2884 0.0000 1.1327 0.0000
# 3 57.4063 6.2884 98.6592 0.0000 -24.0843 0.0000
# 4 0.0000 0.0000 0.0000 25.5797 0.0000 -1.8426
# 5 -13.0404 1.1327 -24.0843 0.0000 25.1940 0.0000
# 6 0.0000 0.0000 0.0000 -1.8426 0.0000 22.8685
#
#
#
# Elastic Compliance Matrix: (Units=1/GPa)
#
#
# Indices 1 2 3 4 5 6 
#
# 1 0.012815 -0.004480 -0.007177 0.000000 -0.000027 0.000000
# 2 -0.004480 0.029767 -0.000239 0.000000 -0.003886 0.000000
# 3 -0.007177 -0.000239 0.017509 0.000000 0.013034 0.000000
# 4 0.000000 0.000000 0.000000 0.039322 0.000000 0.003168
# 5 -0.000027 -0.003886 0.013034 0.000000 0.052312 0.000000
# 6 0.000000 0.000000 0.000000 0.003168 0.000000 0.043984
#
#
# Mechanical properties :
#
#
# Convention : Reuss Voigt Hill
#
# Bulk Modulus (GPa) = 27.55007 45.60865 36.57936
# Shear Modulus (GPa) = 21.58897 26.11682 23.85289
#
# Velocity S-wave (km/s) = 3.41111 3.75180 3.58550
# Velocity P-wave (km/s) = 5.51023 6.58402 6.07092
#
# Compressibility (1/GPa) = 0.03629755
#
# Stress axis : x y z
#
# Youngs Moduli (GPa) = 78.03618 33.59481 57.11290
#
# Poissons Ratio (x) = 0.15049 0.40992
# Poissons Ratio (y) = 0.34957 0.01367
# Poissons Ratio (z) = 0.56010 0.00804
#
# Static dielectric constant tensor:
#      x y z
#    x 4.046280 0.000000 -0.819710 
#    y 0.000000 3.192240 0.000000 
#    z -0.819710 0.000000 4.796600 
# 
# 
# High freq. dielectric constant tensor:
#      x y z
#    x 1.724730 0.000000 -0.029300 
#    y 0.000000 1.708160 0.000000 
#    z -0.029300 0.000000 1.690230 
# 
# From -- ./inp_files/280932.got.cif
#   From: 2010.06.25/outbox.cif.g09.slc.cpg/sg12_141_cif.got.tgz:280932.got - 2010.06.28 00:19:55.
