data_PCOD8081274
_publ_section_title
;
Structure prediction by ZEFSAII (Michael W. Deem and Ramdas Pophale) SiO2 
 PCOD8081274
Probable space group: C 2/M
;
_chemical_formula_sum "Si O2"
_cell_formula_units_Z 56
_cell_length_a 20.026004
_cell_length_b 21.847390
_cell_length_c 23.677374
_cell_angle_alpha 90.000000
_cell_angle_beta 159.851310
_cell_angle_gamma 90.000000
_cell_volume 3568.314974
_symmetry_space_group_name_H-M "C 2/M"
_symmetry_group_IT_number 12
_symmetry_cell_setting 'monoclinic'
loop_
_space_group_symop_operation_xyz
x,y,z
-x,y,-z
-x,-y,-z
x,-y,z
1/2+x,1/2+y,z
1/2-x,1/2+y,-z
1/2-x,1/2-y,-z
1/2+x,1/2-y,z
loop_
_atom_site_type_symbol
_atom_site_label
_atom_site_fract_x
_atom_site_fract_y
_atom_site_fract_z
Si Si1 0.794518 0.340810 0.192802
Si Si2 0.706782 0.878480 0.679291
Si Si3 0.805117 0.756028 0.373251
Si Si4 0.385721 0.239660 0.022830
Si Si5 0.898720 0.929516 0.046016
Si Si6 0.896875 0.165436 0.133751
Si Si7 0.207323 0.710907 0.519903
O O1 0.753419 0.359471 0.224473
O O2 0.021280 0.331232 0.363412
O O3 0.683068 0.277360 0.087377
O O4 0.732407 0.397461 0.105220
O O5 0.500000 0.910603 0.500000
O O6 0.709430 0.816789 0.645526
O O7 0.875848 0.922699 0.792084
O O8 0.607166 0.785493 0.190692
O O9 0.820889 0.762078 0.453245
O O10 0.000000 0.784286 0.500000
O O11 0.378388 0.285584 0.069265
O O12 0.248611 0.182028 0.929917
O O13 0.853173 0.900813 0.071699
O O14 0.840924 0.000000 0.002591
O O15 0.114628 0.164885 0.329554
O O16 0.250000 0.750000 0.500000
#
# Coordination Sequence:
#
# PCOD8081274 Si02
#       7
#     8   8   8   8   8   8   8
#     4  11  19  29  47  69  96 124 168 209 246 287
#     4  11  19  32  46  65  96 133 167 206 244 281
#     4  10  18  30  45  70  99 128 156 189 249 305
#     4   9  17  28  48  70  90 120 157 200 252 297
#     4  11  23  35  47  64  93 137 183 211 233 273
#     4   9  17  32  47  68  91 122 161 201 252 291
#     4  11  18  28  50  74  95 124 159 199 256 311
#
# _framework density 15.693682000000001
#
# number of rings (size 3 to 8) (size 9 to 14) (size 15 to 20)
#    0.000    1.714    8.571    0.429    2.000    1.429 
#    0.000    2.143    0.000    0.000    0.000    0.000 
#    0.000    0.571    0.000    5.571    1.143    1.714 
#
# Total GULP energy -347008.828526 kJ/mol
# GULP energy per Si atom -12393.172447 kJ/mol
# Density = 1.565796 g / cm^3
# Si number density = 15.693682 Si / 1000 Ang^3
#
#
#
# Elastic Constant Matrix: (Units=GPa)
#
#
# Indices 1 2 3 4 5 6 
#
# 1 74.8553 35.2873 34.4385 -0.0600 -2.2122 0.0009
# 2 35.2873 57.3421 25.6791 -0.0938 -0.9558 -0.0170
# 3 34.4385 25.6791 120.7595 -0.0839 10.8199 -0.0249
# 4 -0.0600 -0.0938 -0.0839 11.9497 -0.0434 2.9193
# 5 -2.2122 -0.9558 10.8199 -0.0434 33.9367 0.0021
# 6 0.0009 -0.0170 -0.0249 2.9193 0.0021 14.2788
#
#
#
# Elastic Compliance Matrix: (Units=1/GPa)
#
#
# Indices 1 2 3 4 5 6 
#
# 1 0.020170 -0.010735 -0.003665 0.000004 0.002181 -0.000022
# 2 -0.010735 0.025108 -0.002345 0.000130 0.000755 0.000000
# 3 -0.003665 -0.002345 0.010142 0.000019 -0.003538 0.000012
# 4 0.000004 0.000130 0.000019 0.088085 0.000112 -0.018009
# 5 0.002181 0.000755 -0.003538 0.000112 0.030758 -0.000033
# 6 -0.000022 0.000000 0.000012 -0.018009 -0.000033 0.073716
#
#
# Mechanical properties :
#
#
# Convention : Reuss Voigt Hill
#
# Bulk Modulus (GPa) = 45.59921 49.30741 47.45331
# Shear Modulus (GPa) = 17.31424 22.53651 19.92538
#
# Velocity S-wave (km/s) = 3.32514 3.79360 3.56707
# Velocity P-wave (km/s) = 6.62276 7.11867 6.87519
#
# Compressibility (1/GPa) = 0.02193020
#
# Stress axis : x y z
#
# Youngs Moduli (GPa) = 49.57834 39.82742 98.60105
#
# Poissons Ratio (x) = 0.42754 0.36136
# Poissons Ratio (y) = 0.53221 0.23126
# Poissons Ratio (z) = 0.18170 0.09341
#
# Static dielectric constant tensor:
#      x y z
#    x 3.231630 -0.000330 0.128900 
#    y -0.000330 2.504600 0.000240 
#    z 0.128900 0.000240 3.536800 
# 
# 
# High freq. dielectric constant tensor:
#      x y z
#    x 1.599700 -0.000010 -0.000440 
#    y -0.000010 1.529620 -0.000020 
#    z -0.000440 -0.000020 1.630200 
# 
# From -- ./inp_files/347805.got.cif
#   From: 2010.06.25/outbox.cif.g09.slc.cpg/sg12_174_cif.got.tgz:347805.got - 2010.06.28 00:19:55.
