data_PCOD8081098
_publ_section_title
;
Structure prediction by ZEFSAII (Michael W. Deem and Ramdas Pophale) SiO2 
 PCOD8081098
Probable space group: C 2/M
;
_chemical_formula_sum "Si O2"
_cell_formula_units_Z 64
_cell_length_a 12.015641
_cell_length_b 23.418739
_cell_length_c 21.703435
_cell_angle_alpha 90.000000
_cell_angle_beta 146.484570
_cell_angle_gamma 90.000000
_cell_volume 3372.135943
_symmetry_space_group_name_H-M "C 2/M"
_symmetry_group_IT_number 12
_symmetry_cell_setting 'monoclinic'
loop_
_space_group_symop_operation_xyz
x,y,z
-x,y,-z
-x,-y,-z
x,-y,z
1/2+x,1/2+y,z
1/2-x,1/2+y,-z
1/2-x,1/2-y,-z
1/2+x,1/2-y,z
loop_
_atom_site_type_symbol
_atom_site_label
_atom_site_fract_x
_atom_site_fract_y
_atom_site_fract_z
Si Si1 0.775323 0.064621 0.748635
Si Si2 0.553899 0.664702 0.095879
Si Si3 0.170168 0.433623 0.448135
Si Si4 0.646038 0.564331 0.837903
Si Si5 0.271956 0.782848 0.829241
Si Si6 0.781767 0.937676 0.369903
Si Si7 0.571723 0.380175 0.677438
Si Si8 0.706260 0.170422 0.030635
O O1 0.846432 0.106382 0.835604
O O2 0.546831 0.077991 0.621199
O O3 0.914361 0.072197 0.752909
O O4 0.788138 0.000000 0.780789
O O5 0.714497 0.715932 0.179840
O O6 0.352328 0.680972 0.040399
O O7 0.500000 0.657778 0.000000
O O8 0.238285 0.500000 0.486895
O O9 0.139582 0.418316 0.361119
O O10 0.337171 0.393284 0.556389
O O11 0.722818 0.500000 0.882828
O O12 0.654356 0.580585 0.770480
O O13 0.788935 0.604320 0.945354
O O14 0.223932 0.790034 0.879699
O O15 0.097757 0.813413 0.708066
O O16 0.480135 0.814541 0.907390
O O17 0.000000 0.942917 0.500000
O O18 0.786531 0.892814 0.316248
O O19 0.714685 0.000000 0.313614
#
# Coordination Sequence:
#
# PCOD8081098 Si02
#       8
#     8   8   8   8   8   8   8   8
#     4   9  20  36  53  78 105 130 168 217 261 303
#     4  11  21  35  59  77  98 137 172 209 263 312
#     4   9  17  32  51  74 108 139 170 211 254 302
#     4   9  17  31  51  75 105 136 167 212 261 297
#     4  10  20  34  52  76 102 134 173 213 249 300
#     4   8  14  26  44  67  98 132 166 205 245 286
#     4  10  18  29  49  76 104 135 175 207 241 304
#     4   9  19  36  51  74 105 130 171 217 253 303
#
# _framework density 18.979068999999999
#
# number of rings (size 3 to 8) (size 9 to 14) (size 15 to 20)
#    0.000    2.625    1.250    2.250    0.000    1.750 
#    0.000    8.750    0.000    0.000    3.250    0.000 
#    0.000    0.000    0.000    0.000    0.000    0.000 
#
# Total GULP energy -396646.534375 kJ/mol
# GULP energy per Si atom -12395.204199 kJ/mol
# Density = 1.893587 g / cm^3
# Si number density = 18.979069 Si / 1000 Ang^3
#
#
#
# Elastic Constant Matrix: (Units=GPa)
#
#
# Indices 1 2 3 4 5 6 
#
# 1 70.3847 22.0736 23.2036 0.0022 -10.3586 0.0001
# 2 22.0736 101.2874 36.9644 -0.0002 -6.1404 -0.0005
# 3 23.2036 36.9644 66.0428 0.0089 -2.9370 0.0015
# 4 0.0022 -0.0002 0.0089 24.6125 0.0024 2.7345
# 5 -10.3586 -6.1404 -2.9370 0.0024 26.4902 0.0000
# 6 0.0001 -0.0005 0.0015 2.7345 0.0000 22.6143
#
#
#
# Elastic Compliance Matrix: (Units=1/GPa)
#
#
# Indices 1 2 3 4 5 6 
#
# 1 0.017174 -0.001612 -0.004873 0.000000 0.005801 0.000000
# 2 -0.001612 0.012678 -0.006458 0.000002 0.001592 0.000000
# 3 -0.004873 -0.006458 0.020418 -0.000007 -0.001139 -0.000001
# 4 0.000000 0.000002 -0.000007 0.041183 -0.000004 -0.004980
# 5 0.005801 0.001592 -0.001139 -0.000004 0.040261 0.000000
# 6 0.000000 0.000000 -0.000001 -0.004980 0.000000 0.044822
#
#
# Mechanical properties :
#
#
# Convention : Reuss Voigt Hill
#
# Bulk Modulus (GPa) = 41.01547 44.68867 42.85207
# Shear Modulus (GPa) = 23.74718 25.10829 24.42773
#
# Velocity S-wave (km/s) = 3.54111 3.64118 3.59149
# Velocity P-wave (km/s) = 6.19492 6.42456 6.31079
#
# Compressibility (1/GPa) = 0.02438105
#
# Stress axis : x y z
#
# Youngs Moduli (GPa) = 58.22855 78.87791 48.97620
#
# Poissons Ratio (x) = 0.12719 0.23868
# Poissons Ratio (y) = 0.09389 0.31631
# Poissons Ratio (z) = 0.28377 0.50943
#
# Static dielectric constant tensor:
#      x y z
#    x 3.916360 0.000000 0.012590 
#    y 0.000000 3.507200 0.000000 
#    z 0.012590 0.000000 3.117920 
# 
# 
# High freq. dielectric constant tensor:
#      x y z
#    x 1.750520 0.000000 -0.001650 
#    y 0.000000 1.726320 0.000000 
#    z -0.001650 0.000000 1.702000 
# 
# From -- ./inp_files/307144.got.cif
#   From: 2010.06.25/outbox.cif.g09.slc.cpg/sg12_154_cif.got.tgz:307144.got - 2010.06.28 00:19:55.
