data_PCOD8081237
_publ_section_title
;
Structure prediction by ZEFSAII (Michael W. Deem and Ramdas Pophale) SiO2 
 PCOD8081237
Probable space group: C 2/M
;
_chemical_formula_sum "Si O2"
_cell_formula_units_Z 52
_cell_length_a 28.442085
_cell_length_b 9.844007
_cell_length_c 11.538895
_cell_angle_alpha 90.000000
_cell_angle_beta 91.519522
_cell_angle_gamma 90.000000
_cell_volume 3229.570860
_symmetry_space_group_name_H-M "C 2/M"
_symmetry_group_IT_number 12
_symmetry_cell_setting 'monoclinic'
loop_
_space_group_symop_operation_xyz
x,y,z
-x,y,-z
-x,-y,-z
x,-y,z
1/2+x,1/2+y,z
1/2-x,1/2+y,-z
1/2-x,1/2-y,-z
1/2+x,1/2-y,z
loop_
_atom_site_type_symbol
_atom_site_label
_atom_site_fract_x
_atom_site_fract_y
_atom_site_fract_z
Si Si1 0.000000 0.757532 0.500000
Si Si2 0.244800 0.339709 0.614544
Si Si3 0.561289 0.651780 0.712131
Si Si4 0.652517 0.349638 0.366798
Si Si5 0.164376 0.845547 0.639428
Si Si6 0.070767 0.650359 0.319838
Si Si7 0.493794 0.155527 0.130201
O O1 0.968901 0.845313 0.408896
O O2 0.963501 0.668747 0.572152
O O3 0.233171 0.500000 0.588365
O O4 0.250000 0.250000 0.500000
O O5 0.295080 0.329876 0.684286
O O6 0.203256 0.265457 0.685004
O O7 0.556458 0.500000 0.760963
O O8 0.615429 0.689676 0.696464
O O9 0.545089 0.755409 0.808698
O O10 0.633641 0.500000 0.337249
O O11 0.656080 0.328168 0.503350
O O12 0.615109 0.247752 0.311989
O O13 0.180957 0.000000 0.668688
O O14 0.091577 0.500000 0.330477
O O15 0.043080 0.671960 0.198791
O O16 0.476283 0.000000 0.131337
O O17 0.500000 0.208214 0.000000
#
# Coordination Sequence:
#
# PCOD8081237 Si02
#       7
#     4   8   8   8   8   8   8
#     4  10  18  30  42  66  98 124 148 182 232 272
#     4   9  17  28  41  60  88 125 157 184 219 266
#     4  10  19  30  48  70  93 122 155 188 227 274
#     4   9  17  29  42  62  94 124 151 183 226 272
#     4   9  17  29  42  64  94 123 152 184 223 270
#     4  10  19  29  46  68  90 120 157 190 224 272
#     4   9  20  37  50  64  91 123 156 195 234 271
#
# _framework density 16.101209999999998
#
# number of rings (size 3 to 8) (size 9 to 14) (size 15 to 20)
#    0.000    2.615    1.538    1.846    0.000    7.077 
#    0.000    0.000    0.000    0.000    0.000    1.077 
#    0.000    0.000    0.000    0.000    0.000    0.000 
#
# Total GULP energy -322179.482435 kJ/mol
# GULP energy per Si atom -12391.518555 kJ/mol
# Density = 1.606456 g / cm^3
# Si number density = 16.101210 Si / 1000 Ang^3
#
#
#
# Elastic Constant Matrix: (Units=GPa)
#
#
# Indices 1 2 3 4 5 6 
#
# 1 112.4077 82.6367 38.7226 0.0000 -6.8188 0.0000
# 2 82.6367 125.9294 36.3794 0.0000 -5.8678 0.0000
# 3 38.7226 36.3794 67.1779 0.0000 -7.1666 0.0000
# 4 0.0000 0.0000 0.0000 14.6716 0.0000 -1.5361
# 5 -6.8188 -5.8678 -7.1666 0.0000 10.1676 0.0000
# 6 0.0000 0.0000 0.0000 -1.5361 0.0000 36.4760
#
#
#
# Elastic Compliance Matrix: (Units=1/GPa)
#
#
# Indices 1 2 3 4 5 6 
#
# 1 0.018506 -0.010686 -0.004557 0.000000 0.003032 0.000000
# 2 -0.010686 0.015622 -0.002274 0.000000 0.000246 0.000000
# 3 -0.004557 -0.002274 0.019764 0.000000 0.009562 0.000000
# 4 0.000000 0.000000 0.000000 0.068461 0.000000 0.002883
# 5 0.003032 0.000246 0.009562 0.000000 0.107268 0.000000
# 6 0.000000 0.000000 0.000000 0.002883 0.000000 0.027537
#
#
# Mechanical properties :
#
#
# Convention : Reuss Voigt Hill
#
# Bulk Modulus (GPa) = 53.02748 68.99916 61.01332
# Shear Modulus (GPa) = 16.75179 22.11478 19.43328
#
# Velocity S-wave (km/s) = 3.22903 3.71008 3.47788
# Velocity P-wave (km/s) = 6.84891 7.82939 7.35550
#
# Compressibility (1/GPa) = 0.01885815
#
# Stress axis : x y z
#
# Youngs Moduli (GPa) = 54.03744 64.01377 50.59732
#
# Poissons Ratio (x) = 0.68405 0.23056
# Poissons Ratio (y) = 0.57745 0.11505
# Poissons Ratio (z) = 0.24623 0.14555
#
# Static dielectric constant tensor:
#      x y z
#    x 4.020350 0.000000 0.040980 
#    y 0.000000 3.227480 0.000000 
#    z 0.040980 0.000000 2.668830 
# 
# 
# High freq. dielectric constant tensor:
#      x y z
#    x 1.628160 0.000000 -0.004660 
#    y 0.000000 1.632020 0.000000 
#    z -0.004660 0.000000 1.560860 
# 
# From -- ./inp_files/179974.got.cif
#   From: 2010.06.25/outbox.cif.g09.slc.cpg/sg12_90_cif.got.tgz:179974.got - 2010.06.28 00:19:55.
