data_PCOD8081285
_publ_section_title
;
Structure prediction by ZEFSAII (Michael W. Deem and Ramdas Pophale) SiO2 
 PCOD8081285
Probable space group: C 2/M
;
_chemical_formula_sum "Si O2"
_cell_formula_units_Z 48
_cell_length_a 25.672205
_cell_length_b 13.097008
_cell_length_c 10.885299
_cell_angle_alpha 90.000000
_cell_angle_beta 60.102034
_cell_angle_gamma 90.000000
_cell_volume 3172.866995
_symmetry_space_group_name_H-M "C 2/M"
_symmetry_group_IT_number 12
_symmetry_cell_setting 'monoclinic'
loop_
_space_group_symop_operation_xyz
x,y,z
-x,y,-z
-x,-y,-z
x,-y,z
1/2+x,1/2+y,z
1/2-x,1/2+y,-z
1/2-x,1/2-y,-z
1/2+x,1/2-y,z
loop_
_atom_site_type_symbol
_atom_site_label
_atom_site_fract_x
_atom_site_fract_y
_atom_site_fract_z
Si Si1 0.721133 0.380834 0.125400
Si Si2 0.075032 0.620429 0.527443
Si Si3 0.304404 0.120046 0.489671
Si Si4 0.162076 0.272659 0.031783
Si Si5 0.556627 0.879404 0.272767
Si Si6 0.226322 0.722594 0.718985
O O1 0.708617 0.500000 0.141155
O O2 0.668461 0.328566 0.107638
O O3 0.721843 0.336794 0.264344
O O4 0.786119 0.354235 0.986805
O O5 0.072022 0.500000 0.538827
O O6 0.131286 0.662089 0.538660
O O7 0.081886 0.651527 0.377107
O O8 0.012043 0.660774 0.658013
O O9 0.251844 0.175359 0.627133
O O10 0.299652 0.145351 0.351769
O O11 0.297254 0.000000 0.520430
O O12 0.096491 0.321415 0.124871
O O13 0.172135 0.246012 0.875559
O O14 0.561078 0.000000 0.244489
#
# Coordination Sequence:
#
# PCOD8081285 Si02
#       6
#     8   8   8   8   8   8
#     4   9  17  29  43  64  91 114 142 185 225 261
#     4   8  16  26  42  66  86 117 149 175 222 268
#     4  10  18  30  46  63  93 122 149 186 215 265
#     4   9  18  28  43  67  86 118 150 175 225 269
#     4   9  15  27  44  64  92 114 142 185 223 264
#     4   9  19  30  41  67  90 118 155 175 225 268
#
# _framework density 15.128273
#
# number of rings (size 3 to 8) (size 9 to 14) (size 15 to 20)
#    1.000    2.000    0.000    3.000    0.000    0.667 
#    0.000    0.833    0.000    3.000    0.000   14.000 
#    0.000    6.667    0.000    0.000    0.000    0.000 
#
# Total GULP energy -297396.228507 kJ/mol
# GULP energy per Si atom -12391.509521 kJ/mol
# Density = 1.509384 g / cm^3
# Si number density = 15.128273 Si / 1000 Ang^3
#
#
#
# Elastic Constant Matrix: (Units=GPa)
#
#
# Indices 1 2 3 4 5 6 
#
# 1 57.6727 26.8954 47.1648 0.0000 1.5313 0.0000
# 2 26.8954 66.0331 28.1393 0.0000 6.7983 0.0000
# 3 47.1648 28.1393 98.9352 0.0000 3.1599 0.0000
# 4 0.0000 0.0000 0.0000 19.1004 0.0000 -0.8185
# 5 1.5313 6.7983 3.1599 0.0000 23.5392 0.0000
# 6 0.0000 0.0000 0.0000 -0.8185 0.0000 20.3073
#
#
#
# Elastic Compliance Matrix: (Units=1/GPa)
#
#
# Indices 1 2 3 4 5 6 
#
# 1 0.031272 -0.007452 -0.012848 0.000000 0.001843 0.000000
# 2 -0.007452 0.019461 -0.001826 0.000000 -0.004891 0.000000
# 3 -0.012848 -0.001826 0.016780 0.000000 -0.000889 0.000000
# 4 0.000000 0.000000 0.000000 0.052446 0.000000 0.002114
# 5 0.001843 -0.004891 -0.000889 0.000000 0.043894 0.000000
# 6 0.000000 0.000000 0.000000 0.002114 0.000000 0.049329
#
#
# Mechanical properties :
#
#
# Convention : Reuss Voigt Hill
#
# Bulk Modulus (GPa) = 42.98954 47.44891 45.21922
# Shear Modulus (GPa) = 18.85456 20.61880 19.73668
#
# Velocity S-wave (km/s) = 3.53415 3.69580 3.61587
# Velocity P-wave (km/s) = 6.71803 7.04587 6.88391
#
# Compressibility (1/GPa) = 0.02326147
#
# Stress axis : x y z
#
# Youngs Moduli (GPa) = 31.97711 51.38493 59.59392
#
# Poissons Ratio (x) = 0.38293 0.76564
# Poissons Ratio (y) = 0.23830 0.10884
# Poissons Ratio (z) = 0.41083 0.09384
#
# Static dielectric constant tensor:
#      x y z
#    x 3.046060 0.000000 0.045880 
#    y 0.000000 2.594710 0.000000 
#    z 0.045880 0.000000 2.827870 
# 
# 
# High freq. dielectric constant tensor:
#      x y z
#    x 1.562240 0.000000 0.007060 
#    y 0.000000 1.552880 0.000000 
#    z 0.007060 0.000000 1.574580 
# 
# From -- ./inp_files/173763.got.cif
#   From: 2010.06.25/outbox.cif.g09.slc.cpg/sg12_87_cif.got.tgz:173763.got - 2010.06.28 00:19:55.
