data_PCOD8081794
_publ_section_title
;
Structure prediction by ZEFSAII (Michael W. Deem and Ramdas Pophale) SiO2 
 PCOD8081794
Probable space group: C 2/M
;
_chemical_formula_sum "Si O2"
_cell_formula_units_Z 56
_cell_length_a 30.443788
_cell_length_b 9.556756
_cell_length_c 14.560798
_cell_angle_alpha 90.000000
_cell_angle_beta 133.689891
_cell_angle_gamma 90.000000
_cell_volume 3063.276063
_symmetry_space_group_name_H-M "C 2/M"
_symmetry_group_IT_number 12
_symmetry_cell_setting 'monoclinic'
loop_
_space_group_symop_operation_xyz
x,y,z
-x,y,-z
-x,-y,-z
x,-y,z
1/2+x,1/2+y,z
1/2-x,1/2+y,-z
1/2-x,1/2-y,-z
1/2+x,1/2-y,z
loop_
_atom_site_type_symbol
_atom_site_label
_atom_site_fract_x
_atom_site_fract_y
_atom_site_fract_z
Si Si1 0.908553 0.165532 0.617662
Si Si2 0.938674 0.165572 0.862311
Si Si3 0.170633 0.836770 0.814440
Si Si4 0.273808 0.659424 0.451814
Si Si5 0.808379 0.661862 0.983161
Si Si6 0.158357 0.658293 0.170113
Si Si7 0.441842 0.666483 0.469693
O O1 0.941118 0.214460 0.759150
O O2 0.839089 0.218500 0.515448
O O3 0.942031 0.225406 0.574989
O O4 0.909511 0.000000 0.613041
O O5 0.882097 0.235893 0.830597
O O6 0.929539 0.000000 0.857129
O O7 0.000000 0.215855 0.000000
O O8 0.159821 0.754913 0.893569
O O9 0.120197 0.785249 0.669249
O O10 0.162940 0.000000 0.825115
O O11 0.236966 0.801499 0.869786
O O12 0.279992 0.500000 0.495469
O O13 0.250000 0.750000 0.500000
O O14 0.228424 0.670970 0.300907
O O15 0.815928 0.500000 0.020699
O O16 0.843281 0.697326 0.939438
O O17 0.134830 0.500000 0.152595
O O18 0.500000 0.729177 0.500000
O O19 0.445533 0.500000 0.476160
#
# Coordination Sequence:
#
# PCOD8081794 Si02
#       7
#     8   8   8   8   8   8   8
#     4   9  17  31  49  71 102 135 163 205 259 299
#     4  10  21  35  51  73 103 136 168 206 252 301
#     4   9  17  31  51  75  99 128 169 213 252 295
#     4  10  18  30  51  75 100 131 167 207 250 297
#     4   9  18  32  50  73 103 134 163 203 257 306
#     4  10  20  33  51  75 101 133 172 208 249 307
#     4   9  17  29  49  75 100 129 169 210 249 297
#
# _framework density 18.281081
#
# number of rings (size 3 to 8) (size 9 to 14) (size 15 to 20)
#    0.000    2.571    1.429    0.857    0.000    5.429 
#    0.000    2.857    0.000    3.857    0.000    0.000 
#    0.000    0.000    0.000    0.000    0.000    0.000 
#
# Total GULP energy -347136.769634 kJ/mol
# GULP energy per Si atom -12397.741773 kJ/mol
# Density = 1.823947 g / cm^3
# Si number density = 18.281081 Si / 1000 Ang^3
#
#
#
# Elastic Constant Matrix: (Units=GPa)
#
#
# Indices 1 2 3 4 5 6 
#
# 1 126.8780 25.3391 66.7142 0.0000 -19.5840 0.0000
# 2 25.3391 29.6126 26.3060 0.0000 -8.6595 0.0000
# 3 66.7142 26.3060 132.5095 0.0000 -13.1601 0.0000
# 4 0.0000 0.0000 0.0000 18.9350 0.0000 -0.4849
# 5 -19.5840 -8.6595 -13.1601 0.0000 33.0762 0.0000
# 6 0.0000 0.0000 0.0000 -0.4849 0.0000 21.5725
#
#
#
# Elastic Compliance Matrix: (Units=1/GPa)
#
#
# Indices 1 2 3 4 5 6 
#
# 1 0.011903 -0.004931 -0.004625 0.000000 0.003916 0.000000
# 2 -0.004931 0.045074 -0.005813 0.000000 0.006568 0.000000
# 3 -0.004625 -0.005813 0.011042 0.000000 0.000133 0.000000
# 4 0.000000 0.000000 0.000000 0.052843 0.000000 0.001188
# 5 0.003916 0.006568 0.000133 0.000000 0.034325 0.000000
# 6 0.000000 0.000000 0.000000 0.001188 0.000000 0.046382
#
#
# Mechanical properties :
#
#
# Convention : Reuss Voigt Hill
#
# Bulk Modulus (GPa) = 26.82376 58.41319 42.61848
# Shear Modulus (GPa) = 20.43043 26.09279 23.26161
#
# Velocity S-wave (km/s) = 3.34664 3.78208 3.57100
# Velocity P-wave (km/s) = 5.44409 7.14803 6.35344
#
# Compressibility (1/GPa) = 0.03728038
#
# Stress axis : x y z
#
# Youngs Moduli (GPa) = 84.01473 22.18589 90.56137
#
# Poissons Ratio (x) = 0.10941 0.41882
# Poissons Ratio (y) = 0.41432 0.52643
# Poissons Ratio (z) = 0.38854 0.12897
#
# Static dielectric constant tensor:
#      x y z
#    x 3.554490 0.000000 0.018820 
#    y 0.000000 3.045470 0.000000 
#    z 0.018820 0.000000 3.867760 
# 
# 
# High freq. dielectric constant tensor:
#      x y z
#    x 1.708580 0.000000 -0.008110 
#    y 0.000000 1.668380 0.000000 
#    z -0.008110 0.000000 1.717240 
# 
# From -- ./inp_files/182591.got.cif
#   From: 2010.06.25/outbox.cif.g09.slc.cpg/sg12_92_cif.got.tgz:182591.got - 2010.06.28 00:19:55.
