data_PCOD8081877
_publ_section_title
;
Structure prediction by ZEFSAII (Michael W. Deem and Ramdas Pophale) SiO2 
 PCOD8081877
Probable space group: C 2/M
;
_chemical_formula_sum "Si O2"
_cell_formula_units_Z 40
_cell_length_a 20.616757
_cell_length_b 8.591200
_cell_length_c 30.585941
_cell_angle_alpha 90.000000
_cell_angle_beta 23.943186
_cell_angle_gamma 90.000000
_cell_volume 2198.572524
_symmetry_space_group_name_H-M "C 2/M"
_symmetry_group_IT_number 12
_symmetry_cell_setting 'monoclinic'
loop_
_space_group_symop_operation_xyz
x,y,z
-x,y,-z
-x,-y,-z
x,-y,z
1/2+x,1/2+y,z
1/2-x,1/2+y,-z
1/2-x,1/2-y,-z
1/2+x,1/2-y,z
loop_
_atom_site_type_symbol
_atom_site_label
_atom_site_fract_x
_atom_site_fract_y
_atom_site_fract_z
Si Si1 0.308022 0.319485 0.508695
Si Si2 0.460833 0.316959 0.073237
Si Si3 0.871891 0.182503 0.724367
Si Si4 0.992362 0.316880 0.740545
Si Si5 0.756188 0.682759 0.044258
O O1 0.280759 0.500000 0.521260
O O2 0.250000 0.250000 0.500000
O O3 0.497695 0.280009 0.395016
O O4 0.182285 0.265741 0.623848
O O5 0.436093 0.500000 0.091292
O O6 0.298912 0.233572 0.188985
O O7 0.500000 0.262357 0.000000
O O8 0.602005 0.266476 0.017663
O O9 0.910604 0.277415 0.744508
O O10 0.873455 0.000000 0.734858
O O11 0.967549 0.500000 0.764762
O O12 0.911298 0.219542 0.829020
O O13 0.787295 0.500000 0.024033
O O14 0.750000 0.750000 0.000000
#
# Coordination Sequence:
#
# PCOD8081877 Si02
#       5
#     8   8   8   8   8
#     4   8  16  28  46  74 108 141 175 218 267 318
#     4  11  22  36  56  81 112 146 182 226 276 323
#     4  10  18  30  51  81 111 142 181 223 270 319
#     4  10  18  32  52  77 110 145 180 222 270 319
#     4  12  25  40  58  80 109 145 185 226 273 329
#
# _framework density 18.193624
#
# number of rings (size 3 to 8) (size 9 to 14) (size 15 to 20)
#    0.000    1.800    2.000    3.600    0.000    2.400 
#    0.000    0.000    0.000    1.200    0.000    8.400 
#    0.000    0.000    0.000    0.000    0.000    0.000 
#
# Total GULP energy -247817.424884 kJ/mol
# GULP energy per Si atom -12390.871244 kJ/mol
# Density = 1.815221 g / cm^3
# Si number density = 18.193624 Si / 1000 Ang^3
#
#
#
# Elastic Constant Matrix: (Units=GPa)
#
#
# Indices 1 2 3 4 5 6 
#
# 1 72.7912 5.0465 43.6522 0.0000 1.2721 -0.0100
# 2 5.0465 23.1633 20.4535 0.0040 -4.0525 0.0447
# 3 43.6522 20.4535 168.2106 -0.0183 -9.6251 0.0252
# 4 0.0000 0.0040 -0.0183 29.8737 0.0054 -0.6618
# 5 1.2721 -4.0525 -9.6251 0.0054 20.4041 0.0129
# 6 -0.0100 0.0447 0.0252 -0.6618 0.0129 23.9161
#
#
#
# Elastic Compliance Matrix: (Units=1/GPa)
#
#
# Indices 1 2 3 4 5 6 
#
# 1 0.016463 -0.000232 -0.004425 -0.000002 -0.003160 0.000014
# 2 -0.000232 0.049367 -0.005530 -0.000013 0.007211 -0.000091
# 3 -0.004425 -0.005530 0.007933 0.000005 0.002920 -0.000001
# 4 -0.000002 -0.000013 0.000005 0.033495 -0.000010 0.000927
# 5 -0.003160 0.007211 0.002920 -0.000010 0.052016 -0.000046
# 6 0.000014 -0.000091 -0.000001 0.000927 -0.000046 0.041839
#
#
# Mechanical properties :
#
#
# Convention : Reuss Voigt Hill
#
# Bulk Modulus (GPa) = 18.73067 44.71883 31.72475
# Shear Modulus (GPa) = 20.89583 27.83965 24.36774
#
# Velocity S-wave (km/s) = 3.39267 3.91600 3.66369
# Velocity P-wave (km/s) = 5.06601 6.71413 5.94744
#
# Compressibility (1/GPa) = 0.05338838
#
# Stress axis : x y z
#
# Youngs Moduli (GPa) = 60.74314 20.25647 126.06116
#
# Poissons Ratio (x) = 0.00471 0.55779
# Poissons Ratio (y) = 0.01412 0.69709
# Poissons Ratio (z) = 0.26878 0.11201
#
# Static dielectric constant tensor:
#      x y z
#    x 2.737060 0.000080 -0.242100 
#    y 0.000080 3.419900 0.000100 
#    z -0.242100 0.000100 4.218830 
# 
# 
# High freq. dielectric constant tensor:
#      x y z
#    x 1.643260 0.000000 -0.010810 
#    y 0.000000 1.718590 0.000000 
#    z -0.010810 0.000000 1.737600 
# 
# From -- ./inp_files/221214.got.cif
#   From: 2010.06.25/outbox.cif.g09.slc.cpg/sg12_111_cif.got.tgz:221214.got - 2010.06.28 00:19:55.
