data_PCOD8081302
_publ_section_title
;
Structure prediction by ZEFSAII (Michael W. Deem and Ramdas Pophale) SiO2 
 PCOD8081302
Probable space group: C 2/M
;
_chemical_formula_sum "Si O2"
_cell_formula_units_Z 64
_cell_length_a 23.899002
_cell_length_b 8.730265
_cell_length_c 17.284334
_cell_angle_alpha 90.000000
_cell_angle_beta 85.750755
_cell_angle_gamma 90.000000
_cell_volume 3596.370221
_symmetry_space_group_name_H-M "C 2/M"
_symmetry_group_IT_number 12
_symmetry_cell_setting 'monoclinic'
loop_
_space_group_symop_operation_xyz
x,y,z
-x,y,-z
-x,-y,-z
x,-y,z
1/2+x,1/2+y,z
1/2-x,1/2+y,-z
1/2-x,1/2-y,-z
1/2+x,1/2-y,z
loop_
_atom_site_type_symbol
_atom_site_label
_atom_site_fract_x
_atom_site_fract_y
_atom_site_fract_z
Si Si1 0.691884 0.680753 0.033804
Si Si2 0.297343 0.178450 0.239904
Si Si3 0.625153 0.180053 0.908169
Si Si4 0.397661 0.820808 0.324894
Si Si5 0.060247 0.180558 0.272163
Si Si6 0.321662 0.682404 0.789527
Si Si7 0.981526 0.181587 0.417173
Si Si8 0.537418 0.677361 0.820540
O O1 0.696781 0.500000 0.029002
O O2 0.679564 0.737168 0.121759
O O3 0.750000 0.750000 0.000000
O O4 0.640609 0.737689 0.986271
O O5 0.332939 0.242010 0.163301
O O6 0.330716 0.208609 0.317490
O O7 0.234340 0.248095 0.247796
O O8 0.290656 0.000000 0.224915
O O9 0.561377 0.224848 0.890204
O O10 0.629327 0.000000 0.919397
O O11 0.421154 0.763041 0.405241
O O12 0.428578 0.715221 0.260088
O O13 0.410996 0.000000 0.309887
O O14 0.122893 0.251017 0.258216
O O15 0.028217 0.244516 0.351522
O O16 0.026984 0.218349 0.195282
O O17 0.063531 0.000000 0.282618
O O18 0.324509 0.500000 0.785127
O O19 0.000000 0.234798 0.500000
O O20 0.973361 0.000000 0.413311
O O21 0.544309 0.500000 0.840837
#
# Coordination Sequence:
#
# PCOD8081302 Si02
#       8
#     8   8   8   8   8   8   8   8
#     4  11  20  30  46  67  92 121 156 200 243 280
#     4   8  14  25  42  65  89 114 150 191 225 260
#     4  10  18  30  46  66  91 121 158 200 239 280
#     4   9  16  26  44  70  96 121 150 187 230 278
#     4   8  15  28  47  69  92 118 154 192 229 276
#     4   9  16  28  46  67  90 120 156 195 232 275
#     4   9  17  30  49  73  97 119 149 192 233 271
#     4   9  16  28  46  69  92 119 156 198 237 274
#
# _framework density 17.795719999999999
#
# number of rings (size 3 to 8) (size 9 to 14) (size 15 to 20)
#    0.000    2.875    1.250    3.000    0.000    0.250 
#    0.000    0.625    0.000   12.000    0.000    0.000 
#    0.000    0.000    0.000    0.000    0.000    0.500 
#
# Total GULP energy -396442.636462 kJ/mol
# GULP energy per Si atom -12388.832389 kJ/mol
# Density = 1.775522 g / cm^3
# Si number density = 17.795720 Si / 1000 Ang^3
#
#
#
# Elastic Constant Matrix: (Units=GPa)
#
#
# Indices 1 2 3 4 5 6 
#
# 1 149.5271 24.5076 66.5882 0.0000 24.2199 0.0000
# 2 24.5076 30.4036 17.7927 0.0000 5.9882 0.0000
# 3 66.5882 17.7927 86.7896 0.0000 22.8348 0.0000
# 4 0.0000 0.0000 0.0000 16.9225 0.0000 7.8781
# 5 24.2199 5.9882 22.8348 0.0000 31.6475 0.0000
# 6 0.0000 0.0000 0.0000 7.8781 0.0000 21.5301
#
#
#
# Elastic Compliance Matrix: (Units=1/GPa)
#
#
# Indices 1 2 3 4 5 6 
#
# 1 0.010806 -0.004257 -0.006732 0.000000 -0.002607 0.000000
# 2 -0.004257 0.039145 -0.004527 0.000000 -0.000883 0.000000
# 3 -0.006732 -0.004527 0.019791 0.000000 -0.008272 0.000000
# 4 0.000000 0.000000 0.000000 0.071226 0.000000 -0.026062
# 5 -0.002607 -0.000883 -0.008272 0.000000 0.039728 0.000000
# 6 0.000000 0.000000 0.000000 -0.026062 0.000000 0.055983
#
#
# Mechanical properties :
#
#
# Convention : Reuss Voigt Hill
#
# Bulk Modulus (GPa) = 25.83245 53.83305 39.83275
# Shear Modulus (GPa) = 17.81805 24.54215 21.18010
#
# Velocity S-wave (km/s) = 3.16769 3.71766 3.45364
# Velocity P-wave (km/s) = 5.28457 6.98171 6.19156
#
# Compressibility (1/GPa) = 0.03871100
#
# Stress axis : x y z
#
# Youngs Moduli (GPa) = 92.54477 25.54586 50.52694
#
# Poissons Ratio (x) = 0.10875 0.34014
# Poissons Ratio (y) = 0.39397 0.22872
# Poissons Ratio (z) = 0.62300 0.11564
#
# Static dielectric constant tensor:
#      x y z
#    x 3.893960 0.000000 0.304490 
#    y 0.000000 3.034040 0.000000 
#    z 0.304490 0.000000 3.196370 
# 
# 
# High freq. dielectric constant tensor:
#      x y z
#    x 1.697460 0.000000 0.031810 
#    y 0.000000 1.661260 0.000000 
#    z 0.031810 0.000000 1.648790 
# 
# From -- ./inp_files/287524.got.cif
#   From: 2010.06.25/outbox.cif.g09.slc.cpg/sg12_144_cif.got.tgz:287524.got - 2010.06.28 00:19:55.
