data_PCOD8081368
_publ_section_title
;
Structure prediction by ZEFSAII (Michael W. Deem and Ramdas Pophale) SiO2 
 PCOD8081368
Probable space group: C 2/M
;
_chemical_formula_sum "Si O2"
_cell_formula_units_Z 56
_cell_length_a 24.604352
_cell_length_b 16.768722
_cell_length_c 10.198655
_cell_angle_alpha 90.000000
_cell_angle_beta 134.584180
_cell_angle_gamma 90.000000
_cell_volume 2996.876842
_symmetry_space_group_name_H-M "C 2/M"
_symmetry_group_IT_number 12
_symmetry_cell_setting 'monoclinic'
loop_
_space_group_symop_operation_xyz
x,y,z
-x,y,-z
-x,-y,-z
x,-y,z
1/2+x,1/2+y,z
1/2-x,1/2+y,-z
1/2-x,1/2-y,-z
1/2+x,1/2-y,z
loop_
_atom_site_type_symbol
_atom_site_label
_atom_site_fract_x
_atom_site_fract_y
_atom_site_fract_z
Si Si1 0.344343 0.160237 0.059724
Si Si2 0.956850 0.845389 0.560569
Si Si3 0.313898 0.340761 0.934560
Si Si4 0.010309 0.335915 0.365044
Si Si5 0.540923 0.408981 0.939767
Si Si6 0.191029 0.910002 0.789372
Si Si7 0.160271 0.405464 0.660258
O O1 0.430807 0.141561 0.154180
O O2 0.347276 0.145851 0.219887
O O3 0.316754 0.249600 0.984608
O O4 0.278279 0.104219 0.887338
O O5 0.975854 0.756581 0.637990
O O6 0.866207 0.853342 0.387606
O O7 0.000000 0.868484 0.500000
O O8 0.984041 0.904382 0.720247
O O9 0.237014 0.367989 0.725565
O O10 0.383933 0.356763 0.956875
O O11 0.317875 0.395245 0.070892
O O12 0.084372 0.387148 0.443397
O O13 0.000000 0.355174 0.500000
O O14 0.565438 0.500000 0.003908
O O15 0.500000 0.374614 0.000000
O O16 0.167894 0.000000 0.719526
O O17 0.167754 0.500000 0.697995
#
# Coordination Sequence:
#
# PCOD8081368 Si02
#       7
#     8   8   8   8   8   8   8
#     4  10  18  30  47  71 104 145 177 214 260 314
#     4  11  19  34  54  79 107 141 178 215 265 325
#     4  11  18  33  50  73 106 143 181 212 264 325
#     4   9  17  30  47  73 104 145 176 211 261 316
#     4  11  23  36  53  79 111 143 176 221 270 317
#     4  11  20  28  48  79 109 137 172 216 262 313
#     4  10  19  28  47  77 113 145 175 221 271 316
#
# _framework density 18.686119999999999
#
# number of rings (size 3 to 8) (size 9 to 14) (size 15 to 20)
#    0.000    1.571    2.857    7.286    0.000    3.714 
#    0.000    0.000    0.000    3.429    0.000    0.000 
#    0.000    4.000    0.000    0.000    0.000    0.000 
#
# Total GULP energy -346975.714343 kJ/mol
# GULP energy per Si atom -12391.989798 kJ/mol
# Density = 1.864359 g / cm^3
# Si number density = 18.686120 Si / 1000 Ang^3
#
#
#
# Elastic Constant Matrix: (Units=GPa)
#
#
# Indices 1 2 3 4 5 6 
#
# 1 77.9508 40.4817 50.6601 0.0000 24.1922 0.0000
# 2 40.4817 61.4449 19.5617 0.0000 4.8901 0.0000
# 3 50.6601 19.5617 99.1503 0.0000 45.8375 0.0000
# 4 0.0000 0.0000 0.0000 18.9502 0.0000 10.0098
# 5 24.1922 4.8901 45.8375 0.0000 38.9446 0.0000
# 6 0.0000 0.0000 0.0000 10.0098 0.0000 17.6345
#
#
#
# Elastic Compliance Matrix: (Units=1/GPa)
#
#
# Indices 1 2 3 4 5 6 
#
# 1 0.028232 -0.015293 -0.009186 0.000000 -0.004805 0.000000
# 2 -0.015293 0.025948 -0.000419 0.000000 0.006735 0.000000
# 3 -0.009186 -0.000419 0.026761 0.000000 -0.025738 0.000000
# 4 0.000000 0.000000 0.000000 0.075367 0.000000 -0.042780
# 5 -0.004805 0.006735 -0.025738 0.000000 0.058111 0.000000
# 6 0.000000 0.000000 0.000000 -0.042780 0.000000 0.080990
#
#
# Mechanical properties :
#
#
# Convention : Reuss Voigt Hill
#
# Bulk Modulus (GPa) = 32.10917 51.10589 41.60753
# Shear Modulus (GPa) = 14.06126 23.62870 18.84498
#
# Velocity S-wave (km/s) = 2.74614 3.55985 3.17914
# Velocity P-wave (km/s) = 5.22263 6.65625 5.98254
#
# Compressibility (1/GPa) = 0.03114375
#
# Stress axis : x y z
#
# Youngs Moduli (GPa) = 35.42045 38.53894 37.36787
#
# Poissons Ratio (x) = 0.58939 0.34327
# Poissons Ratio (y) = 0.54169 0.01566
# Poissons Ratio (z) = 0.32538 0.01615
#
# Static dielectric constant tensor:
#      x y z
#    x 3.352040 0.000000 0.782960 
#    y 0.000000 3.465250 0.000000 
#    z 0.782960 0.000000 3.842610 
# 
# 
# High freq. dielectric constant tensor:
#      x y z
#    x 1.674520 0.000000 0.061980 
#    y 0.000000 1.728150 0.000000 
#    z 0.061980 0.000000 1.718230 
# 
# From -- ./inp_files/156134.got.cif
#   From: 2010.06.25/outbox.cif.g09.slc.cpg/sg12_79_cif.got.tgz:156134.got - 2010.06.28 00:19:55.
