data_PCOD8081269
_publ_section_title
;
Structure prediction by ZEFSAII (Michael W. Deem and Ramdas Pophale) SiO2 
 PCOD8081269
Probable space group: C 2/M
;
_chemical_formula_sum "Si O2"
_cell_formula_units_Z 64
_cell_length_a 25.316379
_cell_length_b 8.959193
_cell_length_c 21.281844
_cell_angle_alpha 90.000000
_cell_angle_beta 127.304048
_cell_angle_gamma 90.000000
_cell_volume 3839.565371
_symmetry_space_group_name_H-M "C 2/M"
_symmetry_group_IT_number 12
_symmetry_cell_setting 'monoclinic'
loop_
_space_group_symop_operation_xyz
x,y,z
-x,y,-z
-x,-y,-z
x,-y,z
1/2+x,1/2+y,z
1/2-x,1/2+y,-z
1/2-x,1/2-y,-z
1/2+x,1/2-y,z
loop_
_atom_site_type_symbol
_atom_site_label
_atom_site_fract_x
_atom_site_fract_y
_atom_site_fract_z
Si Si1 0.498479 0.825533 0.816699
Si Si2 0.151024 0.326400 0.919791
Si Si3 0.105365 0.176744 0.339033
Si Si4 0.223202 0.173993 0.335277
Si Si5 0.558282 0.174241 0.089557
Si Si6 0.747150 0.325718 0.899128
Si Si7 0.310192 0.824813 0.507220
Si Si8 0.196439 0.177143 0.178676
O O1 0.575236 0.779720 0.875684
O O2 0.465629 0.734815 0.735821
O O3 0.463880 0.779202 0.856753
O O4 0.490250 0.000000 0.797585
O O5 0.159014 0.500000 0.909123
O O6 0.179819 0.232071 0.882735
O O7 0.189957 0.286886 0.011671
O O8 0.161286 0.238371 0.330857
O O9 0.121786 0.247303 0.419828
O O10 0.104422 0.000000 0.345095
O O11 0.293920 0.204473 0.421369
O O12 0.223325 0.240413 0.265127
O O13 0.209370 0.000000 0.320022
O O14 0.621537 0.268779 0.114250
O O15 0.576183 0.000000 0.097900
O O16 0.500000 0.215998 0.000000
O O17 0.740718 0.500000 0.881859
O O18 0.755412 0.243465 0.839078
O O19 0.250000 0.750000 0.500000
O O20 0.312635 0.000000 0.523563
O O21 0.198888 0.000000 0.176387
#
# Coordination Sequence:
#
# PCOD8081269 Si02
#       8
#     8   8   8   8   8   8   8   8
#     4  10  19  31  49  71  96 129 164 200 244 291
#     4   9  19  36  54  71  94 125 165 209 250 291
#     4  10  18  30  45  67  99 130 162 200 238 285
#     4   8  16  29  44  65  96 128 158 197 234 278
#     4  10  20  33  47  67  98 132 163 198 241 289
#     4  10  20  35  53  73  96 124 163 210 252 289
#     4   9  16  28  45  66  93 127 163 197 238 284
#     4  11  20  32  49  71  99 131 164 198 240 288
#
# _framework density 16.668554
#
# number of rings (size 3 to 8) (size 9 to 14) (size 15 to 20)
#    0.000    2.375    1.250    3.000    0.000    3.250 
#    0.000    3.125    0.000    0.000    0.000    0.875 
#    0.000    7.000    0.000    0.000    0.000    0.000 
#
# Total GULP energy -396726.222742 kJ/mol
# GULP energy per Si atom -12397.694461 kJ/mol
# Density = 1.663062 g / cm^3
# Si number density = 16.668554 Si / 1000 Ang^3
#
#
#
# Elastic Constant Matrix: (Units=GPa)
#
#
# Indices 1 2 3 4 5 6 
#
# 1 50.6522 22.2021 15.6465 0.0000 -9.7688 0.0000
# 2 22.2021 60.5657 32.2895 0.0000 -5.3902 0.0000
# 3 15.6465 32.2895 93.6471 0.0000 -8.5898 0.0000
# 4 0.0000 0.0000 0.0000 25.8758 0.0000 1.4542
# 5 -9.7688 -5.3902 -8.5898 0.0000 19.1811 0.0000
# 6 0.0000 0.0000 0.0000 1.4542 0.0000 24.9327
#
#
#
# Elastic Compliance Matrix: (Units=1/GPa)
#
#
# Indices 1 2 3 4 5 6 
#
# 1 0.025485 -0.008151 -0.000487 0.000000 0.010471 0.000000
# 2 -0.008151 0.022968 -0.006618 0.000000 -0.000660 0.000000
# 3 -0.000487 -0.006618 0.013399 0.000000 0.003892 0.000000
# 4 0.000000 0.000000 0.000000 0.038773 0.000000 -0.002261
# 5 0.010471 -0.000660 0.003892 0.000000 0.059025 0.000000
# 6 0.000000 0.000000 0.000000 -0.002261 0.000000 0.040240
#
#
# Mechanical properties :
#
#
# Convention : Reuss Voigt Hill
#
# Bulk Modulus (GPa) = 31.90817 38.34902 35.12859
# Shear Modulus (GPa) = 20.75989 22.97973 21.86981
#
# Velocity S-wave (km/s) = 3.53293 3.71702 3.62614
# Velocity P-wave (km/s) = 5.98551 6.44037 6.21710
#
# Compressibility (1/GPa) = 0.03133994
#
# Stress axis : x y z
#
# Youngs Moduli (GPa) = 39.23884 43.53792 74.63352
#
# Poissons Ratio (x) = 0.35486 0.03637
# Poissons Ratio (y) = 0.31982 0.49395
# Poissons Ratio (z) = 0.01912 0.28815
#
# Static dielectric constant tensor:
#      x y z
#    x 2.878820 0.000000 -0.104690 
#    y 0.000000 3.086610 0.000000 
#    z -0.104690 0.000000 3.510430 
# 
# 
# High freq. dielectric constant tensor:
#      x y z
#    x 1.602490 0.000000 -0.002640 
#    y 0.000000 1.641700 0.000000 
#    z -0.002640 0.000000 1.650970 
# 
# From -- ./inp_files/326930.got.cif
#   From: 2010.06.25/outbox.cif.g09.slc.cpg/sg12_164_cif.got.tgz:326930.got - 2010.06.28 00:19:55.
