data_PCOD8081078
_publ_section_title
;
Structure prediction by ZEFSAII (Michael W. Deem and Ramdas Pophale) SiO2 
 PCOD8081078
Probable space group: C 2/M
;
_chemical_formula_sum "Si O2"
_cell_formula_units_Z 56
_cell_length_a 18.163409
_cell_length_b 8.988410
_cell_length_c 29.147635
_cell_angle_alpha 90.000000
_cell_angle_beta 38.641646
_cell_angle_gamma 90.000000
_cell_volume 2971.525639
_symmetry_space_group_name_H-M "C 2/M"
_symmetry_group_IT_number 12
_symmetry_cell_setting 'monoclinic'
loop_
_space_group_symop_operation_xyz
x,y,z
-x,y,-z
-x,-y,-z
x,-y,z
1/2+x,1/2+y,z
1/2-x,1/2+y,-z
1/2-x,1/2-y,-z
1/2+x,1/2-y,z
loop_
_atom_site_type_symbol
_atom_site_label
_atom_site_fract_x
_atom_site_fract_y
_atom_site_fract_z
Si Si1 0.235632 0.175508 0.650644
Si Si2 0.960746 0.672243 0.071018
Si Si3 0.376500 0.323380 0.934813
Si Si4 0.693978 0.323428 0.208310
Si Si5 0.389812 0.323936 0.652478
Si Si6 0.596404 0.335520 0.492807
Si Si7 0.970913 0.176532 0.791249
O O1 0.296257 0.244578 0.665523
O O2 0.297962 0.225668 0.572722
O O3 0.101471 0.232638 0.715127
O O4 0.244481 0.000000 0.650133
O O5 0.971192 0.500000 0.080897
O O6 0.827980 0.733582 0.140964
O O7 0.043475 0.771670 0.062226
O O8 0.000000 0.693863 0.000000
O O9 0.362620 0.500000 0.942688
O O10 0.435780 0.267325 0.858775
O O11 0.250000 0.250000 0.000000
O O12 0.693349 0.500000 0.205576
O O13 0.632675 0.268881 0.285003
O O14 0.620436 0.256299 0.201485
O O15 0.370927 0.500000 0.655949
O O16 0.525117 0.281350 0.572913
O O17 0.500000 0.340176 0.500000
O O18 0.650097 0.500000 0.474266
O O19 0.966596 0.000000 0.791625
#
# Coordination Sequence:
#
# PCOD8081078 Si02
#       7
#     8   8   8   8   8   8   8
#     4  10  18  29  49  74  99 128 162 203 252 302
#     4  10  20  35  57  82 106 135 172 213 256 303
#     4  11  22  37  57  80 108 138 170 210 254 302
#     4   9  17  32  53  73  97 133 174 208 244 300
#     4   9  17  30  50  72  94 127 169 209 247 293
#     4   8  15  28  45  68  97 127 163 205 247 293
#     4   9  19  34  51  74 103 134 167 206 252 299
#
# _framework density 18.845537
#
# number of rings (size 3 to 8) (size 9 to 14) (size 15 to 20)
#    0.000    2.571    0.000    3.429    0.000    5.143 
#    0.000    2.857    0.000    5.143    0.000    0.000 
#    0.000    0.000    0.000    0.000    0.000    0.000 
#
# Total GULP energy -347140.720647 kJ/mol
# GULP energy per Si atom -12397.882880 kJ/mol
# Density = 1.880264 g / cm^3
# Si number density = 18.845537 Si / 1000 Ang^3
#
#
#
# Elastic Constant Matrix: (Units=GPa)
#
#
# Indices 1 2 3 4 5 6 
#
# 1 114.0875 37.0148 69.3858 -0.0001 -6.9412 -0.0017
# 2 37.0148 50.4378 42.7334 -0.0004 -3.9767 -0.0032
# 3 69.3858 42.7334 174.9566 0.0000 -4.2464 0.0000
# 4 -0.0001 -0.0004 0.0000 22.8255 0.0001 -4.1947
# 5 -6.9412 -3.9767 -4.2464 0.0001 31.0584 -0.0004
# 6 -0.0017 -0.0032 0.0000 -4.1947 -0.0004 17.9379
#
#
#
# Elastic Compliance Matrix: (Units=1/GPa)
#
#
# Indices 1 2 3 4 5 6 
#
# 1 0.013151 -0.006479 -0.003594 0.000000 0.001618 0.000000
# 2 -0.006479 0.028367 -0.004321 0.000001 0.001593 0.000005
# 3 -0.003594 -0.004321 0.008191 0.000000 -0.000237 -0.000001
# 4 0.000000 0.000001 0.000000 0.045778 0.000000 0.010705
# 5 0.001618 0.001593 -0.000237 0.000000 0.032731 0.000001
# 6 0.000000 0.000005 -0.000001 0.010705 0.000001 0.058251
#
#
# Mechanical properties :
#
#
# Convention : Reuss Voigt Hill
#
# Bulk Modulus (GPa) = 47.79556 70.86111 59.32834
# Shear Modulus (GPa) = 22.49918 27.05424 24.77671
#
# Velocity S-wave (km/s) = 3.45900 3.79301 3.62985
# Velocity P-wave (km/s) = 6.43193 7.54090 7.00838
#
# Compressibility (1/GPa) = 0.02092244
#
# Stress axis : x y z
#
# Youngs Moduli (GPa) = 76.03716 35.25176 122.09106
#
# Poissons Ratio (x) = 0.22839 0.43879
# Poissons Ratio (y) = 0.49264 0.52751
# Poissons Ratio (z) = 0.27327 0.15231
#
# Static dielectric constant tensor:
#      x y z
#    x 3.467670 0.000000 0.079210 
#    y 0.000000 3.173280 0.000000 
#    z 0.079210 0.000000 3.997160 
# 
# 
# High freq. dielectric constant tensor:
#      x y z
#    x 1.717650 0.000000 0.002060 
#    y 0.000000 1.700300 0.000000 
#    z 0.002060 0.000000 1.756710 
# 
# From -- ./inp_files/342276.got.cif
#   From: 2010.06.25/outbox.cif.g09.slc.cpg/sg12_172_cif.got.tgz:342276.got - 2010.06.28 00:19:55.
