data_PCOD8081089
_publ_section_title
;
Structure prediction by ZEFSAII (Michael W. Deem and Ramdas Pophale) SiO2 
 PCOD8081089
Probable space group: C 2/M
;
_chemical_formula_sum "Si O2"
_cell_formula_units_Z 56
_cell_length_a 16.481636
_cell_length_b 14.552347
_cell_length_c 12.884158
_cell_angle_alpha 90.000000
_cell_angle_beta 74.034180
_cell_angle_gamma 90.000000
_cell_volume 2971.017745
_symmetry_space_group_name_H-M "C 2/M"
_symmetry_group_IT_number 12
_symmetry_cell_setting 'monoclinic'
loop_
_space_group_symop_operation_xyz
x,y,z
-x,y,-z
-x,-y,-z
x,-y,z
1/2+x,1/2+y,z
1/2-x,1/2+y,-z
1/2-x,1/2-y,-z
1/2+x,1/2-y,z
loop_
_atom_site_type_symbol
_atom_site_label
_atom_site_fract_x
_atom_site_fract_y
_atom_site_fract_z
Si Si1 0.637408 0.398083 0.676044
Si Si2 0.610580 0.105913 0.766466
Si Si3 0.336750 0.894772 0.628925
Si Si4 0.343085 0.777079 0.438771
Si Si5 0.412599 0.894376 0.818364
Si Si6 0.100711 0.291738 0.974872
Si Si7 0.092193 0.098812 0.921557
O O1 0.620536 0.500000 0.634734
O O2 0.736150 0.385369 0.666397
O O3 0.607178 0.318093 0.606664
O O4 0.585325 0.384694 0.800311
O O5 0.662117 0.156919 0.658893
O O6 0.512282 0.119858 0.777645
O O7 0.637159 0.147600 0.868072
O O8 0.636946 0.000000 0.757100
O O9 0.380940 0.832635 0.523690
O O10 0.372089 0.858878 0.725964
O O11 0.364605 0.000000 0.599500
O O12 0.250000 0.750000 0.500000
O O13 0.389579 0.000000 0.847543
O O14 0.371886 0.835791 0.925999
O O15 0.138097 0.187351 0.956267
O O16 0.000000 0.288304 0.000000
O O17 0.139693 0.000000 0.925049
O O18 0.000000 0.090184 0.000000
#
# Coordination Sequence:
#
# PCOD8081089 Si02
#       7
#     8   8   8   8   8   8   8
#     4   9  17  31  50  71  94 123 161 202 243 282
#     4  10  18  29  49  75  99 125 157 197 239 284
#     4   9  18  32  49  71 100 130 158 191 236 290
#     4  10  19  31  48  68  94 122 162 200 236 274
#     4   9  18  31  48  73 103 131 155 185 236 301
#     4   9  16  28  47  73 102 123 154 196 243 287
#     4   9  16  27  47  72  94 120 161 207 241 274
#
# _framework density 18.848759999999999
#
# number of rings (size 3 to 8) (size 9 to 14) (size 15 to 20)
#    0.000    2.714    1.429    0.857    0.000    2.857 
#    0.000    2.857    0.000    0.857    0.000    1.000 
#    0.000    0.000    0.000    0.000    0.000    0.000 
#
# Total GULP energy -346985.585847 kJ/mol
# GULP energy per Si atom -12392.342352 kJ/mol
# Density = 1.880586 g / cm^3
# Si number density = 18.848760 Si / 1000 Ang^3
#
#
#
# Elastic Constant Matrix: (Units=GPa)
#
#
# Indices 1 2 3 4 5 6 
#
# 1 16.7234 17.1148 23.7864 0.0000 8.1278 0.0000
# 2 17.1148 176.9874 99.9216 0.0000 13.1668 0.0000
# 3 23.7864 99.9216 168.0000 0.0000 15.6040 0.0000
# 4 0.0000 0.0000 0.0000 45.7330 0.0000 -0.7765
# 5 8.1278 13.1668 15.6040 0.0000 25.2122 0.0000
# 6 0.0000 0.0000 0.0000 -0.7765 0.0000 10.0758
#
#
#
# Elastic Compliance Matrix: (Units=1/GPa)
#
#
# Indices 1 2 3 4 5 6 
#
# 1 0.084407 -0.001443 -0.009162 0.000000 -0.020787 0.000000
# 2 -0.001443 0.008577 -0.004800 0.000000 -0.001043 0.000000
# 3 -0.009162 -0.004800 0.010183 0.000000 -0.000842 0.000000
# 4 0.000000 0.000000 0.000000 0.021895 0.000000 0.001687
# 5 -0.020787 -0.001043 -0.000842 0.000000 0.047430 0.000000
# 6 0.000000 0.000000 0.000000 0.001687 0.000000 0.099378
#
#
# Mechanical properties :
#
#
# Convention : Reuss Voigt Hill
#
# Bulk Modulus (GPa) = 13.82039 71.48401 42.65220
# Shear Modulus (GPa) = 15.29986 30.93006 23.11496
#
# Velocity S-wave (km/s) = 2.85216 4.05527 3.50571
# Velocity P-wave (km/s) = 4.26551 7.74173 6.25016
#
# Compressibility (1/GPa) = 0.07235687
#
# Stress axis : x y z
#
# Youngs Moduli (GPa) = 11.84729 116.58492 98.20439
#
# Poissons Ratio (x) = 0.16828 0.89971
# Poissons Ratio (y) = 0.01710 0.47142
# Poissons Ratio (z) = 0.10854 0.55965
#
# Static dielectric constant tensor:
#      x y z
#    x 2.839280 0.000000 -0.040300 
#    y 0.000000 4.240790 0.000000 
#    z -0.040300 0.000000 3.796290 
# 
# 
# High freq. dielectric constant tensor:
#      x y z
#    x 1.660180 0.000000 -0.016510 
#    y 0.000000 1.755360 0.000000 
#    z -0.016510 0.000000 1.747160 
# 
# From -- ./inp_files/166674.got.cif
#   From: 2010.06.25/outbox.cif.g09.slc.cpg/sg12_84_cif.got.tgz:166674.got - 2010.06.28 00:19:55.
