data_PCOD8081170
_publ_section_title
;
Structure prediction by ZEFSAII (Michael W. Deem and Ramdas Pophale) SiO2 
 PCOD8081170
Probable space group: C 2/M
;
_chemical_formula_sum "Si O2"
_cell_formula_units_Z 56
_cell_length_a 20.212654
_cell_length_b 8.945980
_cell_length_c 30.793341
_cell_angle_alpha 90.000000
_cell_angle_beta 146.936894
_cell_angle_gamma 90.000000
_cell_volume 3037.753467
_symmetry_space_group_name_H-M "C 2/M"
_symmetry_group_IT_number 12
_symmetry_cell_setting 'monoclinic'
loop_
_space_group_symop_operation_xyz
x,y,z
-x,y,-z
-x,-y,-z
x,-y,z
1/2+x,1/2+y,z
1/2-x,1/2+y,-z
1/2-x,1/2-y,-z
1/2+x,1/2-y,z
loop_
_atom_site_type_symbol
_atom_site_label
_atom_site_fract_x
_atom_site_fract_y
_atom_site_fract_z
Si Si1 0.460107 0.824695 0.180087
Si Si2 0.277399 0.824344 0.914221
Si Si3 0.119467 0.824441 0.332403
Si Si4 0.322317 0.171989 0.502495
Si Si5 0.011745 0.325930 0.903734
Si Si6 0.197408 0.825142 0.161600
Si Si7 0.470650 0.826589 0.326285
O O1 0.349597 0.750816 0.144776
O O2 0.584921 0.762791 0.269449
O O3 0.455184 0.781361 0.127056
O O4 0.451973 0.000000 0.182956
O O5 0.328669 0.761543 0.897334
O O6 0.257927 0.000000 0.899342
O O7 0.372860 0.782844 0.003946
O O8 0.260722 0.781088 0.422437
O O9 0.029639 0.775534 0.321733
O O10 0.103335 0.000000 0.315214
O O11 0.250000 0.250000 0.500000
O O12 0.465207 0.203812 0.590827
O O13 0.292680 0.000000 0.491735
O O14 0.978626 0.500000 0.889901
O O15 0.897034 0.228750 0.854452
O O16 0.329921 0.786088 0.253400
O O17 0.181308 0.000000 0.143985
O O18 0.487776 0.000000 0.322163
#
# Coordination Sequence:
#
# PCOD8081170 Si02
#       7
#     8   8   8   8   8   8   8
#     4  11  22  37  56  78 107 141 178 221 270 318
#     4  11  22  38  59  80 104 136 178 225 270 317
#     4  10  18  29  50  79 106 137 175 215 261 315
#     4   8  15  27  45  72 105 136 169 210 258 309
#     4  10  24  41  55  75 106 144 180 220 269 317
#     4  11  22  35  56  83 110 141 177 217 263 317
#     4   9  17  31  50  75 108 140 171 214 262 310
#
# _framework density 18.434674999999999
#
# number of rings (size 3 to 8) (size 9 to 14) (size 15 to 20)
#    0.000    2.000    1.429    2.571    0.000    5.143 
#    0.000    0.000    0.000    0.857    0.000    6.000 
#    0.000    0.000    0.000    0.000    0.000    0.000 
#
# Total GULP energy -347047.278421 kJ/mol
# GULP energy per Si atom -12394.545658 kJ/mol
# Density = 1.839272 g / cm^3
# Si number density = 18.434675 Si / 1000 Ang^3
#
#
#
# Elastic Constant Matrix: (Units=GPa)
#
#
# Indices 1 2 3 4 5 6 
#
# 1 44.7606 19.4154 16.7617 0.0000 0.1041 0.0000
# 2 19.4154 58.7273 35.4478 0.0001 1.9949 -0.0001
# 3 16.7617 35.4478 131.8879 0.0000 -2.2332 0.0000
# 4 0.0000 0.0001 0.0000 27.6180 0.0000 -1.3766
# 5 0.1041 1.9949 -2.2332 0.0000 6.3770 0.0000
# 6 0.0000 -0.0001 0.0000 -1.3766 0.0000 26.2131
#
#
#
# Elastic Compliance Matrix: (Units=1/GPa)
#
#
# Indices 1 2 3 4 5 6 
#
# 1 0.026256 -0.008046 -0.001146 0.000000 0.001687 0.000000
# 2 -0.008046 0.023239 -0.005376 0.000000 -0.009021 0.000000
# 3 -0.001146 -0.005376 0.009256 0.000000 0.004942 0.000000
# 4 0.000000 0.000000 0.000000 0.036303 0.000000 0.001907
# 5 0.001687 -0.009021 0.004942 0.000000 0.161338 0.000000
# 6 0.000000 0.000000 0.000000 0.001907 0.000000 0.038249
#
#
# Mechanical properties :
#
#
# Convention : Reuss Voigt Hill
#
# Bulk Modulus (GPa) = 33.76565 42.06951 37.91758
# Shear Modulus (GPa) = 14.98573 22.95836 18.97204
#
# Velocity S-wave (km/s) = 2.85425 3.53284 3.21152
# Velocity P-wave (km/s) = 5.40541 6.28583 5.86217
#
# Compressibility (1/GPa) = 0.02961590
#
# Stress axis : x y z
#
# Youngs Moduli (GPa) = 38.08603 43.03020 108.03228
#
# Poissons Ratio (x) = 0.34623 0.12378
# Poissons Ratio (y) = 0.30645 0.58081
# Poissons Ratio (z) = 0.04364 0.23134
#
# Static dielectric constant tensor:
#      x y z
#    x 2.995030 0.000000 -0.042990 
#    y 0.000000 3.395460 0.000000 
#    z -0.042990 0.000000 4.200280 
# 
# 
# High freq. dielectric constant tensor:
#      x y z
#    x 1.666950 0.000000 -0.002680 
#    y 0.000000 1.723220 0.000000 
#    z -0.002680 0.000000 1.745750 
# 
# From -- ./inp_files/342339.got.cif
#   From: 2010.06.25/outbox.cif.g09.slc.cpg/sg12_172_cif.got.tgz:342339.got - 2010.06.28 00:19:55.
