data_PCOD8081865
_publ_section_title
;
Structure prediction by ZEFSAII (Michael W. Deem and Ramdas Pophale) SiO2 
 PCOD8081865
Probable space group: C 2/M
;
_chemical_formula_sum "Si O2"
_cell_formula_units_Z 64
_cell_length_a 24.141319
_cell_length_b 9.151952
_cell_length_c 16.416714
_cell_angle_alpha 90.000000
_cell_angle_beta 94.072369
_cell_angle_gamma 90.000000
_cell_volume 3617.954029
_symmetry_space_group_name_H-M "C 2/M"
_symmetry_group_IT_number 12
_symmetry_cell_setting 'monoclinic'
loop_
_space_group_symop_operation_xyz
x,y,z
-x,y,-z
-x,-y,-z
x,-y,z
1/2+x,1/2+y,z
1/2-x,1/2+y,-z
1/2-x,1/2-y,-z
1/2+x,1/2-y,z
loop_
_atom_site_type_symbol
_atom_site_label
_atom_site_fract_x
_atom_site_fract_y
_atom_site_fract_z
Si Si1 0.593833 0.167862 0.548545
Si Si2 0.380151 0.669568 0.201200
Si Si3 0.669858 0.830393 0.944094
Si Si4 0.706710 0.667927 0.098433
Si Si5 0.689661 0.166132 0.678333
Si Si6 0.686497 0.667743 0.283171
Si Si7 0.089396 0.327792 0.361236
Si Si8 0.978338 0.170568 0.330675
O O1 0.655368 0.191016 0.591722
O O2 0.595863 0.218970 0.455816
O O3 0.548598 0.264260 0.590447
O O4 0.574707 0.000000 0.554564
O O5 0.370148 0.500000 0.184218
O O6 0.377757 0.753308 0.114881
O O7 0.331491 0.725427 0.254781
O O8 0.439489 0.700635 0.248725
O O9 0.728581 0.796373 0.907493
O O10 0.656117 0.000000 0.948135
O O11 0.668995 0.765529 0.034998
O O12 0.694896 0.500000 0.076101
O O13 0.690475 0.706292 0.188488
O O14 0.754201 0.196518 0.667477
O O15 0.682053 0.000000 0.710355
O O16 0.667830 0.500000 0.293824
O O17 0.643374 0.776617 0.318955
O O18 0.082689 0.500000 0.350357
O O19 0.036156 0.248761 0.317282
O O20 0.987980 0.000000 0.346181
#
# Coordination Sequence:
#
# PCOD8081865 Si02
#       8
#     8   8   8   8   8   8   8   8
#     4   9  19  35  55  77 104 133 168 219 267 307
#     4  10  19  31  51  79 107 132 166 215 262 303
#     4  10  18  30  51  79 107 137 170 203 252 307
#     4   9  18  32  49  75 107 138 171 206 248 300
#     4   9  17  33  53  74 102 138 173 207 257 311
#     4  10  20  35  53  73 104 143 176 208 250 306
#     4  11  23  36  51  75 103 138 178 215 261 308
#     4  10  21  36  55  78 101 132 175 220 263 305
#
# _framework density 17.689556
#
# number of rings (size 3 to 8) (size 9 to 14) (size 15 to 20)
#    0.000    2.250    1.250    1.875    0.000    6.000 
#    0.000    0.000    0.000    0.750    0.000    5.250 
#    0.000    0.000    0.000    0.000    0.000    0.000 
#
# Total GULP energy -396892.400892 kJ/mol
# GULP energy per Si atom -12402.887528 kJ/mol
# Density = 1.764929 g / cm^3
# Si number density = 17.689556 Si / 1000 Ang^3
#
#
#
# Elastic Constant Matrix: (Units=GPa)
#
#
# Indices 1 2 3 4 5 6 
#
# 1 96.0780 46.8595 36.1277 0.0000 7.6253 0.0000
# 2 46.8595 86.3602 39.9926 0.0000 13.8593 0.0000
# 3 36.1277 39.9926 66.9579 0.0000 19.1283 0.0000
# 4 0.0000 0.0000 0.0000 30.6114 0.0000 -0.8702
# 5 7.6253 13.8593 19.1283 0.0000 20.2088 0.0000
# 6 0.0000 0.0000 0.0000 -0.8702 0.0000 29.5248
#
#
#
# Elastic Compliance Matrix: (Units=1/GPa)
#
#
# Indices 1 2 3 4 5 6 
#
# 1 0.015284 -0.006334 -0.005560 0.000000 0.003840 0.000000
# 2 -0.006334 0.018736 -0.006558 0.000000 -0.004251 0.000000
# 3 -0.005560 -0.006558 0.027368 0.000000 -0.019309 0.000000
# 4 0.000000 0.000000 0.000000 0.032695 0.000000 0.000964
# 5 0.003840 -0.004251 -0.019309 0.000000 0.069226 0.000000
# 6 0.000000 0.000000 0.000000 0.000964 0.000000 0.033898
#
#
# Mechanical properties :
#
#
# Convention : Reuss Voigt Hill
#
# Bulk Modulus (GPa) = 40.84617 55.03952 47.94284
# Shear Modulus (GPa) = 20.63790 24.49676 22.56733
#
# Velocity S-wave (km/s) = 3.41936 3.72535 3.57563
# Velocity P-wave (km/s) = 6.22335 7.04883 6.64891
#
# Compressibility (1/GPa) = 0.02448210
#
# Stress axis : x y z
#
# Youngs Moduli (GPa) = 65.42976 53.37371 36.53926
#
# Poissons Ratio (x) = 0.33809 0.20316
# Poissons Ratio (y) = 0.41446 0.23963
# Poissons Ratio (z) = 0.36378 0.35004
#
# Static dielectric constant tensor:
#      x y z
#    x 3.169750 0.000000 0.278930 
#    y 0.000000 3.330850 0.000000 
#    z 0.278930 0.000000 3.286620 
# 
# 
# High freq. dielectric constant tensor:
#      x y z
#    x 1.665330 0.000000 0.023960 
#    y 0.000000 1.691630 0.000000 
#    z 0.023960 0.000000 1.679640 
# 
# From -- ./inp_files/238580.got.cif
#   From: 2010.06.25/outbox.cif.g09.slc.cpg/sg12_120_cif.got.tgz:238580.got - 2010.06.28 00:19:55.
