data_PCOD8081639
_publ_section_title
;
Structure prediction by ZEFSAII (Michael W. Deem and Ramdas Pophale) SiO2 
 PCOD8081639
Probable space group: C 2/M
;
_chemical_formula_sum "Si O2"
_cell_formula_units_Z 56
_cell_length_a 18.471687
_cell_length_b 7.896580
_cell_length_c 30.256109
_cell_angle_alpha 90.000000
_cell_angle_beta 40.921868
_cell_angle_gamma 90.000000
_cell_volume 2890.808821
_symmetry_space_group_name_H-M "C 2/M"
_symmetry_group_IT_number 12
_symmetry_cell_setting 'monoclinic'
loop_
_space_group_symop_operation_xyz
x,y,z
-x,y,-z
-x,-y,-z
x,-y,z
1/2+x,1/2+y,z
1/2-x,1/2+y,-z
1/2-x,1/2-y,-z
1/2+x,1/2-y,z
loop_
_atom_site_type_symbol
_atom_site_label
_atom_site_fract_x
_atom_site_fract_y
_atom_site_fract_z
Si Si1 0.031978 0.201201 0.307866
Si Si2 0.698360 0.694527 0.305089
Si Si3 0.289536 0.188435 0.837477
Si Si4 0.881422 0.186596 0.163329
Si Si5 0.786950 0.800656 0.434645
Si Si6 0.124196 0.700855 0.434346
Si Si7 0.819432 0.500000 0.075130
Si Si8 0.510276 0.000000 0.922708
O O1 0.096742 0.262129 0.322036
O O2 0.088060 0.277905 0.238077
O O3 0.908028 0.274813 0.368375
O O4 0.033101 0.000000 0.303353
O O5 0.719535 0.500000 0.283788
O O6 0.812257 0.790732 0.240566
O O7 0.670565 0.717565 0.368730
O O8 0.204800 0.203150 0.836479
O O9 0.256913 0.331215 0.888435
O O10 0.284991 0.000000 0.861010
O O11 0.974107 0.331532 0.114485
O O12 0.937630 0.000000 0.137686
O O13 0.750000 0.750000 0.500000
O O14 0.698948 0.729682 0.439990
O O15 0.792214 0.000000 0.428485
O O16 0.128573 0.500000 0.427869
O O17 0.000000 0.764907 0.500000
O O18 0.903281 0.500000 0.077261
O O19 0.885830 0.500000 0.998559
#
# Coordination Sequence:
#
# PCOD8081639 Si02
#       8
#     8   8   8   8   8   8   4   4
#     4   9  17  31  49  68  94 130 171 216 258 303
#     4  10  18  30  50  71  93 128 173 216 256 307
#     4   9  16  26  43  66  92 131 172 206 255 304
#     4   9  16  27  43  65  95 130 171 211 250 303
#     4  10  21  35  51  71  98 132 167 212 261 308
#     4  10  21  35  49  70 101 133 166 211 261 312
#     4   9  16  26  40  62 102 134 165 214 245 303
#     4   9  16  26  40  64  97 138 170 200 258 303
#
# _framework density 19.371741
#
# number of rings (size 3 to 8) (size 9 to 14) (size 15 to 20)
#    0.000    2.571    1.429    1.286    0.000    2.571 
#    0.000    2.857    0.000    0.000    0.000    0.000 
#    0.000    1.143    0.571    0.000    0.000    0.000 
#
# Total GULP energy -347132.371543 kJ/mol
# GULP energy per Si atom -12397.584698 kJ/mol
# Density = 1.932765 g / cm^3
# Si number density = 19.371741 Si / 1000 Ang^3
#
#
#
# Elastic Constant Matrix: (Units=GPa)
#
#
# Indices 1 2 3 4 5 6 
#
# 1 70.8413 20.1950 45.5930 0.0027 -3.8817 -0.0191
# 2 20.1950 101.5648 68.5720 -0.0164 -4.7657 -0.0033
# 3 45.5930 68.5720 167.8994 0.0106 -10.7439 0.0007
# 4 0.0027 -0.0164 0.0106 26.6985 -0.0010 4.7848
# 5 -3.8817 -4.7657 -10.7439 -0.0010 17.5639 -0.0057
# 6 -0.0191 -0.0033 0.0007 4.7848 -0.0057 8.9899
#
#
#
# Elastic Compliance Matrix: (Units=1/GPa)
#
#
# Indices 1 2 3 4 5 6 
#
# 1 0.017131 -0.000362 -0.004442 -0.000008 0.000971 0.000041
# 2 -0.000362 0.013604 -0.005440 0.000011 0.000284 -0.000001
# 3 -0.004442 -0.005440 0.009602 -0.000005 0.003416 -0.000007
# 4 -0.000008 0.000011 -0.000005 0.041405 -0.000007 -0.022037
# 5 0.000971 0.000284 0.003416 -0.000007 0.059316 0.000043
# 6 0.000041 -0.000001 -0.000007 -0.022037 0.000043 0.122965
#
#
# Mechanical properties :
#
#
# Convention : Reuss Voigt Hill
#
# Bulk Modulus (GPa) = 50.37615 67.66949 59.02282
# Shear Modulus (GPa) = 17.17464 24.38016 20.77740
#
# Velocity S-wave (km/s) = 2.98078 3.55144 3.27855
# Velocity P-wave (km/s) = 6.15696 7.19895 6.69825
#
# Compressibility (1/GPa) = 0.01985067
#
# Stress axis : x y z
#
# Youngs Moduli (GPa) = 58.37259 73.50951 104.14082
#
# Poissons Ratio (x) = 0.02658 0.46261
# Poissons Ratio (y) = 0.02111 0.56648
# Poissons Ratio (z) = 0.25930 0.39986
#
# Static dielectric constant tensor:
#      x y z
#    x 3.175970 -0.000020 -0.181060 
#    y -0.000020 3.613350 -0.000020 
#    z -0.181060 -0.000020 3.628690 
# 
# 
# High freq. dielectric constant tensor:
#      x y z
#    x 1.694070 0.000000 -0.006260 
#    y 0.000000 1.758800 0.000000 
#    z -0.006260 0.000000 1.758760 
# 
# From -- ./inp_files/345504.got.cif
#   From: 2010.06.25/outbox.cif.g09.slc.cpg/sg12_173_cif.got.tgz:345504.got - 2010.06.28 00:19:55.
