data_PCOD8081496
_publ_section_title
;
Structure prediction by ZEFSAII (Michael W. Deem and Ramdas Pophale) SiO2 
 PCOD8081496
Probable space group: C 2/M
;
_chemical_formula_sum "Si O2"
_cell_formula_units_Z 56
_cell_length_a 11.149300
_cell_length_b 21.009131
_cell_length_c 18.308002
_cell_angle_alpha 90.000000
_cell_angle_beta 131.358203
_cell_angle_gamma 90.000000
_cell_volume 3218.854319
_symmetry_space_group_name_H-M "C 2/M"
_symmetry_group_IT_number 12
_symmetry_cell_setting 'monoclinic'
loop_
_space_group_symop_operation_xyz
x,y,z
-x,y,-z
-x,-y,-z
x,-y,z
1/2+x,1/2+y,z
1/2-x,1/2+y,-z
1/2-x,1/2-y,-z
1/2+x,1/2-y,z
loop_
_atom_site_type_symbol
_atom_site_label
_atom_site_fract_x
_atom_site_fract_y
_atom_site_fract_z
Si Si1 0.919513 0.427039 0.389483
Si Si2 0.439448 0.821523 0.054243
Si Si3 0.634812 0.665329 0.257870
Si Si4 0.089911 0.171147 0.962195
Si Si5 0.141725 0.331044 0.411604
Si Si6 0.295415 0.195551 0.727068
Si Si7 0.948890 0.193233 0.614082
O O1 0.898568 0.500000 0.358168
O O2 0.748250 0.393936 0.319347
O O3 0.000000 0.419018 0.500000
O O4 0.031851 0.392379 0.376834
O O5 0.410407 0.746863 0.034344
O O6 0.583099 0.836813 0.167573
O O7 0.500000 0.849288 0.000000
O O8 0.274798 0.851592 0.022267
O O9 0.505273 0.644185 0.145957
O O10 0.723711 0.728709 0.263861
O O11 0.552521 0.685526 0.299789
O O12 0.000000 0.145023 0.000000
O O13 0.140499 0.318615 0.326274
O O14 0.070908 0.266917 0.420322
O O15 0.313164 0.346703 0.517160
O O16 0.119759 0.165293 0.660148
#
# Coordination Sequence:
#
# PCOD8081496 Si02
#       7
#     8   8   8   8   8   8   8
#     4  11  22  37  54  73 104 142 180 213 252 308
#     4   9  17  29  42  69 106 142 168 195 263 329
#     4  10  19  31  50  74 105 139 175 205 263 313
#     4   9  18  28  45  69 103 137 170 215 256 309
#     4  10  20  30  49  75 106 135 174 208 263 308
#     4  10  19  28  51  77 109 136 166 212 265 318
#     4  10  18  30  48  76 110 137 160 214 260 324
#
# _framework density 17.397493000000001
#
# number of rings (size 3 to 8) (size 9 to 14) (size 15 to 20)
#    0.000    2.143    2.857    1.286    2.000    3.429 
#    0.000    0.000    0.000    3.000    0.000    0.000 
#    0.000    2.286    0.000    0.000    0.000    0.000 
#
# Total GULP energy -347009.621636 kJ/mol
# GULP energy per Si atom -12393.200773 kJ/mol
# Density = 1.735790 g / cm^3
# Si number density = 17.397493 Si / 1000 Ang^3
#
#
#
# Elastic Constant Matrix: (Units=GPa)
#
#
# Indices 1 2 3 4 5 6 
#
# 1 99.6293 27.3585 31.0698 0.0000 10.9478 0.0000
# 2 27.3585 59.0469 18.2418 0.0000 3.7131 0.0000
# 3 31.0698 18.2418 100.7462 0.0000 -0.2956 0.0000
# 4 0.0000 0.0000 0.0000 6.0428 0.0000 -2.2090
# 5 10.9478 3.7131 -0.2956 0.0000 31.0168 0.0000
# 6 0.0000 0.0000 0.0000 -2.2090 0.0000 8.4647
#
#
#
# Elastic Compliance Matrix: (Units=1/GPa)
#
#
# Indices 1 2 3 4 5 6 
#
# 1 0.012723 -0.004693 -0.003086 0.000000 -0.003958 0.000000
# 2 -0.004693 0.019819 -0.002143 0.000000 -0.000737 0.000000
# 3 -0.003086 -0.002143 0.011270 0.000000 0.001453 0.000000
# 4 0.000000 0.000000 0.000000 0.182937 0.000000 0.047740
# 5 -0.003958 -0.000737 0.001453 0.000000 0.033740 0.000000
# 6 0.000000 0.000000 0.000000 0.047740 0.000000 0.130597
#
#
# Mechanical properties :
#
#
# Convention : Reuss Voigt Hill
#
# Bulk Modulus (GPa) = 41.72273 45.86250 43.79262
# Shear Modulus (GPa) = 11.93550 21.28835 16.61192
#
# Velocity S-wave (km/s) = 2.62209 3.50186 3.09341
# Velocity P-wave (km/s) = 5.76205 6.53984 6.16323
#
# Compressibility (1/GPa) = 0.02396775
#
# Stress axis : x y z
#
# Youngs Moduli (GPa) = 78.59697 50.45778 88.73197
#
# Poissons Ratio (x) = 0.23679 0.27380
# Poissons Ratio (y) = 0.36885 0.19019
# Poissons Ratio (z) = 0.24252 0.10815
#
# Static dielectric constant tensor:
#      x y z
#    x 3.355640 0.000000 0.056100 
#    y 0.000000 2.705780 0.000000 
#    z 0.056100 0.000000 3.386290 
# 
# 
# High freq. dielectric constant tensor:
#      x y z
#    x 1.681590 0.000000 0.002940 
#    y 0.000000 1.592110 0.000000 
#    z 0.002940 0.000000 1.689200 
# 
# From -- ./inp_files/133315.got.cif
#   From: 2010.06.25/outbox.cif.g09.slc.cpg/sg12_67_cif.got.tgz:133315.got - 2010.06.28 00:19:55.
