data_PCOD8081349
_publ_section_title
;
Structure prediction by ZEFSAII (Michael W. Deem and Ramdas Pophale) SiO2 
 PCOD8081349
Probable space group: C 2/M
;
_chemical_formula_sum "Si O2"
_cell_formula_units_Z 64
_cell_length_a 25.164080
_cell_length_b 8.404461
_cell_length_c 24.303753
_cell_angle_alpha 90.000000
_cell_angle_beta 46.321405
_cell_angle_gamma 90.000000
_cell_volume 3717.387351
_symmetry_space_group_name_H-M "C 2/M"
_symmetry_group_IT_number 12
_symmetry_cell_setting 'monoclinic'
loop_
_space_group_symop_operation_xyz
x,y,z
-x,y,-z
-x,-y,-z
x,-y,z
1/2+x,1/2+y,z
1/2-x,1/2+y,-z
1/2-x,1/2-y,-z
1/2+x,1/2-y,z
loop_
_atom_site_type_symbol
_atom_site_label
_atom_site_fract_x
_atom_site_fract_y
_atom_site_fract_z
Si Si1 0.312742 0.314304 0.679628
Si Si2 0.436925 0.824580 0.999523
Si Si3 0.531515 0.812008 0.418264
Si Si4 0.769565 0.685130 0.595043
Si Si5 0.387512 0.813504 0.319151
Si Si6 0.450909 0.809111 0.163163
Si Si7 0.405992 0.189439 0.426968
Si Si8 0.332953 0.188708 0.161210
O O1 0.304875 0.500000 0.670940
O O2 0.391890 0.275597 0.648201
O O3 0.300551 0.212382 0.633730
O O4 0.251758 0.263311 0.768812
O O5 0.473600 0.740446 0.919174
O O6 0.412182 0.000000 0.998365
O O7 0.500000 0.836901 0.000000
O O8 0.366457 0.738818 0.079487
O O9 0.500000 0.761736 0.500000
O O10 0.475749 0.748668 0.411577
O O11 0.543817 0.000000 0.406462
O O12 0.752974 0.500000 0.598440
O O13 0.696569 0.783299 0.635991
O O14 0.830772 0.748587 0.508699
O O15 0.440867 0.744927 0.232816
O O16 0.409261 0.738931 0.362720
O O17 0.398984 0.000000 0.314709
O O18 0.380126 0.748394 0.179445
O O19 0.453060 0.000000 0.160495
O O20 0.406598 0.000000 0.426994
O O21 0.342724 0.000000 0.150174
#
# Coordination Sequence:
#
# PCOD8081349 Si02
#       8
#     8   8   8   8   8   8   8   8
#     4  11  20  30  47  71  91 113 149 193 229 253
#     4   7  10  17  32  56  87 116 136 161 209 265
#     4  10  19  35  51  62  84 119 154 185 224 271
#     4  11  20  32  46  64  91 125 153 174 217 275
#     4  10  18  30  47  69  92 114 147 188 221 253
#     4   8  12  20  37  62  89 114 137 170 215 258
#     4   9  19  33  48  63  85 119 153 185 221 261
#     4   8  13  22  36  60  91 114 136 173 219 259
#
# _framework density 17.216393
#
# number of rings (size 3 to 8) (size 9 to 14) (size 15 to 20)
#    0.000    2.750    2.500    2.625    0.000    0.250 
#    0.000    1.250    0.000    0.000    0.000    3.500 
#    0.000    0.000    0.000    0.000    0.000    0.000 
#
# Total GULP energy -396442.514101 kJ/mol
# GULP energy per Si atom -12388.828566 kJ/mol
# Density = 1.717721 g / cm^3
# Si number density = 17.216393 Si / 1000 Ang^3
#
#
#
# Elastic Constant Matrix: (Units=GPa)
#
#
# Indices 1 2 3 4 5 6 
#
# 1 76.2887 -0.8949 64.9312 -0.0001 9.1664 -0.0005
# 2 -0.8949 9.0865 10.9037 0.0003 -0.6135 0.0019
# 3 64.9312 10.9037 197.7599 0.0041 3.8076 -0.0015
# 4 -0.0001 0.0003 0.0041 10.1697 -0.0017 -2.6254
# 5 9.1664 -0.6135 3.8076 -0.0017 20.6018 0.0001
# 6 -0.0005 0.0019 -0.0015 -2.6254 0.0001 13.5872
#
#
#
# Elastic Compliance Matrix: (Units=1/GPa)
#
#
# Indices 1 2 3 4 5 6 
#
# 1 0.020051 0.009863 -0.006986 0.000001 -0.007337 -0.000001
# 2 0.009863 0.123163 -0.010051 -0.000004 0.001137 -0.000019
# 3 -0.006986 -0.010051 0.007879 -0.000002 0.001353 0.000002
# 4 0.000001 -0.000004 -0.000002 0.103494 0.000008 0.019998
# 5 -0.007337 0.001137 0.001353 0.000008 0.051588 0.000001
# 6 -0.000001 -0.000019 0.000002 0.019998 0.000001 0.077463
#
#
# Mechanical properties :
#
#
# Convention : Reuss Voigt Hill
#
# Bulk Modulus (GPa) = 7.31293 48.11278 27.71286
# Shear Modulus (GPa) = 11.27225 22.75140 17.01183
#
# Velocity S-wave (km/s) = 2.56156 3.63918 3.14684
# Velocity P-wave (km/s) = 3.60634 6.75757 5.41620
#
# Compressibility (1/GPa) = 0.13674403
#
# Stress axis : x y z
#
# Youngs Moduli (GPa) = 49.87206 8.11934 126.92770
#
# Poissons Ratio (x) = -0.08008 0.88672
# Poissons Ratio (y) = -0.49187 1.27573
# Poissons Ratio (z) = 0.34841 0.08161
#
# Static dielectric constant tensor:
#      x y z
#    x 3.050540 0.000000 0.096310 
#    y 0.000000 2.733520 0.000000 
#    z 0.096310 0.000000 3.881910 
# 
# 
# High freq. dielectric constant tensor:
#      x y z
#    x 1.621570 0.000000 -0.001670 
#    y 0.000000 1.619340 0.000000 
#    z -0.001670 0.000000 1.685360 
# 
# From -- ./inp_files/323783.got.cif
#   From: 2010.06.25/outbox.cif.g09.slc.cpg/sg12_162_cif.got.tgz:323783.got - 2010.06.28 00:19:55.
