data_PCOD8081812
_publ_section_title
;
Structure prediction by ZEFSAII (Michael W. Deem and Ramdas Pophale) SiO2 
 PCOD8081812
Probable space group: C 2/M
;
_chemical_formula_sum "Si O2"
_cell_formula_units_Z 48
_cell_length_a 22.548133
_cell_length_b 8.985508
_cell_length_c 28.915251
_cell_angle_alpha 90.000000
_cell_angle_beta 27.888337
_cell_angle_gamma 90.000000
_cell_volume 2740.273429
_symmetry_space_group_name_H-M "C 2/M"
_symmetry_group_IT_number 12
_symmetry_cell_setting 'monoclinic'
loop_
_space_group_symop_operation_xyz
x,y,z
-x,y,-z
-x,-y,-z
x,-y,z
1/2+x,1/2+y,z
1/2-x,1/2+y,-z
1/2-x,1/2-y,-z
1/2+x,1/2-y,z
loop_
_atom_site_type_symbol
_atom_site_label
_atom_site_fract_x
_atom_site_fract_y
_atom_site_fract_z
Si Si1 0.767671 0.826158 0.557536
Si Si2 0.709854 0.824685 0.179984
Si Si3 0.444401 0.325696 0.351023
Si Si4 0.144139 0.672218 0.411969
Si Si5 0.447632 0.167741 0.984548
Si Si6 0.814239 0.172791 0.207142
O O1 0.641789 0.736224 0.630975
O O2 0.880116 0.787555 0.444388
O O3 0.811035 0.777299 0.577996
O O4 0.735566 0.000000 0.579051
O O5 0.578509 0.753549 0.255566
O O6 0.739332 0.779210 0.212553
O O7 0.701886 0.000000 0.179012
O O8 0.818184 0.761603 0.071210
O O9 0.463448 0.500000 0.330762
O O10 0.159658 0.500000 0.415660
O O11 0.226329 0.712921 0.310689
O O12 0.000000 0.710482 0.500000
O O13 0.553807 0.238998 0.878081
O O14 0.420209 0.000000 0.987087
O O15 0.500000 0.173202 0.000000
O O16 0.848868 0.000000 0.180851
#
# Coordination Sequence:
#
# PCOD8081812 Si02
#       6
#     8   8   8   8   8   8
#     4  10  21  35  51  73 100 131 167 205 246 291
#     4  10  18  30  51  76 101 129 165 206 246 292
#     4  10  20  34  52  73  99 130 165 206 248 292
#     4  10  20  34  52  74 102 135 168 201 241 292
#     4   9  17  29  46  70 100 131 164 204 248 291
#     4   9  18  31  48  72 102 135 167 201 244 292
#
# _framework density 17.516499
#
# number of rings (size 3 to 8) (size 9 to 14) (size 15 to 20)
#    0.000    2.333    0.000    3.000    0.000    7.000 
#    0.000    0.000    0.000    1.000    0.000    0.000 
#    0.000    0.000    0.000    0.000    0.000    0.000 
#
# Total GULP energy -297677.412492 kJ/mol
# GULP energy per Si atom -12403.225521 kJ/mol
# Density = 1.747663 g / cm^3
# Si number density = 17.516499 Si / 1000 Ang^3
#
#
#
# Elastic Constant Matrix: (Units=GPa)
#
#
# Indices 1 2 3 4 5 6 
#
# 1 67.5394 36.4204 51.6852 0.0529 -9.9990 -0.0481
# 2 36.4204 88.3064 62.5807 0.0752 -14.4904 -0.0387
# 3 51.6852 62.5807 144.0706 0.0161 -20.8950 -0.0231
# 4 0.0529 0.0752 0.0161 33.1943 -0.0089 -5.1832
# 5 -9.9990 -14.4904 -20.8950 -0.0089 28.0221 0.0178
# 6 -0.0481 -0.0387 -0.0231 -5.1832 0.0178 30.1299
#
#
#
# Elastic Compliance Matrix: (Units=1/GPa)
#
#
# Indices 1 2 3 4 5 6 
#
# 1 0.021863 -0.004897 -0.005553 -0.000018 0.001129 0.000021
# 2 -0.004897 0.017777 -0.005478 -0.000028 0.003361 0.000004
# 3 -0.005553 -0.005478 0.011901 0.000016 0.004060 -0.000007
# 4 -0.000018 -0.000028 0.000016 0.030957 -0.000003 0.005325
# 5 0.001129 0.003361 0.004060 -0.000003 0.040855 -0.000015
# 6 0.000021 0.000004 -0.000007 0.005325 -0.000015 0.034106
#
#
# Mechanical properties :
#
#
# Convention : Reuss Voigt Hill
#
# Bulk Modulus (GPa) = 50.79427 66.80989 58.80208
# Shear Modulus (GPa) = 25.52628 28.21792 26.87210
#
# Velocity S-wave (km/s) = 3.82156 4.01800 3.92101
# Velocity P-wave (km/s) = 6.96659 7.72979 7.35809
#
# Compressibility (1/GPa) = 0.01968726
#
# Stress axis : x y z
#
# Youngs Moduli (GPa) = 45.73920 56.25131 84.02382
#
# Poissons Ratio (x) = 0.27545 0.46655
# Poissons Ratio (y) = 0.22398 0.46027
# Poissons Ratio (z) = 0.25397 0.30814
#
# Static dielectric constant tensor:
#      x y z
#    x 2.985340 -0.000010 -0.082600 
#    y -0.000010 3.335060 0.000000 
#    z -0.082600 0.000000 3.353110 
# 
# 
# High freq. dielectric constant tensor:
#      x y z
#    x 1.646780 0.000000 -0.013040 
#    y 0.000000 1.687970 0.000000 
#    z -0.013040 0.000000 1.683580 
# 
# From -- ./inp_files/172376.got.cif
#   From: 2010.06.25/outbox.cif.g09.slc.cpg/sg12_87_cif.got.tgz:172376.got - 2010.06.28 00:19:55.
