data_PCOD8081881
_publ_section_title
;
Structure prediction by ZEFSAII (Michael W. Deem and Ramdas Pophale) SiO2 
 PCOD8081881
Probable space group: C 2/M
;
_chemical_formula_sum "Si O2"
_cell_formula_units_Z 64
_cell_length_a 23.895456
_cell_length_b 8.965244
_cell_length_c 16.437262
_cell_angle_alpha 90.000000
_cell_angle_beta 92.608542
_cell_angle_gamma 90.000000
_cell_volume 3517.682701
_symmetry_space_group_name_H-M "C 2/M"
_symmetry_group_IT_number 12
_symmetry_cell_setting 'monoclinic'
loop_
_space_group_symop_operation_xyz
x,y,z
-x,y,-z
-x,-y,-z
x,-y,z
1/2+x,1/2+y,z
1/2-x,1/2+y,-z
1/2-x,1/2-y,-z
1/2+x,1/2-y,z
loop_
_atom_site_type_symbol
_atom_site_label
_atom_site_fract_x
_atom_site_fract_y
_atom_site_fract_z
Si Si1 0.706585 0.327076 0.101384
Si Si2 0.830944 0.673612 0.054125
Si Si3 0.605180 0.674200 0.544998
Si Si4 0.881831 0.826380 0.200876
Si Si5 0.687659 0.328725 0.285594
Si Si6 0.409631 0.174884 0.627105
Si Si7 0.482226 0.670208 0.320283
Si Si8 0.313521 0.827416 0.335069
O O1 0.695533 0.500000 0.083488
O O2 0.771293 0.287974 0.090425
O O3 0.691303 0.282058 0.191716
O O4 0.667274 0.232917 0.038126
O O5 0.844624 0.500000 0.055234
O O6 0.878042 0.757665 0.110400
O O7 0.617963 0.500000 0.537665
O O8 0.588720 0.739379 0.457600
O O9 0.553919 0.705662 0.602030
O O10 0.661212 0.752217 0.582507
O O11 0.944581 0.800280 0.238106
O O12 0.836767 0.747405 0.255340
O O13 0.866827 0.000000 0.198545
O O14 0.667764 0.500000 0.292585
O O15 0.644553 0.218874 0.325301
O O16 0.746967 0.306923 0.333720
O O17 0.464941 0.220424 0.680932
O O18 0.409173 0.000000 0.610800
O O19 0.503596 0.500000 0.323935
O O20 0.330623 0.000000 0.333795
#
# Coordination Sequence:
#
# PCOD8081881 Si02
#       8
#     8   8   8   8   8   8   8   8
#     4   9  18  33  51  77 109 145 180 212 260 317
#     4  10  18  30  51  82 113 141 176 219 264 309
#     4  10  21  38  59  81 106 139 176 220 272 322
#     4  10  19  32  54  82 111 143 176 216 267 322
#     4  10  21  38  56  74 108 150 181 215 261 322
#     4  12  25  37  54  80 105 139 183 225 270 314
#     4   9  20  38  58  79 104 138 179 221 268 319
#     4  10  19  34  55  81 109 139 177 221 269 315
#
# _framework density 18.193795000000001
#
# number of rings (size 3 to 8) (size 9 to 14) (size 15 to 20)
#    0.000    2.000    1.250    3.750    0.000    7.000 
#    0.000    0.000    0.000    0.750    0.000    5.250 
#    0.000    0.000    0.000    0.000    0.000    0.000 
#
# Total GULP energy -396915.225712 kJ/mol
# GULP energy per Si atom -12403.600804 kJ/mol
# Density = 1.815238 g / cm^3
# Si number density = 18.193795 Si / 1000 Ang^3
#
#
#
# Elastic Constant Matrix: (Units=GPa)
#
#
# Indices 1 2 3 4 5 6 
#
# 1 77.1693 47.4760 31.4386 0.0000 14.8928 0.0000
# 2 47.4760 107.5168 34.3103 0.0000 15.2989 0.0000
# 3 31.4386 34.3103 51.7514 0.0000 28.9366 0.0000
# 4 0.0000 0.0000 0.0000 34.6190 0.0000 4.7503
# 5 14.8928 15.2989 28.9366 0.0000 21.0233 0.0000
# 6 0.0000 0.0000 0.0000 4.7503 0.0000 29.2365
#
#
#
# Elastic Compliance Matrix: (Units=1/GPa)
#
#
# Indices 1 2 3 4 5 6 
#
# 1 0.020307 -0.006088 -0.011867 0.000000 0.006378 0.000000
# 2 -0.006088 0.014072 -0.010056 0.000000 0.007913 0.000000
# 3 -0.011867 -0.010056 0.105938 0.000000 -0.130090 0.000000
# 4 0.000000 0.000000 0.000000 0.029545 0.000000 -0.004800
# 5 0.006378 0.007913 -0.130090 0.000000 0.216346 0.000000
# 6 0.000000 0.000000 0.000000 -0.004800 0.000000 0.034984
#
#
# Mechanical properties :
#
#
# Convention : Reuss Voigt Hill
#
# Bulk Modulus (GPa) = 11.86279 51.43190 31.64734
# Shear Modulus (GPa) = 9.89490 25.18995 17.54242
#
# Velocity S-wave (km/s) = 2.33461 3.72497 3.10852
# Velocity P-wave (km/s) = 3.71505 6.84331 5.50602
#
# Compressibility (1/GPa) = 0.08429723
#
# Stress axis : x y z
#
# Youngs Moduli (GPa) = 49.24299 71.06295 9.43948
#
# Poissons Ratio (x) = 0.43262 0.11202
# Poissons Ratio (y) = 0.29978 0.09492
# Poissons Ratio (z) = 0.58435 0.71458
#
# Static dielectric constant tensor:
#      x y z
#    x 3.190180 0.000000 0.239160 
#    y 0.000000 3.421430 0.000000 
#    z 0.239160 0.000000 3.382560 
# 
# 
# High freq. dielectric constant tensor:
#      x y z
#    x 1.683850 0.000000 0.023720 
#    y 0.000000 1.714030 0.000000 
#    z 0.023720 0.000000 1.703660 
# 
# From -- ./inp_files/238566.got.cif
#   From: 2010.06.25/outbox.cif.g09.slc.cpg/sg12_120_cif.got.tgz:238566.got - 2010.06.28 00:19:55.
