data_PCOD8081338
_publ_section_title
;
Structure prediction by ZEFSAII (Michael W. Deem and Ramdas Pophale) SiO2 
 PCOD8081338
Probable space group: C 2/M
;
_chemical_formula_sum "Si O2"
_cell_formula_units_Z 56
_cell_length_a 34.739126
_cell_length_b 8.952202
_cell_length_c 14.322731
_cell_angle_alpha 90.000000
_cell_angle_beta 130.682631
_cell_angle_gamma 90.000000
_cell_volume 3377.800293
_symmetry_space_group_name_H-M "C 2/M"
_symmetry_group_IT_number 12
_symmetry_cell_setting 'monoclinic'
loop_
_space_group_symop_operation_xyz
x,y,z
-x,y,-z
-x,-y,-z
x,-y,z
1/2+x,1/2+y,z
1/2-x,1/2+y,-z
1/2-x,1/2-y,-z
1/2+x,1/2-y,z
loop_
_atom_site_type_symbol
_atom_site_label
_atom_site_fract_x
_atom_site_fract_y
_atom_site_fract_z
Si Si1 0.319793 0.325492 0.537021
Si Si2 0.140469 0.824204 0.850399
Si Si3 0.294973 0.827968 0.680004
Si Si4 0.443053 0.675615 0.429528
Si Si5 0.789364 0.327559 0.179088
Si Si6 0.687993 0.174039 0.083599
Si Si7 0.624649 0.828668 0.534259
O O1 0.329687 0.500000 0.547890
O O2 0.324616 0.271190 0.651419
O O3 0.264322 0.281725 0.409290
O O4 0.363687 0.247365 0.546297
O O5 0.090885 0.776927 0.713244
O O6 0.191113 0.771751 0.876258
O O7 0.142498 0.000000 0.871259
O O8 0.139701 0.736566 0.948576
O O9 0.321182 0.798539 0.821175
O O10 0.299275 0.000000 0.656237
O O11 0.500000 0.729531 0.500000
O O12 0.439614 0.500000 0.441031
O O13 0.423982 0.753875 0.493715
O O14 0.786469 0.500000 0.143356
O O15 0.735193 0.270573 0.124583
O O16 0.826567 0.305219 0.324526
O O17 0.697572 0.000000 0.078809
O O18 0.611525 0.000000 0.495735
#
# Coordination Sequence:
#
# PCOD8081338 Si02
#       7
#     8   8   8   8   8   8   8
#     4  10  18  30  47  67  93 127 165 200 234 274
#     4  10  20  32  47  67  92 121 156 194 234 282
#     4   9  19  31  44  64  93 129 165 200 233 268
#     4   9  19  36  55  73  94 121 155 197 242 287
#     4  10  19  30  44  64  92 127 163 194 227 270
#     4  11  20  31  45  64  94 129 162 193 230 274
#     4  10  19  30  48  72  98 126 158 197 238 283
#
# _framework density 16.578837
#
# number of rings (size 3 to 8) (size 9 to 14) (size 15 to 20)
#    0.000    2.143    1.429    2.571    0.000    3.714 
#    0.000    0.000    0.000    0.000    0.000    1.000 
#    0.000    8.000    0.000    0.000    0.000    0.000 
#
# Total GULP energy -347241.975162 kJ/mol
# GULP energy per Si atom -12401.499113 kJ/mol
# Density = 1.654110 g / cm^3
# Si number density = 16.578837 Si / 1000 Ang^3
#
#
#
# Elastic Constant Matrix: (Units=GPa)
#
#
# Indices 1 2 3 4 5 6 
#
# 1 106.9943 46.7374 49.4787 0.0000 -10.3408 0.0000
# 2 46.7374 65.3782 34.5891 0.0000 -10.2169 0.0000
# 3 49.4787 34.5891 64.8745 0.0000 -14.5040 0.0000
# 4 0.0000 0.0000 0.0000 24.9542 0.0000 -6.8669
# 5 -10.3408 -10.2169 -14.5040 0.0000 23.2960 0.0000
# 6 0.0000 0.0000 0.0000 -6.8669 0.0000 26.6847
#
#
#
# Elastic Compliance Matrix: (Units=1/GPa)
#
#
# Indices 1 2 3 4 5 6 
#
# 1 0.016593 -0.007276 -0.009111 0.000000 -0.001498 0.000000
# 2 -0.007276 0.024636 -0.006846 0.000000 0.003313 0.000000
# 3 -0.009111 -0.006846 0.028389 0.000000 0.010629 0.000000
# 4 0.000000 0.000000 0.000000 0.043127 0.000000 0.011098
# 5 -0.001498 0.003313 0.010629 0.000000 0.050331 0.000000
# 6 0.000000 0.000000 0.000000 0.011098 0.000000 0.040331
#
#
# Mechanical properties :
#
#
# Convention : Reuss Voigt Hill
#
# Bulk Modulus (GPa) = 43.18882 55.42862 49.30872
# Shear Modulus (GPa) = 19.41067 22.08309 20.74688
#
# Velocity S-wave (km/s) = 3.42542 3.65362 3.54136
# Velocity P-wave (km/s) = 6.46156 7.16272 6.82116
#
# Compressibility (1/GPa) = 0.02315414
#
# Stress axis : x y z
#
# Youngs Moduli (GPa) = 60.26632 40.59030 35.22475
#
# Poissons Ratio (x) = 0.29533 0.32093
# Poissons Ratio (y) = 0.43849 0.24113
# Poissons Ratio (z) = 0.54908 0.27786
#
# Static dielectric constant tensor:
#      x y z
#    x 2.920060 0.000000 -0.197190 
#    y 0.000000 3.185760 0.000000 
#    z -0.197190 0.000000 3.196710 
# 
# 
# High freq. dielectric constant tensor:
#      x y z
#    x 1.609860 0.000000 -0.025540 
#    y 0.000000 1.651860 0.000000 
#    z -0.025540 0.000000 1.620700 
# 
# From -- ./inp_files/242997.got.cif
#   From: 2010.06.25/outbox.cif.g09.slc.cpg/sg12_122_cif.got.tgz:242997.got - 2010.06.28 00:19:55.
