data_PCOD8081829
_publ_section_title
;
Structure prediction by ZEFSAII (Michael W. Deem and Ramdas Pophale) SiO2 
 PCOD8081829
Probable space group: C 2/M
;
_chemical_formula_sum "Si O2"
_cell_formula_units_Z 48
_cell_length_a 10.406828
_cell_length_b 18.736252
_cell_length_c 14.910262
_cell_angle_alpha 90.000000
_cell_angle_beta 110.425064
_cell_angle_gamma 90.000000
_cell_volume 2724.494538
_symmetry_space_group_name_H-M "C 2/M"
_symmetry_group_IT_number 12
_symmetry_cell_setting 'monoclinic'
loop_
_space_group_symop_operation_xyz
x,y,z
-x,y,-z
-x,-y,-z
x,-y,z
1/2+x,1/2+y,z
1/2-x,1/2+y,-z
1/2-x,1/2-y,-z
1/2+x,1/2-y,z
loop_
_atom_site_type_symbol
_atom_site_label
_atom_site_fract_x
_atom_site_fract_y
_atom_site_fract_z
Si Si1 0.392671 0.334666 0.279985
Si Si2 0.797669 0.917396 0.890890
Si Si3 0.612687 0.834666 0.720015
Si Si4 0.906779 0.082604 0.109110
Si Si5 0.805423 0.664814 0.610847
Si Si6 0.698142 0.334296 0.396284
O O1 0.383440 0.250000 0.266880
O O2 0.348081 0.370092 0.175643
O O3 0.291407 0.362274 0.332741
O O4 0.544435 0.361605 0.342342
O O5 0.672438 0.870092 0.824357
O O6 0.937957 0.894313 0.875914
O O7 0.766745 0.000000 0.864491
O O8 0.810416 0.903258 1.000000
O O9 0.458666 0.862274 0.667259
O O10 0.702093 0.861605 0.657658
O O11 0.902254 0.000000 0.135509
O O12 0.751677 0.633396 0.503353
O O13 0.801014 0.749440 0.602027
#
# Coordination Sequence:
#
# PCOD8081829 Si02
#       6
#     8   8   8   8   8   8
#     4  10  18  30  51  77 102 129 165 210 250 287
#     4   9  18  34  55  74  95 132 176 208 242 299
#     4  10  18  30  51  77 102 129 165 210 250 287
#     4   9  18  34  55  74  95 132 176 208 242 299
#     4   9  18  28  46  75 106 132 161 201 252 299
#     4   9  16  30  48  71 102 138 169 197 236 297
#
# _framework density 17.617947000000001
#
# number of rings (size 3 to 8) (size 9 to 14) (size 15 to 20)
#    0.000    2.667    1.667    2.000    0.000    4.667 
#    0.000    1.667    0.000    8.000    0.000    0.000 
#    0.000    0.000    0.000    0.000    0.000    0.000 
#
# Total GULP energy -297602.540951 kJ/mol
# GULP energy per Si atom -12400.105873 kJ/mol
# Density = 1.757785 g / cm^3
# Si number density = 17.617947 Si / 1000 Ang^3
#
#
#
# Elastic Constant Matrix: (Units=GPa)
#
#
# Indices 1 2 3 4 5 6 
#
# 1 136.2711 27.3525 73.6417 0.0000 -0.1992 0.0000
# 2 27.3525 30.3592 42.7946 0.0000 -0.3720 0.0000
# 3 73.6417 42.7946 148.9194 0.0000 -0.1055 0.0000
# 4 0.0000 0.0000 0.0000 7.7080 0.0000 0.1768
# 5 -0.1992 -0.3720 -0.1055 0.0000 35.4472 0.0000
# 6 0.0000 0.0000 0.0000 0.1768 0.0000 15.0452
#
#
#
# Elastic Compliance Matrix: (Units=1/GPa)
#
#
# Indices 1 2 3 4 5 6 
#
# 1 0.010232 -0.003507 -0.004052 0.000000 0.000009 0.000000
# 2 -0.003507 0.056579 -0.014524 0.000000 0.000531 0.000000
# 3 -0.004052 -0.014524 0.012893 0.000000 -0.000137 0.000000
# 4 0.000000 0.000000 0.000000 0.129770 0.000000 -0.001525
# 5 0.000009 0.000531 -0.000137 0.000000 0.028216 0.000000
# 6 0.000000 0.000000 0.000000 -0.001525 0.000000 0.066484
#
#
# Mechanical properties :
#
#
# Convention : Reuss Voigt Hill
#
# Bulk Modulus (GPa) = 28.13981 67.01412 47.57697
# Shear Modulus (GPa) = 13.88175 23.09081 18.48628
#
# Velocity S-wave (km/s) = 2.81006 3.62421 3.24278
# Velocity P-wave (km/s) = 5.15126 7.45876 6.40971
#
# Compressibility (1/GPa) = 0.03553684
#
# Stress axis : x y z
#
# Youngs Moduli (GPa) = 97.73309 17.67452 77.56414
#
# Poissons Ratio (x) = 0.06198 0.31429
# Poissons Ratio (y) = 0.34272 1.12657
# Poissons Ratio (z) = 0.39602 0.25671
#
# Static dielectric constant tensor:
#      x y z
#    x 3.290080 0.000000 -0.002070 
#    y 0.000000 2.792720 0.000000 
#    z -0.002070 0.000000 3.376210 
# 
# 
# High freq. dielectric constant tensor:
#      x y z
#    x 1.676880 0.000000 -0.000430 
#    y 0.000000 1.636390 0.000000 
#    z -0.000430 0.000000 1.694910 
# 
# From -- ./inp_files/80606.got.cif
#   From: 2010.06.25/outbox.cif.g09.slc.cpg/sg12_41_cif.got.tgz:80606.got - 2010.06.28 00:19:55.
