data_PCOD8081315
_publ_section_title
;
Structure prediction by ZEFSAII (Michael W. Deem and Ramdas Pophale) SiO2 
 PCOD8081315
Probable space group: C 2/M
;
_chemical_formula_sum "Si O2"
_cell_formula_units_Z 56
_cell_length_a 15.212406
_cell_length_b 25.196773
_cell_length_c 9.183074
_cell_angle_alpha 90.000000
_cell_angle_beta 106.339327
_cell_angle_gamma 90.000000
_cell_volume 3377.744344
_symmetry_space_group_name_H-M "C 2/M"
_symmetry_group_IT_number 12
_symmetry_cell_setting 'monoclinic'
loop_
_space_group_symop_operation_xyz
x,y,z
-x,y,-z
-x,-y,-z
x,-y,z
1/2+x,1/2+y,z
1/2-x,1/2+y,-z
1/2-x,1/2-y,-z
1/2+x,1/2-y,z
loop_
_atom_site_type_symbol
_atom_site_label
_atom_site_fract_x
_atom_site_fract_y
_atom_site_fract_z
Si Si1 0.720133 0.711759 0.809459
Si Si2 0.798516 0.671985 0.125597
Si Si3 0.994832 0.362502 0.169534
Si Si4 0.761039 0.637237 0.414078
Si Si5 0.579840 0.938166 0.422950
Si Si6 0.870992 0.720453 0.647056
Si Si7 0.400109 0.328126 0.495889
O O1 0.674956 0.765988 0.845556
O O2 0.812663 0.727956 0.766776
O O3 0.647824 0.681305 0.679361
O O4 0.741355 0.669731 0.949040
O O5 0.742597 0.646948 0.234419
O O6 0.888909 0.636060 0.162080
O O7 0.047806 0.414660 0.252498
O O8 0.038944 0.312227 0.270751
O O9 0.000000 0.359018 0.000000
O O10 0.825069 0.587039 0.477570
O O11 0.808083 0.690999 0.497836
O O12 0.661579 0.629136 0.443719
O O13 0.500000 0.925170 0.500000
O O14 0.597348 0.000000 0.411047
O O15 0.906426 0.775167 0.596358
O O16 0.500000 0.350615 0.500000
#
# Coordination Sequence:
#
# PCOD8081315 Si02
#       7
#     8   8   8   8   8   8   8
#     4  10  19  30  44  67 105 136 174 206 239 290
#     4  11  18  30  45  71 102 137 168 204 243 295
#     4  11  21  31  48  74 106 141 165 202 252 309
#     4  10  19  33  52  71 100 134 171 207 257 296
#     4  10  21  36  57  80 100 126 168 215 258 314
#     4  10  18  30  46  70 100 138 173 200 243 295
#     4  11  20  33  48  70 100 136 178 213 242 292
#
# _framework density 16.579111000000001
#
# number of rings (size 3 to 8) (size 9 to 14) (size 15 to 20)
#    0.000    1.571    5.714    1.714    0.000    0.286 
#    0.000    0.714    0.000    0.429    0.000    0.000 
#    0.000    1.143    0.000    0.000    0.000    0.000 
#
# Total GULP energy -347149.187203 kJ/mol
# GULP energy per Si atom -12398.185257 kJ/mol
# Density = 1.654138 g / cm^3
# Si number density = 16.579111 Si / 1000 Ang^3
#
#
#
# Elastic Constant Matrix: (Units=GPa)
#
#
# Indices 1 2 3 4 5 6 
#
# 1 116.0514 30.3135 40.5261 0.0000 1.0949 0.0000
# 2 30.3135 65.1891 24.4655 0.0000 4.9377 0.0000
# 3 40.5261 24.4655 122.4151 0.0000 -3.1000 0.0000
# 4 0.0000 0.0000 0.0000 3.7414 0.0000 0.8814
# 5 1.0949 4.9377 -3.1000 0.0000 17.2889 0.0000
# 6 0.0000 0.0000 0.0000 0.8814 0.0000 18.2219
#
#
#
# Elastic Compliance Matrix: (Units=1/GPa)
#
#
# Indices 1 2 3 4 5 6 
#
# 1 0.010587 -0.003896 -0.002728 0.000000 -0.000047 0.000000
# 2 -0.003896 0.018526 -0.002552 0.000000 -0.005502 0.000000
# 3 -0.002728 -0.002552 0.009649 0.000000 0.002632 0.000000
# 4 0.000000 0.000000 0.000000 0.270360 0.000000 -0.013077
# 5 -0.000047 -0.005502 0.002632 0.000000 0.059887 0.000000
# 6 0.000000 0.000000 0.000000 -0.013077 0.000000 0.055512
#
#
# Mechanical properties :
#
#
# Convention : Reuss Voigt Hill
#
# Bulk Modulus (GPa) = 48.99359 54.91841 51.95600
# Shear Modulus (GPa) = 11.11912 21.74046 16.42979
#
# Velocity S-wave (km/s) = 2.59254 3.62514 3.15142
# Velocity P-wave (km/s) = 6.21106 7.12174 6.68193
#
# Compressibility (1/GPa) = 0.02041084
#
# Stress axis : x y z
#
# Youngs Moduli (GPa) = 94.45116 53.97748 103.64192
#
# Poissons Ratio (x) = 0.21030 0.28269
# Poissons Ratio (y) = 0.36799 0.26451
# Poissons Ratio (z) = 0.25762 0.13776
#
# Static dielectric constant tensor:
#      x y z
#    x 3.225980 0.000000 -0.086270 
#    y 0.000000 2.724750 0.000000 
#    z -0.086270 0.000000 3.293460 
# 
# 
# High freq. dielectric constant tensor:
#      x y z
#    x 1.634750 0.000000 -0.009780 
#    y 0.000000 1.584900 0.000000 
#    z -0.009780 0.000000 1.652920 
# 
# From -- ./inp_files/65318.got.cif
#   From: 2010.06.25/outbox.cif.g09.slc.cpg/sg12_33_cif.got.tgz:65318.got - 2010.06.28 00:19:55.
