data_PCOD8081519
_publ_section_title
;
Structure prediction by ZEFSAII (Michael W. Deem and Ramdas Pophale) SiO2 
 PCOD8081519
Probable space group: C 2/M
;
_chemical_formula_sum "Si O2"
_cell_formula_units_Z 48
_cell_length_a 23.737536
_cell_length_b 8.723097
_cell_length_c 13.651651
_cell_angle_alpha 90.000000
_cell_angle_beta 108.779938
_cell_angle_gamma 90.000000
_cell_volume 2676.284959
_symmetry_space_group_name_H-M "C 2/M"
_symmetry_group_IT_number 12
_symmetry_cell_setting 'monoclinic'
loop_
_space_group_symop_operation_xyz
x,y,z
-x,y,-z
-x,-y,-z
x,-y,z
1/2+x,1/2+y,z
1/2-x,1/2+y,-z
1/2-x,1/2-y,-z
1/2+x,1/2-y,z
loop_
_atom_site_type_symbol
_atom_site_label
_atom_site_fract_x
_atom_site_fract_y
_atom_site_fract_z
Si Si1 0.631031 0.675616 0.649900
Si Si2 0.558345 0.675218 0.418812
Si Si3 0.254954 0.323121 0.396690
Si Si4 0.123953 0.677542 0.287364
Si Si5 0.019091 0.181033 0.117979
Si Si6 0.047446 0.678512 0.743154
O O1 0.641497 0.500000 0.686130
O O2 0.577757 0.689834 0.541650
O O3 0.691666 0.748208 0.638905
O O4 0.611251 0.767700 0.735996
O O5 0.541010 0.500000 0.383745
O O6 0.612733 0.728176 0.380672
O O7 0.502378 0.783636 0.365989
O O8 0.270320 0.500000 0.423317
O O9 0.250000 0.250000 0.500000
O O10 0.193670 0.301599 0.301571
O O11 0.107838 0.500000 0.295757
O O12 0.082781 0.742107 0.177411
O O13 0.968252 0.233526 0.165473
O O14 0.026765 0.000000 0.127957
O O15 0.000000 0.236176 0.000000
O O16 0.049587 0.500000 0.767048
#
# Coordination Sequence:
#
# PCOD8081519 Si02
#       6
#     8   8   8   8   8   8
#     4  10  20  33  48  69 103 145 179 207 245 299
#     4  10  18  30  49  70 100 142 177 208 249 301
#     4  10  20  33  50  74 106 145 181 211 247 294
#     4  10  19  31  51  79 108 135 170 216 259 299
#     4  10  21  38  60  80  99 129 168 212 264 319
#     4  11  22  33  49  75 104 132 167 216 264 305
#
# _framework density 17.935310000000001
#
# number of rings (size 3 to 8) (size 9 to 14) (size 15 to 20)
#    0.000    1.833    1.667    5.500    0.000    6.000 
#    0.000    0.000    0.000    1.000    0.000    0.000 
#    0.000    0.000    0.000    0.000    0.000    0.000 
#
# Total GULP energy -297561.057579 kJ/mol
# GULP energy per Si atom -12398.377399 kJ/mol
# Density = 1.789449 g / cm^3
# Si number density = 17.935310 Si / 1000 Ang^3
#
#
#
# Elastic Constant Matrix: (Units=GPa)
#
#
# Indices 1 2 3 4 5 6 
#
# 1 123.8261 21.5821 43.0825 0.0000 -15.0114 0.0000
# 2 21.5821 59.8020 26.7736 0.0000 -1.3213 0.0000
# 3 43.0825 26.7736 86.2646 0.0000 -6.6564 0.0000
# 4 0.0000 0.0000 0.0000 18.7224 0.0000 0.8556
# 5 -15.0114 -1.3213 -6.6564 0.0000 15.3811 0.0000
# 6 0.0000 0.0000 0.0000 0.8556 0.0000 26.0464
#
#
#
# Elastic Compliance Matrix: (Units=1/GPa)
#
#
# Indices 1 2 3 4 5 6 
#
# 1 0.010915 -0.001866 -0.004203 0.000000 0.008673 0.000000
# 2 -0.001866 0.019753 -0.005388 0.000000 -0.002456 0.000000
# 3 -0.004203 -0.005388 0.015530 0.000000 0.002156 0.000000
# 4 0.000000 0.000000 0.000000 0.053492 0.000000 -0.001757
# 5 0.008673 -0.002456 0.002156 0.000000 0.074202 0.000000
# 6 0.000000 0.000000 0.000000 -0.001757 0.000000 0.038451
#
#
# Mechanical properties :
#
#
# Convention : Reuss Voigt Hill
#
# Bulk Modulus (GPa) = 42.94786 50.30768 46.62777
# Shear Modulus (GPa) = 20.57457 23.92694 22.25075
#
# Velocity S-wave (km/s) = 3.39064 3.65645 3.52605
# Velocity P-wave (km/s) = 6.27109 6.77766 6.52929
#
# Compressibility (1/GPa) = 0.02328405
#
# Stress axis : x y z
#
# Youngs Moduli (GPa) = 91.61900 50.62426 64.39171
#
# Poissons Ratio (x) = 0.09446 0.27062
# Poissons Ratio (y) = 0.17095 0.34697
# Poissons Ratio (z) = 0.38505 0.27279
#
# Static dielectric constant tensor:
#      x y z
#    x 3.570260 0.000000 -0.019800 
#    y 0.000000 3.361720 0.000000 
#    z -0.019800 0.000000 3.069190 
# 
# 
# High freq. dielectric constant tensor:
#      x y z
#    x 1.700880 0.000000 -0.005850 
#    y 0.000000 1.699660 0.000000 
#    z -0.005850 0.000000 1.655200 
# 
# From -- ./inp_files/236846.got.cif
#   From: 2010.06.25/outbox.cif.g09.slc.cpg/sg12_119_cif.got.tgz:236846.got - 2010.06.28 00:19:55.
