data_PCOD8081714
_publ_section_title
;
Structure prediction by ZEFSAII (Michael W. Deem and Ramdas Pophale) SiO2 
 PCOD8081714
Probable space group: C 2/M
;
_chemical_formula_sum "Si O2"
_cell_formula_units_Z 40
_cell_length_a 18.414852
_cell_length_b 8.606417
_cell_length_c 26.465843
_cell_angle_alpha 90.000000
_cell_angle_beta 150.339447
_cell_angle_gamma 90.000000
_cell_volume 2075.674035
_symmetry_space_group_name_H-M "C 2/M"
_symmetry_group_IT_number 12
_symmetry_cell_setting 'monoclinic'
loop_
_space_group_symop_operation_xyz
x,y,z
-x,y,-z
-x,-y,-z
x,-y,z
1/2+x,1/2+y,z
1/2-x,1/2+y,-z
1/2-x,1/2-y,-z
1/2+x,1/2-y,z
loop_
_atom_site_type_symbol
_atom_site_label
_atom_site_fract_x
_atom_site_fract_y
_atom_site_fract_z
Si Si1 0.088616 0.683593 0.405126
Si Si2 0.089282 0.184222 0.206156
Si Si3 0.568511 0.816221 0.791908
Si Si4 0.328843 0.815793 0.998470
Si Si5 0.921768 0.684948 0.402534
O O1 0.099268 0.500000 0.414281
O O2 0.250000 0.750000 0.500000
O O3 0.996731 0.737079 0.300916
O O4 0.007514 0.750249 0.405655
O O5 0.254858 0.244575 0.299931
O O6 0.030312 0.240681 0.224382
O O7 0.996485 0.255730 0.103005
O O8 0.077990 0.000000 0.197034
O O9 0.567867 0.000000 0.798744
O O10 0.736848 0.753208 0.895678
O O11 0.324796 0.000000 0.994589
O O12 0.250000 0.750000 0.000000
O O13 0.924634 0.500000 0.404679
O O14 0.000000 0.751234 0.500000
#
# Coordination Sequence:
#
# PCOD8081714 Si02
#       5
#     8   8   8   8   8
#     4  10  21  36  54  77 103 133 169 210 255 302
#     4  10  18  31  54  78 102 134 171 211 252 295
#     4  10  19  32  51  76 106 135 168 209 251 300
#     4  10  18  30  50  75 104 135 170 209 249 298
#     4   9  18  33  53  76 101 131 169 209 250 301
#
# _framework density 19.270849999999999
#
# number of rings (size 3 to 8) (size 9 to 14) (size 15 to 20)
#    0.000    2.200    0.000    6.600    0.000    3.200 
#    0.000    3.000    0.000   11.400    0.000    0.000 
#    0.000    0.000    0.000    0.000    0.000    0.000 
#
# Total GULP energy -247956.965603 kJ/mol
# GULP energy per Si atom -12397.848280 kJ/mol
# Density = 1.922699 g / cm^3
# Si number density = 19.270850 Si / 1000 Ang^3
#
#
#
# Elastic Constant Matrix: (Units=GPa)
#
#
# Indices 1 2 3 4 5 6 
#
# 1 112.1668 16.7575 87.5214 -0.0002 -1.7061 0.0000
# 2 16.7575 66.8209 43.6483 0.0000 -4.2377 0.0000
# 3 87.5214 43.6483 225.9277 0.0006 -1.9310 0.0001
# 4 -0.0002 0.0000 0.0006 32.1501 0.0002 1.6378
# 5 -1.7061 -4.2377 -1.9310 0.0002 34.7097 0.0000
# 6 0.0000 0.0000 0.0001 1.6378 0.0000 17.9568
#
#
#
# Elastic Compliance Matrix: (Units=1/GPa)
#
#
# Indices 1 2 3 4 5 6 
#
# 1 0.012782 0.000057 -0.004960 0.000000 0.000359 0.000000
# 2 0.000057 0.017254 -0.003339 0.000000 0.001924 0.000000
# 3 -0.004960 -0.003339 0.006990 0.000000 -0.000263 0.000000
# 4 0.000000 0.000000 0.000000 0.031249 0.000000 -0.002850
# 5 0.000359 0.001924 -0.000263 0.000000 0.029048 0.000000
# 6 0.000000 0.000000 0.000000 -0.002850 0.000000 0.055949
#
#
# Mechanical properties :
#
#
# Convention : Reuss Voigt Hill
#
# Bulk Modulus (GPa) = 48.67780 77.86329 63.27054
# Shear Modulus (GPa) = 28.31187 34.09587 31.20387
#
# Velocity S-wave (km/s) = 3.83711 4.21087 4.02833
# Velocity P-wave (km/s) = 6.70417 8.00839 7.38513
#
# Compressibility (1/GPa) = 0.02054325
#
# Stress axis : x y z
#
# Youngs Moduli (GPa) = 78.23455 57.95686 143.05550
#
# Poissons Ratio (x) = -0.00330 0.70949
# Poissons Ratio (y) = -0.00445 0.47767
# Poissons Ratio (z) = 0.38801 0.19352
#
# Static dielectric constant tensor:
#      x y z
#    x 3.403800 0.000000 -0.093290 
#    y 0.000000 3.351110 0.000000 
#    z -0.093290 0.000000 4.325530 
# 
# 
# High freq. dielectric constant tensor:
#      x y z
#    x 1.719850 0.000000 -0.002440 
#    y 0.000000 1.738260 0.000000 
#    z -0.002440 0.000000 1.779150 
# 
# From -- ./inp_files/242831.got.cif
#   From: 2010.06.25/outbox.cif.g09.slc.cpg/sg12_122_cif.got.tgz:242831.got - 2010.06.28 00:19:55.
