data_PCOD8081619
_publ_section_title
;
Structure prediction by ZEFSAII (Michael W. Deem and Ramdas Pophale) SiO2 
 PCOD8081619
Probable space group: C 2/M
;
_chemical_formula_sum "Si O2"
_cell_formula_units_Z 52
_cell_length_a 26.091028
_cell_length_b 12.909597
_cell_length_c 18.027209
_cell_angle_alpha 90.000000
_cell_angle_beta 152.303918
_cell_angle_gamma 90.000000
_cell_volume 2822.157209
_symmetry_space_group_name_H-M "C 2/M"
_symmetry_group_IT_number 12
_symmetry_cell_setting 'monoclinic'
loop_
_space_group_symop_operation_xyz
x,y,z
-x,y,-z
-x,-y,-z
x,-y,z
1/2+x,1/2+y,z
1/2-x,1/2+y,-z
1/2-x,1/2-y,-z
1/2+x,1/2-y,z
loop_
_atom_site_type_symbol
_atom_site_label
_atom_site_fract_x
_atom_site_fract_y
_atom_site_fract_z
Si Si1 0.978052 0.808338 0.583361
Si Si2 0.832595 0.622247 0.403253
Si Si3 0.978802 0.877440 0.751381
Si Si4 0.680470 0.386444 0.334423
Si Si5 0.669471 0.381208 0.734052
Si Si6 0.000000 0.179926 0.000000
Si Si7 0.655842 0.276145 0.077722
O O1 0.945590 0.686568 0.538103
O O2 0.967659 0.852556 0.651708
O O3 0.894249 0.874798 0.425739
O O4 0.101586 0.821249 0.711136
O O5 0.858376 0.500000 0.437824
O O6 0.780302 0.664417 0.415000
O O7 0.750289 0.646204 0.229523
O O8 0.868937 0.831853 0.654374
O O9 0.983820 0.000000 0.771611
O O10 0.091293 0.828412 0.926917
O O11 0.722104 0.500000 0.409692
O O12 0.577290 0.395808 0.146092
O O13 0.685045 0.500000 0.777232
O O14 0.789544 0.329567 0.881688
O O15 0.071538 0.252590 0.036401
#
# Coordination Sequence:
#
# PCOD8081619 Si02
#       7
#     8   8   8   8   8   4   8
#     4  10  20  33  51  70  94 128 167 198 235 280
#     4   9  17  32  50  72 100 130 158 191 235 288
#     4  10  18  30  49  76 101 123 157 203 238 275
#     4   8  14  24  44  70  98 127 154 186 235 282
#     4  10  20  37  53  67  91 129 167 199 234 285
#     4   8  13  26  45  70  98 122 150 190 232 288
#     4   9  18  31  52  75  96 123 158 196 242 284
#
# _framework density 18.425621
#
# number of rings (size 3 to 8) (size 9 to 14) (size 15 to 20)
#    0.000    2.769    0.000    2.538    0.000    4.923 
#    0.000    8.077    0.000    0.000    0.000    0.000 
#    0.000    0.000    0.000    0.000    0.000    0.000 
#
# Total GULP energy -322097.853468 kJ/mol
# GULP energy per Si atom -12388.378980 kJ/mol
# Density = 1.838368 g / cm^3
# Si number density = 18.425621 Si / 1000 Ang^3
#
#
#
# Elastic Constant Matrix: (Units=GPa)
#
#
# Indices 1 2 3 4 5 6 
#
# 1 118.0267 54.5565 31.1919 0.0000 -3.3970 0.0000
# 2 54.5565 99.0687 28.2665 0.0000 19.1725 0.0000
# 3 31.1919 28.2665 26.6231 0.0000 1.3458 0.0000
# 4 0.0000 0.0000 0.0000 15.5815 0.0000 2.2142
# 5 -3.3970 19.1725 1.3458 0.0000 31.5540 0.0000
# 6 0.0000 0.0000 0.0000 2.2142 0.0000 25.5860
#
#
#
# Elastic Compliance Matrix: (Units=1/GPa)
#
#
# Indices 1 2 3 4 5 6 
#
# 1 0.014135 -0.005802 -0.010679 0.000000 0.005503 0.000000
# 2 -0.005802 0.019314 -0.013112 0.000000 -0.011801 0.000000
# 3 -0.010679 -0.013112 0.063787 0.000000 0.004097 0.000000
# 4 0.000000 0.000000 0.000000 0.064978 0.000000 -0.005623
# 5 0.005503 -0.011801 0.004097 0.000000 0.039280 0.000000
# 6 0.000000 0.000000 0.000000 -0.005623 0.000000 0.039570
#
#
# Mechanical properties :
#
#
# Convention : Reuss Voigt Hill
#
# Bulk Modulus (GPa) = 26.28091 52.41648 39.34870
# Shear Modulus (GPa) = 15.97784 23.19120 19.58452
#
# Velocity S-wave (km/s) = 2.94794 3.55158 3.26375
# Velocity P-wave (km/s) = 5.08737 6.73258 5.96695
#
# Compressibility (1/GPa) = 0.03805043
#
# Stress axis : x y z
#
# Youngs Moduli (GPa) = 70.74535 51.77544 15.67725
#
# Poissons Ratio (x) = 0.30041 0.16741
# Poissons Ratio (y) = 0.41048 0.20556
# Poissons Ratio (z) = 0.75547 0.67887
#
# Static dielectric constant tensor:
#      x y z
#    x 3.748370 0.000000 0.095440 
#    y 0.000000 3.096370 0.000000 
#    z 0.095440 0.000000 3.124520 
# 
# 
# High freq. dielectric constant tensor:
#      x y z
#    x 1.733220 0.000000 0.001390 
#    y 0.000000 1.684910 0.000000 
#    z 0.001390 0.000000 1.685750 
# 
# From -- ./inp_files/293141.got.cif
#   From: 2010.06.25/outbox.cif.g09.slc.cpg/sg12_147_cif.got.tgz:293141.got - 2010.06.28 00:19:55.
