data_PCOD8081867
_publ_section_title
;
Structure prediction by ZEFSAII (Michael W. Deem and Ramdas Pophale) SiO2 
 PCOD8081867
Probable space group: C 2/M
;
_chemical_formula_sum "Si O2"
_cell_formula_units_Z 48
_cell_length_a 15.567501
_cell_length_b 9.039452
_cell_length_c 29.479737
_cell_angle_alpha 90.000000
_cell_angle_beta 144.076796
_cell_angle_gamma 90.000000
_cell_volume 2433.890121
_symmetry_space_group_name_H-M "C 2/M"
_symmetry_group_IT_number 12
_symmetry_cell_setting 'monoclinic'
loop_
_space_group_symop_operation_xyz
x,y,z
-x,y,-z
-x,-y,-z
x,-y,z
1/2+x,1/2+y,z
1/2-x,1/2+y,-z
1/2-x,1/2-y,-z
1/2+x,1/2-y,z
loop_
_atom_site_type_symbol
_atom_site_label
_atom_site_fract_x
_atom_site_fract_y
_atom_site_fract_z
Si Si1 0.090969 0.327274 0.174326
Si Si2 0.874504 0.324193 0.913361
Si Si3 0.417017 0.329150 0.333534
Si Si4 0.099354 0.673927 0.334081
Si Si5 0.338251 0.669176 0.499824
Si Si6 0.559492 0.675412 0.812404
O O1 0.051848 0.500000 0.159391
O O2 0.094290 0.268312 0.124166
O O3 0.246387 0.293234 0.264531
O O4 0.967443 0.236806 0.148518
O O5 0.873896 0.500000 0.913993
O O6 0.717112 0.266166 0.862880
O O7 0.000000 0.260178 0.000000
O O8 0.438543 0.500000 0.327090
O O9 0.489534 0.225149 0.326809
O O10 0.489523 0.302554 0.415050
O O11 0.077713 0.500000 0.315838
O O12 0.269679 0.713038 0.421366
O O13 0.066207 0.761061 0.274026
O O14 0.298994 0.500000 0.489863
O O15 0.250000 0.750000 0.500000
O O16 0.551544 0.500000 0.809482
#
# Coordination Sequence:
#
# PCOD8081867 Si02
#       6
#     8   8   8   8   8   8
#     4  10  20  36  58  84 112 146 183 223 271 326
#     4   9  19  38  62  84 109 143 180 220 274 335
#     4   9  16  31  53  77 108 147 187 225 272 325
#     4  10  18  30  51  79 110 145 185 230 274 318
#     4   8  15  26  45  74 105 140 184 228 268 315
#     4  11  22  37  57  83 112 147 184 225 274 327
#
# _framework density 19.721515
#
# number of rings (size 3 to 8) (size 9 to 14) (size 15 to 20)
#    0.000    2.500    1.667    1.000    0.000    2.000 
#    0.000    0.833    0.000    8.500    0.000    0.000 
#    0.000    0.000    0.000    0.000    0.000    0.000 
#
# Total GULP energy -297366.524749 kJ/mol
# GULP energy per Si atom -12390.271865 kJ/mol
# Density = 1.967663 g / cm^3
# Si number density = 19.721515 Si / 1000 Ang^3
#
#
#
# Elastic Constant Matrix: (Units=GPa)
#
#
# Indices 1 2 3 4 5 6 
#
# 1 116.6200 34.5905 61.4969 0.0000 -18.2688 0.0000
# 2 34.5905 50.2997 34.3358 0.0000 -5.4200 0.0000
# 3 61.4969 34.3358 155.4048 0.0000 -11.1224 0.0000
# 4 0.0000 0.0000 0.0000 19.2434 0.0000 -4.7596
# 5 -18.2688 -5.4200 -11.1224 0.0000 12.1475 0.0000
# 6 0.0000 0.0000 0.0000 -4.7596 0.0000 28.5508
#
#
#
# Elastic Compliance Matrix: (Units=1/GPa)
#
#
# Indices 1 2 3 4 5 6 
#
# 1 0.014676 -0.006083 -0.003294 0.000000 0.016341 0.000000
# 2 -0.006083 0.026365 -0.003457 0.000000 -0.000550 0.000000
# 3 -0.003294 -0.003457 0.008601 0.000000 0.001378 0.000000
# 4 0.000000 0.000000 0.000000 0.054201 0.000000 0.009036
# 5 0.016341 -0.000550 0.001378 0.000000 0.107914 0.000000
# 6 0.000000 0.000000 0.000000 0.009036 0.000000 0.036532
#
#
# Mechanical properties :
#
#
# Convention : Reuss Voigt Hill
#
# Bulk Modulus (GPa) = 41.71391 64.79676 53.25534
# Shear Modulus (GPa) = 17.73375 24.78176 21.25775
#
# Velocity S-wave (km/s) = 3.00193 3.54868 3.28670
# Velocity P-wave (km/s) = 5.76306 7.05110 6.43937
#
# Compressibility (1/GPa) = 0.02397282
#
# Stress axis : x y z
#
# Youngs Moduli (GPa) = 68.13784 37.92923 116.26728
#
# Poissons Ratio (x) = 0.23073 0.38299
# Poissons Ratio (y) = 0.41449 0.40198
# Poissons Ratio (z) = 0.22445 0.13113
#
# Static dielectric constant tensor:
#      x y z
#    x 3.305560 0.000000 -0.002130 
#    y 0.000000 3.366330 0.000000 
#    z -0.002130 0.000000 4.253160 
# 
# 
# High freq. dielectric constant tensor:
#      x y z
#    x 1.741240 0.000000 -0.004060 
#    y 0.000000 1.746680 0.000000 
#    z -0.004060 0.000000 1.786360 
# 
# From -- ./inp_files/360245.got.cif
#   From: 2010.06.25/outbox.cif.g09.slc.cpg/sg12_181_cif.got.tgz:360245.got - 2010.06.28 00:19:55.
