data_PCOD8081142
_publ_section_title
;
Structure prediction by ZEFSAII (Michael W. Deem and Ramdas Pophale) SiO2 
 PCOD8081142
Probable space group: C 2/M
;
_chemical_formula_sum "Si O2"
_cell_formula_units_Z 40
_cell_length_a 25.068818
_cell_length_b 9.678098
_cell_length_c 18.272060
_cell_angle_alpha 90.000000
_cell_angle_beta 149.264068
_cell_angle_gamma 90.000000
_cell_volume 2265.697996
_symmetry_space_group_name_H-M "C 2/M"
_symmetry_group_IT_number 12
_symmetry_cell_setting 'monoclinic'
loop_
_space_group_symop_operation_xyz
x,y,z
-x,y,-z
-x,-y,-z
x,-y,z
1/2+x,1/2+y,z
1/2-x,1/2+y,-z
1/2-x,1/2-y,-z
1/2+x,1/2-y,z
loop_
_atom_site_type_symbol
_atom_site_label
_atom_site_fract_x
_atom_site_fract_y
_atom_site_fract_z
Si Si1 0.825267 0.000000 0.604656
Si Si2 0.232651 0.273781 0.281528
Si Si3 0.923833 0.500000 0.687029
Si Si4 0.620300 0.500000 0.162053
Si Si5 0.585816 0.000000 0.163290
Si Si6 0.081550 0.777106 0.391041
Si Si7 0.022243 0.000000 0.645058
Si Si8 0.829833 0.000000 0.307523
O O1 0.701135 0.000000 0.459355
O O2 0.869095 0.000000 0.738146
O O3 0.864486 0.863182 0.610100
O O4 0.156629 0.364022 0.242506
O O5 0.334194 0.236803 0.448232
O O6 0.262030 0.362106 0.243512
O O7 0.175095 0.133421 0.190306
O O8 0.969545 0.500000 0.823072
O O9 0.966862 0.635813 0.697004
O O10 0.500000 0.500000 0.000000
O O11 0.500000 0.000000 0.000000
O O12 0.986720 0.863822 0.315052
O O13 0.131937 0.000000 0.731353
O O14 0.926130 0.000000 0.476280
#
# Coordination Sequence:
#
# PCOD8081142 Si02
#       8
#     4   8   4   4   4   8   4   4
#     4  11  18  31  49  67  99 141 164 191 247 290
#     4  10  18  32  48  70  96 132 168 197 245 295
#     4  12  18  29  49  71 101 135 163 197 247 289
#     4  12  23  31  44  73 110 136 161 198 239 297
#     4  11  21  31  46  71 102 134 169 194 229 296
#     4  10  18  29  50  74  94 128 168 204 242 296
#     4   8  16  31  48  76  99 118 166 217 257 286
#     4   8  16  31  53  68  96 132 162 211 255 292
#
# _framework density 17.654603000000002
#
# number of rings (size 3 to 8) (size 9 to 14) (size 15 to 20)
#    0.000    1.800    4.000    3.600    0.000    0.000 
#    0.000    1.000    0.000    4.800    0.000   22.400 
#    0.000    0.000    0.000    0.000    0.000    0.000 
#
# Total GULP energy -247995.021588 kJ/mol
# GULP energy per Si atom -12399.751079 kJ/mol
# Density = 1.761442 g / cm^3
# Si number density = 17.654603 Si / 1000 Ang^3
#
#
#
# Elastic Constant Matrix: (Units=GPa)
#
#
# Indices 1 2 3 4 5 6 
#
# 1 119.9681 67.9869 26.4007 0.0000 -4.6191 0.0000
# 2 67.9869 163.6556 24.0192 0.0000 1.2050 0.0000
# 3 26.4007 24.0192 63.9607 0.0000 -10.1819 0.0000
# 4 0.0000 0.0000 0.0000 7.6457 0.0000 -3.4827
# 5 -4.6191 1.2050 -10.1819 0.0000 15.6428 0.0000
# 6 0.0000 0.0000 0.0000 -3.4827 0.0000 11.2067
#
#
#
# Elastic Compliance Matrix: (Units=1/GPa)
#
#
# Indices 1 2 3 4 5 6 
#
# 1 0.011510 -0.004385 -0.002800 0.000000 0.001914 0.000000
# 2 -0.004385 0.008214 -0.001764 0.000000 -0.003076 0.000000
# 3 -0.002800 -0.001764 0.019347 0.000000 0.011903 0.000000
# 4 0.000000 0.000000 0.000000 0.152360 0.000000 0.047349
# 5 0.001914 -0.003076 0.011903 0.000000 0.072477 0.000000
# 6 0.000000 0.000000 0.000000 0.047349 0.000000 0.103947
#
#
# Mechanical properties :
#
#
# Convention : Reuss Voigt Hill
#
# Bulk Modulus (GPa) = 47.22784 64.93308 56.08046
# Shear Modulus (GPa) = 12.72878 22.17755 17.45317
#
# Velocity S-wave (km/s) = 2.68804 3.54812 3.14760
# Velocity P-wave (km/s) = 6.03682 7.32428 6.71149
#
# Compressibility (1/GPa) = 0.02117395
#
# Stress axis : x y z
#
# Youngs Moduli (GPa) = 86.87869 121.74993 51.68638
#
# Poissons Ratio (x) = 0.53386 0.14470
# Poissons Ratio (y) = 0.38095 0.09118
# Poissons Ratio (z) = 0.24323 0.21479
#
# Static dielectric constant tensor:
#      x y z
#    x 3.387080 0.000000 -0.086420 
#    y 0.000000 3.449660 0.000000 
#    z -0.086420 0.000000 2.947490 
# 
# 
# High freq. dielectric constant tensor:
#      x y z
#    x 1.661340 0.000000 -0.011570 
#    y 0.000000 1.696370 0.000000 
#    z -0.011570 0.000000 1.643280 
# 
# From -- ./inp_files/229125.got.cif
#   From: 2010.06.25/outbox.cif.g09.slc.cpg/sg12_115_cif.got.tgz:229125.got - 2010.06.28 00:19:55.
