data_PCOD8081543
_publ_section_title
;
Structure prediction by ZEFSAII (Michael W. Deem and Ramdas Pophale) SiO2 
 PCOD8081543
Probable space group: C 2/M
;
_chemical_formula_sum "Si O2"
_cell_formula_units_Z 48
_cell_length_a 20.622350
_cell_length_b 8.788001
_cell_length_c 20.102529
_cell_angle_alpha 90.000000
_cell_angle_beta 48.797292
_cell_angle_gamma 90.000000
_cell_volume 2741.058917
_symmetry_space_group_name_H-M "C 2/M"
_symmetry_group_IT_number 12
_symmetry_cell_setting 'monoclinic'
loop_
_space_group_symop_operation_xyz
x,y,z
-x,y,-z
-x,-y,-z
x,-y,z
1/2+x,1/2+y,z
1/2-x,1/2+y,-z
1/2-x,1/2-y,-z
1/2+x,1/2-y,z
loop_
_atom_site_type_symbol
_atom_site_label
_atom_site_fract_x
_atom_site_fract_y
_atom_site_fract_z
Si Si1 0.156218 0.821113 0.558132
Si Si2 0.865617 0.830208 0.093774
Si Si3 0.902601 0.679517 0.273440
Si Si4 0.243697 0.818602 0.717943
Si Si5 0.518918 0.672162 0.095024
Si Si6 0.903788 0.177433 0.548123
O O1 0.250000 0.750000 0.500000
O O2 0.093238 0.747525 0.655400
O O3 0.115291 0.780840 0.514967
O O4 0.163152 0.000000 0.565418
O O5 0.783764 0.758653 0.188716
O O6 0.940259 0.832335 0.097702
O O7 0.842128 0.000000 0.087708
O O8 0.899566 0.753255 0.001564
O O9 0.894715 0.500000 0.281690
O O10 0.817026 0.743939 0.296512
O O11 0.991691 0.725291 0.176150
O O12 0.341400 0.770516 0.639255
O O13 0.232335 0.000000 0.721500
O O14 0.539203 0.500000 0.105530
O O15 0.000000 0.229638 0.500000
O O16 0.889697 0.000000 0.571793
#
# Coordination Sequence:
#
# PCOD8081543 Si02
#       6
#     8   8   8   8   8   8
#     4  11  21  34  53  74  98 130 167 204 246 298
#     4   7  12  23  41  64  91 124 159 197 240 291
#     4  11  20  29  44  70 102 131 163 203 247 290
#     4  10  18  30  49  71  96 129 168 204 244 293
#     4   8  13  25  42  62  92 127 161 196 240 292
#     4  10  22  38  53  72 100 131 164 205 252 299
#
# _framework density 17.511479999999999
#
# number of rings (size 3 to 8) (size 9 to 14) (size 15 to 20)
#    0.000    2.500    1.667    4.500    0.000    1.000 
#    0.000    7.500    0.000    0.000    0.000    1.167 
#    0.000    0.000    0.000    0.000    0.000    0.000 
#
# Total GULP energy -297333.579955 kJ/mol
# GULP energy per Si atom -12388.899165 kJ/mol
# Density = 1.747162 g / cm^3
# Si number density = 17.511480 Si / 1000 Ang^3
#
#
#
# Elastic Constant Matrix: (Units=GPa)
#
#
# Indices 1 2 3 4 5 6 
#
# 1 62.7549 29.4094 51.1973 0.0000 -2.5915 0.0001
# 2 29.4094 79.0857 59.6587 0.0000 -0.4784 0.0001
# 3 51.1973 59.6587 201.2477 0.0000 1.4398 0.0000
# 4 0.0000 0.0000 0.0000 27.1536 0.0000 -1.7736
# 5 -2.5915 -0.4784 1.4398 0.0000 13.3610 0.0000
# 6 0.0001 0.0001 0.0000 -1.7736 0.0000 13.9577
#
#
#
# Elastic Compliance Matrix: (Units=1/GPa)
#
#
# Indices 1 2 3 4 5 6 
#
# 1 0.021803 -0.004988 -0.004100 0.000000 0.004492 0.000000
# 2 -0.004988 0.017444 -0.003903 0.000000 0.000078 0.000000
# 3 -0.004100 -0.003903 0.007181 0.000000 -0.001709 0.000000
# 4 0.000000 0.000000 0.000000 0.037136 0.000000 0.004719
# 5 0.004492 0.000078 -0.001709 0.000000 0.075903 0.000000
# 6 0.000000 0.000000 0.000000 0.004719 0.000000 0.072245
#
#
# Mechanical properties :
#
#
# Convention : Reuss Voigt Hill
#
# Bulk Modulus (GPa) = 48.90752 69.29102 59.09927
# Shear Modulus (GPa) = 18.90298 24.41599 21.65948
#
# Velocity S-wave (km/s) = 3.28908 3.73806 3.52074
# Velocity P-wave (km/s) = 6.51257 7.63450 7.09574
#
# Compressibility (1/GPa) = 0.02044675
#
# Stress axis : x y z
#
# Youngs Moduli (GPa) = 45.86514 57.32688 139.25047
#
# Poissons Ratio (x) = 0.28592 0.57097
# Poissons Ratio (y) = 0.22876 0.54347
# Poissons Ratio (z) = 0.18806 0.22374
#
# Static dielectric constant tensor:
#      x y z
#    x 2.764710 0.000000 0.076970 
#    y 0.000000 3.134730 0.000000 
#    z 0.076970 0.000000 4.119030 
# 
# 
# High freq. dielectric constant tensor:
#      x y z
#    x 1.604490 0.000000 0.006600 
#    y 0.000000 1.663060 0.000000 
#    z 0.006600 0.000000 1.711840 
# 
# From -- ./inp_files/318982.got.cif
#   From: 2010.06.25/outbox.cif.g09.slc.cpg/sg12_160_cif.got.tgz:318982.got - 2010.06.28 00:19:55.
