data_PCOD8081491
_publ_section_title
;
Structure prediction by ZEFSAII (Michael W. Deem and Ramdas Pophale) SiO2 
 PCOD8081491
Probable space group: C 2/M
;
_chemical_formula_sum "Si O2"
_cell_formula_units_Z 48
_cell_length_a 9.006507
_cell_length_b 24.241546
_cell_length_c 12.736132
_cell_angle_alpha 90.000000
_cell_angle_beta 71.966224
_cell_angle_gamma 90.000000
_cell_volume 2644.096570
_symmetry_space_group_name_H-M "C 2/M"
_symmetry_group_IT_number 12
_symmetry_cell_setting 'monoclinic'
loop_
_space_group_symop_operation_xyz
x,y,z
-x,y,-z
-x,-y,-z
x,-y,z
1/2+x,1/2+y,z
1/2-x,1/2+y,-z
1/2-x,1/2-y,-z
1/2+x,1/2-y,z
loop_
_atom_site_type_symbol
_atom_site_label
_atom_site_fract_x
_atom_site_fract_y
_atom_site_fract_z
Si Si1 0.948170 0.286202 0.693197
Si Si2 0.684034 0.873419 0.571899
Si Si3 0.212959 0.873023 0.683945
Si Si4 0.616469 0.338669 0.288320
Si Si5 0.447070 0.158902 0.127822
Si Si6 0.551333 0.936394 0.243395
O O1 0.781940 0.313181 0.699586
O O2 0.943752 0.222148 0.668297
O O3 0.085554 0.316118 0.596668
O O4 0.981221 0.295435 0.809755
O O5 0.736900 0.888735 0.444793
O O6 0.834461 0.867836 0.613878
O O7 0.574324 0.922644 0.638371
O O8 0.278138 0.919289 0.749598
O O9 0.025801 0.872058 0.733189
O O10 0.758760 0.338382 0.174656
O O11 0.508781 0.098423 0.148483
O O12 0.500000 0.173498 0.000000
O O13 0.549141 0.000000 0.212961
#
# Coordination Sequence:
#
# PCOD8081491 Si02
#       6
#     8   8   8   8   8   8
#     4   9  18  31  47  72 104 136 164 190 232 290
#     4   9  19  30  47  74 104 137 164 188 230 292
#     4  10  18  30  48  75 103 129 165 200 233 280
#     4  10  19  31  48  73 104 131 161 202 236 277
#     4   9  20  37  53  71  95 127 167 205 249 300
#     4   9  19  36  54  71  94 127 165 203 247 298
#
# _framework density 18.153649000000001
#
# number of rings (size 3 to 8) (size 9 to 14) (size 15 to 20)
#    0.000    3.333    0.000    4.500    0.000    6.333 
#    0.000    6.667    0.000    6.000    0.000    0.000 
#    0.000    0.000    0.000    0.000    0.000    0.000 
#
# Total GULP energy -297517.063630 kJ/mol
# GULP energy per Si atom -12396.544318 kJ/mol
# Density = 1.811233 g / cm^3
# Si number density = 18.153649 Si / 1000 Ang^3
#
#
#
# Elastic Constant Matrix: (Units=GPa)
#
#
# Indices 1 2 3 4 5 6 
#
# 1 134.0391 10.2029 9.1685 0.0000 7.4013 0.0000
# 2 10.2029 64.4020 -26.2882 0.0000 6.4697 0.0000
# 3 9.1685 -26.2882 57.0929 0.0000 -1.4715 0.0000
# 4 0.0000 0.0000 0.0000 6.0521 0.0000 2.9274
# 5 7.4013 6.4697 -1.4715 0.0000 16.0991 0.0000
# 6 0.0000 0.0000 0.0000 2.9274 0.0000 12.4235
#
#
#
# Elastic Compliance Matrix: (Units=1/GPa)
#
#
# Indices 1 2 3 4 5 6 
#
# 1 0.007923 -0.001841 -0.002200 0.000000 -0.003103 0.000000
# 2 -0.001841 0.020345 0.009497 0.000000 -0.006461 0.000000
# 3 -0.002200 0.009497 0.022221 0.000000 -0.000774 0.000000
# 4 0.000000 0.000000 0.000000 0.186486 0.000000 -0.043942
# 5 -0.003103 -0.006461 -0.000774 0.000000 0.066068 0.000000
# 6 0.000000 0.000000 0.000000 -0.043942 0.000000 0.090847
#
#
# Mechanical properties :
#
#
# Convention : Reuss Voigt Hill
#
# Bulk Modulus (GPa) = 16.28680 26.85558 21.57119
# Shear Modulus (GPa) = 12.39325 24.41168 18.40246
#
# Velocity S-wave (km/s) = 2.61566 3.67103 3.18733
# Velocity P-wave (km/s) = 4.25598 5.72662 5.04517
#
# Compressibility (1/GPa) = 0.06139941
#
# Stress axis : x y z
#
# Youngs Moduli (GPa) = 126.22236 49.15258 45.00152
#
# Poissons Ratio (x) = 0.09051 0.09901
# Poissons Ratio (y) = 0.23243 -0.42737
# Poissons Ratio (z) = 0.27771 -0.46680
#
# Static dielectric constant tensor:
#      x y z
#    x 3.570090 0.000000 0.156890 
#    y 0.000000 2.992210 0.000000 
#    z 0.156890 0.000000 3.013150 
# 
# 
# High freq. dielectric constant tensor:
#      x y z
#    x 1.717630 0.000000 0.015890 
#    y 0.000000 1.671620 0.000000 
#    z 0.015890 0.000000 1.676620 
# 
# From -- ./inp_files/123016.got.cif
#   From: 2010.06.25/outbox.cif.g09.slc.cpg/sg12_62_cif.got.tgz:123016.got - 2010.06.28 00:19:55.
