data_PCOD8081514
_publ_section_title
;
Structure prediction by ZEFSAII (Michael W. Deem and Ramdas Pophale) SiO2 
 PCOD8081514
Probable space group: C 2/M
;
_chemical_formula_sum "Si O2"
_cell_formula_units_Z 48
_cell_length_a 31.709148
_cell_length_b 9.001952
_cell_length_c 16.681293
_cell_angle_alpha 90.000000
_cell_angle_beta 145.345137
_cell_angle_gamma 90.000000
_cell_volume 2707.584512
_symmetry_space_group_name_H-M "C 2/M"
_symmetry_group_IT_number 12
_symmetry_cell_setting 'monoclinic'
loop_
_space_group_symop_operation_xyz
x,y,z
-x,y,-z
-x,-y,-z
x,-y,z
1/2+x,1/2+y,z
1/2-x,1/2+y,-z
1/2-x,1/2-y,-z
1/2+x,1/2-y,z
loop_
_atom_site_type_symbol
_atom_site_label
_atom_site_fract_x
_atom_site_fract_y
_atom_site_fract_z
Si Si1 0.664789 0.175892 0.110771
Si Si2 0.446335 0.674810 0.171672
Si Si3 0.403792 0.323889 0.673783
Si Si4 0.171642 0.176906 0.600853
Si Si5 0.524764 0.324052 0.453787
Si Si6 0.912146 0.829583 0.863030
O O1 0.749173 0.236950 0.245863
O O2 0.622462 0.225837 0.124137
O O3 0.662878 0.000000 0.102986
O O4 0.627682 0.241966 0.972797
O O5 0.433550 0.500000 0.141756
O O6 0.514161 0.731912 0.222450
O O7 0.463794 0.717581 0.291134
O O8 0.407735 0.500000 0.678406
O O9 0.343922 0.266669 0.514815
O O10 0.382530 0.271241 0.730045
O O11 0.106071 0.237650 0.556105
O O12 0.170475 0.000000 0.599290
O O13 0.500000 0.253343 0.500000
O O14 0.530301 0.500000 0.469700
O O15 0.888803 0.000000 0.842963
O O16 0.000000 0.814733 0.000000
#
# Coordination Sequence:
#
# PCOD8081514 Si02
#       6
#     8   8   8   8   8   8
#     4  11  21  30  43  68 102 131 152 186 239 288
#     4   9  16  30  51  71  92 121 159 197 232 271
#     4   8  14  28  48  65  85 122 164 195 226 268
#     4   8  16  29  44  66  98 127 150 188 242 284
#     4   8  14  28  54  79  91 112 159 205 229 265
#     4  10  18  30  49  69  89 121 167 205 231 264
#
# _framework density 17.727979000000001
#
# number of rings (size 3 to 8) (size 9 to 14) (size 15 to 20)
#    0.000    3.000    1.667    2.500    0.000    1.000 
#    0.000    0.833    0.000    9.500    0.000    0.000 
#    0.000    0.000    0.000    0.000    0.000    0.000 
#
# Total GULP energy -297427.262677 kJ/mol
# GULP energy per Si atom -12392.802612 kJ/mol
# Density = 1.768763 g / cm^3
# Si number density = 17.727979 Si / 1000 Ang^3
#
#
#
# Elastic Constant Matrix: (Units=GPa)
#
#
# Indices 1 2 3 4 5 6 
#
# 1 110.4517 19.5700 65.4403 0.0000 -19.8758 0.0000
# 2 19.5700 29.4937 32.6063 0.0000 -2.9734 0.0000
# 3 65.4403 32.6063 156.1091 0.0000 -11.8680 0.0000
# 4 0.0000 0.0000 0.0000 22.2599 0.0000 -1.9509
# 5 -19.8758 -2.9734 -11.8680 0.0000 22.4172 0.0000
# 6 0.0000 0.0000 0.0000 -1.9509 0.0000 11.0229
#
#
#
# Elastic Compliance Matrix: (Units=1/GPa)
#
#
# Indices 1 2 3 4 5 6 
#
# 1 0.014018 -0.003437 -0.004426 0.000000 0.009630 0.000000
# 2 -0.003437 0.044950 -0.008050 0.000000 -0.001347 0.000000
# 3 -0.004426 -0.008050 0.009964 0.000000 0.000283 0.000000
# 4 0.000000 0.000000 0.000000 0.045632 0.000000 0.008076
# 5 0.009630 -0.001347 0.000283 0.000000 0.053118 0.000000
# 6 0.000000 0.000000 0.000000 0.008076 0.000000 0.092150
#
#
# Mechanical properties :
#
#
# Convention : Reuss Voigt Hill
#
# Bulk Modulus (GPa) = 26.95057 59.03196 42.99127
# Shear Modulus (GPa) = 16.44590 23.03586 19.74088
#
# Velocity S-wave (km/s) = 3.04909 3.60864 3.34060
# Velocity P-wave (km/s) = 5.25654 7.12279 6.25960
#
# Compressibility (1/GPa) = 0.03710497
#
# Stress axis : x y z
#
# Youngs Moduli (GPa) = 71.33635 22.24684 100.35898
#
# Poissons Ratio (x) = 0.07647 0.44422
# Poissons Ratio (y) = 0.24520 0.80792
# Poissons Ratio (z) = 0.31576 0.17909
#
# Static dielectric constant tensor:
#      x y z
#    x 3.589530 0.000000 -0.189720 
#    y 0.000000 2.779060 0.000000 
#    z -0.189720 0.000000 3.617960 
# 
# 
# High freq. dielectric constant tensor:
#      x y z
#    x 1.676030 0.000000 -0.014950 
#    y 0.000000 1.631800 0.000000 
#    z -0.014950 0.000000 1.693230 
# 
# From -- ./inp_files/273709.got.cif
#   From: 2010.06.25/outbox.cif.g09.slc.cpg/sg12_137_cif.got.tgz:273709.got - 2010.06.28 00:19:55.
