data_PCOD8081258
_publ_section_title
;
Structure prediction by ZEFSAII (Michael W. Deem and Ramdas Pophale) SiO2 
 PCOD8081258
Probable space group: C 2/M
;
_chemical_formula_sum "Si O2"
_cell_formula_units_Z 64
_cell_length_a 27.422437
_cell_length_b 8.926537
_cell_length_c 23.616124
_cell_angle_alpha 90.000000
_cell_angle_beta 135.015141
_cell_angle_gamma 90.000000
_cell_volume 4086.654123
_symmetry_space_group_name_H-M "C 2/M"
_symmetry_group_IT_number 12
_symmetry_cell_setting 'monoclinic'
loop_
_space_group_symop_operation_xyz
x,y,z
-x,y,-z
-x,-y,-z
x,-y,z
1/2+x,1/2+y,z
1/2-x,1/2+y,-z
1/2-x,1/2-y,-z
1/2+x,1/2-y,z
loop_
_atom_site_type_symbol
_atom_site_label
_atom_site_fract_x
_atom_site_fract_y
_atom_site_fract_z
Si Si1 0.303674 0.327090 0.503186
Si Si2 0.907428 0.677815 0.657993
Si Si3 0.813898 0.679079 0.020899
Si Si4 0.362513 0.672294 0.825531
Si Si5 0.959534 0.668307 0.177515
Si Si6 0.696059 0.172366 0.326809
Si Si7 0.502810 0.169570 0.918093
Si Si8 0.858075 0.171827 0.947347
O O1 0.308765 0.500000 0.523505
O O2 0.250000 0.250000 0.500000
O O3 0.378412 0.251257 0.575982
O O4 0.274285 0.306622 0.415245
O O5 0.907149 0.500000 0.650819
O O6 0.859271 0.724955 0.671428
O O7 0.985989 0.739711 0.732942
O O8 0.810868 0.500000 0.020107
O O9 0.883813 0.743564 0.108848
O O10 0.750000 0.750000 0.000000
O O11 0.813927 0.729582 0.955336
O O12 0.381869 0.500000 0.829589
O O13 0.309563 0.728535 0.734226
O O14 0.430933 0.771434 0.882107
O O15 0.327078 0.689239 0.858461
O O16 0.945106 0.500000 0.185200
O O17 0.999957 0.672672 0.151730
O O18 0.682104 0.000000 0.299251
O O19 0.515128 0.000000 0.949792
O O20 0.563030 0.274837 0.990716
O O21 0.855586 0.000000 0.965491
#
# Coordination Sequence:
#
# PCOD8081258 Si02
#       8
#     8   8   8   8   8   8   8   8
#     4   9  17  27  38  56  81 114 151 187 222 258
#     4   9  15  27  43  60  84 114 149 189 220 256
#     4  10  20  35  54  71  89 117 147 183 229 274
#     4  11  21  29  41  62  90 119 151 191 225 256
#     4   8  15  28  45  65  87 114 148 181 220 262
#     4   9  17  28  41  56  83 120 155 186 218 258
#     4  10  18  30  45  61  86 120 154 185 220 265
#     4  10  21  34  45  64  90 114 147 189 226 265
#
# _framework density 15.660733
#
# number of rings (size 3 to 8) (size 9 to 14) (size 15 to 20)
#    0.000    2.500    1.250    3.750    0.000    6.000 
#    0.000    1.250    0.000    0.000    0.000    0.000 
#    0.000    1.000    0.000   11.250    0.000    5.625 
#
# Total GULP energy -396505.016781 kJ/mol
# GULP energy per Si atom -12390.781774 kJ/mol
# Density = 1.562509 g / cm^3
# Si number density = 15.660733 Si / 1000 Ang^3
#
#
#
# Elastic Constant Matrix: (Units=GPa)
#
#
# Indices 1 2 3 4 5 6 
#
# 1 64.8437 29.1463 47.2214 0.0000 5.4598 0.0000
# 2 29.1463 69.8069 38.6776 0.0000 -0.7880 0.0000
# 3 47.2214 38.6776 102.5053 0.0000 1.0401 0.0000
# 4 0.0000 0.0000 0.0000 27.8875 0.0000 -0.3458
# 5 5.4598 -0.7880 1.0401 0.0000 13.2709 0.0000
# 6 0.0000 0.0000 0.0000 -0.3458 0.0000 18.4588
#
#
#
# Elastic Compliance Matrix: (Units=1/GPa)
#
#
# Indices 1 2 3 4 5 6 
#
# 1 0.025837 -0.005519 -0.009716 0.000000 -0.010196 0.000000
# 2 -0.005519 0.019325 -0.004788 0.000000 0.003793 0.000000
# 3 -0.009716 -0.004788 0.016013 0.000000 0.002458 0.000000
# 4 0.000000 0.000000 0.000000 0.035867 0.000000 0.000672
# 5 -0.010196 0.003793 0.002458 0.000000 0.079580 0.000000
# 6 0.000000 0.000000 0.000000 0.000672 0.000000 0.054187
#
#
# Mechanical properties :
#
#
# Convention : Reuss Voigt Hill
#
# Bulk Modulus (GPa) = 47.32922 51.91629 49.62275
# Shear Modulus (GPa) = 17.99216 20.06413 19.02815
#
# Velocity S-wave (km/s) = 3.39318 3.58323 3.48950
# Velocity P-wave (km/s) = 6.75564 7.09521 6.92751
#
# Compressibility (1/GPa) = 0.02112860
#
# Stress axis : x y z
#
# Youngs Moduli (GPa) = 38.70464 51.74582 62.44833
#
# Poissons Ratio (x) = 0.28559 0.60677
# Poissons Ratio (y) = 0.21362 0.29899
# Poissons Ratio (z) = 0.37607 0.24775
#
# Static dielectric constant tensor:
#      x y z
#    x 2.583870 0.000000 0.022740 
#    y 0.000000 3.073390 0.000000 
#    z 0.022740 0.000000 3.455640 
# 
# 
# High freq. dielectric constant tensor:
#      x y z
#    x 1.538520 0.000000 -0.001090 
#    y 0.000000 1.604020 0.000000 
#    z -0.001090 0.000000 1.609860 
# 
# From -- ./inp_files/350968.got.cif
#   From: 2010.06.25/outbox.cif.g09.slc.cpg/sg12_176_cif.got.tgz:350968.got - 2010.06.28 00:19:55.
