data_PCOD8081031
_publ_section_title
;
Structure prediction by ZEFSAII (Michael W. Deem and Ramdas Pophale) SiO2 
 PCOD8081031
Probable space group: C 2/M
;
_chemical_formula_sum "Si O2"
_cell_formula_units_Z 64
_cell_length_a 24.986442
_cell_length_b 9.330648
_cell_length_c 15.024049
_cell_angle_alpha 90.000000
_cell_angle_beta 75.668532
_cell_angle_gamma 90.000000
_cell_volume 3393.697859
_symmetry_space_group_name_H-M "C 2/M"
_symmetry_group_IT_number 12
_symmetry_cell_setting 'monoclinic'
loop_
_space_group_symop_operation_xyz
x,y,z
-x,y,-z
-x,-y,-z
x,-y,z
1/2+x,1/2+y,z
1/2-x,1/2+y,-z
1/2-x,1/2-y,-z
1/2+x,1/2-y,z
loop_
_atom_site_type_symbol
_atom_site_label
_atom_site_fract_x
_atom_site_fract_y
_atom_site_fract_z
Si Si1 0.622496 0.832290 0.574125
Si Si2 0.191405 0.165256 0.689775
Si Si3 0.894956 0.169318 0.726418
Si Si4 0.481902 0.160985 0.135997
Si Si5 0.086678 0.163380 0.081550
Si Si6 0.001585 0.660933 0.662414
Si Si7 0.316970 0.168653 0.631566
Si Si8 0.879096 0.838209 0.118827
O O1 0.649422 0.751369 0.645592
O O2 0.557743 0.791363 0.588882
O O3 0.653133 0.787199 0.471636
O O4 0.628429 0.000000 0.591871
O O5 0.253667 0.218731 0.649726
O O6 0.175972 0.189660 0.800415
O O7 0.186165 0.000000 0.664502
O O8 0.889256 0.212384 0.833098
O O9 0.843158 0.243159 0.701333
O O10 0.951757 0.230991 0.660827
O O11 0.893517 0.000000 0.711176
O O12 0.533670 0.245090 0.073305
O O13 0.484538 0.165570 0.240305
O O14 0.424889 0.228982 0.131261
O O15 0.484400 0.000000 0.098417
O O16 0.066735 0.000000 0.098983
O O17 0.131816 0.181957 0.983301
O O18 0.983824 0.500000 0.640350
O O19 0.322089 0.000000 0.649739
O O20 0.900389 0.000000 0.127654
#
# Coordination Sequence:
#
# PCOD8081031 Si02
#       8
#     8   8   8   8   8   8   8   8
#     4  10  20  36  58  82 109 140 173 214 270 326
#     4  10  21  36  56  82 109 139 177 221 265 312
#     4  10  21  37  56  77 104 140 183 224 260 307
#     4  10  18  29  48  77 110 139 172 214 259 311
#     4   9  19  34  51  73 104 142 178 212 260 317
#     4   9  18  33  53  78 109 142 170 209 267 321
#     4  10  22  39  57  77 105 143 181 219 268 320
#     4  10  19  32  51  75 106 141 174 212 262 317
#
# _framework density 18.858485000000002
#
# number of rings (size 3 to 8) (size 9 to 14) (size 15 to 20)
#    0.000    2.250    1.250    1.500    0.000    5.000 
#    0.000    3.125    0.000    0.000    0.000    0.000 
#    0.000    0.000    0.000    0.000    0.000    0.000 
#
# Total GULP energy -396754.029174 kJ/mol
# GULP energy per Si atom -12398.563412 kJ/mol
# Density = 1.881556 g / cm^3
# Si number density = 18.858485 Si / 1000 Ang^3
#
#
#
# Elastic Constant Matrix: (Units=GPa)
#
#
# Indices 1 2 3 4 5 6 
#
# 1 42.9813 24.1713 22.1623 0.0000 7.4530 0.0000
# 2 24.1713 65.8336 24.2777 0.0000 6.3921 0.0000
# 3 22.1623 24.2777 76.4039 0.0000 -13.0201 0.0000
# 4 0.0000 0.0000 0.0000 19.4570 0.0000 4.7681
# 5 7.4530 6.3921 -13.0201 0.0000 21.8805 0.0000
# 6 0.0000 0.0000 0.0000 4.7681 0.0000 29.8634
#
#
#
# Elastic Compliance Matrix: (Units=1/GPa)
#
#
# Indices 1 2 3 4 5 6 
#
# 1 0.035991 -0.007623 -0.010825 0.000000 -0.016474 0.000000
# 2 -0.007623 0.020669 -0.005501 0.000000 -0.006715 0.000000
# 3 -0.010825 -0.005501 0.021009 0.000000 0.017796 0.000000
# 4 0.000000 0.000000 0.000000 0.053488 0.000000 -0.008540
# 5 -0.016474 -0.006715 0.017796 0.000000 0.063865 0.000000
# 6 0.000000 0.000000 0.000000 -0.008540 0.000000 0.034849
#
#
# Mechanical properties :
#
#
# Convention : Reuss Voigt Hill
#
# Bulk Modulus (GPa) = 33.58912 36.27128 34.93020
# Shear Modulus (GPa) = 17.37961 21.88067 19.63014
#
# Velocity S-wave (km/s) = 3.03905 3.40995 3.22983
# Velocity P-wave (km/s) = 5.49220 5.89736 5.69838
#
# Compressibility (1/GPa) = 0.02977155
#
# Stress axis : x y z
#
# Youngs Moduli (GPa) = 27.78469 48.38117 47.59903
#
# Poissons Ratio (x) = 0.36880 0.51526
# Poissons Ratio (y) = 0.21180 0.26184
# Poissons Ratio (z) = 0.30077 0.26614
#
# Static dielectric constant tensor:
#      x y z
#    x 3.306300 0.000000 -0.196180 
#    y 0.000000 3.503650 0.000000 
#    z -0.196180 0.000000 3.723930 
# 
# 
# High freq. dielectric constant tensor:
#      x y z
#    x 1.709040 0.000000 -0.009310 
#    y 0.000000 1.731360 0.000000 
#    z -0.009310 0.000000 1.744360 
# 
# From -- ./inp_files/243976.got.cif
#   From: 2010.06.25/outbox.cif.g09.slc.cpg/sg12_122_cif.got.tgz:243976.got - 2010.06.28 00:19:55.
