data_PCOD8081520
_publ_section_title
;
Structure prediction by ZEFSAII (Michael W. Deem and Ramdas Pophale) SiO2 
 PCOD8081520
Probable space group: C 2/M
;
_chemical_formula_sum "Si O2"
_cell_formula_units_Z 56
_cell_length_a 5.270649
_cell_length_b 14.327144
_cell_length_c 32.099150
_cell_angle_alpha 90.000000
_cell_angle_beta 104.258609
_cell_angle_gamma 90.000000
_cell_volume 2349.242945
_symmetry_space_group_name_H-M "C 2/M"
_symmetry_group_IT_number 12
_symmetry_cell_setting 'monoclinic'
loop_
_space_group_symop_operation_xyz
x,y,z
-x,y,-z
-x,-y,-z
x,-y,z
1/2+x,1/2+y,z
1/2-x,1/2+y,-z
1/2-x,1/2-y,-z
1/2+x,1/2-y,z
loop_
_atom_site_type_symbol
_atom_site_label
_atom_site_fract_x
_atom_site_fract_y
_atom_site_fract_z
Si Si1 0.713925 0.611280 0.475950
Si Si2 0.149410 0.610775 0.766281
Si Si3 0.068108 0.111249 0.378739
Si Si4 0.630530 0.851057 0.087021
Si Si5 0.575903 0.643505 0.050603
Si Si6 0.004204 0.611388 0.669469
Si Si7 0.723988 0.611077 0.816000
O O1 0.500000 0.649693 0.500000
O O2 0.714553 0.500000 0.476369
O O3 0.641011 0.649158 0.427340
O O4 0.000000 0.649693 0.500000
O O5 0.147106 0.500000 0.764742
O O6 0.437738 0.646166 0.790474
O O7 0.076932 0.650622 0.717956
O O8 0.933645 0.646164 0.790471
O O9 0.282135 0.149523 0.354689
O O10 0.781930 0.149523 0.354690
O O11 0.067563 0.000000 0.378375
O O12 0.595456 0.751536 0.063641
O O13 0.355194 0.905733 0.071129
O O14 0.707131 0.838899 0.138086
O O15 0.858190 0.905733 0.071129
O O16 0.500000 0.630079 0.000000
O O17 0.004204 0.500000 0.669469
O O18 0.733706 0.500000 0.822479
#
# Coordination Sequence:
#
# PCOD8081520 Si02
#       7
#     8   8   8   8   8   8   8
#     4   9  15  21  27  36  53  75  99 135 190 251
#     4   9  17  28  40  55  77 106 134 161 198 244
#     4   9  15  21  30  43  56  76 110 151 192 235
#     4  10  18  30  49  70  89 111 140 171 204 243
#     4  10  19  33  53  71  88 111 141 177 207 234
#     4   9  15  23  34  46  61  83 117 156 187 225
#     4  10  19  30  44  63  88 114 137 163 203 257
#
# _framework density 23.837465999999999
#
# number of rings (size 3 to 8) (size 9 to 14) (size 15 to 20)
#    0.000    2.571    0.000    4.714    0.000    6.857 
#    0.000    0.000    0.000    4.714    0.000    0.000 
#    0.000    0.000    0.000    0.000    0.000    0.000 
#
# Total GULP energy -347147.438722 kJ/mol
# GULP energy per Si atom -12398.122811 kJ/mol
# Density = 2.378321 g / cm^3
# Si number density = 23.837466 Si / 1000 Ang^3
#
#
#
# Elastic Constant Matrix: (Units=GPa)
#
#
# Indices 1 2 3 4 5 6 
#
# 1 301.0318 -10.1565 141.0023 0.0000 -3.5272 0.0000
# 2 -10.1565 18.9283 -3.2276 0.0000 0.5708 0.0000
# 3 141.0023 -3.2276 260.8900 0.0000 0.2221 0.0000
# 4 0.0000 0.0000 0.0000 -116.9290 0.0000 -8.2933
# 5 -3.5272 0.5708 0.2221 0.0000 58.9112 0.0000
# 6 0.0000 0.0000 0.0000 -8.2933 0.0000 -16.3966
#
#
#
# Elastic Compliance Matrix: (Units=1/GPa)
#
#
# Indices 1 2 3 4 5 6 
#
# 1 0.004527 0.002008 -0.002422 0.000000 0.000261 0.000000
# 2 0.002008 0.053849 -0.000419 0.000000 -0.000400 0.000000
# 3 -0.002422 -0.000419 0.005137 0.000000 -0.000160 0.000000
# 4 0.000000 0.000000 0.000000 -0.008870 0.000000 0.004487
# 5 0.000261 -0.000400 -0.000160 0.000000 0.016995 0.000000
# 6 0.000000 0.000000 0.000000 0.004487 0.000000 -0.063257
#
#
# Mechanical properties :
#
#
# Convention : Reuss Voigt Hill
#
# Bulk Modulus (GPa) = 16.16870 92.89851 54.53361
# Shear Modulus (GPa) = 163.06818 15.33255 89.20037
#
# Velocity S-wave (km/s) = 8.27991 2.53891 6.12384
# Velocity P-wave (km/s) = 9.90993 6.90297 8.53984
#
# Compressibility (1/GPa) = 0.06184789
#
# Stress axis : x y z
#
# Youngs Moduli (GPa) = 220.88305 18.57042 194.66173
#
# Poissons Ratio (x) = -0.03730 0.47151
# Poissons Ratio (y) = -0.44361 0.08154
# Poissons Ratio (z) = 0.53503 0.00778
#
# Static dielectric constant tensor:
#      x y z
#    x -13.420500 0.000000 1.451950 
#    y 0.000000 3.349090 0.000000 
#    z 1.451950 0.000000 4.201530 
# 
# 
# High freq. dielectric constant tensor:
#      x y z
#    x 1.970800 0.000000 -0.001420 
#    y 0.000000 1.897220 0.000000 
#    z -0.001420 0.000000 1.953580 
# 
# From -- ./inp_files/331192.got.cif
#   From: 2010.06.25/outbox.cif.g09.slc.cpg/sg12_166_cif.got.tgz:331192.got - 2010.06.28 00:19:55.
