data_PCOD8081594
_publ_section_title
;
Structure prediction by ZEFSAII (Michael W. Deem and Ramdas Pophale) SiO2 
 PCOD8081594
Probable space group: C 2/M
;
_chemical_formula_sum "Si O2"
_cell_formula_units_Z 40
_cell_length_a 18.778487
_cell_length_b 10.790502
_cell_length_c 14.727233
_cell_angle_alpha 90.000000
_cell_angle_beta 128.328791
_cell_angle_gamma 90.000000
_cell_volume 2340.975589
_symmetry_space_group_name_H-M "C 2/M"
_symmetry_group_IT_number 12
_symmetry_cell_setting 'monoclinic'
loop_
_space_group_symop_operation_xyz
x,y,z
-x,y,-z
-x,-y,-z
x,-y,z
1/2+x,1/2+y,z
1/2-x,1/2+y,-z
1/2-x,1/2-y,-z
1/2+x,1/2-y,z
loop_
_atom_site_type_symbol
_atom_site_label
_atom_site_fract_x
_atom_site_fract_y
_atom_site_fract_z
Si Si1 0.342341 0.865572 0.068896
Si Si2 0.975575 0.140640 0.199181
Si Si3 0.911397 0.141223 0.876138
Si Si4 0.242556 0.750833 0.836837
Si Si5 0.560868 0.642515 0.628259
O O1 0.406911 0.745974 0.109535
O O2 0.287728 0.861637 0.121003
O O3 0.392583 0.000000 0.105256
O O4 0.272940 0.861380 0.928913
O O5 0.993808 0.159825 0.320333
O O6 0.068842 0.155974 0.216194
O O7 0.936777 0.000000 0.151110
O O8 0.822790 0.218413 0.831183
O O9 0.892690 0.000000 0.888801
O O10 0.000000 0.190453 0.000000
O O11 0.157921 0.791131 0.708321
O O12 0.500000 0.702508 0.500000
O O13 0.579228 0.500000 0.620125
#
# Coordination Sequence:
#
# PCOD8081594 Si02
#       5
#     8   8   8   8   8
#     4  10  19  30  48  75 104 130 159 204 257 298
#     4   9  18  33  53  75 100 131 169 203 241 300
#     4  10  18  30  49  74 103 134 165 197 242 304
#     4  10  19  30  48  73 102 131 166 203 248 298
#     4   9  18  34  54  72  93 129 176 215 243 284
#
# _framework density 17.086893
#
# number of rings (size 3 to 8) (size 9 to 14) (size 15 to 20)
#    0.000    2.400    2.000    1.200    0.000    4.800 
#    0.000    4.000    0.000   15.000    0.000    0.000 
#    0.000    0.000    0.000    0.000    0.000    0.000 
#
# Total GULP energy -247801.255251 kJ/mol
# GULP energy per Si atom -12390.062763 kJ/mol
# Density = 1.704800 g / cm^3
# Si number density = 17.086893 Si / 1000 Ang^3
#
#
#
# Elastic Constant Matrix: (Units=GPa)
#
#
# Indices 1 2 3 4 5 6 
#
# 1 137.5512 40.8105 56.3736 0.0000 2.0531 0.0000
# 2 40.8105 94.2344 40.8484 0.0000 4.2674 0.0000
# 3 56.3736 40.8484 128.7669 0.0000 2.3823 0.0000
# 4 0.0000 0.0000 0.0000 9.7783 0.0000 7.0213
# 5 2.0531 4.2674 2.3823 0.0000 17.3629 0.0000
# 6 0.0000 0.0000 0.0000 7.0213 0.0000 16.9643
#
#
#
# Elastic Compliance Matrix: (Units=1/GPa)
#
#
# Indices 1 2 3 4 5 6 
#
# 1 0.009398 -0.002651 -0.003273 0.000000 -0.000011 0.000000
# 2 -0.002651 0.013160 -0.002968 0.000000 -0.002514 0.000000
# 3 -0.003273 -0.002968 0.010146 0.000000 -0.000276 0.000000
# 4 0.000000 0.000000 0.000000 0.145512 0.000000 -0.060225
# 5 -0.000011 -0.002514 -0.000276 0.000000 0.058251 0.000000
# 6 0.000000 0.000000 0.000000 -0.060225 0.000000 0.083873
#
#
# Mechanical properties :
#
#
# Convention : Reuss Voigt Hill
#
# Bulk Modulus (GPa) = 67.02351 70.73528 68.87939
# Shear Modulus (GPa) = 14.57313 23.65576 19.11444
#
# Velocity S-wave (km/s) = 2.92359 3.72484 3.34827
# Velocity P-wave (km/s) = 7.12087 7.74510 7.43953
#
# Compressibility (1/GPa) = 0.01492014
#
# Stress axis : x y z
#
# Youngs Moduli (GPa) = 106.40345 75.98734 98.56470
#
# Poissons Ratio (x) = 0.20142 0.32264
# Poissons Ratio (y) = 0.28204 0.29252
# Poissons Ratio (z) = 0.34830 0.22551
#
# Static dielectric constant tensor:
#      x y z
#    x 3.257120 0.000000 -0.191270 
#    y 0.000000 3.025310 0.000000 
#    z -0.191270 0.000000 3.053630 
# 
# 
# High freq. dielectric constant tensor:
#      x y z
#    x 1.660970 0.000000 -0.015480 
#    y 0.000000 1.646290 0.000000 
#    z -0.015480 0.000000 1.627350 
# 
# From -- ./inp_files/152686.got.cif
#   From: 2010.06.25/outbox.cif.g09.slc.cpg/sg12_77_cif.got.tgz:152686.got - 2010.06.28 00:19:55.
