data_PCOD8081061
_publ_section_title
;
Structure prediction by ZEFSAII (Michael W. Deem and Ramdas Pophale) SiO2 
 PCOD8081061
Probable space group: C 2/M
;
_chemical_formula_sum "Si O2"
_cell_formula_units_Z 56
_cell_length_a 20.013890
_cell_length_b 12.914587
_cell_length_c 12.135897
_cell_angle_alpha 90.000000
_cell_angle_beta 97.780266
_cell_angle_gamma 90.000000
_cell_volume 3107.903395
_symmetry_space_group_name_H-M "C 2/M"
_symmetry_group_IT_number 12
_symmetry_cell_setting 'monoclinic'
loop_
_space_group_symop_operation_xyz
x,y,z
-x,y,-z
-x,-y,-z
x,-y,z
1/2+x,1/2+y,z
1/2-x,1/2+y,-z
1/2-x,1/2-y,-z
1/2+x,1/2-y,z
loop_
_atom_site_type_symbol
_atom_site_label
_atom_site_fract_x
_atom_site_fract_y
_atom_site_fract_z
Si Si1 0.732665 0.195540 0.317831
Si Si2 0.571213 0.115535 0.542704
Si Si3 0.218475 0.380506 0.544278
Si Si4 0.776827 0.118587 0.093531
Si Si5 0.596494 0.876976 0.191806
Si Si6 0.642065 0.793809 0.984872
Si Si7 0.551740 0.113519 0.787799
O O1 0.743725 0.316731 0.350257
O O2 0.755285 0.133309 0.433720
O O3 0.774803 0.164919 0.217886
O O4 0.654599 0.169196 0.281282
O O5 0.500000 0.175053 0.500000
O O6 0.641071 0.163057 0.512123
O O7 0.582923 0.112315 0.674864
O O8 0.564417 0.000000 0.489592
O O9 0.219034 0.500000 0.581191
O O10 0.829731 0.177871 0.026600
O O11 0.799211 0.000000 0.105148
O O12 0.704299 0.127525 0.018181
O O13 0.526331 0.852494 0.236392
O O14 0.608435 0.000000 0.173705
O O15 0.593807 0.809884 0.078820
O O16 0.598442 0.811851 0.867411
O O17 0.554901 0.000000 0.843855
#
# Coordination Sequence:
#
# PCOD8081061 Si02
#       7
#     8   8   8   8   8   8   8
#     4  10  19  32  50  71  98 134 167 196 239 294
#     4   9  17  28  43  68  99 126 152 188 241 293
#     4  10  19  31  49  74 102 129 163 204 241 283
#     4  10  20  34  50  69  98 132 164 199 242 292
#     4  10  19  32  50  72 100 130 160 199 248 298
#     4  10  19  31  49  73  95 120 163 205 240 284
#     4  10  18  29  49  73  98 126 156 198 247 293
#
# _framework density 18.018577000000001
#
# number of rings (size 3 to 8) (size 9 to 14) (size 15 to 20)
#    0.000    2.143    0.000    5.571    0.000    3.429 
#    0.000    8.571    0.000    2.571    0.000    0.000 
#    0.000   13.143    0.000    0.000    0.000    0.000 
#
# Total GULP energy -346934.513984 kJ/mol
# GULP energy per Si atom -12390.518357 kJ/mol
# Density = 1.797757 g / cm^3
# Si number density = 18.018577 Si / 1000 Ang^3
#
#
#
# Elastic Constant Matrix: (Units=GPa)
#
#
# Indices 1 2 3 4 5 6 
#
# 1 56.1360 30.6079 15.3579 0.0000 -1.3274 0.0000
# 2 30.6079 91.2176 35.8871 0.0000 1.0567 0.0000
# 3 15.3579 35.8871 72.7832 0.0000 2.1789 0.0000
# 4 0.0000 0.0000 0.0000 25.2524 0.0000 1.5164
# 5 -1.3274 1.0567 2.1789 0.0000 29.8518 0.0000
# 6 0.0000 0.0000 0.0000 1.5164 0.0000 18.5497
#
#
#
# Elastic Compliance Matrix: (Units=1/GPa)
#
#
# Indices 1 2 3 4 5 6 
#
# 1 0.021944 -0.006875 -0.001280 0.000000 0.001313 0.000000
# 2 -0.006875 0.015755 -0.006306 0.000000 -0.000403 0.000000
# 3 -0.001280 -0.006306 0.017151 0.000000 -0.001086 0.000000
# 4 0.000000 0.000000 0.000000 0.039795 0.000000 -0.003253
# 5 0.001313 -0.000403 -0.001086 0.000000 0.033651 0.000000
# 6 0.000000 0.000000 0.000000 -0.003253 0.000000 0.054175
#
#
# Mechanical properties :
#
#
# Convention : Reuss Voigt Hill
#
# Bulk Modulus (GPa) = 38.56656 42.64920 40.60788
# Shear Modulus (GPa) = 22.72371 23.94972 23.33672
#
# Velocity S-wave (km/s) = 3.55509 3.64973 3.60272
# Velocity P-wave (km/s) = 6.18884 6.44063 6.31599
#
# Compressibility (1/GPa) = 0.02592920
#
# Stress axis : x y z
#
# Youngs Moduli (GPa) = 45.57156 63.47162 58.30535
#
# Poissons Ratio (x) = 0.43636 0.07462
# Poissons Ratio (y) = 0.31330 0.36765
# Poissons Ratio (z) = 0.05832 0.40023
#
# Static dielectric constant tensor:
#      x y z
#    x 3.367970 0.000000 -0.077710 
#    y 0.000000 3.113400 0.000000 
#    z -0.077710 0.000000 3.395280 
# 
# 
# High freq. dielectric constant tensor:
#      x y z
#    x 1.692460 0.000000 -0.006260 
#    y 0.000000 1.655040 0.000000 
#    z -0.006260 0.000000 1.711760 
# 
# From -- ./inp_files/165054.got.cif
#   From: 2010.06.25/outbox.cif.g09.slc.cpg/sg12_83_cif.got.tgz:165054.got - 2010.06.28 00:19:55.
