data_PCOD8081438
_publ_section_title
;
Structure prediction by ZEFSAII (Michael W. Deem and Ramdas Pophale) SiO2 
 PCOD8081438
Probable space group: C 2/M
;
_chemical_formula_sum "Si O2"
_cell_formula_units_Z 64
_cell_length_a 14.725054
_cell_length_b 9.111539
_cell_length_c 30.371775
_cell_angle_alpha 90.000000
_cell_angle_beta 120.602063
_cell_angle_gamma 90.000000
_cell_volume 3507.377961
_symmetry_space_group_name_H-M "C 2/M"
_symmetry_group_IT_number 12
_symmetry_cell_setting 'monoclinic'
loop_
_space_group_symop_operation_xyz
x,y,z
-x,y,-z
-x,-y,-z
x,-y,z
1/2+x,1/2+y,z
1/2-x,1/2+y,-z
1/2-x,1/2-y,-z
1/2+x,1/2-y,z
loop_
_atom_site_type_symbol
_atom_site_label
_atom_site_fract_x
_atom_site_fract_y
_atom_site_fract_z
Si Si1 0.675158 0.174922 0.191660
Si Si2 0.081012 0.326282 0.077395
Si Si3 0.451244 0.326291 0.617441
Si Si4 0.534361 0.174069 0.556770
Si Si5 0.347407 0.174029 0.999452
Si Si6 0.906656 0.173662 0.269057
Si Si7 0.733952 0.673673 0.366401
Si Si8 0.907728 0.173459 0.747300
O O1 0.640294 0.233737 0.135212
O O2 0.791333 0.238921 0.230993
O O3 0.595564 0.240940 0.207701
O O4 0.671345 0.000000 0.192975
O O5 0.079510 0.500000 0.076194
O O6 0.145723 0.274357 0.050068
O O7 0.958815 0.274183 0.048250
O O8 0.452460 0.500000 0.610221
O O9 0.454341 0.244732 0.571696
O O10 0.549661 0.275489 0.672531
O O11 0.344134 0.272530 0.614419
O O12 0.500000 0.225544 0.500000
O O13 0.650519 0.238551 0.595913
O O14 0.529922 0.000000 0.560226
O O15 0.331585 0.000000 0.999435
O O16 0.250000 0.250000 0.000000
O O17 0.984924 0.225145 0.249759
O O18 0.902917 0.000000 0.267629
O O19 0.736660 0.500000 0.368646
O O20 0.690619 0.722762 0.307920
O O21 0.906222 0.000000 0.755513
#
# Coordination Sequence:
#
# PCOD8081438 Si02
#       8
#     8   8   8   8   8   8   8   8
#     4  10  18  30  48  70  96 124 152 187 227 269
#     4   8  17  32  48  67  96 129 154 180 230 288
#     4   9  17  32  51  67  86 118 156 188 221 270
#     4  10  20  32  46  67  93 119 149 188 234 278
#     4   9  17  33  53  70  90 123 162 194 227 270
#     4   8  16  30  48  68  91 120 153 185 223 274
#     4   8  16  32  50  65  90 126 153 180 230 283
#     4   9  17  31  49  69  93 123 155 186 226 275
#
# _framework density 18.247250000000001
#
# number of rings (size 3 to 8) (size 9 to 14) (size 15 to 20)
#    0.000    3.125    0.000    3.000    0.000    1.750 
#    0.000    7.500    0.000    0.000    0.000    0.000 
#    0.000    0.000    0.000    0.000    0.000    0.000 
#
# Total GULP energy -396640.294860 kJ/mol
# GULP energy per Si atom -12395.009214 kJ/mol
# Density = 1.820572 g / cm^3
# Si number density = 18.247250 Si / 1000 Ang^3
#
#
#
# Elastic Constant Matrix: (Units=GPa)
#
#
# Indices 1 2 3 4 5 6 
#
# 1 101.5873 22.7169 47.3146 0.0000 -17.7934 0.0000
# 2 22.7169 21.3398 22.9247 0.0000 -6.8781 0.0000
# 3 47.3146 22.9247 106.6762 0.0000 -23.9256 0.0000
# 4 0.0000 0.0000 0.0000 18.5521 0.0000 -6.8126
# 5 -17.7934 -6.8781 -23.9256 0.0000 28.5132 0.0000
# 6 0.0000 0.0000 0.0000 -6.8126 0.0000 29.2745
#
#
#
# Elastic Compliance Matrix: (Units=1/GPa)
#
#
# Indices 1 2 3 4 5 6 
#
# 1 0.014385 -0.010611 -0.003278 0.000000 0.003667 0.000000
# 2 -0.010611 0.069240 -0.009747 0.000000 0.001902 0.000000
# 3 -0.003278 -0.009747 0.014704 0.000000 0.007941 0.000000
# 4 0.000000 0.000000 0.000000 0.058939 0.000000 0.013716
# 5 0.003667 0.001902 0.007941 0.000000 0.044482 0.000000
# 6 0.000000 0.000000 0.000000 0.013716 0.000000 0.037351
#
#
# Mechanical properties :
#
#
# Convention : Reuss Voigt Hill
#
# Bulk Modulus (GPa) = 19.58530 46.16842 32.87686
# Shear Modulus (GPa) = 16.48032 24.37774 20.42903
#
# Velocity S-wave (km/s) = 3.00853 3.65905 3.34962
# Velocity P-wave (km/s) = 4.77755 6.57329 5.74600
#
# Compressibility (1/GPa) = 0.05105871
#
# Stress axis : x y z
#
# Youngs Moduli (GPa) = 69.51476 14.44250 68.01032
#
# Poissons Ratio (x) = 0.15324 0.22292
# Poissons Ratio (y) = 0.73759 0.66289
# Poissons Ratio (z) = 0.22785 0.14077
#
# Static dielectric constant tensor:
#      x y z
#    x 3.542300 0.000000 0.160350 
#    y 0.000000 2.841680 0.000000 
#    z 0.160350 0.000000 3.707450 
# 
# 
# High freq. dielectric constant tensor:
#      x y z
#    x 1.715610 0.000000 -0.003740 
#    y 0.000000 1.660620 0.000000 
#    z -0.003740 0.000000 1.710090 
# 
# From -- ./inp_files/375078.got.cif
#   From: 2010.06.25/outbox.cif.g09.slc.cpg/sg12_188_cif.got.tgz:375078.got - 2010.06.28 00:19:55.
