data_PCOD8081190
_publ_section_title
;
Structure prediction by ZEFSAII (Michael W. Deem and Ramdas Pophale) SiO2 
 PCOD8081190
Probable space group: C 2/M
;
_chemical_formula_sum "Si O2"
_cell_formula_units_Z 64
_cell_length_a 31.542390
_cell_length_b 8.817280
_cell_length_c 14.646441
_cell_angle_alpha 90.000000
_cell_angle_beta 61.673990
_cell_angle_gamma 90.000000
_cell_volume 3585.694729
_symmetry_space_group_name_H-M "C 2/M"
_symmetry_group_IT_number 12
_symmetry_cell_setting 'monoclinic'
loop_
_space_group_symop_operation_xyz
x,y,z
-x,y,-z
-x,-y,-z
x,-y,z
1/2+x,1/2+y,z
1/2-x,1/2+y,-z
1/2-x,1/2-y,-z
1/2+x,1/2-y,z
loop_
_atom_site_type_symbol
_atom_site_label
_atom_site_fract_x
_atom_site_fract_y
_atom_site_fract_z
Si Si1 0.612264 0.824881 0.848316
Si Si2 0.925252 0.323108 0.724034
Si Si3 0.571064 0.825440 0.078066
Si Si4 0.467242 0.823640 0.367426
Si Si5 0.798067 0.178235 0.557566
Si Si6 0.969664 0.178082 0.178289
Si Si7 0.380553 0.176389 0.589221
Si Si8 0.301870 0.321464 0.346848
O O1 0.561168 0.765950 0.865337
O O2 0.655498 0.730243 0.762091
O O3 0.619181 0.000000 0.815014
O O4 0.611386 0.801046 0.959184
O O5 0.926328 0.500000 0.702513
O O6 0.906135 0.284901 0.845774
O O7 0.889602 0.257293 0.682513
O O8 0.980019 0.263290 0.656639
O O9 0.525266 0.719650 0.106571
O O10 0.553066 0.000000 0.097459
O O11 0.450179 0.728022 0.297299
O O12 0.430398 0.794778 0.486062
O O13 0.469672 0.000000 0.336597
O O14 0.838191 0.228991 0.587595
O O15 0.747567 0.250538 0.639041
O O16 0.812157 0.231574 0.440584
O O17 0.792117 0.000000 0.568262
O O18 0.962109 0.000000 0.173285
O O19 0.365839 0.000000 0.601992
O O20 0.297190 0.500000 0.345961
#
# Coordination Sequence:
#
# PCOD8081190 Si02
#       8
#     8   8   8   8   8   8   8   8
#     4  11  21  33  52  75  99 130 166 203 247 297
#     4   8  15  30  50  72  98 130 170 209 242 283
#     4   9  19  35  52  70  97 134 171 206 245 289
#     4   9  17  30  48  71 101 135 169 204 244 292
#     4  10  21  36  53  75 104 132 158 194 243 297
#     4  11  21  31  46  71 103 136 169 206 245 287
#     4  10  18  29  51  77  99 129 168 206 244 290
#     4  10  21  37  56  77 101 128 159 198 244 293
#
# _framework density 17.848703
#
# number of rings (size 3 to 8) (size 9 to 14) (size 15 to 20)
#    0.000    2.250    0.000    4.500    0.000    8.000 
#    0.000    2.500    0.000    4.500    0.000    0.000 
#    0.000    0.000    0.000    0.000    0.000    0.000 
#
# Total GULP energy -396756.380221 kJ/mol
# GULP energy per Si atom -12398.636882 kJ/mol
# Density = 1.780808 g / cm^3
# Si number density = 17.848703 Si / 1000 Ang^3
#
#
#
# Elastic Constant Matrix: (Units=GPa)
#
#
# Indices 1 2 3 4 5 6 
#
# 1 105.4564 27.7302 53.0173 0.0000 15.4240 0.0000
# 2 27.7302 46.4355 17.1430 0.0000 4.6728 0.0000
# 3 53.0173 17.1430 97.2436 0.0000 10.1315 0.0000
# 4 0.0000 0.0000 0.0000 19.8147 0.0000 -5.6551
# 5 15.4240 4.6728 10.1315 0.0000 22.1233 0.0000
# 6 0.0000 0.0000 0.0000 -5.6551 0.0000 26.2925
#
#
#
# Elastic Compliance Matrix: (Units=1/GPa)
#
#
# Indices 1 2 3 4 5 6 
#
# 1 0.015347 -0.006075 -0.006632 0.000000 -0.006380 0.000000
# 2 -0.006075 0.025651 -0.001141 0.000000 -0.000660 0.000000
# 3 -0.006632 -0.001141 0.014274 0.000000 -0.001673 0.000000
# 4 0.000000 0.000000 0.000000 0.053768 0.000000 0.011565
# 5 -0.006380 -0.000660 -0.001673 0.000000 0.050554 0.000000
# 6 0.000000 0.000000 0.000000 0.011565 0.000000 0.040521
#
#
# Mechanical properties :
#
#
# Convention : Reuss Voigt Hill
#
# Bulk Modulus (GPa) = 36.26208 49.43518 42.84863
# Shear Modulus (GPa) = 21.09677 23.72909 22.41293
#
# Velocity S-wave (km/s) = 3.44172 3.65013 3.54745
# Velocity P-wave (km/s) = 6.01285 6.74696 6.39046
#
# Compressibility (1/GPa) = 0.02757702
#
# Stress axis : x y z
#
# Youngs Moduli (GPa) = 65.15927 38.98535 70.05515
#
# Poissons Ratio (x) = 0.23682 0.46458
# Poissons Ratio (y) = 0.39582 0.07995
# Poissons Ratio (z) = 0.43211 0.04449
#
# Static dielectric constant tensor:
#      x y z
#    x 3.315960 0.000000 0.243530 
#    y 0.000000 3.180020 0.000000 
#    z 0.243530 0.000000 3.412640 
# 
# 
# High freq. dielectric constant tensor:
#      x y z
#    x 1.674680 0.000000 0.012630 
#    y 0.000000 1.680470 0.000000 
#    z 0.012630 0.000000 1.687800 
# 
# From -- ./inp_files/248957.got.cif
#   From: 2010.06.25/outbox.cif.g09.slc.cpg/sg12_125_cif.got.tgz:248957.got - 2010.06.28 00:19:55.
