data_PCOD8081554
_publ_section_title
;
Structure prediction by ZEFSAII (Michael W. Deem and Ramdas Pophale) SiO2 
 PCOD8081554
Probable space group: C 2/M
;
_chemical_formula_sum "Si O2"
_cell_formula_units_Z 48
_cell_length_a 20.060822
_cell_length_b 8.911813
_cell_length_c 16.454648
_cell_angle_alpha 90.000000
_cell_angle_beta 91.725679
_cell_angle_gamma 90.000000
_cell_volume 2940.399720
_symmetry_space_group_name_H-M "C 2/M"
_symmetry_group_IT_number 12
_symmetry_cell_setting 'monoclinic'
loop_
_space_group_symop_operation_xyz
x,y,z
-x,y,-z
-x,-y,-z
x,-y,z
1/2+x,1/2+y,z
1/2-x,1/2+y,-z
1/2-x,1/2-y,-z
1/2+x,1/2-y,z
loop_
_atom_site_type_symbol
_atom_site_label
_atom_site_fract_x
_atom_site_fract_y
_atom_site_fract_z
Si Si1 0.780792 0.830789 0.247107
Si Si2 0.421480 0.834970 0.507324
Si Si3 0.049034 0.677899 0.316522
Si Si4 0.909637 0.176547 0.347407
Si Si5 0.773314 0.330481 0.920257
Si Si6 0.346470 0.322866 0.790066
O O1 0.848058 0.768779 0.289680
O O2 0.787116 0.829609 0.148445
O O3 0.716661 0.728438 0.268592
O O4 0.766806 0.000000 0.277864
O O5 0.500000 0.848726 0.500000
O O6 0.410187 0.779001 0.599477
O O7 0.392217 0.719196 0.440275
O O8 0.389296 0.000000 0.492364
O O9 0.046872 0.500000 0.304653
O O10 0.085474 0.755345 0.242521
O O11 0.973765 0.737282 0.316754
O O12 0.922180 0.000000 0.341687
O O13 0.795178 0.500000 0.942053
O O14 0.835956 0.243030 0.881149
O O15 0.750000 0.250000 0.000000
O O16 0.351848 0.500000 0.793594
#
# Coordination Sequence:
#
# PCOD8081554 Si02
#       6
#     8   8   8   8   8   8
#     4   8  18  33  48  69 100 127 152 195 243 283
#     4   8  16  29  44  64  92 128 164 198 238 279
#     4  10  19  32  48  68  98 131 161 199 243 280
#     4  10  18  30  49  72  96 126 163 200 239 280
#     4   9  17  32  52  74  98 124 155 191 234 284
#     4  10  19  31  50  74  96 123 162 199 236 283
#
# _framework density 16.324311999999999
#
# number of rings (size 3 to 8) (size 9 to 14) (size 15 to 20)
#    1.000    1.833    0.000    3.500    0.000    5.000 
#    0.000    0.833    0.000    1.000    0.000    7.000 
#    0.000    0.000    0.000    0.000    0.000    0.000 
#
# Total GULP energy -297331.969215 kJ/mol
# GULP energy per Si atom -12388.832051 kJ/mol
# Density = 1.628716 g / cm^3
# Si number density = 16.324312 Si / 1000 Ang^3
#
#
#
# Elastic Constant Matrix: (Units=GPa)
#
#
# Indices 1 2 3 4 5 6 
#
# 1 37.3889 18.4253 1.9054 0.0000 -5.9177 0.0000
# 2 18.4253 90.1900 10.0635 0.0000 -7.3041 0.0000
# 3 1.9054 10.0635 34.5509 0.0000 -10.3637 0.0000
# 4 0.0000 0.0000 0.0000 29.5654 0.0000 -3.2936
# 5 -5.9177 -7.3041 -10.3637 0.0000 27.9849 0.0000
# 6 0.0000 0.0000 0.0000 -3.2936 0.0000 24.0895
#
#
#
# Elastic Compliance Matrix: (Units=1/GPa)
#
#
# Indices 1 2 3 4 5 6 
#
# 1 0.030474 -0.005970 0.001714 0.000000 0.005521 0.000000
# 2 -0.005970 0.012727 -0.003105 0.000000 0.000910 0.000000
# 3 0.001714 -0.003105 0.033320 0.000000 0.011891 0.000000
# 4 0.000000 0.000000 0.000000 0.034346 0.000000 0.004696
# 5 0.005521 0.000910 0.011891 0.000000 0.041542 0.000000
# 6 0.000000 0.000000 0.000000 0.004696 0.000000 0.042154
#
#
# Mechanical properties :
#
#
# Convention : Reuss Voigt Hill
#
# Bulk Modulus (GPa) = 16.18123 24.76867 20.47495
# Shear Modulus (GPa) = 21.74998 25.11032 23.43015
#
# Velocity S-wave (km/s) = 3.65412 3.92626 3.79263
# Velocity P-wave (km/s) = 5.26662 5.97996 5.63459
#
# Compressibility (1/GPa) = 0.06180001
#
# Stress axis : x y z
#
# Youngs Moduli (GPa) = 32.81456 78.57038 30.01239
#
# Poissons Ratio (x) = 0.46906 -0.05145
# Poissons Ratio (y) = 0.19590 0.09319
# Poissons Ratio (z) = -0.05625 0.24396
#
# Static dielectric constant tensor:
#      x y z
#    x 2.815690 0.000000 -0.066320 
#    y 0.000000 3.106870 0.000000 
#    z -0.066320 0.000000 3.119940 
# 
# 
# High freq. dielectric constant tensor:
#      x y z
#    x 1.595160 0.000000 -0.009270 
#    y 0.000000 1.639840 0.000000 
#    z -0.009270 0.000000 1.613520 
# 
# From -- ./inp_files/286907.got.cif
#   From: 2010.06.25/outbox.cif.g09.slc.cpg/sg12_144_cif.got.tgz:286907.got - 2010.06.28 00:19:55.
