data_PCOD8081749
_publ_section_title
;
Structure prediction by ZEFSAII (Michael W. Deem and Ramdas Pophale) SiO2 
 PCOD8081749
Probable space group: C 2/M
;
_chemical_formula_sum "Si O2"
_cell_formula_units_Z 64
_cell_length_a 33.394712
_cell_length_b 9.175262
_cell_length_c 11.877465
_cell_angle_alpha 90.000000
_cell_angle_beta 95.717204
_cell_angle_gamma 90.000000
_cell_volume 3621.214372
_symmetry_space_group_name_H-M "C 2/M"
_symmetry_group_IT_number 12
_symmetry_cell_setting 'monoclinic'
loop_
_space_group_symop_operation_xyz
x,y,z
-x,y,-z
-x,-y,-z
x,-y,z
1/2+x,1/2+y,z
1/2-x,1/2+y,-z
1/2-x,1/2-y,-z
1/2+x,1/2-y,z
loop_
_atom_site_type_symbol
_atom_site_label
_atom_site_fract_x
_atom_site_fract_y
_atom_site_fract_z
Si Si1 0.088873 0.165510 0.906136
Si Si2 0.064601 0.670980 0.311954
Si Si3 0.642863 0.168943 0.753467
Si Si4 0.204990 0.831994 0.098709
Si Si5 0.071467 0.667969 0.573233
Si Si6 0.383233 0.667674 0.844274
Si Si7 0.782971 0.169056 0.157970
Si Si8 0.516547 0.668326 0.727601
O O1 0.119469 0.275892 0.856748
O O2 0.044150 0.188681 0.845667
O O3 0.104090 0.000000 0.886365
O O4 0.088519 0.195392 0.039104
O O5 0.059956 0.500000 0.291656
O O6 0.072750 0.710614 0.443592
O O7 0.102359 0.729449 0.252130
O O8 0.024529 0.749175 0.257128
O O9 0.615671 0.198869 0.635931
O O10 0.684785 0.254441 0.750676
O O11 0.652506 0.000000 0.772720
O O12 0.162444 0.789118 0.140098
O O13 0.238992 0.735526 0.168464
O O14 0.215689 0.000000 0.122395
O O15 0.203278 0.798789 0.965590
O O16 0.059028 0.500000 0.588334
O O17 0.037852 0.765494 0.623625
O O18 0.386171 0.500000 0.806795
O O19 0.781471 0.000000 0.186944
O O20 0.507452 0.500000 0.700447
#
# Coordination Sequence:
#
# PCOD8081749 Si02
#       8
#     8   8   8   8   8   8   8   8
#     4   9  18  34  52  74 104 135 165 207 260 305
#     4  11  23  37  52  72 102 138 175 212 256 303
#     4  10  18  30  52  78 103 132 169 209 254 304
#     4   9  18  32  50  74 105 138 167 201 247 301
#     4   9  20  37  54  74 102 135 169 215 263 299
#     4  10  20  36  54  72 103 139 172 207 249 303
#     4  10  18  30  50  78 109 135 164 203 252 301
#     4  10  20  34  56  80 101 128 169 217 261 305
#
# _framework density 17.673628999999998
#
# number of rings (size 3 to 8) (size 9 to 14) (size 15 to 20)
#    0.000    2.250    1.250    1.875    0.000    5.500 
#    0.000    2.500    0.000    0.750    0.000    0.000 
#    0.000    0.000    0.000    0.000    0.000    0.000 
#
# Total GULP energy -396902.469071 kJ/mol
# GULP energy per Si atom -12403.202158 kJ/mol
# Density = 1.763340 g / cm^3
# Si number density = 17.673629 Si / 1000 Ang^3
#
#
#
# Elastic Constant Matrix: (Units=GPa)
#
#
# Indices 1 2 3 4 5 6 
#
# 1 120.7959 63.2385 41.3072 0.0000 -0.1728 0.0000
# 2 63.2385 93.3160 32.7487 0.0000 -0.8866 0.0000
# 3 41.3072 32.7487 52.6647 0.0000 -8.5897 0.0000
# 4 0.0000 0.0000 0.0000 25.2917 0.0000 -1.0453
# 5 -0.1728 -0.8866 -8.5897 0.0000 21.6023 0.0000
# 6 0.0000 0.0000 0.0000 -1.0453 0.0000 36.6190
#
#
#
# Elastic Compliance Matrix: (Units=1/GPa)
#
#
# Indices 1 2 3 4 5 6 
#
# 1 0.014673 -0.007361 -0.007444 0.000000 -0.003145 0.000000
# 2 -0.007361 0.017588 -0.005405 0.000000 -0.001486 0.000000
# 3 -0.007444 -0.005405 0.030094 0.000000 0.011685 0.000000
# 4 0.000000 0.000000 0.000000 0.039585 0.000000 0.001130
# 5 -0.003145 -0.001486 0.011685 0.000000 0.050851 0.000000
# 6 0.000000 0.000000 0.000000 0.001130 0.000000 0.027340
#
#
# Mechanical properties :
#
#
# Convention : Reuss Voigt Hill
#
# Bulk Modulus (GPa) = 45.59305 60.15172 52.87239
# Shear Modulus (GPa) = 21.94282 25.33476 23.63879
#
# Velocity S-wave (km/s) = 3.52740 3.79024 3.66118
# Velocity P-wave (km/s) = 6.51485 7.29816 6.91760
#
# Compressibility (1/GPa) = 0.02193317
#
# Stress axis : x y z
#
# Youngs Moduli (GPa) = 68.15129 56.85819 33.22912
#
# Poissons Ratio (x) = 0.41854 0.24737
# Poissons Ratio (y) = 0.50167 0.17962
# Poissons Ratio (z) = 0.50734 0.30734
#
# Static dielectric constant tensor:
#      x y z
#    x 3.322550 0.000000 0.209150 
#    y 0.000000 3.343180 0.000000 
#    z 0.209150 0.000000 3.086750 
# 
# 
# High freq. dielectric constant tensor:
#      x y z
#    x 1.685990 0.000000 0.017260 
#    y 0.000000 1.692170 0.000000 
#    z 0.017260 0.000000 1.655870 
# 
# From -- ./inp_files/187601.got.cif
#   From: 2010.06.25/outbox.cif.g09.slc.cpg/sg12_94_cif.got.tgz:187601.got - 2010.06.28 00:19:55.
