data_PCOD8081348
_publ_section_title
;
Structure prediction by ZEFSAII (Michael W. Deem and Ramdas Pophale) SiO2 
 PCOD8081348
Probable space group: C 2/M
;
_chemical_formula_sum "Si O2"
_cell_formula_units_Z 64
_cell_length_a 24.695411
_cell_length_b 8.949165
_cell_length_c 17.659086
_cell_angle_alpha 90.000000
_cell_angle_beta 102.568305
_cell_angle_gamma 90.000000
_cell_volume 3809.196739
_symmetry_space_group_name_H-M "C 2/M"
_symmetry_group_IT_number 12
_symmetry_cell_setting 'monoclinic'
loop_
_space_group_symop_operation_xyz
x,y,z
-x,y,-z
-x,-y,-z
x,-y,z
1/2+x,1/2+y,z
1/2-x,1/2+y,-z
1/2-x,1/2-y,-z
1/2+x,1/2-y,z
loop_
_atom_site_type_symbol
_atom_site_label
_atom_site_fract_x
_atom_site_fract_y
_atom_site_fract_z
Si Si1 0.706305 0.827025 0.816436
Si Si2 0.193904 0.171665 0.501659
Si Si3 0.721868 0.324277 0.669491
Si Si4 0.490289 0.324391 0.083119
Si Si5 0.907778 0.675769 0.810210
Si Si6 0.876908 0.328375 0.075946
Si Si7 0.661010 0.676224 0.333929
Si Si8 0.815758 0.673154 0.904711
O O1 0.692624 0.739120 0.735177
O O2 0.654701 0.798769 0.855650
O O3 0.762173 0.771145 0.872650
O O4 0.713837 0.000000 0.799726
O O5 0.250000 0.250000 0.500000
O O6 0.179749 0.209848 0.585393
O O7 0.150415 0.211649 0.421132
O O8 0.208285 0.000000 0.499879
O O9 0.732798 0.500000 0.682618
O O10 0.781258 0.245959 0.677025
O O11 0.499223 0.500000 0.094765
O O12 0.532593 0.239676 0.150376
O O13 0.428892 0.281111 0.090150
O O14 0.500000 0.271723 0.000000
O O15 0.912684 0.500000 0.800894
O O16 0.889719 0.749049 0.725512
O O17 0.864095 0.719933 0.861706
O O18 0.896909 0.500000 0.074558
O O19 0.835567 0.289012 0.995024
O O20 0.662279 0.500000 0.318023
O O21 0.800035 0.500000 0.890104
#
# Coordination Sequence:
#
# PCOD8081348 Si02
#       8
#     8   8   8   8   8   8   8   8
#     4  11  22  33  50  75 103 134 171 212 250 292
#     4   8  16  28  44  67  96 132 165 199 242 294
#     4  10  18  30  47  69 101 137 169 198 245 304
#     4  11  23  37  55  77  98 126 168 216 258 295
#     4  11  21  33  53  76 101 135 170 204 251 304
#     4  10  22  39  54  71  97 134 174 211 254 300
#     4  10  18  30  48  72 102 130 166 210 248 290
#     4  10  20  34  52  72  99 135 171 205 249 300
#
# _framework density 16.801442000000002
#
# number of rings (size 3 to 8) (size 9 to 14) (size 15 to 20)
#    0.000    1.875    2.500    2.250    0.000    3.500 
#    0.000    0.000    0.000    0.000    0.000    0.875 
#    0.000    7.000    0.000    0.000    0.000    0.000 
#
# Total GULP energy -396691.641843 kJ/mol
# GULP energy per Si atom -12396.613808 kJ/mol
# Density = 1.676320 g / cm^3
# Si number density = 16.801442 Si / 1000 Ang^3
#
#
#
# Elastic Constant Matrix: (Units=GPa)
#
#
# Indices 1 2 3 4 5 6 
#
# 1 59.5457 34.8708 42.4231 0.0000 -2.1047 0.0000
# 2 34.8708 75.5635 54.3663 0.0000 3.7950 0.0000
# 3 42.4231 54.3663 153.2038 0.0000 7.2999 0.0000
# 4 0.0000 0.0000 0.0000 23.6192 0.0000 2.6860
# 5 -2.1047 3.7950 7.2999 0.0000 12.5838 0.0000
# 6 0.0000 0.0000 0.0000 2.6860 0.0000 25.4543
#
#
#
# Elastic Compliance Matrix: (Units=1/GPa)
#
#
# Indices 1 2 3 4 5 6 
#
# 1 0.025560 -0.009205 -0.004265 0.000000 0.009525 0.000000
# 2 -0.009205 0.021124 -0.004700 0.000000 -0.005184 0.000000
# 3 -0.004265 -0.004700 0.009608 0.000000 -0.004870 0.000000
# 4 0.000000 0.000000 0.000000 0.042853 0.000000 -0.004522
# 5 0.009525 -0.005184 -0.004870 0.000000 0.085448 0.000000
# 6 0.000000 0.000000 0.000000 -0.004522 0.000000 0.039763
#
#
# Mechanical properties :
#
#
# Convention : Reuss Voigt Hill
#
# Bulk Modulus (GPa) = 50.12185 61.29260 55.70722
# Shear Modulus (GPa) = 18.70235 22.77501 20.73868
#
# Velocity S-wave (km/s) = 3.33999 3.68576 3.51713
# Velocity P-wave (km/s) = 6.69109 7.39411 7.05137
#
# Compressibility (1/GPa) = 0.01995138
#
# Stress axis : x y z
#
# Youngs Moduli (GPa) = 39.12424 47.34010 104.07816
#
# Poissons Ratio (x) = 0.43576 0.44389
# Poissons Ratio (y) = 0.36014 0.48918
# Poissons Ratio (z) = 0.16686 0.22250
#
# Static dielectric constant tensor:
#      x y z
#    x 2.776090 0.000000 0.016950 
#    y 0.000000 3.185230 0.000000 
#    z 0.016950 0.000000 3.776390 
# 
# 
# High freq. dielectric constant tensor:
#      x y z
#    x 1.601660 0.000000 0.005080 
#    y 0.000000 1.661440 0.000000 
#    z 0.005080 0.000000 1.664600 
# 
# From -- ./inp_files/287786.got.cif
#   From: 2010.06.25/outbox.cif.g09.slc.cpg/sg12_144_cif.got.tgz:287786.got - 2010.06.28 00:19:55.
