data_PCOD8081640
_publ_section_title
;
Structure prediction by ZEFSAII (Michael W. Deem and Ramdas Pophale) SiO2 
 PCOD8081640
Probable space group: C 2/M
;
_chemical_formula_sum "Si O2"
_cell_formula_units_Z 48
_cell_length_a 20.468282
_cell_length_b 9.432367
_cell_length_c 16.457449
_cell_angle_alpha 90.000000
_cell_angle_beta 62.326895
_cell_angle_gamma 90.000000
_cell_volume 2813.895462
_symmetry_space_group_name_H-M "C 2/M"
_symmetry_group_IT_number 12
_symmetry_cell_setting 'monoclinic'
loop_
_space_group_symop_operation_xyz
x,y,z
-x,y,-z
-x,-y,-z
x,-y,z
1/2+x,1/2+y,z
1/2-x,1/2+y,-z
1/2-x,1/2-y,-z
1/2+x,1/2-y,z
loop_
_atom_site_type_symbol
_atom_site_label
_atom_site_fract_x
_atom_site_fract_y
_atom_site_fract_z
Si Si1 0.841021 0.165651 0.268810
Si Si2 0.807188 0.334684 0.723057
Si Si3 0.773747 0.164996 0.065045
Si Si4 0.916136 0.166698 0.559199
Si Si5 0.420809 0.668551 0.069088
Si Si6 0.175481 0.835052 0.543614
O O1 0.758668 0.223006 0.297240
O O2 0.900562 0.228332 0.170872
O O3 0.865270 0.198653 0.346984
O O4 0.836132 0.000000 0.252827
O O5 0.823750 0.500000 0.699517
O O6 0.784766 0.304644 0.829191
O O7 0.880156 0.246903 0.656721
O O8 0.855963 0.214296 0.044439
O O9 0.774225 0.000000 0.042694
O O10 0.750000 0.250000 0.000000
O O11 0.876921 0.213849 0.498482
O O12 0.000000 0.215073 0.500000
O O13 0.909791 0.000000 0.579338
O O14 0.427008 0.500000 0.066069
O O15 0.500000 0.736166 0.000000
O O16 0.250000 0.750000 0.500000
O O17 0.195284 0.000000 0.526033
#
# Coordination Sequence:
#
# PCOD8081640 Si02
#       6
#     8   8   8   8   8   8
#     4   8  14  26  46  69  91 119 158 199 231 268
#     4   9  17  32  52  70  93 129 169 199 232 286
#     4   9  18  32  51  75  98 125 162 201 239 286
#     4  10  21  34  46  71 106 129 154 200 253 292
#     4   8  14  27  47  72  97 120 155 199 237 277
#     4  10  18  30  50  71  94 125 161 197 234 281
#
# _framework density 17.058202000000001
#
# number of rings (size 3 to 8) (size 9 to 14) (size 15 to 20)
#    0.000    3.000    1.667    2.000    0.000    1.000 
#    3.000    0.000    0.000    0.500    0.000    0.000 
#    0.000    0.000    0.000    0.000    0.000    0.000 
#
# Total GULP energy -297444.440353 kJ/mol
# GULP energy per Si atom -12393.518348 kJ/mol
# Density = 1.701938 g / cm^3
# Si number density = 17.058202 Si / 1000 Ang^3
#
#
#
# Elastic Constant Matrix: (Units=GPa)
#
#
# Indices 1 2 3 4 5 6 
#
# 1 113.6206 37.4547 80.6515 0.0000 -7.6315 0.0000
# 2 37.4547 34.1627 44.5823 0.0000 -0.8285 0.0000
# 3 80.6515 44.5823 136.4153 0.0000 -11.1485 0.0000
# 4 0.0000 0.0000 0.0000 26.2025 0.0000 1.6486
# 5 -7.6315 -0.8285 -11.1485 0.0000 35.5309 0.0000
# 6 0.0000 0.0000 0.0000 1.6486 0.0000 20.3168
#
#
#
# Elastic Compliance Matrix: (Units=1/GPa)
#
#
# Indices 1 2 3 4 5 6 
#
# 1 0.016821 -0.009713 -0.006665 0.000000 0.001295 0.000000
# 2 -0.009713 0.057252 -0.013372 0.000000 -0.004947 0.000000
# 3 -0.006665 -0.013372 0.015907 0.000000 0.003248 0.000000
# 4 0.000000 0.000000 0.000000 0.038360 0.000000 -0.003113
# 5 0.001295 -0.004947 0.003248 0.000000 0.029326 0.000000
# 6 0.000000 0.000000 0.000000 -0.003113 0.000000 0.049473
#
#
# Mechanical properties :
#
#
# Convention : Reuss Voigt Hill
#
# Bulk Modulus (GPa) = 32.80952 67.73065 50.27009
# Shear Modulus (GPa) = 18.06371 24.51072 21.28721
#
# Velocity S-wave (km/s) = 3.25768 3.79474 3.53642
# Velocity P-wave (km/s) = 5.78148 7.68062 6.79770
#
# Compressibility (1/GPa) = 0.03047896
#
# Stress axis : x y z
#
# Youngs Moduli (GPa) = 59.45000 17.46677 62.86732
#
# Poissons Ratio (x) = 0.16965 0.41899
# Poissons Ratio (y) = 0.57744 0.84068
# Poissons Ratio (z) = 0.39621 0.23357
#
# Static dielectric constant tensor:
#      x y z
#    x 3.226600 0.000000 -0.054430 
#    y 0.000000 2.810460 0.000000 
#    z -0.054430 0.000000 3.827130 
# 
# 
# High freq. dielectric constant tensor:
#      x y z
#    x 1.645050 0.000000 0.002620 
#    y 0.000000 1.619510 0.000000 
#    z 0.002620 0.000000 1.671570 
# 
# From -- ./inp_files/222585.got.cif
#   From: 2010.06.25/outbox.cif.g09.slc.cpg/sg12_112_cif.got.tgz:222585.got - 2010.06.28 00:19:55.
