data_PCOD8081489
_publ_section_title
;
Structure prediction by ZEFSAII (Michael W. Deem and Ramdas Pophale) SiO2 
 PCOD8081489
Probable space group: C 2/M
;
_chemical_formula_sum "Si O2"
_cell_formula_units_Z 56
_cell_length_a 20.682907
_cell_length_b 9.137754
_cell_length_c 22.538151
_cell_angle_alpha 90.000000
_cell_angle_beta 131.854482
_cell_angle_gamma 90.000000
_cell_volume 3172.732107
_symmetry_space_group_name_H-M "C 2/M"
_symmetry_group_IT_number 12
_symmetry_cell_setting 'monoclinic'
loop_
_space_group_symop_operation_xyz
x,y,z
-x,y,-z
-x,-y,-z
x,-y,z
1/2+x,1/2+y,z
1/2-x,1/2+y,-z
1/2-x,1/2-y,-z
1/2+x,1/2-y,z
loop_
_atom_site_type_symbol
_atom_site_label
_atom_site_fract_x
_atom_site_fract_y
_atom_site_fract_z
Si Si1 0.140160 0.326848 0.581957
Si Si2 0.704327 0.827372 0.271044
Si Si3 0.923937 0.674171 0.240134
Si Si4 0.748131 0.172678 0.163866
Si Si5 0.490036 0.174005 0.827656
Si Si6 0.002039 0.672726 0.592443
Si Si7 0.070680 0.673912 0.997506
O O1 0.155360 0.500000 0.593748
O O2 0.232385 0.246921 0.642238
O O3 0.080853 0.269079 0.600085
O O4 0.091429 0.278065 0.491089
O O5 0.731557 0.780945 0.221524
O O6 0.607887 0.767736 0.225001
O O7 0.709047 0.000000 0.282377
O O8 0.913774 0.500000 0.233565
O O9 0.829573 0.743285 0.187267
O O10 0.984429 0.727392 0.332037
O O11 0.969208 0.733725 0.208358
O O12 0.666321 0.225516 0.074702
O O13 0.763447 0.000000 0.167997
O O14 0.488816 0.000000 0.826953
O O15 0.548606 0.232150 0.918099
O O16 0.005967 0.500000 0.590859
O O17 0.065278 0.500000 0.996425
O O18 0.000000 0.738815 0.000000
#
# Coordination Sequence:
#
# PCOD8081489 Si02
#       7
#     8   8   8   8   8   8   8
#     4   9  16  29  49  70  92 123 164 196 228 280
#     4  10  18  30  48  74  98 120 157 202 240 273
#     4  10  19  33  51  71  97 127 159 196 238 282
#     4  10  19  30  50  74  97 124 158 199 237 278
#     4   9  18  31  49  71  96 128 162 194 232 282
#     4   8  15  28  47  69  93 124 160 194 227 280
#     4   9  15  28  49  72  96 125 161 194 228 279
#
# _framework density 17.650404000000002
#
# number of rings (size 3 to 8) (size 9 to 14) (size 15 to 20)
#    0.000    2.714    2.857    0.857    0.000    0.571 
#    0.000    3.571    0.000    1.286    0.000    0.000 
#    0.000    0.000    0.000    0.000    0.000    0.000 
#
# Total GULP energy -347092.042001 kJ/mol
# GULP energy per Si atom -12396.144357 kJ/mol
# Density = 1.761023 g / cm^3
# Si number density = 17.650404 Si / 1000 Ang^3
#
#
#
# Elastic Constant Matrix: (Units=GPa)
#
#
# Indices 1 2 3 4 5 6 
#
# 1 125.3188 21.6916 81.8572 0.0000 0.1598 0.0000
# 2 21.6916 16.6377 25.9859 0.0000 4.3548 0.0000
# 3 81.8572 25.9859 184.3672 0.0000 6.3308 0.0000
# 4 0.0000 0.0000 0.0000 19.6286 0.0000 6.0539
# 5 0.1598 4.3548 6.3308 0.0000 32.6167 0.0000
# 6 0.0000 0.0000 0.0000 6.0539 0.0000 17.6553
#
#
#
# Elastic Compliance Matrix: (Units=1/GPa)
#
#
# Indices 1 2 3 4 5 6 
#
# 1 0.012482 -0.010336 -0.004158 0.000000 0.002126 0.000000
# 2 -0.010336 0.087892 -0.007448 0.000000 -0.010239 0.000000
# 3 -0.004158 -0.007448 0.008341 0.000000 -0.000604 0.000000
# 4 0.000000 0.000000 0.000000 0.056971 0.000000 -0.019535
# 5 0.002126 -0.010239 -0.000604 0.000000 0.032133 0.000000
# 6 0.000000 0.000000 0.000000 -0.019535 0.000000 0.063339
#
#
# Mechanical properties :
#
#
# Convention : Reuss Voigt Hill
#
# Bulk Modulus (GPa) = 15.42452 65.04368 40.23410
# Shear Modulus (GPa) = 15.30687 27.09937 21.20312
#
# Velocity S-wave (km/s) = 2.94806 3.92259 3.46971
# Velocity P-wave (km/s) = 4.51065 7.57936 6.23669
#
# Compressibility (1/GPa) = 0.06483185
#
# Stress axis : x y z
#
# Youngs Moduli (GPa) = 80.11541 11.37762 119.89589
#
# Poissons Ratio (x) = 0.11759 0.49854
# Poissons Ratio (y) = 0.82804 0.89293
# Poissons Ratio (z) = 0.33313 0.08474
#
# Static dielectric constant tensor:
#      x y z
#    x 3.258660 0.000000 -0.096320 
#    y 0.000000 2.758130 0.000000 
#    z -0.096320 0.000000 3.711980 
# 
# 
# High freq. dielectric constant tensor:
#      x y z
#    x 1.668500 0.000000 0.004100 
#    y 0.000000 1.630940 0.000000 
#    z 0.004100 0.000000 1.703130 
# 
# From -- ./inp_files/315398.got.cif
#   From: 2010.06.25/outbox.cif.g09.slc.cpg/sg12_158_cif.got.tgz:315398.got - 2010.06.28 00:19:55.
