data_PCOD8081854
_publ_section_title
;
Structure prediction by ZEFSAII (Michael W. Deem and Ramdas Pophale) SiO2 
 PCOD8081854
Probable space group: C 2/M
;
_chemical_formula_sum "Si O2"
_cell_formula_units_Z 64
_cell_length_a 18.067279
_cell_length_b 8.811276
_cell_length_c 21.381781
_cell_angle_alpha 90.000000
_cell_angle_beta 76.415659
_cell_angle_gamma 90.000000
_cell_volume 3308.666318
_symmetry_space_group_name_H-M "C 2/M"
_symmetry_group_IT_number 12
_symmetry_cell_setting 'monoclinic'
loop_
_space_group_symop_operation_xyz
x,y,z
-x,y,-z
-x,-y,-z
x,-y,z
1/2+x,1/2+y,z
1/2-x,1/2+y,-z
1/2-x,1/2-y,-z
1/2+x,1/2-y,z
loop_
_atom_site_type_symbol
_atom_site_label
_atom_site_fract_x
_atom_site_fract_y
_atom_site_fract_z
Si Si1 0.878802 0.334012 0.359473
Si Si2 0.780074 0.834992 0.552136
Si Si3 0.191019 0.819356 0.060883
Si Si4 0.798367 0.178866 0.127600
Si Si5 0.797889 0.177671 0.271140
Si Si6 0.140539 0.677043 0.362191
Si Si7 0.492956 0.320643 0.428211
Si Si8 0.411598 0.176207 0.008464
O O1 0.918530 0.500000 0.343101
O O2 0.790561 0.362142 0.389326
O O3 0.870629 0.244438 0.295162
O O4 0.916878 0.243202 0.409631
O O5 0.750000 0.750000 0.500000
O O6 0.841409 0.722599 0.569935
O O7 0.818251 0.000000 0.529290
O O8 0.217987 0.756488 0.122921
O O9 0.190325 0.000000 0.060756
O O10 0.250000 0.750000 0.000000
O O11 0.109678 0.754163 0.054137
O O12 0.812883 0.220030 0.196538
O O13 0.868536 0.244557 0.074414
O O14 0.792187 0.000000 0.117619
O O15 0.711375 0.234130 0.305373
O O16 0.798802 0.000000 0.284439
O O17 0.125652 0.500000 0.357605
O O18 0.060478 0.763218 0.368055
O O19 0.500000 0.265891 0.500000
O O20 0.490529 0.500000 0.426157
O O21 0.388636 0.000000 0.011677
O O22 0.500000 0.201727 0.000000
#
# Coordination Sequence:
#
# PCOD8081854 Si02
#       8
#     8   8   8   8   8   8   8   8
#     4  10  21  35  53  76 103 136 173 215 261 314
#     4  10  19  31  49  74 100 128 165 208 255 307
#     4  10  18  30  51  78 108 141 179 221 264 310
#     4  10  19  34  57  81 107 140 179 219 261 313
#     4   9  20  38  58  79 104 138 177 218 263 312
#     4  10  20  35  54  75 101 132 169 212 257 308
#     4  11  23  37  54  77 106 138 172 215 269 324
#     4  10  20  34  53  80 114 147 179 219 265 309
#
# _framework density 19.343140999999999
#
# number of rings (size 3 to 8) (size 9 to 14) (size 15 to 20)
#    0.000    2.000    0.000    5.625    0.000    7.000 
#    0.000    1.250    0.000    1.500    0.000    0.000 
#    0.000    0.000    0.000    0.000    0.000    0.000 
#
# Total GULP energy -396424.161491 kJ/mol
# GULP energy per Si atom -12388.255047 kJ/mol
# Density = 1.929911 g / cm^3
# Si number density = 19.343141 Si / 1000 Ang^3
#
#
#
# Elastic Constant Matrix: (Units=GPa)
#
#
# Indices 1 2 3 4 5 6 
#
# 1 84.9889 44.3070 34.3842 0.0000 14.4277 0.0000
# 2 44.3070 118.2500 49.2024 0.0000 14.3861 0.0000
# 3 34.3842 49.2024 98.9002 0.0000 22.7044 0.0000
# 4 0.0000 0.0000 0.0000 25.4908 0.0000 6.4596
# 5 14.4277 14.3861 22.7044 0.0000 30.0117 0.0000
# 6 0.0000 0.0000 0.0000 6.4596 0.0000 33.0062
#
#
#
# Elastic Compliance Matrix: (Units=1/GPa)
#
#
# Indices 1 2 3 4 5 6 
#
# 1 0.015660 -0.004425 -0.002423 0.000000 -0.003575 0.000000
# 2 -0.004425 0.011958 -0.004336 0.000000 -0.000325 0.000000
# 3 -0.002423 -0.004336 0.014965 0.000000 -0.008078 0.000000
# 4 0.000000 0.000000 0.000000 0.041277 0.000000 -0.008078
# 5 -0.003575 -0.000325 -0.008078 0.000000 0.041306 0.000000
# 6 0.000000 0.000000 0.000000 -0.008078 0.000000 0.031878
#
#
# Mechanical properties :
#
#
# Convention : Reuss Voigt Hill
#
# Bulk Modulus (GPa) = 49.46518 61.99184 55.72851
# Shear Modulus (GPa) = 26.85999 29.31810 28.08905
#
# Velocity S-wave (km/s) = 3.73044 3.89740 3.81484
# Velocity P-wave (km/s) = 6.64702 7.23679 6.94816
#
# Compressibility (1/GPa) = 0.02021624
#
# Stress axis : x y z
#
# Youngs Moduli (GPa) = 63.85748 83.62338 66.82138
#
# Poissons Ratio (x) = 0.37001 0.16188
# Poissons Ratio (y) = 0.28255 0.28976
# Poissons Ratio (z) = 0.15469 0.36262
#
# Static dielectric constant tensor:
#      x y z
#    x 3.059610 0.000000 0.911330 
#    y 0.000000 3.794050 0.000000 
#    z 0.911330 0.000000 3.092700 
# 
# 
# High freq. dielectric constant tensor:
#      x y z
#    x 1.750350 0.000000 0.020810 
#    y 0.000000 1.767150 0.000000 
#    z 0.020810 0.000000 1.727990 
# 
# From -- ./inp_files/314170.got.cif
#   From: 2010.06.25/outbox.cif.g09.slc.cpg/sg12_158_cif.got.tgz:314170.got - 2010.06.28 00:19:55.
