data_PCOD8081802
_publ_section_title
;
Structure prediction by ZEFSAII (Michael W. Deem and Ramdas Pophale) SiO2 
 PCOD8081802
Probable space group: C 2/M
;
_chemical_formula_sum "Si O2"
_cell_formula_units_Z 48
_cell_length_a 18.218743
_cell_length_b 9.181105
_cell_length_c 23.520028
_cell_angle_alpha 90.000000
_cell_angle_beta 138.815433
_cell_angle_gamma 90.000000
_cell_volume 2590.587412
_symmetry_space_group_name_H-M "C 2/M"
_symmetry_group_IT_number 12
_symmetry_cell_setting 'monoclinic'
loop_
_space_group_symop_operation_xyz
x,y,z
-x,y,-z
-x,-y,-z
x,-y,z
1/2+x,1/2+y,z
1/2-x,1/2+y,-z
1/2-x,1/2-y,-z
1/2+x,1/2-y,z
loop_
_atom_site_type_symbol
_atom_site_label
_atom_site_fract_x
_atom_site_fract_y
_atom_site_fract_z
Si Si1 0.679240 0.172862 0.344742
Si Si2 0.429626 0.660677 0.016335
Si Si3 0.005591 0.670120 0.336331
Si Si4 0.111410 0.672786 0.181030
Si Si5 0.746286 0.169411 0.829056
Si Si6 0.072096 0.828147 0.487685
O O1 0.595261 0.232274 0.343785
O O2 0.640600 0.230288 0.260857
O O3 0.802611 0.231098 0.430652
O O4 0.678146 0.000000 0.343248
O O5 0.426625 0.500000 0.042783
O O6 0.486383 0.772655 0.093165
O O7 0.500000 0.656249 0.000000
O O8 0.305476 0.710229 0.923981
O O9 0.024534 0.500000 0.358739
O O10 0.883946 0.701579 0.239629
O O11 0.016775 0.753376 0.401630
O O12 0.113417 0.500000 0.177735
O O13 0.204650 0.735683 0.193528
O O14 0.769753 0.000000 0.828482
O O15 0.000000 0.783012 0.500000
O O16 0.070407 0.000000 0.476882
#
# Coordination Sequence:
#
# PCOD8081802 Si02
#       6
#     8   8   8   8   8   8
#     4   9  19  34  50  71 101 133 160 194 246 295
#     4   8  15  29  47  69  98 129 161 199 244 287
#     4  10  20  35  53  72  97 130 167 201 235 286
#     4  10  18  30  51  75  98 127 164 203 241 286
#     4   9  18  32  50  71  97 130 164 201 245 287
#     4  10  20  35  54  75 100 128 158 198 248 293
#
# _framework density 18.528616
#
# number of rings (size 3 to 8) (size 9 to 14) (size 15 to 20)
#    0.000    2.667    0.000    3.000    0.000    5.333 
#    0.000    4.167    0.000    0.000    0.000    0.000 
#    0.000    0.000    0.000    0.000    0.000    0.000 
#
# Total GULP energy -297554.135480 kJ/mol
# GULP energy per Si atom -12398.088978 kJ/mol
# Density = 1.848644 g / cm^3
# Si number density = 18.528616 Si / 1000 Ang^3
#
#
#
# Elastic Constant Matrix: (Units=GPa)
#
#
# Indices 1 2 3 4 5 6 
#
# 1 107.1004 28.5211 51.4381 0.0000 21.1435 0.0000
# 2 28.5211 44.9589 29.7347 0.0000 4.5965 0.0000
# 3 51.4381 29.7347 118.9743 0.0000 30.8854 0.0000
# 4 0.0000 0.0000 0.0000 26.7046 0.0000 2.4635
# 5 21.1435 4.5965 30.8854 0.0000 25.8692 0.0000
# 6 0.0000 0.0000 0.0000 2.4635 0.0000 10.6395
#
#
#
# Elastic Compliance Matrix: (Units=1/GPa)
#
#
# Indices 1 2 3 4 5 6 
#
# 1 0.013583 -0.006254 -0.002487 0.000000 -0.007022 0.000000
# 2 -0.006254 0.029921 -0.006841 0.000000 0.007963 0.000000
# 3 -0.002487 -0.006841 0.014994 0.000000 -0.014653 0.000000
# 4 0.000000 0.000000 0.000000 0.038264 0.000000 -0.008860
# 5 -0.007022 0.007963 -0.014653 0.000000 0.060475 0.000000
# 6 0.000000 0.000000 0.000000 -0.008860 0.000000 0.096041
#
#
# Mechanical properties :
#
#
# Convention : Reuss Voigt Hill
#
# Bulk Modulus (GPa) = 36.58509 54.49127 45.53818
# Shear Modulus (GPa) = 17.03270 23.39863 20.21566
#
# Velocity S-wave (km/s) = 3.03523 3.55750 3.30669
# Velocity P-wave (km/s) = 5.66317 6.80790 6.26175
#
# Compressibility (1/GPa) = 0.02733354
#
# Stress axis : x y z
#
# Youngs Moduli (GPa) = 73.62106 33.42190 66.69320
#
# Poissons Ratio (x) = 0.20903 0.16584
# Poissons Ratio (y) = 0.46045 0.45625
# Poissons Ratio (z) = 0.18307 0.22864
#
# Static dielectric constant tensor:
#      x y z
#    x 3.387440 0.000000 0.268860 
#    y 0.000000 3.193290 0.000000 
#    z 0.268860 0.000000 3.846130 
# 
# 
# High freq. dielectric constant tensor:
#      x y z
#    x 1.701870 0.000000 0.014390 
#    y 0.000000 1.697190 0.000000 
#    z 0.014390 0.000000 1.737190 
# 
# From -- ./inp_files/229293.got.cif
#   From: 2010.06.25/outbox.cif.g09.slc.cpg/sg12_115_cif.got.tgz:229293.got - 2010.06.28 00:19:55.
