data_PCOD8081864
_publ_section_title
;
Structure prediction by ZEFSAII (Michael W. Deem and Ramdas Pophale) SiO2 
 PCOD8081864
Probable space group: C 2/M
;
_chemical_formula_sum "Si O2"
_cell_formula_units_Z 56
_cell_length_a 28.877016
_cell_length_b 8.753426
_cell_length_c 14.595803
_cell_angle_alpha 90.000000
_cell_angle_beta 120.083499
_cell_angle_gamma 90.000000
_cell_volume 3192.441708
_symmetry_space_group_name_H-M "C 2/M"
_symmetry_group_IT_number 12
_symmetry_cell_setting 'monoclinic'
loop_
_space_group_symop_operation_xyz
x,y,z
-x,y,-z
-x,-y,-z
x,-y,z
1/2+x,1/2+y,z
1/2-x,1/2+y,-z
1/2-x,1/2-y,-z
1/2+x,1/2-y,z
loop_
_atom_site_type_symbol
_atom_site_label
_atom_site_fract_x
_atom_site_fract_y
_atom_site_fract_z
Si Si1 0.881502 0.819071 0.065144
Si Si2 0.302343 0.680214 0.503133
Si Si3 0.701202 0.818999 0.893232
Si Si4 0.787425 0.671732 0.301532
Si Si5 0.005878 0.180998 0.901388
Si Si6 0.894277 0.818159 0.725226
Si Si7 0.835117 0.171073 0.836635
O O1 0.857177 0.731961 0.128431
O O2 0.940960 0.760946 0.098002
O O3 0.879222 0.000000 0.082055
O O4 0.842719 0.759126 0.944793
O O5 0.296063 0.500000 0.505314
O O6 0.250000 0.750000 0.500000
O O7 0.311218 0.724961 0.405908
O O8 0.357464 0.740600 0.605187
O O9 0.701829 0.759676 0.788681
O O10 0.708638 0.000000 0.901785
O O11 0.750000 0.750000 0.000000
O O12 0.810575 0.500000 0.332539
O O13 0.724646 0.671480 0.257571
O O14 0.956450 0.233321 0.786577
O O15 0.008301 0.000000 0.911365
O O16 0.000000 0.246154 0.000000
O O17 0.870458 0.745101 0.795075
O O18 0.889677 0.000000 0.723317
O O19 0.858151 0.000000 0.869838
#
# Coordination Sequence:
#
# PCOD8081864 Si02
#       7
#     8   8   8   8   8   8   8
#     4  10  18  30  51  79 106 133 169 209 253 308
#     4  11  21  32  50  75 105 137 170 210 256 305
#     4  11  22  35  53  75 103 138 171 211 261 310
#     4  10  20  35  51  70 100 136 173 210 251 301
#     4   9  15  25  48  78 103 132 170 206 247 305
#     4   9  16  27  45  73 105 132 162 205 250 293
#     4   9  14  25  46  72 103 131 158 200 248 296
#
# _framework density 17.541433000000001
#
# number of rings (size 3 to 8) (size 9 to 14) (size 15 to 20)
#    0.000    2.143    4.286    0.857    0.000    1.143 
#    0.000    0.000    0.000    3.000    0.000    6.000 
#    0.000    0.000    0.000    0.000    0.000    0.000 
#
# Total GULP energy -346890.927691 kJ/mol
# GULP energy per Si atom -12388.961703 kJ/mol
# Density = 1.750151 g / cm^3
# Si number density = 17.541433 Si / 1000 Ang^3
#
#
#
# Elastic Constant Matrix: (Units=GPa)
#
#
# Indices 1 2 3 4 5 6 
#
# 1 110.4849 19.9801 55.1781 0.0000 -5.3907 0.0000
# 2 19.9801 34.3919 28.1940 0.0000 -2.4200 0.0000
# 3 55.1781 28.1940 129.9490 0.0000 -1.0314 0.0000
# 4 0.0000 0.0000 0.0000 21.5100 0.0000 -4.0391
# 5 -5.3907 -2.4200 -1.0314 0.0000 32.2867 0.0000
# 6 0.0000 0.0000 0.0000 -4.0391 0.0000 20.3019
#
#
#
# Elastic Compliance Matrix: (Units=1/GPa)
#
#
# Indices 1 2 3 4 5 6 
#
# 1 0.011876 -0.003239 -0.004327 0.000000 0.001602 0.000000
# 2 -0.003239 0.036439 -0.006515 0.000000 0.001982 0.000000
# 3 -0.004327 -0.006515 0.010939 0.000000 -0.000861 0.000000
# 4 0.000000 0.000000 0.000000 0.048294 0.000000 0.009608
# 5 0.001602 0.001982 -0.000861 0.000000 0.031361 0.000000
# 6 0.000000 0.000000 0.000000 0.009608 0.000000 0.051168
#
#
# Mechanical properties :
#
#
# Convention : Reuss Voigt Hill
#
# Bulk Modulus (GPa) = 32.16294 53.50336 42.83315
# Shear Modulus (GPa) = 21.87194 26.25129 24.06161
#
# Velocity S-wave (km/s) = 3.53494 3.87270 3.70767
# Velocity P-wave (km/s) = 5.91915 7.11087 6.54220
#
# Compressibility (1/GPa) = 0.03109169
#
# Stress axis : x y z
#
# Youngs Moduli (GPa) = 84.20311 27.44342 91.41349
#
# Poissons Ratio (x) = 0.08890 0.39557
# Poissons Ratio (y) = 0.27276 0.59552
# Poissons Ratio (z) = 0.36436 0.17878
#
# Static dielectric constant tensor:
#      x y z
#    x 3.346180 0.000000 0.005110 
#    y 0.000000 2.869070 0.000000 
#    z 0.005110 0.000000 3.438140 
# 
# 
# High freq. dielectric constant tensor:
#      x y z
#    x 1.672020 0.000000 -0.002330 
#    y 0.000000 1.633150 0.000000 
#    z -0.002330 0.000000 1.676150 
# 
# From -- ./inp_files/243268.got.cif
#   From: 2010.06.25/outbox.cif.g09.slc.cpg/sg12_122_cif.got.tgz:243268.got - 2010.06.28 00:19:55.
