data_PCOD8081533
_publ_section_title
;
Structure prediction by ZEFSAII (Michael W. Deem and Ramdas Pophale) SiO2 
 PCOD8081533
Probable space group: C 2/M
;
_chemical_formula_sum "Si O2"
_cell_formula_units_Z 64
_cell_length_a 19.283926
_cell_length_b 8.859521
_cell_length_c 20.878223
_cell_angle_alpha 90.000000
_cell_angle_beta 96.401016
_cell_angle_gamma 90.000000
_cell_volume 3544.731454
_symmetry_space_group_name_H-M "C 2/M"
_symmetry_group_IT_number 12
_symmetry_cell_setting 'monoclinic'
loop_
_space_group_symop_operation_xyz
x,y,z
-x,y,-z
-x,-y,-z
x,-y,z
1/2+x,1/2+y,z
1/2-x,1/2+y,-z
1/2-x,1/2-y,-z
1/2+x,1/2-y,z
loop_
_atom_site_type_symbol
_atom_site_label
_atom_site_fract_x
_atom_site_fract_y
_atom_site_fract_z
Si Si1 0.384062 0.326222 0.166726
Si Si2 0.260302 0.680085 0.069959
Si Si3 0.127543 0.680213 0.617295
Si Si4 0.477905 0.820231 0.651865
Si Si5 0.577615 0.165270 0.481669
Si Si6 0.822567 0.175488 0.828177
Si Si7 0.967416 0.824240 0.783789
Si Si8 0.716576 0.325194 0.727770
O O1 0.392397 0.500000 0.151008
O O2 0.334323 0.258302 0.105835
O O3 0.461658 0.253948 0.177501
O O4 0.347821 0.300065 0.231033
O O5 0.258148 0.500000 0.066498
O O6 0.198634 0.733991 0.110438
O O7 0.250000 0.750000 0.000000
O O8 0.135688 0.500000 0.618835
O O9 0.123197 0.743541 0.543066
O O10 0.194411 0.757412 0.657025
O O11 0.057886 0.729417 0.648457
O O12 0.428366 0.754040 0.588757
O O13 0.449607 0.755942 0.715288
O O14 0.472516 0.000000 0.651467
O O15 0.500000 0.146623 0.500000
O O16 0.610273 0.000000 0.474151
O O17 0.904926 0.202155 0.827022
O O18 0.783475 0.236860 0.761238
O O19 0.804626 0.000000 0.835436
O O20 0.978536 0.000000 0.769663
O O21 0.736430 0.500000 0.722747
#
# Coordination Sequence:
#
# PCOD8081533 Si02
#       8
#     8   8   8   8   8   8   8   8
#     4   8  16  31  51  74  99 130 165 198 241 290
#     4  10  20  37  60  82 106 135 166 202 241 289
#     4   9  15  25  44  69  96 128 169 212 254 304
#     4   9  16  26  44  70  98 131 167 207 255 303
#     4   7  12  23  38  61  95 129 162 204 255 306
#     4  10  21  35  53  76 103 134 169 205 246 299
#     4  10  19  33  51  73 103 135 166 207 254 301
#     4  10  18  30  49  71 100 132 166 213 259 301
#
# _framework density 18.054964999999999
#
# number of rings (size 3 to 8) (size 9 to 14) (size 15 to 20)
#    0.000    2.875    1.250    3.375    0.000    1.000 
#    0.000    1.875    0.000    6.750    0.000    0.000 
#    0.000    0.000    0.000    0.000    0.000    0.000 
#
# Total GULP energy -396482.036230 kJ/mol
# GULP energy per Si atom -12390.063632 kJ/mol
# Density = 1.801387 g / cm^3
# Si number density = 18.054965 Si / 1000 Ang^3
#
#
#
# Elastic Constant Matrix: (Units=GPa)
#
#
# Indices 1 2 3 4 5 6 
#
# 1 76.9730 26.8735 42.2589 0.0000 6.4971 0.0000
# 2 26.8735 52.5640 34.5432 0.0000 4.0679 0.0000
# 3 42.2589 34.5432 140.5975 0.0000 16.6698 0.0000
# 4 0.0000 0.0000 0.0000 25.8847 0.0000 0.8073
# 5 6.4971 4.0679 16.6698 0.0000 18.8321 0.0000
# 6 0.0000 0.0000 0.0000 0.8073 0.0000 18.8125
#
#
#
# Elastic Compliance Matrix: (Units=1/GPa)
#
#
# Indices 1 2 3 4 5 6 
#
# 1 0.017251 -0.006455 -0.003417 0.000000 -0.001532 0.000000
# 2 -0.006455 0.025103 -0.004300 0.000000 0.000611 0.000000
# 3 -0.003417 -0.004300 0.009995 0.000000 -0.006740 0.000000
# 4 0.000000 0.000000 0.000000 0.038685 0.000000 -0.001660
# 5 -0.001532 0.000611 -0.006740 0.000000 0.059463 0.000000
# 6 0.000000 0.000000 0.000000 -0.001660 0.000000 0.053227
#
#
# Mechanical properties :
#
#
# Convention : Reuss Voigt Hill
#
# Bulk Modulus (GPa) = 41.65902 53.05397 47.35649
# Shear Modulus (GPa) = 20.82725 23.80312 22.31519
#
# Velocity S-wave (km/s) = 3.40008 3.63488 3.51943
# Velocity P-wave (km/s) = 6.20786 6.86039 6.54227
#
# Compressibility (1/GPa) = 0.02400441
#
# Stress axis : x y z
#
# Youngs Moduli (GPa) = 57.96856 39.83585 100.04869
#
# Poissons Ratio (x) = 0.25715 0.34190
# Poissons Ratio (y) = 0.37419 0.43018
# Poissons Ratio (z) = 0.19810 0.17128
#
# Static dielectric constant tensor:
#      x y z
#    x 3.261560 0.000000 0.346530 
#    y 0.000000 3.089140 0.000000 
#    z 0.346530 0.000000 3.569000 
# 
# 
# High freq. dielectric constant tensor:
#      x y z
#    x 1.672500 0.000000 0.020090 
#    y 0.000000 1.674800 0.000000 
#    z 0.020090 0.000000 1.701750 
# 
# From -- ./inp_files/319221.got.cif
#   From: 2010.06.25/outbox.cif.g09.slc.cpg/sg12_160_cif.got.tgz:319221.got - 2010.06.28 00:19:55.
