data_PCOD8081120
_publ_section_title
;
Structure prediction by ZEFSAII (Michael W. Deem and Ramdas Pophale) SiO2 
 PCOD8081120
Probable space group: C 2/M
;
_chemical_formula_sum "Si O2"
_cell_formula_units_Z 56
_cell_length_a 21.333926
_cell_length_b 14.715241
_cell_length_c 14.218186
_cell_angle_alpha 90.000000
_cell_angle_beta 38.578987
_cell_angle_gamma 90.000000
_cell_volume 2783.450749
_symmetry_space_group_name_H-M "C 2/M"
_symmetry_group_IT_number 12
_symmetry_cell_setting 'monoclinic'
loop_
_space_group_symop_operation_xyz
x,y,z
-x,y,-z
-x,-y,-z
x,-y,z
1/2+x,1/2+y,z
1/2-x,1/2+y,-z
1/2-x,1/2-y,-z
1/2+x,1/2-y,z
loop_
_atom_site_type_symbol
_atom_site_label
_atom_site_fract_x
_atom_site_fract_y
_atom_site_fract_z
Si Si1 0.092964 0.720166 0.819555
Si Si2 0.432367 0.897369 0.488201
Si Si3 0.174117 0.101862 0.985095
Si Si4 0.752704 0.893002 0.894185
Si Si5 0.227283 0.745184 0.268220
Si Si6 0.976541 0.603425 0.816941
Si Si7 0.036616 0.904592 0.850165
O O1 0.197814 0.701762 0.748299
O O2 0.066788 0.649539 0.768922
O O3 0.108749 0.818917 0.751937
O O4 0.000000 0.721198 0.000000
O O5 0.500000 0.889485 0.500000
O O6 0.355722 0.812360 0.577961
O O7 0.505685 0.882566 0.314183
O O8 0.383608 0.000000 0.540489
O O9 0.217886 0.170608 0.858812
O O10 0.215638 0.000000 0.915255
O O11 0.203797 0.130567 0.054969
O O12 0.054529 0.104986 0.116227
O O13 0.813140 0.828397 0.749619
O O14 0.766451 0.000000 0.853985
O O15 0.635556 0.861283 0.027579
O O16 0.982041 0.500000 0.841100
O O17 0.093758 0.000000 0.761488
O O18 0.000000 0.907508 0.000000
#
# Coordination Sequence:
#
# PCOD8081120 Si02
#       7
#     8   8   8   8   8   8   8
#     4  11  20  34  54  87 118 150 193 242 287 349
#     4  10  23  42  62  87 117 153 195 242 298 354
#     4  10  18  29  49  79 112 145 186 236 291 344
#     4  10  21  35  56  87 117 150 197 248 294 344
#     4  12  21  34  59  85 115 152 194 245 294 342
#     4  10  21  39  59  81 119 159 194 242 293 345
#     4   9  16  28  45  71 110 144 170 219 286 341
#
# _framework density 20.118912000000002
#
# number of rings (size 3 to 8) (size 9 to 14) (size 15 to 20)
#    0.000    1.714    4.286    1.714    0.000    5.429 
#    0.000    0.000    0.000    1.286    0.000    0.000 
#    0.000    0.000    0.000    0.000    0.000    0.000 
#
# Total GULP energy -346946.514726 kJ/mol
# GULP energy per Si atom -12390.946955 kJ/mol
# Density = 2.007312 g / cm^3
# Si number density = 20.118912 Si / 1000 Ang^3
#
#
#
# Elastic Constant Matrix: (Units=GPa)
#
#
# Indices 1 2 3 4 5 6 
#
# 1 116.8851 29.8440 3.3990 0.0000 1.5585 0.0000
# 2 29.8440 72.2020 23.9688 0.0000 11.4434 0.0000
# 3 3.3990 23.9688 36.1931 0.0000 1.1818 0.0000
# 4 0.0000 0.0000 0.0000 21.8620 0.0000 0.1883
# 5 1.5585 11.4434 1.1818 0.0000 16.0040 0.0000
# 6 0.0000 0.0000 0.0000 0.1883 0.0000 38.8745
#
#
#
# Elastic Compliance Matrix: (Units=1/GPa)
#
#
# Indices 1 2 3 4 5 6 
#
# 1 0.009801 -0.005303 0.002505 0.000000 0.002653 0.000000
# 2 -0.005303 0.023190 -0.014370 0.000000 -0.015004 0.000000
# 3 0.002505 -0.014370 0.036672 0.000000 0.007323 0.000000
# 4 0.000000 0.000000 0.000000 0.045743 0.000000 -0.000222
# 5 0.002653 -0.015004 0.007323 0.000000 0.072414 0.000000
# 6 0.000000 0.000000 0.000000 -0.000222 0.000000 0.025725
#
#
# Mechanical properties :
#
#
# Convention : Reuss Voigt Hill
#
# Bulk Modulus (GPa) = 28.30690 37.74487 33.02589
# Shear Modulus (GPa) = 19.25618 26.55268 22.90443
#
# Velocity S-wave (km/s) = 3.09709 3.63683 3.37776
# Velocity P-wave (km/s) = 5.18552 6.03631 5.62702
#
# Compressibility (1/GPa) = 0.03532707
#
# Stress axis : x y z
#
# Youngs Moduli (GPa) = 102.02779 43.12129 27.26911
#
# Poissons Ratio (x) = 0.22868 -0.06831
# Poissons Ratio (y) = 0.54107 0.39185
# Poissons Ratio (z) = -0.25557 0.61964
#
# Static dielectric constant tensor:
#      x y z
#    x 3.850660 0.000000 -0.029930 
#    y 0.000000 4.178690 0.000000 
#    z -0.029930 0.000000 3.180480 
# 
# 
# High freq. dielectric constant tensor:
#      x y z
#    x 1.800350 0.000000 0.004840 
#    y 0.000000 1.804270 0.000000 
#    z 0.004840 0.000000 1.718070 
# 
# From -- ./inp_files/233667.got.cif
#   From: 2010.06.25/outbox.cif.g09.slc.cpg/sg12_117_cif.got.tgz:233667.got - 2010.06.28 00:19:55.
