data_PCOD8081988
_publ_section_title
;
Structure prediction by ZEFSAII (Michael W. Deem and Ramdas Pophale) SiO2 
 PCOD8081988
Probable space group: C 2/M
;
_chemical_formula_sum "Si O2"
_cell_formula_units_Z 40
_cell_length_a 24.787630
_cell_length_b 11.075898
_cell_length_c 10.183784
_cell_angle_alpha 90.000000
_cell_angle_beta 126.504903
_cell_angle_gamma 90.000000
_cell_volume 2247.368824
_symmetry_space_group_name_H-M "C 2/M"
_symmetry_group_IT_number 12
_symmetry_cell_setting 'monoclinic'
loop_
_space_group_symop_operation_xyz
x,y,z
-x,y,-z
-x,-y,-z
x,-y,z
1/2+x,1/2+y,z
1/2-x,1/2+y,-z
1/2-x,1/2-y,-z
1/2+x,1/2-y,z
loop_
_atom_site_type_symbol
_atom_site_label
_atom_site_fract_x
_atom_site_fract_y
_atom_site_fract_z
Si Si1 0.919589 0.000000 0.532317
Si Si2 0.078279 0.000000 0.767456
Si Si3 0.661201 0.287501 0.998587
Si Si4 0.165754 0.214870 0.512382
Si Si5 0.682094 0.140259 0.278855
Si Si6 0.690231 0.135332 0.793419
O O1 0.892126 0.115145 0.571424
O O2 0.894507 0.000000 0.343636
O O3 0.998858 0.000000 0.654473
O O4 0.102353 0.880599 0.878703
O O5 0.646583 0.218893 0.113814
O O6 0.729612 0.363186 0.105839
O O7 0.666878 0.183801 0.899121
O O8 0.237609 0.149251 0.613976
O O9 0.155968 0.305613 0.377511
O O10 0.155125 0.288788 0.629578
O O11 0.661152 0.000000 0.238076
O O12 0.664155 0.000000 0.743581
#
# Coordination Sequence:
#
# PCOD8081988 Si02
#       6
#     4   4   8   8   8   8
#     4  11  22  39  61  79 117 153 188 239 268 338
#     4  11  22  39  59  83 115 149 196 234 271 334
#     4  10  20  32  53  83 112 143 188 228 285 330
#     4  10  20  34  55  84 114 149 187 219 288 339
#     4  10  20  34  56  84 120 144 174 241 286 334
#     4  10  18  30  54  80 113 145 177 242 281 325
#
# _framework density 17.798590999999998
#
# number of rings (size 3 to 8) (size 9 to 14) (size 15 to 20)
#    0.000    1.800    4.000    1.200    0.000    0.800 
#    0.000    2.000    0.000    7.200    0.000    0.000 
#    0.000    0.000    0.000    0.000    0.000    0.000 
#
# Total GULP energy -248053.010312 kJ/mol
# GULP energy per Si atom -12402.650516 kJ/mol
# Density = 1.775808 g / cm^3
# Si number density = 17.798591 Si / 1000 Ang^3
#
#
#
# Elastic Constant Matrix: (Units=GPa)
#
#
# Indices 1 2 3 4 5 6 
#
# 1 40.9970 20.6744 18.5918 0.0000 2.1335 0.0000
# 2 20.6744 116.0560 29.9094 0.0000 9.3597 0.0000
# 3 18.5918 29.9094 81.8886 0.0000 -7.4224 0.0000
# 4 0.0000 0.0000 0.0000 45.3858 0.0000 -36.4463
# 5 2.1335 9.3597 -7.4224 0.0000 20.7810 0.0000
# 6 0.0000 0.0000 0.0000 -36.4463 0.0000 86.5940
#
#
#
# Elastic Compliance Matrix: (Units=1/GPa)
#
#
# Indices 1 2 3 4 5 6 
#
# 1 0.028837 -0.003415 -0.005610 0.000000 -0.003426 0.000000
# 2 -0.003415 0.010620 -0.003623 0.000000 -0.005727 0.000000
# 3 -0.005610 -0.003623 0.015511 0.000000 0.007748 0.000000
# 4 0.000000 0.000000 0.000000 0.033282 0.000000 0.014008
# 5 -0.003426 -0.005727 0.007748 0.000000 0.053819 0.000000
# 6 0.000000 0.000000 0.000000 0.014008 0.000000 0.017444
#
#
# Mechanical properties :
#
#
# Convention : Reuss Voigt Hill
#
# Bulk Modulus (GPa) = 33.70177 41.92141 37.81159
# Shear Modulus (GPa) = 25.68052 41.86989 33.77521
#
# Velocity S-wave (km/s) = 3.80259 4.85544 4.36091
# Velocity P-wave (km/s) = 6.18513 7.41877 6.82986
#
# Compressibility (1/GPa) = 0.02967204
#
# Stress axis : x y z
#
# Youngs Moduli (GPa) = 34.67812 94.15885 64.47061
#
# Poissons Ratio (x) = 0.32153 0.36170
# Poissons Ratio (y) = 0.11842 0.23357
# Poissons Ratio (z) = 0.19456 0.34112
#
# Static dielectric constant tensor:
#      x y z
#    x 2.991480 0.000000 -0.237840 
#    y 0.000000 3.289210 0.000000 
#    z -0.237840 0.000000 3.335000 
# 
# 
# High freq. dielectric constant tensor:
#      x y z
#    x 1.654220 0.000000 -0.026760 
#    y 0.000000 1.703110 0.000000 
#    z -0.026760 0.000000 1.686340 
# 
# From -- ./inp_files/83505.got.cif
#   From: 2010.06.25/outbox.cif.g09.slc.cpg/sg12_42_cif.got.tgz:83505.got - 2010.06.28 00:19:55.
