data_PCOD8081066
_publ_section_title
;
Structure prediction by ZEFSAII (Michael W. Deem and Ramdas Pophale) SiO2 
 PCOD8081066
Probable space group: C 2/M
;
_chemical_formula_sum "Si O2"
_cell_formula_units_Z 40
_cell_length_a 27.834776
_cell_length_b 12.820913
_cell_length_c 7.059714
_cell_angle_alpha 90.000000
_cell_angle_beta 74.548854
_cell_angle_gamma 90.000000
_cell_volume 2428.325122
_symmetry_space_group_name_H-M "C 2/M"
_symmetry_group_IT_number 12
_symmetry_cell_setting 'monoclinic'
loop_
_space_group_symop_operation_xyz
x,y,z
-x,y,-z
-x,-y,-z
x,-y,z
1/2+x,1/2+y,z
1/2-x,1/2+y,-z
1/2-x,1/2-y,-z
1/2+x,1/2-y,z
loop_
_atom_site_type_symbol
_atom_site_label
_atom_site_fract_x
_atom_site_fract_y
_atom_site_fract_z
Si Si1 0.196685 0.880197 0.527074
Si Si2 0.944159 0.377996 0.097545
Si Si3 0.129532 0.297339 0.545047
Si Si4 0.290436 0.805837 0.248757
Si Si5 0.638022 0.120608 0.118621
O O1 0.144837 0.825655 0.513533
O O2 0.238211 0.867488 0.317994
O O3 0.217149 0.817656 0.692227
O O4 0.186535 0.000000 0.587208
O O5 0.942792 0.500000 0.150792
O O6 0.924018 0.312717 0.299252
O O7 0.911762 0.352203 0.945714
O O8 0.000000 0.339503 0.000000
O O9 0.170681 0.354594 0.636930
O O10 0.128312 0.348759 0.342796
O O11 0.314032 0.817430 0.015235
O O12 0.651287 0.000000 0.090266
#
# Coordination Sequence:
#
# PCOD8081066 Si02
#       5
#     8   8   8   8   8
#     4   9  17  33  50  66  97 131 161 198 231 270
#     4   9  18  32  49  71  98 124 152 193 243 290
#     4   9  18  31  47  70  98 125 160 191 234 281
#     4   8  18  33  46  69  98 125 162 193 230 275
#     4  10  18  29  49  73  99 125 153 192 237 286
#
# _framework density 16.472259999999999
#
# number of rings (size 3 to 8) (size 9 to 14) (size 15 to 20)
#    1.200    1.800    0.000    1.200    0.000    4.000 
#    0.000    4.000    0.000    0.600    0.000    1.400 
#    0.000    0.000    0.000    0.000    0.000    0.000 
#
# Total GULP energy -247802.859304 kJ/mol
# GULP energy per Si atom -12390.142965 kJ/mol
# Density = 1.643477 g / cm^3
# Si number density = 16.472260 Si / 1000 Ang^3
#
#
#
# Elastic Constant Matrix: (Units=GPa)
#
#
# Indices 1 2 3 4 5 6 
#
# 1 66.9256 31.5787 48.4496 0.0000 -31.4684 0.0000
# 2 31.5787 60.3321 22.8789 0.0000 -17.2290 0.0000
# 3 48.4496 22.8789 122.4356 0.0000 -21.9220 0.0000
# 4 0.0000 0.0000 0.0000 15.6461 0.0000 -1.7568
# 5 -31.4684 -17.2290 -21.9220 0.0000 30.1871 0.0000
# 6 0.0000 0.0000 0.0000 -1.7568 0.0000 20.6105
#
#
#
# Elastic Compliance Matrix: (Units=1/GPa)
#
#
# Indices 1 2 3 4 5 6 
#
# 1 0.039264 -0.008828 -0.008576 0.000000 0.029664 0.000000
# 2 -0.008828 0.022191 -0.000038 0.000000 0.003435 0.000000
# 3 -0.008576 -0.000038 0.011453 0.000000 -0.000645 0.000000
# 4 0.000000 0.000000 0.000000 0.064531 0.000000 0.005500
# 5 0.029664 0.003435 -0.000645 0.000000 0.065542 0.000000
# 6 0.000000 0.000000 0.000000 0.005500 0.000000 0.048988
#
#
# Mechanical properties :
#
#
# Convention : Reuss Voigt Hill
#
# Bulk Modulus (GPa) = 26.30010 50.61198 38.45604
# Shear Modulus (GPa) = 16.69288 23.07448 19.88368
#
# Velocity S-wave (km/s) = 3.18684 3.74680 3.47811
# Velocity P-wave (km/s) = 5.43527 7.03635 6.28699
#
# Compressibility (1/GPa) = 0.03802267
#
# Stress axis : x y z
#
# Youngs Moduli (GPa) = 25.46849 45.06321 87.31285
#
# Poissons Ratio (x) = 0.39782 0.74884
# Poissons Ratio (y) = 0.22484 0.00335
# Poissons Ratio (z) = 0.21843 0.00173
#
# Static dielectric constant tensor:
#      x y z
#    x 3.003160 0.000000 -0.151550 
#    y 0.000000 2.857530 0.000000 
#    z -0.151550 0.000000 2.988380 
# 
# 
# High freq. dielectric constant tensor:
#      x y z
#    x 1.614580 0.000000 -0.016110 
#    y 0.000000 1.603570 0.000000 
#    z -0.016110 0.000000 1.633290 
# 
# From -- ./inp_files/31065.got.cif
#   From: 2010.06.25/outbox.cif.g09.slc.cpg/sg12_16_cif.got.tgz:31065.got - 2010.06.28 00:19:55.
