data_PCOD8081485
_publ_section_title
;
Structure prediction by ZEFSAII (Michael W. Deem and Ramdas Pophale) SiO2 
 PCOD8081485
Probable space group: C 2/M
;
_chemical_formula_sum "Si O2"
_cell_formula_units_Z 56
_cell_length_a 25.572572
_cell_length_b 17.947921
_cell_length_c 9.405389
_cell_angle_alpha 90.000000
_cell_angle_beta 42.709634
_cell_angle_gamma 90.000000
_cell_volume 2928.035938
_symmetry_space_group_name_H-M "C 2/M"
_symmetry_group_IT_number 12
_symmetry_cell_setting 'monoclinic'
loop_
_space_group_symop_operation_xyz
x,y,z
-x,y,-z
-x,-y,-z
x,-y,z
1/2+x,1/2+y,z
1/2-x,1/2+y,-z
1/2-x,1/2-y,-z
1/2+x,1/2-y,z
loop_
_atom_site_type_symbol
_atom_site_label
_atom_site_fract_x
_atom_site_fract_y
_atom_site_fract_z
Si Si1 0.425749 0.582354 0.563413
Si Si2 0.183112 0.682415 0.301763
Si Si3 0.889056 0.762639 0.301224
Si Si4 0.465975 0.914346 0.411258
Si Si5 0.547221 0.221402 0.108546
Si Si6 0.843888 0.796941 0.886598
Si Si7 0.421934 0.580557 0.241649
O O1 0.500000 0.608477 0.500000
O O2 0.399541 0.500000 0.663795
O O3 0.360476 0.639768 0.738016
O O4 0.443639 0.585036 0.362647
O O5 0.172601 0.728094 0.468894
O O6 0.123542 0.612868 0.417666
O O7 0.173781 0.724877 0.171806
O O8 0.274811 0.667012 0.119386
O O9 0.867027 0.849311 0.310773
O O10 0.971201 0.766766 0.217580
O O11 0.895576 0.714968 0.142311
O O12 0.500000 0.908964 0.500000
O O13 0.521418 0.862075 0.204895
O O14 0.468874 0.000000 0.350679
O O15 0.586220 0.270575 0.152951
O O16 0.381637 0.500000 0.289115
O O17 0.500000 0.587239 0.000000
#
# Coordination Sequence:
#
# PCOD8081485 Si02
#       7
#     8   8   8   8   8   8   8
#     4  10  21  33  52  81 109 142 180 223 272 321
#     4  10  22  36  55  83 109 146 187 225 285 335
#     4  10  19  35  54  83 112 144 193 228 271 330
#     4  10  20  37  61  86 109 142 192 240 283 331
#     4  10  20  34  58  84 109 145 183 237 280 324
#     4  11  21  35  56  80 115 147 181 231 276 338
#     4  10  18  30  48  74 107 139 174 220 267 313
#
# _framework density 19.125447999999999
#
# number of rings (size 3 to 8) (size 9 to 14) (size 15 to 20)
#    0.000    1.857    4.286    0.857    2.000    1.143 
#    0.000    5.714    0.000    0.857    0.000    0.000 
#    0.000    0.000    0.000    0.000    0.000    0.000 
#
# Total GULP energy -346882.911089 kJ/mol
# GULP energy per Si atom -12388.675396 kJ/mol
# Density = 1.908192 g / cm^3
# Si number density = 19.125448 Si / 1000 Ang^3
#
#
#
# Elastic Constant Matrix: (Units=GPa)
#
#
# Indices 1 2 3 4 5 6 
#
# 1 33.5821 25.6402 25.2850 0.0000 4.5549 0.0000
# 2 25.6402 138.7260 52.6254 0.0000 0.7400 0.0000
# 3 25.2850 52.6254 119.3115 0.0000 12.1644 0.0000
# 4 0.0000 0.0000 0.0000 -4.6695 0.0000 19.0858
# 5 4.5549 0.7400 12.1644 0.0000 23.7523 0.0000
# 6 0.0000 0.0000 0.0000 19.0858 0.0000 13.4884
#
#
#
# Elastic Compliance Matrix: (Units=1/GPa)
#
#
# Indices 1 2 3 4 5 6 
#
# 1 0.038294 -0.004978 -0.005472 0.000000 -0.004386 0.000000
# 2 -0.004978 0.009376 -0.003321 0.000000 0.002364 0.000000
# 3 -0.005472 -0.003321 0.011489 0.000000 -0.004731 0.000000
# 4 0.000000 0.000000 0.000000 -0.031570 0.000000 0.044671
# 5 -0.004386 0.002364 -0.004731 0.000000 0.045291 0.000000
# 6 0.000000 0.000000 0.000000 0.044671 0.000000 0.010929
#
#
# Mechanical properties :
#
#
# Convention : Reuss Voigt Hill
#
# Bulk Modulus (GPa) = 31.63164 55.41342 43.52253
# Shear Modulus (GPa) = 41.02014 19.05217 30.03616
#
# Velocity S-wave (km/s) = 4.63622 3.15964 3.96723
# Velocity P-wave (km/s) = 6.72564 6.50751 6.61747
#
# Compressibility (1/GPa) = 0.03161392
#
# Stress axis : x y z
#
# Youngs Moduli (GPa) = 26.11376 106.65558 87.04351
#
# Poissons Ratio (x) = 0.53097 0.47634
# Poissons Ratio (y) = 0.13000 0.28911
# Poissons Ratio (z) = 0.14291 0.35425
#
# Static dielectric constant tensor:
#      x y z
#    x 3.365250 0.000000 0.144280 
#    y 0.000000 3.783680 0.000000 
#    z 0.144280 0.000000 3.678270 
# 
# 
# High freq. dielectric constant tensor:
#      x y z
#    x 1.717440 0.000000 0.023510 
#    y 0.000000 1.743870 0.000000 
#    z 0.023510 0.000000 1.746850 
# 
# From -- ./inp_files/105923.got.cif
#   From: 2010.06.25/outbox.cif.g09.slc.cpg/sg12_53_cif.got.tgz:105923.got - 2010.06.28 00:19:55.
