data_PCOD8081450
_publ_section_title
;
Structure prediction by ZEFSAII (Michael W. Deem and Ramdas Pophale) SiO2 
 PCOD8081450
Probable space group: C 2/M
;
_chemical_formula_sum "Si O2"
_cell_formula_units_Z 64
_cell_length_a 24.680457
_cell_length_b 8.869551
_cell_length_c 17.726980
_cell_angle_alpha 90.000000
_cell_angle_beta 103.272457
_cell_angle_gamma 90.000000
_cell_volume 3776.865836
_symmetry_space_group_name_H-M "C 2/M"
_symmetry_group_IT_number 12
_symmetry_cell_setting 'monoclinic'
loop_
_space_group_symop_operation_xyz
x,y,z
-x,y,-z
-x,-y,-z
x,-y,z
1/2+x,1/2+y,z
1/2-x,1/2+y,-z
1/2-x,1/2-y,-z
1/2+x,1/2-y,z
loop_
_atom_site_type_symbol
_atom_site_label
_atom_site_fract_x
_atom_site_fract_y
_atom_site_fract_z
Si Si1 0.133048 0.325001 0.418586
Si Si2 0.290015 0.821196 0.841327
Si Si3 0.192341 0.822094 0.005723
Si Si4 0.333765 0.677041 0.162287
Si Si5 0.904109 0.822792 0.320578
Si Si6 0.179190 0.675432 0.593214
Si Si7 0.298993 0.321858 0.687708
Si Si8 0.980538 0.174590 0.578121
O O1 0.135570 0.500000 0.397465
O O2 0.172431 0.289811 0.502586
O O3 0.153813 0.225700 0.355795
O O4 0.069945 0.281775 0.416629
O O5 0.327498 0.755960 0.922802
O O6 0.226824 0.760194 0.832225
O O7 0.313874 0.755947 0.771525
O O8 0.294636 0.000000 0.842819
O O9 0.198866 0.000000 0.020175
O O10 0.250000 0.750000 0.000000
O O11 0.151677 0.786208 0.920984
O O12 0.330370 0.500000 0.172056
O O13 0.380995 0.743272 0.233386
O O14 0.869980 0.757476 0.379148
O O15 0.969004 0.782539 0.349259
O O16 0.895610 0.000000 0.322472
O O17 0.173512 0.500000 0.608677
O O18 0.239096 0.736711 0.639127
O O19 0.299847 0.500000 0.698132
O O20 0.000000 0.209897 0.500000
O O21 0.962866 0.000000 0.580605
#
# Coordination Sequence:
#
# PCOD8081450 Si02
#       8
#     8   8   8   8   8   8   8   8
#     4  11  23  37  52  70  98 134 171 210 253 298
#     4  10  18  30  48  71 100 133 167 198 246 302
#     4   9  16  27  43  67 100 133 167 201 243 294
#     4   8  15  27  45  70  98 130 164 200 240 290
#     4  10  18  31  52  74  99 133 169 206 248 293
#     4  10  21  34  49  73 100 130 166 207 252 296
#     4  11  22  35  51  73 101 131 169 210 249 297
#     4  10  20  34  53  75  97 128 171 213 252 292
#
# _framework density 16.945267000000001
#
# number of rings (size 3 to 8) (size 9 to 14) (size 15 to 20)
#    0.000    2.125    2.500    2.625    0.000    1.750 
#    0.000    0.625    0.000    0.000    0.000    0.875 
#    0.000    7.000    0.000    0.000    0.000    0.000 
#
# Total GULP energy -396696.225421 kJ/mol
# GULP energy per Si atom -12396.757044 kJ/mol
# Density = 1.690670 g / cm^3
# Si number density = 16.945267 Si / 1000 Ang^3
#
#
#
# Elastic Constant Matrix: (Units=GPa)
#
#
# Indices 1 2 3 4 5 6 
#
# 1 46.7817 19.4221 29.6818 0.0000 -5.9668 0.0000
# 2 19.4221 59.3509 43.0554 0.0000 -4.6633 0.0000
# 3 29.6818 43.0554 128.4323 0.0000 -2.8896 0.0000
# 4 0.0000 0.0000 0.0000 26.9660 0.0000 -4.3717
# 5 -5.9668 -4.6633 -2.8896 0.0000 18.1461 0.0000
# 6 0.0000 0.0000 0.0000 -4.3717 0.0000 22.3905
#
#
#
# Elastic Compliance Matrix: (Units=1/GPa)
#
#
# Indices 1 2 3 4 5 6 
#
# 1 0.027192 -0.005165 -0.004397 0.000000 0.006914 0.000000
# 2 -0.005165 0.023625 -0.006652 0.000000 0.003314 0.000000
# 3 -0.004397 -0.006652 0.011001 0.000000 -0.001403 0.000000
# 4 0.000000 0.000000 0.000000 0.038296 0.000000 0.007477
# 5 0.006914 0.003314 -0.001403 0.000000 0.058010 0.000000
# 6 0.000000 0.000000 0.000000 0.007477 0.000000 0.046122
#
#
# Mechanical properties :
#
#
# Convention : Reuss Voigt Hill
#
# Bulk Modulus (GPa) = 34.02577 46.54259 40.28418
# Shear Modulus (GPa) = 20.28646 22.99422 21.64034
#
# Velocity S-wave (km/s) = 3.46378 3.68770 3.57749
# Velocity P-wave (km/s) = 6.01002 6.75709 6.39448
#
# Compressibility (1/GPa) = 0.02938949
#
# Stress axis : x y z
#
# Youngs Moduli (GPa) = 36.77556 42.32802 90.90287
#
# Poissons Ratio (x) = 0.21864 0.39971
# Poissons Ratio (y) = 0.18996 0.60466
# Poissons Ratio (z) = 0.16171 0.28155
#
# Static dielectric constant tensor:
#      x y z
#    x 2.905890 0.000000 0.229010 
#    y 0.000000 3.118920 0.000000 
#    z 0.229010 0.000000 3.775410 
# 
# 
# High freq. dielectric constant tensor:
#      x y z
#    x 1.609040 0.000000 0.003840 
#    y 0.000000 1.651400 0.000000 
#    z 0.003840 0.000000 1.668460 
# 
# From -- ./inp_files/287644.got.cif
#   From: 2010.06.25/outbox.cif.g09.slc.cpg/sg12_144_cif.got.tgz:287644.got - 2010.06.28 00:19:55.
