data_PCOD8081596
_publ_section_title
;
Structure prediction by ZEFSAII (Michael W. Deem and Ramdas Pophale) SiO2 
 PCOD8081596
Probable space group: C 2/M
;
_chemical_formula_sum "Si O2"
_cell_formula_units_Z 40
_cell_length_a 28.812169
_cell_length_b 8.969499
_cell_length_c 12.721289
_cell_angle_alpha 90.000000
_cell_angle_beta 135.919593
_cell_angle_gamma 90.000000
_cell_volume 2287.055877
_symmetry_space_group_name_H-M "C 2/M"
_symmetry_group_IT_number 12
_symmetry_cell_setting 'monoclinic'
loop_
_space_group_symop_operation_xyz
x,y,z
-x,y,-z
-x,-y,-z
x,-y,z
1/2+x,1/2+y,z
1/2-x,1/2+y,-z
1/2-x,1/2-y,-z
1/2+x,1/2-y,z
loop_
_atom_site_type_symbol
_atom_site_label
_atom_site_fract_x
_atom_site_fract_y
_atom_site_fract_z
Si Si1 0.315832 0.825223 0.562234
Si Si2 0.654502 0.325103 0.047246
Si Si3 0.796362 0.824148 0.321114
Si Si4 0.317887 0.329119 0.131574
Si Si5 0.426436 0.826441 0.912675
O O1 0.250000 0.750000 0.500000
O O2 0.333379 0.756916 0.477097
O O3 0.377462 0.787880 0.737452
O O4 0.303145 0.000000 0.531205
O O5 0.666313 0.500000 0.086919
O O6 0.721228 0.237288 0.188069
O O7 0.593301 0.266602 0.016454
O O8 0.634196 0.294584 0.890526
O O9 0.840977 0.787350 0.288236
O O10 0.791813 0.000000 0.336625
O O11 0.298832 0.500000 0.101489
O O12 0.250000 0.250000 0.000000
O O13 0.424161 0.000000 0.938169
O O14 0.500000 0.775142 0.000000
#
# Coordination Sequence:
#
# PCOD8081596 Si02
#       5
#     8   8   8   8   8
#     4  11  21  33  52  76 103 132 167 212 257 302
#     4  10  18  30  50  75 102 131 169 211 251 297
#     4  10  18  30  49  74 105 135 165 203 252 303
#     4   8  16  28  44  70 101 131 162 203 250 296
#     4  10  22  38  53  71 100 138 173 207 254 307
#
# _framework density 17.489733999999999
#
# number of rings (size 3 to 8) (size 9 to 14) (size 15 to 20)
#    0.000    2.200    2.000    1.800    0.000    2.800 
#    0.000    0.000    0.000    1.200    0.000    8.400 
#    0.000    0.000    0.000    0.000    0.000    0.000 
#
# Total GULP energy -247805.939410 kJ/mol
# GULP energy per Si atom -12390.296971 kJ/mol
# Density = 1.744993 g / cm^3
# Si number density = 17.489734 Si / 1000 Ang^3
#
#
#
# Elastic Constant Matrix: (Units=GPa)
#
#
# Indices 1 2 3 4 5 6 
#
# 1 133.3299 55.8308 77.4494 0.0000 -31.5324 0.0000
# 2 55.8308 75.2311 48.0213 0.0000 -16.4526 0.0000
# 3 77.4494 48.0213 92.4987 0.0000 -21.3390 0.0000
# 4 0.0000 0.0000 0.0000 23.3537 0.0000 -6.2390
# 5 -31.5324 -16.4526 -21.3390 0.0000 37.6399 0.0000
# 6 0.0000 0.0000 0.0000 -6.2390 0.0000 26.1506
#
#
#
# Elastic Compliance Matrix: (Units=1/GPa)
#
#
# Indices 1 2 3 4 5 6 
#
# 1 0.016906 -0.004576 -0.010324 0.000000 0.006309 0.000000
# 2 -0.004576 0.021475 -0.006944 0.000000 0.001616 0.000000
# 3 -0.010324 -0.006944 0.023429 0.000000 0.001599 0.000000
# 4 0.000000 0.000000 0.000000 0.045735 0.000000 0.010911
# 5 0.006309 0.001616 0.001599 0.000000 0.033466 0.000000
# 6 0.000000 0.000000 0.000000 0.010911 0.000000 0.040843
#
#
# Mechanical properties :
#
#
# Convention : Reuss Voigt Hill
#
# Bulk Modulus (GPa) = 55.18531 73.74030 64.46280
# Shear Modulus (GPa) = 21.59072 25.41271 23.50171
#
# Velocity S-wave (km/s) = 3.51733 3.81597 3.66969
# Velocity P-wave (km/s) = 6.93664 7.85297 7.40898
#
# Compressibility (1/GPa) = 0.01812077
#
# Stress axis : x y z
#
# Youngs Moduli (GPa) = 59.15222 46.56673 42.68260
#
# Poissons Ratio (x) = 0.21311 0.44064
# Poissons Ratio (y) = 0.27071 0.29639
# Poissons Ratio (z) = 0.61067 0.32336
#
# Static dielectric constant tensor:
#      x y z
#    x 3.698460 0.000000 -0.717540 
#    y 0.000000 3.315080 0.000000 
#    z -0.717540 0.000000 3.456400 
# 
# 
# High freq. dielectric constant tensor:
#      x y z
#    x 1.670050 0.000000 -0.046350 
#    y 0.000000 1.688810 0.000000 
#    z -0.046350 0.000000 1.650030 
# 
# From -- ./inp_files/162381.got.cif
#   From: 2010.06.25/outbox.cif.g09.slc.cpg/sg12_82_cif.got.tgz:162381.got - 2010.06.28 00:19:55.
