data_PCOD8081165
_publ_section_title
;
Structure prediction by ZEFSAII (Michael W. Deem and Ramdas Pophale) SiO2 
 PCOD8081165
Probable space group: C 2/M
;
_chemical_formula_sum "Si O2"
_cell_formula_units_Z 48
_cell_length_a 16.804219
_cell_length_b 15.137264
_cell_length_c 17.396775
_cell_angle_alpha 90.000000
_cell_angle_beta 148.688007
_cell_angle_gamma 90.000000
_cell_volume 2299.775650
_symmetry_space_group_name_H-M "C 2/M"
_symmetry_group_IT_number 12
_symmetry_cell_setting 'monoclinic'
loop_
_space_group_symop_operation_xyz
x,y,z
-x,y,-z
-x,-y,-z
x,-y,z
1/2+x,1/2+y,z
1/2-x,1/2+y,-z
1/2-x,1/2-y,-z
1/2+x,1/2-y,z
loop_
_atom_site_type_symbol
_atom_site_label
_atom_site_fract_x
_atom_site_fract_y
_atom_site_fract_z
Si Si1 0.374705 0.870397 0.838951
Si Si2 0.630637 0.903055 0.544838
Si Si3 0.344510 0.328486 0.839162
Si Si4 0.424872 0.096583 0.125633
Si Si5 0.062920 0.288618 0.717284
Si Si6 0.845622 0.901888 0.217981
O O1 0.391106 0.765923 0.845352
O O2 0.410973 0.906500 0.783522
O O3 0.211055 0.899413 0.739368
O O4 0.500000 0.910874 0.000000
O O5 0.500000 0.901264 0.500000
O O6 0.788980 0.883586 0.719393
O O7 0.589967 0.830141 0.446998
O O8 0.641649 0.000000 0.515077
O O9 0.214965 0.319041 0.797578
O O10 0.500000 0.374274 0.000000
O O11 0.421383 0.174456 0.184184
O O12 0.399423 0.000000 0.143359
O O13 0.293754 0.116911 0.955029
O O14 0.040093 0.181577 0.699451
O O15 0.919172 0.000000 0.263629
#
# Coordination Sequence:
#
# PCOD8081165 Si02
#       6
#     8   8   8   8   8   8
#     4   8  15  29  49  73 101 134 173 215 257 303
#     4   9  18  33  52  74 104 142 178 210 254 315
#     4   9  18  33  54  78 103 136 176 215 258 308
#     4  10  18  29  50  78 107 140 178 217 258 308
#     4  10  19  32  52  77 107 139 174 218 264 310
#     4   9  17  29  48  75 105 139 178 218 259 304
#
# _framework density 20.871600999999998
#
# number of rings (size 3 to 8) (size 9 to 14) (size 15 to 20)
#    0.000    2.833    0.000    2.500    0.000    3.000 
#    0.000    0.833    0.000   14.500    0.000    0.000 
#    0.000    0.000    0.000    0.000    0.000    0.167 
#
# Total GULP energy -297336.464381 kJ/mol
# GULP energy per Si atom -12389.019349 kJ/mol
# Density = 2.082410 g / cm^3
# Si number density = 20.871601 Si / 1000 Ang^3
#
#
#
# Elastic Constant Matrix: (Units=GPa)
#
#
# Indices 1 2 3 4 5 6 
#
# 1 67.0833 40.6823 16.6197 -0.0017 -15.1087 -0.0023
# 2 40.6823 171.3702 51.1371 -0.0016 -15.1903 -0.0025
# 3 16.6197 51.1371 103.2910 0.0004 -6.1514 -0.0031
# 4 -0.0017 -0.0016 0.0004 24.2263 -0.0028 -4.8060
# 5 -15.1087 -15.1903 -6.1514 -0.0028 15.0863 -0.0025
# 6 -0.0023 -0.0025 -0.0031 -4.8060 -0.0025 19.1781
#
#
#
# Elastic Compliance Matrix: (Units=1/GPa)
#
#
# Indices 1 2 3 4 5 6 
#
# 1 0.020971 -0.003207 -0.000746 0.000004 0.017468 0.000005
# 2 -0.003207 0.007842 -0.003164 0.000001 0.003393 0.000001
# 3 -0.000746 -0.003164 0.011411 0.000000 0.000720 0.000001
# 4 0.000004 0.000001 0.000000 0.043437 0.000015 0.010885
# 5 0.017468 0.003393 0.000720 0.000015 0.087490 0.000018
# 6 0.000005 0.000001 0.000001 0.010885 0.000018 0.054870
#
#
# Mechanical properties :
#
#
# Convention : Reuss Voigt Hill
#
# Bulk Modulus (GPa) = 38.47865 62.06920 50.27392
# Shear Modulus (GPa) = 20.08691 27.25184 23.66937
#
# Velocity S-wave (km/s) = 3.10563 3.61735 3.37121
# Velocity P-wave (km/s) = 5.59784 6.87387 6.26841
#
# Compressibility (1/GPa) = 0.02598844
#
# Stress axis : x y z
#
# Youngs Moduli (GPa) = 47.68477 127.52337 87.63664
#
# Poissons Ratio (x) = 0.40902 0.06538
# Poissons Ratio (y) = 0.15294 0.27729
# Poissons Ratio (z) = 0.03558 0.40349
#
# Static dielectric constant tensor:
#      x y z
#    x 3.534000 0.000000 -0.076710 
#    y 0.000000 3.939640 0.000000 
#    z -0.076710 0.000000 3.658080 
# 
# 
# High freq. dielectric constant tensor:
#      x y z
#    x 1.787910 0.000000 -0.016060 
#    y 0.000000 1.827490 0.000000 
#    z -0.016060 0.000000 1.777910 
# 
# From -- ./inp_files/278216.got.cif
#   From: 2010.06.25/outbox.cif.g09.slc.cpg/sg12_140_cif.got.tgz:278216.got - 2010.06.28 00:19:55.
