data_PCOD8081275
_publ_section_title
;
Structure prediction by ZEFSAII (Michael W. Deem and Ramdas Pophale) SiO2 
 PCOD8081275
Probable space group: C 2/M
;
_chemical_formula_sum "Si O2"
_cell_formula_units_Z 64
_cell_length_a 28.070760
_cell_length_b 9.083346
_cell_length_c 22.713299
_cell_angle_alpha 90.000000
_cell_angle_beta 46.039818
_cell_angle_gamma 90.000000
_cell_volume 4168.747527
_symmetry_space_group_name_H-M "C 2/M"
_symmetry_group_IT_number 12
_symmetry_cell_setting 'monoclinic'
loop_
_space_group_symop_operation_xyz
x,y,z
-x,y,-z
-x,-y,-z
x,-y,z
1/2+x,1/2+y,z
1/2-x,1/2+y,-z
1/2-x,1/2-y,-z
1/2+x,1/2-y,z
loop_
_atom_site_type_symbol
_atom_site_label
_atom_site_fract_x
_atom_site_fract_y
_atom_site_fract_z
Si Si1 0.908412 0.664839 0.036748
Si Si2 0.635061 0.331137 0.331223
Si Si3 0.718348 0.825296 0.800448
Si Si4 0.508327 0.166035 0.423185
Si Si5 0.838693 0.830566 0.262234
Si Si6 0.039044 0.666929 0.876218
Si Si7 0.378933 0.328615 0.519330
Si Si8 0.763321 0.329188 0.549355
O O1 0.903892 0.500000 0.016580
O O2 0.833652 0.732596 0.104126
O O3 0.931678 0.666055 0.083856
O O4 0.964186 0.738725 0.946143
O O5 0.616526 0.500000 0.334980
O O6 0.707036 0.289369 0.242983
O O7 0.580283 0.232321 0.345629
O O8 0.638070 0.300962 0.398139
O O9 0.704493 0.750015 0.750045
O O10 0.709178 0.000000 0.798537
O O11 0.500000 0.171283 0.500000
O O12 0.451315 0.263525 0.442050
O O13 0.504191 0.000000 0.402583
O O14 0.912984 0.764512 0.205686
O O15 0.802247 0.809131 0.355301
O O16 0.844917 0.000000 0.238753
O O17 0.036695 0.500000 0.853465
O O18 0.378077 0.500000 0.503630
O O19 0.326158 0.243738 0.525857
O O20 0.779221 0.500000 0.525186
O O21 0.750000 0.250000 0.500000
#
# Coordination Sequence:
#
# PCOD8081275 Si02
#       8
#     8   8   8   8   8   8   8   8
#     4   7  11  20  35  54  73  98 133 165 189 223
#     4   9  16  25  40  61  81 106 138 169 199 237
#     4   9  15  25  40  56  78 108 138 165 196 235
#     4   9  17  27  40  58  81 107 133 164 202 241
#     4  10  19  28  39  56  76  99 129 169 209 243
#     4   8  13  23  38  52  70  99 133 163 192 232
#     4  10  18  30  46  61  78 101 134 172 208 246
#     4  11  23  35  46  60  79 103 136 175 216 253
#
# _framework density 15.352333
#
# number of rings (size 3 to 8) (size 9 to 14) (size 15 to 20)
#    0.000    2.875    1.250    3.000    0.000    4.000 
#    0.000    5.000    0.000    0.000    0.000    0.000 
#    0.000    0.000    0.000    1.125    0.000   13.000 
#
# Total GULP energy -396441.440527 kJ/mol
# GULP energy per Si atom -12388.795016 kJ/mol
# Density = 1.531739 g / cm^3
# Si number density = 15.352333 Si / 1000 Ang^3
#
#
#
# Elastic Constant Matrix: (Units=GPa)
#
#
# Indices 1 2 3 4 5 6 
#
# 1 52.6122 41.1707 49.4265 0.0008 -24.8594 -0.0006
# 2 41.1707 88.3864 48.2195 0.0042 -16.4855 0.0022
# 3 49.4265 48.2195 93.6003 0.0033 -38.1551 -0.0032
# 4 0.0008 0.0042 0.0033 18.8934 -0.0040 -5.3100
# 5 -24.8594 -16.4855 -38.1551 -0.0040 29.0367 0.0026
# 6 -0.0006 0.0022 -0.0032 -5.3100 0.0026 20.8096
#
#
#
# Elastic Compliance Matrix: (Units=1/GPa)
#
#
# Indices 1 2 3 4 5 6 
#
# 1 0.049108 -0.013150 -0.010903 0.000007 0.020251 0.000000
# 2 -0.013150 0.019445 -0.006810 -0.000006 -0.009167 -0.000004
# 3 -0.010903 -0.006810 0.031373 0.000003 0.028025 0.000002
# 4 0.000007 -0.000006 0.000003 0.057018 0.000013 0.014549
# 5 0.020251 -0.009167 0.028025 0.000013 0.083398 -0.000001
# 6 0.000000 -0.000004 0.000002 0.014549 -0.000001 0.051767
#
#
# Mechanical properties :
#
#
# Convention : Reuss Voigt Hill
#
# Bulk Modulus (GPa) = 26.17712 56.91470 41.54591
# Shear Modulus (GPa) = 13.64003 20.13343 16.88673
#
# Velocity S-wave (km/s) = 2.98395 3.62529 3.32014
# Velocity P-wave (km/s) = 5.38144 7.39435 6.46670
#
# Compressibility (1/GPa) = 0.03820130
#
# Stress axis : x y z
#
# Youngs Moduli (GPa) = 20.36320 51.42809 31.87408
#
# Poissons Ratio (x) = 0.67626 0.34751
# Poissons Ratio (y) = 0.26777 0.21707
# Poissons Ratio (z) = 0.22201 0.35024
#
# Static dielectric constant tensor:
#      x y z
#    x 3.504500 -0.000040 0.279210 
#    y -0.000040 2.978460 -0.000010 
#    z 0.279210 -0.000010 4.127710 
# 
# 
# High freq. dielectric constant tensor:
#      x y z
#    x 1.540210 0.000000 -0.051290 
#    y 0.000000 1.585920 0.000000 
#    z -0.051290 0.000000 1.578710 
# 
# From -- ./inp_files/350947.got.cif
#   From: 2010.06.25/outbox.cif.g09.slc.cpg/sg12_176_cif.got.tgz:350947.got - 2010.06.28 00:19:55.
