data_PCOD8081561
_publ_section_title
;
Structure prediction by ZEFSAII (Michael W. Deem and Ramdas Pophale) SiO2 
 PCOD8081561
Probable space group: C 2/M
;
_chemical_formula_sum "Si O2"
_cell_formula_units_Z 64
_cell_length_a 8.729353
_cell_length_b 18.936192
_cell_length_c 20.818202
_cell_angle_alpha 90.000000
_cell_angle_beta 90.000000
_cell_angle_gamma 90.000000
_cell_volume 3441.263456
_symmetry_space_group_name_H-M "C 2/M"
_symmetry_group_IT_number 12
_symmetry_cell_setting 'monoclinic'
loop_
_space_group_symop_operation_xyz
x,y,z
-x,y,-z
-x,-y,-z
x,-y,z
1/2+x,1/2+y,z
1/2-x,1/2+y,-z
1/2-x,1/2-y,-z
1/2+x,1/2-y,z
loop_
_atom_site_type_symbol
_atom_site_label
_atom_site_fract_x
_atom_site_fract_y
_atom_site_fract_z
Si Si1 0.679757 0.580422 0.749274
Si Si2 0.318725 0.079857 0.881456
Si Si3 0.182097 0.827329 0.629144
Si Si4 0.679757 0.419578 0.250726
Si Si5 0.181275 0.420143 0.881456
Si Si6 0.682097 0.672671 0.370856
Si Si7 0.317474 0.171731 0.500000
Si Si8 0.682106 0.172458 0.000000
O O1 0.730068 0.500000 0.736403
O O2 0.758903 0.609790 0.813659
O O3 0.736063 0.626012 0.689101
O O4 0.500000 0.587335 0.758964
O O5 0.500000 0.079894 0.880848
O O6 0.256859 0.130405 0.937688
O O7 0.257209 0.000000 0.892918
O O8 0.250000 0.750000 0.639705
O O9 0.252735 0.864274 0.565007
O O10 1.000000 0.823315 0.622369
O O11 0.730068 0.500000 0.263597
O O12 0.758902 0.390210 0.186341
O O13 0.736063 0.373987 0.310899
O O14 0.242791 0.500000 0.892918
O O15 0.243141 0.369595 0.937688
O O16 0.752735 0.635726 0.434993
O O17 0.500000 0.171701 0.500000
O O18 0.250000 0.250000 0.500000
O O19 0.500000 0.177081 0.000000
O O20 0.750000 0.250000 0.000000
#
# Coordination Sequence:
#
# PCOD8081561 Si02
#       8
#     8   8   8   8   8   8   8   8
#     4   9  19  35  53  74 100 130 165 204 245 291
#     4   9  18  34  55  74  95 129 169 205 242 289
#     4  10  19  32  51  73  99 130 164 203 246 293
#     4   9  19  35  53  74 100 130 165 204 245 291
#     4   9  18  34  55  74  95 129 169 205 242 289
#     4  10  19  32  51  73  99 130 164 203 246 293
#     4  10  18  30  49  72  99 129 165 205 243 290
#     4  10  21  35  51  75 105 132 162 202 248 294
#
# _framework density 18.597821
#
# number of rings (size 3 to 8) (size 9 to 14) (size 15 to 20)
#    0.000    2.500    0.000    3.750    0.000    5.500 
#    0.000    5.625    0.000    7.500    0.000    0.000 
#    0.000    0.000    0.000    0.000    0.000    0.000 
#
# Total GULP energy -396752.810767 kJ/mol
# GULP energy per Si atom -12398.525336 kJ/mol
# Density = 1.855549 g / cm^3
# Si number density = 18.597821 Si / 1000 Ang^3
#
#
#
# Elastic Constant Matrix: (Units=GPa)
#
#
# Indices 1 2 3 4 5 6 
#
# 1 57.7831 27.3046 51.2534 0.0000 0.0000 0.0000
# 2 27.3046 86.4727 90.5839 0.0000 0.0000 0.0000
# 3 51.2534 90.5839 215.0547 0.0000 -0.0001 0.0000
# 4 0.0000 0.0000 0.0000 34.5753 0.0000 0.0000
# 5 0.0000 0.0000 -0.0001 0.0000 35.2291 0.0000
# 6 0.0000 0.0000 0.0000 0.0000 0.0000 24.4706
#
#
#
# Elastic Compliance Matrix: (Units=1/GPa)
#
#
# Indices 1 2 3 4 5 6 
#
# 1 0.022276 -0.002635 -0.004199 0.000000 0.000000 0.000000
# 2 -0.002635 0.021008 -0.008221 0.000000 0.000000 0.000000
# 3 -0.004199 -0.008221 0.009113 0.000000 0.000000 0.000000
# 4 0.000000 0.000000 0.000000 0.028922 0.000000 0.000000
# 5 0.000000 0.000000 0.000000 0.000000 0.028386 0.000000
# 6 0.000000 0.000000 0.000000 0.000000 0.000000 0.040865
#
#
# Mechanical properties :
#
#
# Convention : Reuss Voigt Hill
#
# Bulk Modulus (GPa) = 44.86859 77.51049 61.18954
# Shear Modulus (GPa) = 26.58020 31.53290 29.05655
#
# Velocity S-wave (km/s) = 3.78459 4.12213 3.95696
# Velocity P-wave (km/s) = 6.57842 8.02643 7.33823
#
# Compressibility (1/GPa) = 0.02228731
#
# Stress axis : x y z
#
# Youngs Moduli (GPa) = 44.89180 47.60048 109.72799
#
# Poissons Ratio (x) = 0.12544 0.46074
# Poissons Ratio (y) = 0.11830 0.90206
# Poissons Ratio (z) = 0.18850 0.39132
#
# Static dielectric constant tensor:
#      x y z
#    x 3.309020 0.000000 0.000000 
#    y 0.000000 3.323020 0.000000 
#    z 0.000000 0.000000 4.022930 
# 
# 
# High freq. dielectric constant tensor:
#      x y z
#    x 1.717450 0.000000 0.000000 
#    y 0.000000 1.696490 0.000000 
#    z 0.000000 0.000000 1.743680 
# 
# From -- ./inp_files/258131.got.cif
#   From: 2010.06.25/outbox.cif.g09.slc.cpg/sg12_130_cif.got.tgz:258131.got - 2010.06.28 00:19:55.
