data_PCOD8081991
_publ_section_title
;
Structure prediction by ZEFSAII (Michael W. Deem and Ramdas Pophale) SiO2 
 PCOD8081991
Probable space group: C 2/M
;
_chemical_formula_sum "Si O2"
_cell_formula_units_Z 64
_cell_length_a 16.662558
_cell_length_b 13.683312
_cell_length_c 15.086627
_cell_angle_alpha 90.000000
_cell_angle_beta 104.698206
_cell_angle_gamma 90.000000
_cell_volume 3327.172619
_symmetry_space_group_name_H-M "C 2/M"
_symmetry_group_IT_number 12
_symmetry_cell_setting 'monoclinic'
loop_
_space_group_symop_operation_xyz
x,y,z
-x,y,-z
-x,-y,-z
x,-y,z
1/2+x,1/2+y,z
1/2-x,1/2+y,-z
1/2-x,1/2-y,-z
1/2+x,1/2-y,z
loop_
_atom_site_type_symbol
_atom_site_label
_atom_site_fract_x
_atom_site_fract_y
_atom_site_fract_z
Si Si1 0.813721 0.386964 0.469115
Si Si2 0.916664 0.890181 0.222054
Si Si3 0.274231 0.304884 0.871877
Si Si4 0.094521 0.890922 0.213654
Si Si5 0.036871 0.299486 0.416217
Si Si6 0.233474 0.892002 0.941226
Si Si7 0.633195 0.790704 0.695842
Si Si8 0.868396 0.892015 0.581866
O O1 0.822322 0.500000 0.441655
O O2 0.878361 0.362911 0.567746
O O3 0.830549 0.314809 0.390570
O O4 0.722226 0.366126 0.483890
O O5 0.860954 0.888731 0.118477
O O6 0.875425 0.826417 0.289614
O O7 0.004798 0.846631 0.214321
O O8 0.928377 0.000000 0.263027
O O9 0.359938 0.324620 0.845595
O O10 0.283292 0.191464 0.902279
O O11 0.193566 0.331924 0.789168
O O12 0.265159 0.373761 0.953882
O O13 0.149452 0.892110 0.317759
O O14 0.084547 0.000000 0.171632
O O15 0.059991 0.184458 0.422034
O O16 0.000000 0.327018 0.500000
O O17 0.963893 0.328154 0.325405
O O18 0.271838 0.000000 0.933189
O O19 0.898199 0.000000 0.559330
#
# Coordination Sequence:
#
# PCOD8081991 Si02
#       8
#     8   8   8   8   8   8   8   8
#     4  10  21  36  53  73 100 136 175 215 253 291
#     4   9  18  33  53  78 108 133 159 208 269 312
#     4  10  19  32  52  79 105 136 174 208 249 307
#     4  10  18  30  54  81 103 130 165 212 258 304
#     4  10  21  34  52  77 104 135 169 210 257 306
#     4   9  19  34  52  77 108 137 168 210 256 302
#     4  10  19  32  51  75 102 136 171 205 252 304
#     4  10  19  34  55  78 103 131 166 214 263 305
#
# _framework density 19.23555
#
# number of rings (size 3 to 8) (size 9 to 14) (size 15 to 20)
#    0.000    2.250    2.500    0.750    0.000    3.500 
#    0.000    3.750    0.000    2.250    0.000    7.875 
#    0.000    0.000    0.000    0.000    0.000    0.000 
#
# Total GULP energy -396430.000396 kJ/mol
# GULP energy per Si atom -12388.437512 kJ/mol
# Density = 1.919177 g / cm^3
# Si number density = 19.235550 Si / 1000 Ang^3
#
#
#
# Elastic Constant Matrix: (Units=GPa)
#
#
# Indices 1 2 3 4 5 6 
#
# 1 61.2088 26.6534 3.6247 0.0000 10.2599 0.0000
# 2 26.6534 74.6947 13.3379 0.0000 0.9992 0.0000
# 3 3.6247 13.3379 43.4053 0.0000 13.7467 0.0000
# 4 0.0000 0.0000 0.0000 20.7856 0.0000 -0.8551
# 5 10.2599 0.9992 13.7467 0.0000 23.3626 0.0000
# 6 0.0000 0.0000 0.0000 -0.8551 0.0000 30.8335
#
#
#
# Elastic Compliance Matrix: (Units=1/GPa)
#
#
# Indices 1 2 3 4 5 6 
#
# 1 0.021708 -0.008394 0.004513 0.000000 -0.011830 0.000000
# 2 -0.008394 0.017521 -0.006899 0.000000 0.006996 0.000000
# 3 0.004513 -0.006899 0.031114 0.000000 -0.019995 0.000000
# 4 0.000000 0.000000 0.000000 0.048165 0.000000 0.001336
# 5 -0.011830 0.006996 -0.019995 0.000000 0.059464 0.000000
# 6 0.000000 0.000000 0.000000 0.001336 0.000000 0.032469
#
#
# Mechanical properties :
#
#
# Convention : Reuss Voigt Hill
#
# Bulk Modulus (GPa) = 20.49825 29.61563 25.05694
# Shear Modulus (GPa) = 20.13991 24.04254 22.09123
#
# Velocity S-wave (km/s) = 3.23927 3.53923 3.39257
# Velocity P-wave (km/s) = 4.96690 5.66844 5.32923
#
# Compressibility (1/GPa) = 0.04878465
#
# Stress axis : x y z
#
# Youngs Moduli (GPa) = 46.06537 57.07339 32.13973
#
# Poissons Ratio (x) = 0.47906 -0.14505
# Poissons Ratio (y) = 0.38666 0.22173
# Poissons Ratio (z) = -0.20790 0.39374
#
# Static dielectric constant tensor:
#      x y z
#    x 3.585830 0.000000 0.444110 
#    y 0.000000 3.582020 0.000000 
#    z 0.444110 0.000000 3.523000 
# 
# 
# High freq. dielectric constant tensor:
#      x y z
#    x 1.744100 0.000000 0.029290 
#    y 0.000000 1.741060 0.000000 
#    z 0.029290 0.000000 1.729120 
# 
# From -- ./inp_files/224824.got.cif
#   From: 2010.06.25/outbox.cif.g09.slc.cpg/sg12_113_cif.got.tgz:224824.got - 2010.06.28 00:19:55.
