data_PCOD8081963
_publ_section_title
;
Structure prediction by ZEFSAII (Michael W. Deem and Ramdas Pophale) SiO2 
 PCOD8081963
Probable space group: C 2/M
;
_chemical_formula_sum "Si O2"
_cell_formula_units_Z 48
_cell_length_a 14.764670
_cell_length_b 10.933192
_cell_length_c 22.486872
_cell_angle_alpha 90.000000
_cell_angle_beta 41.476615
_cell_angle_gamma 90.000000
_cell_volume 2404.162983
_symmetry_space_group_name_H-M "C 2/M"
_symmetry_group_IT_number 12
_symmetry_cell_setting 'monoclinic'
loop_
_space_group_symop_operation_xyz
x,y,z
-x,y,-z
-x,-y,-z
x,-y,z
1/2+x,1/2+y,z
1/2-x,1/2+y,-z
1/2-x,1/2-y,-z
1/2+x,1/2-y,z
loop_
_atom_site_type_symbol
_atom_site_label
_atom_site_fract_x
_atom_site_fract_y
_atom_site_fract_z
Si Si1 0.381892 0.500000 0.105743
Si Si2 0.613988 0.634737 0.695438
Si Si3 0.128387 0.744659 0.480148
Si Si4 0.531808 0.226543 0.324175
Si Si5 0.880628 0.500000 0.211247
Si Si6 0.573801 0.000000 0.224438
Si Si7 0.163967 0.000000 0.421405
Si Si8 0.840412 0.762443 0.203966
O O1 0.238411 0.500000 0.141553
O O2 0.398453 0.372926 0.134760
O O3 0.500000 0.500000 0.000000
O O4 0.595832 0.500000 0.730271
O O5 0.760816 0.643382 0.591303
O O6 0.493612 0.658406 0.706874
O O7 0.604738 0.724307 0.756164
O O8 0.203792 0.876787 0.436966
O O9 0.000000 0.732695 0.500000
O O10 0.085176 0.722103 0.568898
O O11 0.676964 0.231381 0.284723
O O12 0.514628 0.112589 0.289699
O O13 0.739974 0.500000 0.319720
O O14 0.884527 0.621874 0.166604
O O15 0.015296 0.500000 0.186559
O O16 0.000000 0.000000 0.500000
#
# Coordination Sequence:
#
# PCOD8081963 Si02
#       8
#     4   8   8   8   4   4   4   8
#     4  10  24  48  71  97 127 157 195 252 329 410
#     4  12  24  37  55  87 122 163 220 258 306 361
#     4  11  21  35  53  79 119 171 219 266 306 346
#     4  11  23  38  57  86 121 168 217 261 305 362
#     4  12  20  40  62  94 126 165 215 258 300 370
#     4  10  22  40  68  88 119 161 210 253 324 373
#     4  10  18  30  53  80 119 165 215 258 298 337
#     4  11  22  41  68  90 123 166 200 255 315 376
#
# _framework density 19.96537
#
# number of rings (size 3 to 8) (size 9 to 14) (size 15 to 20)
#    0.000    1.000    5.833    1.500    3.500    0.333 
#    0.000    1.250    0.000    0.000    0.000    0.000 
#    0.000    0.000    0.000    0.000    0.000    0.000 
#
# Total GULP energy -297467.810621 kJ/mol
# GULP energy per Si atom -12394.492109 kJ/mol
# Density = 1.991993 g / cm^3
# Si number density = 19.965370 Si / 1000 Ang^3
#
#
#
# Elastic Constant Matrix: (Units=GPa)
#
#
# Indices 1 2 3 4 5 6 
#
# 1 60.5039 17.4186 25.3387 0.0000 6.0072 0.0000
# 2 17.4186 141.8180 35.6593 0.0000 5.1148 0.0000
# 3 25.3387 35.6593 92.8522 0.0000 2.3294 0.0000
# 4 0.0000 0.0000 0.0000 20.2333 0.0000 5.5372
# 5 6.0072 5.1148 2.3294 0.0000 13.3558 0.0000
# 6 0.0000 0.0000 0.0000 5.5372 0.0000 28.2350
#
#
#
# Elastic Compliance Matrix: (Units=1/GPa)
#
#
# Indices 1 2 3 4 5 6 
#
# 1 0.019555 -0.000923 -0.004791 0.000000 -0.007607 0.000000
# 2 -0.000923 0.007931 -0.002740 0.000000 -0.002144 0.000000
# 3 -0.004791 -0.002740 0.013107 0.000000 0.000919 0.000000
# 4 0.000000 0.000000 0.000000 0.052227 0.000000 -0.010242
# 5 -0.007607 -0.002144 0.000919 0.000000 0.078956 0.000000
# 6 0.000000 0.000000 0.000000 -0.010242 0.000000 0.037426
#
#
# Mechanical properties :
#
#
# Convention : Reuss Voigt Hill
#
# Bulk Modulus (GPa) = 42.22196 50.22302 46.22249
# Shear Modulus (GPa) = 21.36707 26.81531 24.09119
#
# Velocity S-wave (km/s) = 3.27495 3.66880 3.47745
# Velocity P-wave (km/s) = 5.95768 6.56936 6.27098
#
# Compressibility (1/GPa) = 0.02368436
#
# Stress axis : x y z
#
# Youngs Moduli (GPa) = 51.13695 126.08772 76.29722
#
# Poissons Ratio (x) = 0.11635 0.36556
# Poissons Ratio (y) = 0.04719 0.20907
# Poissons Ratio (z) = 0.24501 0.34551
#
# Static dielectric constant tensor:
#      x y z
#    x 3.762270 0.000000 0.007350 
#    y 0.000000 4.136060 0.000000 
#    z 0.007350 0.000000 3.122640 
# 
# 
# High freq. dielectric constant tensor:
#      x y z
#    x 1.788390 0.000000 -0.001430 
#    y 0.000000 1.797550 0.000000 
#    z -0.001430 0.000000 1.723550 
# 
# From -- ./inp_files/212730.got.cif
#   From: 2010.06.25/outbox.cif.g09.slc.cpg/sg12_107_cif.got.tgz:212730.got - 2010.06.28 00:19:55.
