data_PCOD8081793
_publ_section_title
;
Structure prediction by ZEFSAII (Michael W. Deem and Ramdas Pophale) SiO2 
 PCOD8081793
Probable space group: C 2/M
;
_chemical_formula_sum "Si O2"
_cell_formula_units_Z 56
_cell_length_a 31.074402
_cell_length_b 9.873772
_cell_length_c 16.474856
_cell_angle_alpha 90.000000
_cell_angle_beta 143.821048
_cell_angle_gamma 90.000000
_cell_volume 2983.919087
_symmetry_space_group_name_H-M "C 2/M"
_symmetry_group_IT_number 12
_symmetry_cell_setting 'monoclinic'
loop_
_space_group_symop_operation_xyz
x,y,z
-x,y,-z
-x,-y,-z
x,-y,z
1/2+x,1/2+y,z
1/2-x,1/2+y,-z
1/2-x,1/2-y,-z
1/2+x,1/2-y,z
loop_
_atom_site_type_symbol
_atom_site_label
_atom_site_fract_x
_atom_site_fract_y
_atom_site_fract_z
Si Si1 0.184532 0.339588 0.639104
Si Si2 0.017688 0.151695 0.150331
Si Si3 0.043972 0.655869 0.815177
Si Si4 0.113428 0.792142 0.153414
Si Si5 0.240018 0.644892 0.556435
Si Si6 0.814716 0.651149 0.874064
Si Si7 0.528263 0.841363 0.458975
O O1 0.195980 0.500000 0.671031
O O2 0.183706 0.306770 0.540626
O O3 0.249355 0.258495 0.782582
O O4 0.108039 0.284256 0.557228
O O5 0.008382 0.242180 0.215731
O O6 0.072548 0.238439 0.176366
O O7 0.048140 0.000000 0.216944
O O8 0.941160 0.126430 0.988002
O O9 0.021381 0.500000 0.799953
O O10 0.031279 0.689756 0.701306
O O11 0.128698 0.679428 0.966199
O O12 0.183871 0.880922 0.281183
O O13 0.141356 0.661029 0.145199
O O14 0.215233 0.500000 0.481874
O O15 0.250000 0.750000 0.500000
O O16 0.782537 0.500000 0.831074
O O17 0.500000 0.774449 0.500000
O O18 0.537732 0.000000 0.485829
#
# Coordination Sequence:
#
# PCOD8081793 Si02
#       7
#     8   8   8   8   8   8   8
#     4   9  19  35  55  77 102 137 178 220 258 307
#     4  10  18  30  51  74  99 135 175 215 259 303
#     4   9  19  33  52  78 106 133 171 221 265 311
#     4   9  18  31  47  68  99 137 177 209 241 298
#     4  10  20  31  44  67 100 134 169 206 246 294
#     4   9  18  33  52  76 106 141 173 211 265 312
#     4   9  18  36  60  81 103 136 177 218 266 321
#
# _framework density 18.767264999999998
#
# number of rings (size 3 to 8) (size 9 to 14) (size 15 to 20)
#    0.000    2.714    0.000    1.714    2.000    6.857 
#    0.000    4.286    0.000    1.714    0.000    0.000 
#    0.000    0.000    0.000    0.000    0.000    0.000 
#
# Total GULP energy -346880.577161 kJ/mol
# GULP energy per Si atom -12388.592041 kJ/mol
# Density = 1.872455 g / cm^3
# Si number density = 18.767265 Si / 1000 Ang^3
#
#
#
# Elastic Constant Matrix: (Units=GPa)
#
#
# Indices 1 2 3 4 5 6 
#
# 1 138.3370 43.9298 64.2929 0.0000 -7.0943 0.0000
# 2 43.9298 71.1150 43.8147 0.0000 -4.2567 0.0000
# 3 64.2929 43.8147 91.1075 0.0000 -6.2992 0.0000
# 4 0.0000 0.0000 0.0000 20.7838 0.0000 1.5988
# 5 -7.0943 -4.2567 -6.2992 0.0000 27.8838 0.0000
# 6 0.0000 0.0000 0.0000 1.5988 0.0000 15.7369
#
#
#
# Elastic Compliance Matrix: (Units=1/GPa)
#
#
# Indices 1 2 3 4 5 6 
#
# 1 0.011187 -0.002885 -0.006441 0.000000 0.000951 0.000000
# 2 -0.002885 0.020748 -0.007897 0.000000 0.000649 0.000000
# 3 -0.006441 -0.007897 0.019426 0.000000 0.001544 0.000000
# 4 0.000000 0.000000 0.000000 0.048493 0.000000 -0.004927
# 5 0.000951 0.000649 0.001544 0.000000 0.036553 0.000000
# 6 0.000000 0.000000 0.000000 -0.004927 0.000000 0.064046
#
#
# Mechanical properties :
#
#
# Convention : Reuss Voigt Hill
#
# Bulk Modulus (GPa) = 59.12157 67.18159 63.15158
# Shear Modulus (GPa) = 20.78654 22.78236 21.78445
#
# Velocity S-wave (km/s) = 3.33167 3.48795 3.41070
# Velocity P-wave (km/s) = 6.80962 7.21775 7.01665
#
# Compressibility (1/GPa) = 0.01691430
#
# Stress axis : x y z
#
# Youngs Moduli (GPa) = 89.38613 48.19636 51.47648
#
# Poissons Ratio (x) = 0.13906 0.33159
# Poissons Ratio (y) = 0.25790 0.40652
# Poissons Ratio (z) = 0.57578 0.38062
#
# Static dielectric constant tensor:
#      x y z
#    x 3.559080 0.000000 0.076600 
#    y 0.000000 3.162940 0.000000 
#    z 0.076600 0.000000 3.462100 
# 
# 
# High freq. dielectric constant tensor:
#      x y z
#    x 1.707720 0.000000 0.009700 
#    y 0.000000 1.704860 0.000000 
#    z 0.009700 0.000000 1.726720 
# 
# From -- ./inp_files/250584.got.cif
#   From: 2010.06.25/outbox.cif.g09.slc.cpg/sg12_126_cif.got.tgz:250584.got - 2010.06.28 00:19:55.
