data_PCOD8081726
_publ_section_title
;
Structure prediction by ZEFSAII (Michael W. Deem and Ramdas Pophale) SiO2 
 PCOD8081726
Probable space group: C 2/M
;
_chemical_formula_sum "Si O2"
_cell_formula_units_Z 56
_cell_length_a 19.121248
_cell_length_b 8.941778
_cell_length_c 28.064301
_cell_angle_alpha 90.000000
_cell_angle_beta 39.042833
_cell_angle_gamma 90.000000
_cell_volume 3022.503254
_symmetry_space_group_name_H-M "C 2/M"
_symmetry_group_IT_number 12
_symmetry_cell_setting 'monoclinic'
loop_
_space_group_symop_operation_xyz
x,y,z
-x,y,-z
-x,-y,-z
x,-y,z
1/2+x,1/2+y,z
1/2-x,1/2+y,-z
1/2-x,1/2-y,-z
1/2+x,1/2-y,z
loop_
_atom_site_type_symbol
_atom_site_label
_atom_site_fract_x
_atom_site_fract_y
_atom_site_fract_z
Si Si1 0.369024 0.675307 0.684993
Si Si2 0.407790 0.174448 0.448445
Si Si3 0.886796 0.826713 0.084760
Si Si4 0.970260 0.676478 0.234819
Si Si5 0.201591 0.673722 0.593671
Si Si6 0.163400 0.825214 0.188420
Si Si7 0.643247 0.674177 0.789888
O O1 0.360601 0.500000 0.680167
O O2 0.477939 0.739667 0.601777
O O3 0.374031 0.714854 0.738240
O O4 0.262773 0.751949 0.717251
O O5 0.315079 0.231583 0.534610
O O6 0.369261 0.213764 0.415513
O O7 0.427826 0.000000 0.445414
O O8 0.789022 0.728640 0.113638
O O9 0.897961 0.795071 0.134893
O O10 0.860334 0.000000 0.088846
O O11 0.000000 0.775474 0.000000
O O12 0.980216 0.500000 0.224199
O O13 0.870422 0.721860 0.322925
O O14 0.947577 0.750112 0.195897
O O15 0.086164 0.737778 0.192714
O O16 0.233342 0.500000 0.577485
O O17 0.154788 0.000000 0.182541
O O18 0.652215 0.500000 0.773555
#
# Coordination Sequence:
#
# PCOD8081726 Si02
#       7
#     8   8   8   8   8   8   8
#     4  10  19  33  53  77 106 141 182 224 268 319
#     4  10  18  30  50  76 104 137 181 228 272 314
#     4   9  19  38  62  85 110 141 175 214 263 318
#     4  11  21  36  55  78 111 146 181 219 267 322
#     4   9  19  32  48  73 105 141 178 222 272 317
#     4  10  20  33  55  84 110 140 180 222 262 311
#     4  10  21  36  56  81 110 140 176 220 267 319
#
# _framework density 18.527688999999999
#
# number of rings (size 3 to 8) (size 9 to 14) (size 15 to 20)
#    0.000    2.143    1.429    2.143    0.000    3.714 
#    0.000    1.429    0.000    4.286    0.000    0.000 
#    0.000    0.000    0.000    0.000    0.000    0.000 
#
# Total GULP energy -347337.693431 kJ/mol
# GULP energy per Si atom -12404.917623 kJ/mol
# Density = 1.848552 g / cm^3
# Si number density = 18.527689 Si / 1000 Ang^3
#
#
#
# Elastic Constant Matrix: (Units=GPa)
#
#
# Indices 1 2 3 4 5 6 
#
# 1 106.5124 54.5198 43.0001 0.0000 -15.4188 0.0001
# 2 54.5198 91.6888 49.1359 -0.0004 -13.8331 0.0011
# 3 43.0001 49.1359 108.2622 0.0001 -18.9477 -0.0001
# 4 0.0000 -0.0004 0.0001 29.3922 0.0000 -6.6192
# 5 -15.4188 -13.8331 -18.9477 0.0000 20.7161 0.0000
# 6 0.0001 0.0011 -0.0001 -6.6192 0.0000 33.8587
#
#
#
# Elastic Compliance Matrix: (Units=1/GPa)
#
#
# Indices 1 2 3 4 5 6 
#
# 1 0.014255 -0.006859 -0.001778 0.000000 0.004403 0.000000
# 2 -0.006859 0.018046 -0.005061 0.000000 0.002317 -0.000001
# 3 -0.001778 -0.005061 0.013593 0.000000 0.007730 0.000000
# 4 0.000000 0.000000 0.000000 0.035590 0.000000 0.006958
# 5 0.004403 0.002317 0.007730 0.000000 0.060166 0.000000
# 6 0.000000 -0.000001 0.000000 0.006958 0.000000 0.030895
#
#
# Mechanical properties :
#
#
# Convention : Reuss Voigt Hill
#
# Bulk Modulus (GPa) = 54.05922 66.64168 60.35045
# Shear Modulus (GPa) = 24.25939 27.44724 25.85331
#
# Velocity S-wave (km/s) = 3.62243 3.85309 3.73954
# Velocity P-wave (km/s) = 6.83644 7.47274 7.16166
#
# Compressibility (1/GPa) = 0.01849823
#
# Stress axis : x y z
#
# Youngs Moduli (GPa) = 70.15269 55.41252 73.56812
#
# Poissons Ratio (x) = 0.38006 0.13081
# Poissons Ratio (y) = 0.48117 0.37232
# Poissons Ratio (z) = 0.12474 0.28044
#
# Static dielectric constant tensor:
#      x y z
#    x 3.250870 0.000000 -0.077670 
#    y 0.000000 3.414780 0.000000 
#    z -0.077670 0.000000 3.344500 
# 
# 
# High freq. dielectric constant tensor:
#      x y z
#    x 1.704950 0.000000 -0.014340 
#    y 0.000000 1.729120 0.000000 
#    z -0.014340 0.000000 1.709150 
# 
# From -- ./inp_files/275205.got.cif
#   From: 2010.06.25/outbox.cif.g09.slc.cpg/sg12_138_cif.got.tgz:275205.got - 2010.06.28 00:19:55.
