data_PCOD8081391
_publ_section_title
;
Structure prediction by ZEFSAII (Michael W. Deem and Ramdas Pophale) SiO2 
 PCOD8081391
Probable space group: C 2/M
;
_chemical_formula_sum "Si O2"
_cell_formula_units_Z 56
_cell_length_a 14.433347
_cell_length_b 9.146903
_cell_length_c 25.082106
_cell_angle_alpha 90.000000
_cell_angle_beta 107.775536
_cell_angle_gamma 90.000000
_cell_volume 3153.265870
_symmetry_space_group_name_H-M "C 2/M"
_symmetry_group_IT_number 12
_symmetry_cell_setting 'monoclinic'
loop_
_space_group_symop_operation_xyz
x,y,z
-x,y,-z
-x,-y,-z
x,-y,z
1/2+x,1/2+y,z
1/2-x,1/2+y,-z
1/2-x,1/2-y,-z
1/2+x,1/2-y,z
loop_
_atom_site_type_symbol
_atom_site_label
_atom_site_fract_x
_atom_site_fract_y
_atom_site_fract_z
Si Si1 0.426077 0.172910 0.148862
Si Si2 0.270373 0.826796 0.850303
Si Si3 0.876460 0.326841 0.764512
Si Si4 0.967860 0.326688 0.937718
Si Si5 0.838247 0.674278 0.639763
Si Si6 0.553146 0.672800 0.428630
Si Si7 0.643443 0.327121 0.552238
O O1 0.327930 0.250764 0.148957
O O2 0.513888 0.225274 0.202885
O O3 0.455240 0.222218 0.094063
O O4 0.410156 0.000000 0.149508
O O5 0.299133 0.774285 0.795538
O O6 0.358267 0.775926 0.904509
O O7 0.255229 0.000000 0.849950
O O8 0.876682 0.500000 0.765084
O O9 0.844332 0.266494 0.701259
O O10 0.968320 0.500000 0.940602
O O11 0.000000 0.257538 0.000000
O O12 0.843530 0.500000 0.638757
O O13 0.927142 0.741383 0.622340
O O14 0.740581 0.738336 0.595434
O O15 0.557285 0.500000 0.419085
O O16 0.447205 0.725852 0.428505
O O17 0.630165 0.720973 0.488252
O O18 0.646544 0.500000 0.554872
#
# Coordination Sequence:
#
# PCOD8081391 Si02
#       7
#     8   8   8   8   8   8   8
#     4   9  17  31  49  67  90 121 152 186 228 264
#     4   9  17  31  50  69  90 121 157 187 218 263
#     4   8  17  32  46  62  89 122 152 181 220 273
#     4   8  15  29  48  69  95 126 155 180 216 272
#     4  10  18  30  48  67  86 115 153 186 218 262
#     4   9  17  31  47  66  91 116 143 179 226 273
#     4   8  16  30  47  64  88 120 146 173 220 279
#
# _framework density 17.759364999999999
#
# number of rings (size 3 to 8) (size 9 to 14) (size 15 to 20)
#    0.000    3.286    0.000    3.000    0.000    1.714 
#    0.000    7.857    0.000    0.857    0.000    0.000 
#    0.000    0.000    0.000    0.000    0.000    0.000 
#
# Total GULP energy -347017.948634 kJ/mol
# GULP energy per Si atom -12393.498165 kJ/mol
# Density = 1.771894 g / cm^3
# Si number density = 17.759365 Si / 1000 Ang^3
#
#
#
# Elastic Constant Matrix: (Units=GPa)
#
#
# Indices 1 2 3 4 5 6 
#
# 1 125.6570 28.0635 62.4597 0.0000 -14.2736 0.0000
# 2 28.0635 23.1173 24.3569 0.0000 -4.0719 0.0000
# 3 62.4597 24.3569 141.5938 0.0000 -10.0727 0.0000
# 4 0.0000 0.0000 0.0000 17.5665 0.0000 -5.9951
# 5 -14.2736 -4.0719 -10.0727 0.0000 20.7826 0.0000
# 6 0.0000 0.0000 0.0000 -5.9951 0.0000 30.6070
#
#
#
# Elastic Compliance Matrix: (Units=1/GPa)
#
#
# Indices 1 2 3 4 5 6 
#
# 1 0.012616 -0.010937 -0.003335 0.000000 0.004905 0.000000
# 2 -0.010937 0.063088 -0.005886 0.000000 0.001996 0.000000
# 3 -0.003335 -0.005886 0.009633 0.000000 0.001225 0.000000
# 4 0.000000 0.000000 0.000000 0.061004 0.000000 0.011949
# 5 0.004905 0.001996 0.001225 0.000000 0.052471 0.000000
# 6 0.000000 0.000000 0.000000 0.011949 0.000000 0.035013
#
#
# Mechanical properties :
#
#
# Convention : Reuss Voigt Hill
#
# Bulk Modulus (GPa) = 22.21163 57.79201 40.00182
# Shear Modulus (GPa) = 17.29220 25.49043 21.39132
#
# Velocity S-wave (km/s) = 3.12379 3.79268 3.47437
# Velocity P-wave (km/s) = 5.05420 7.19663 6.21838
#
# Compressibility (1/GPa) = 0.04502145
#
# Stress axis : x y z
#
# Youngs Moduli (GPa) = 79.26717 15.85084 103.80965
#
# Poissons Ratio (x) = 0.17337 0.34616
# Poissons Ratio (y) = 0.86698 0.61099
# Poissons Ratio (z) = 0.26432 0.09329
#
# Static dielectric constant tensor:
#      x y z
#    x 3.397470 0.000000 0.146620 
#    y 0.000000 2.758590 0.000000 
#    z 0.146620 0.000000 3.815760 
# 
# 
# High freq. dielectric constant tensor:
#      x y z
#    x 1.692230 0.000000 -0.002660 
#    y 0.000000 1.637260 0.000000 
#    z -0.002660 0.000000 1.694750 
# 
# From -- ./inp_files/334918.got.cif
#   From: 2010.06.25/outbox.cif.g09.slc.cpg/sg12_168_cif.got.tgz:334918.got - 2010.06.28 00:19:55.
