data_PCOD8081429
_publ_section_title
;
Structure prediction by ZEFSAII (Michael W. Deem and Ramdas Pophale) SiO2 
 PCOD8081429
Probable space group: C 2/M
;
_chemical_formula_sum "Si O2"
_cell_formula_units_Z 64
_cell_length_a 23.583914
_cell_length_b 8.867223
_cell_length_c 21.978751
_cell_angle_alpha 90.000000
_cell_angle_beta 56.743141
_cell_angle_gamma 90.000000
_cell_volume 3843.504010
_symmetry_space_group_name_H-M "C 2/M"
_symmetry_group_IT_number 12
_symmetry_cell_setting 'monoclinic'
loop_
_space_group_symop_operation_xyz
x,y,z
-x,y,-z
-x,-y,-z
x,-y,z
1/2+x,1/2+y,z
1/2-x,1/2+y,-z
1/2-x,1/2-y,-z
1/2+x,1/2-y,z
loop_
_atom_site_type_symbol
_atom_site_label
_atom_site_fract_x
_atom_site_fract_y
_atom_site_fract_z
Si Si1 0.293353 0.321242 0.920199
Si Si2 0.425696 0.825890 0.267358
Si Si3 0.224632 0.328128 0.419731
Si Si4 0.933565 0.679160 0.864572
Si Si5 0.064376 0.679031 0.997418
Si Si6 0.792660 0.678339 0.276399
Si Si7 0.160905 0.326403 0.574155
Si Si8 0.796794 0.321197 0.138192
O O1 0.291695 0.500000 0.929847
O O2 0.369481 0.260823 0.872813
O O3 0.261546 0.271786 0.874247
O O4 0.250000 0.250000 0.000000
O O5 0.498747 0.755524 0.208160
O O6 0.363429 0.758891 0.263533
O O7 0.410746 0.801915 0.348569
O O8 0.431197 0.000000 0.246391
O O9 0.227848 0.500000 0.396790
O O10 0.228742 0.230387 0.355663
O O11 0.157943 0.298095 0.502342
O O12 0.287337 0.290708 0.426679
O O13 0.924414 0.500000 0.862664
O O14 0.938845 0.729626 0.931141
O O15 0.064241 0.500000 0.992595
O O16 0.131989 0.746170 0.927165
O O17 0.000000 0.747547 0.000000
O O18 0.793229 0.500000 0.275946
O O19 0.782426 0.742893 0.214343
O O20 0.185017 0.500000 0.571966
O O21 0.802166 0.500000 0.137848
#
# Coordination Sequence:
#
# PCOD8081429 Si02
#       8
#     8   8   8   8   8   8   8   8
#     4  11  21  35  51  67  87 115 152 192 230 269
#     4   8  14  25  44  68  91 115 146 182 219 261
#     4   9  15  23  38  62  92 122 149 180 219 264
#     4  10  18  30  48  70  91 114 148 189 228 264
#     4   9  15  24  43  69  90 110 143 182 216 258
#     4   9  16  28  45  65  90 119 150 186 223 264
#     4   8  14  25  40  60  89 124 155 180 211 258
#     4   9  17  29  45  65  86 112 149 187 222 260
#
# _framework density 16.651471999999998
#
# number of rings (size 3 to 8) (size 9 to 14) (size 15 to 20)
#    0.000    2.875    1.250    2.250    0.000    3.500 
#    0.000    3.750    0.000    0.375    0.000    0.875 
#    0.000    7.000    0.000    0.000    0.000    0.000 
#
# Total GULP energy -396448.783512 kJ/mol
# GULP energy per Si atom -12389.024485 kJ/mol
# Density = 1.661357 g / cm^3
# Si number density = 16.651472 Si / 1000 Ang^3
#
#
#
# Elastic Constant Matrix: (Units=GPa)
#
#
# Indices 1 2 3 4 5 6 
#
# 1 108.0333 20.8565 73.5354 0.0003 4.9770 0.0002
# 2 20.8565 23.9495 24.6033 0.0005 2.9067 0.0042
# 3 73.5354 24.6033 175.3020 0.0004 17.7287 0.0004
# 4 0.0003 0.0005 0.0004 21.2577 -0.0003 0.2150
# 5 4.9770 2.9067 17.7287 -0.0003 12.0774 0.0000
# 6 0.0002 0.0042 0.0004 0.2150 0.0000 17.5699
#
#
#
# Elastic Compliance Matrix: (Units=1/GPa)
#
#
# Indices 1 2 3 4 5 6 
#
# 1 0.014070 -0.007307 -0.005247 0.000000 0.003663 0.000002
# 2 -0.007307 0.052625 -0.003927 -0.000001 -0.003889 -0.000012
# 3 -0.005247 -0.003927 0.009562 0.000000 -0.010929 0.000001
# 4 0.000000 -0.000001 0.000000 0.047047 0.000002 -0.000576
# 5 0.003663 -0.003889 -0.010929 0.000002 0.098269 0.000001
# 6 0.000002 -0.000012 0.000001 -0.000576 0.000001 0.056923
#
#
# Mechanical properties :
#
#
# Convention : Reuss Voigt Hill
#
# Bulk Modulus (GPa) = 23.09805 60.58614 41.84210
# Shear Modulus (GPa) = 15.34267 22.73363 19.03815
#
# Velocity S-wave (km/s) = 3.03875 3.69895 3.38499
# Velocity P-wave (km/s) = 5.11992 7.39641 6.36084
#
# Compressibility (1/GPa) = 0.04329369
#
# Stress axis : x y z
#
# Youngs Moduli (GPa) = 71.07456 19.00253 104.58309
#
# Poissons Ratio (x) = 0.13885 0.54873
# Poissons Ratio (y) = 0.51935 0.41072
# Poissons Ratio (z) = 0.37291 0.07463
#
# Static dielectric constant tensor:
#      x y z
#    x 2.994150 0.000000 0.085080 
#    y 0.000000 2.813820 0.000000 
#    z 0.085080 0.000000 3.639090 
# 
# 
# High freq. dielectric constant tensor:
#      x y z
#    x 1.598930 0.000000 0.009030 
#    y 0.000000 1.607490 0.000000 
#    z 0.009030 0.000000 1.661280 
# 
# From -- ./inp_files/323680.got.cif
#   From: 2010.06.25/outbox.cif.g09.slc.cpg/sg12_162_cif.got.tgz:323680.got - 2010.06.28 00:19:55.
