data_PCOD8081888
_publ_section_title
;
Structure prediction by ZEFSAII (Michael W. Deem and Ramdas Pophale) SiO2 
 PCOD8081888
Probable space group: C 2/M
;
_chemical_formula_sum "Si O2"
_cell_formula_units_Z 64
_cell_length_a 20.767189
_cell_length_b 9.081743
_cell_length_c 21.723417
_cell_angle_alpha 90.000000
_cell_angle_beta 118.761521
_cell_angle_gamma 90.000000
_cell_volume 3591.628438
_symmetry_space_group_name_H-M "C 2/M"
_symmetry_group_IT_number 12
_symmetry_cell_setting 'monoclinic'
loop_
_space_group_symop_operation_xyz
x,y,z
-x,y,-z
-x,-y,-z
x,-y,z
1/2+x,1/2+y,z
1/2-x,1/2+y,-z
1/2-x,1/2-y,-z
1/2+x,1/2-y,z
loop_
_atom_site_type_symbol
_atom_site_label
_atom_site_fract_x
_atom_site_fract_y
_atom_site_fract_z
Si Si1 0.090051 0.328094 0.796225
Si Si2 0.536545 0.327092 0.953281
Si Si3 0.089655 0.325042 0.423688
Si Si4 0.331858 0.670907 0.652377
Si Si5 0.328061 0.175351 0.045441
Si Si6 0.423553 0.825673 0.344605
Si Si7 0.832974 0.324862 0.416624
Si Si8 0.461146 0.667790 0.795163
O O1 0.077768 0.500000 0.794650
O O2 0.149039 0.278648 0.874473
O O3 0.113945 0.281384 0.738145
O O4 0.010613 0.261260 0.772110
O O5 0.555869 0.500000 0.964941
O O6 0.611983 0.238945 0.974981
O O7 0.476041 0.289607 0.873056
O O8 0.500000 0.273051 0.000000
O O9 0.092151 0.500000 0.419828
O O10 0.131841 0.260001 0.385545
O O11 0.129031 0.268254 0.503707
O O12 0.006458 0.264961 0.386443
O O13 0.330473 0.500000 0.632920
O O14 0.250302 0.732895 0.625199
O O15 0.376563 0.694688 0.736972
O O16 0.322452 0.000000 0.034113
O O17 0.250000 0.250000 0.000000
O O18 0.375883 0.756432 0.377834
O O19 0.425830 0.000000 0.353103
O O20 0.835109 0.500000 0.414488
O O21 0.484347 0.500000 0.795359
#
# Coordination Sequence:
#
# PCOD8081888 Si02
#       8
#     8   8   8   8   8   8   8   8
#     4   9  17  31  52  76  95 124 166 204 238 282
#     4   9  18  34  54  77 103 132 170 212 254 301
#     4  10  18  30  52  72  91 125 166 203 240 285
#     4  10  19  31  47  70  99 128 160 196 243 295
#     4  10  20  34  53  78 106 135 169 207 252 301
#     4   9  16  29  49  73  96 121 161 207 244 279
#     4   9  18  30  45  71 100 125 157 202 248 288
#     4   9  17  30  49  72  97 130 162 196 242 292
#
# _framework density 17.819215
#
# number of rings (size 3 to 8) (size 9 to 14) (size 15 to 20)
#    0.000    2.625    1.250    1.125    0.000    2.250 
#    2.250    0.000    0.000    3.750    0.000    0.000 
#    0.000    0.000    0.000    0.000    0.000    0.000 
#
# Total GULP energy -396678.754896 kJ/mol
# GULP energy per Si atom -12396.211091 kJ/mol
# Density = 1.777866 g / cm^3
# Si number density = 17.819215 Si / 1000 Ang^3
#
#
#
# Elastic Constant Matrix: (Units=GPa)
#
#
# Indices 1 2 3 4 5 6 
#
# 1 153.5698 30.0776 91.4764 0.0000 0.8941 0.0000
# 2 30.0776 26.4911 30.4064 0.0000 2.3639 0.0000
# 3 91.4764 30.4064 136.7671 0.0000 0.3347 0.0000
# 4 0.0000 0.0000 0.0000 17.7106 0.0000 -0.6110
# 5 0.8941 2.3639 0.3347 0.0000 32.3837 0.0000
# 6 0.0000 0.0000 0.0000 -0.6110 0.0000 24.1671
#
#
#
# Elastic Compliance Matrix: (Units=1/GPa)
#
#
# Indices 1 2 3 4 5 6 
#
# 1 0.011419 -0.005656 -0.006381 0.000000 0.000164 0.000000
# 2 -0.005656 0.053902 -0.008191 0.000000 -0.003694 0.000000
# 3 -0.006381 -0.008191 0.013399 0.000000 0.000636 0.000000
# 4 0.000000 0.000000 0.000000 0.056513 0.000000 0.001429
# 5 0.000164 -0.003694 0.000636 0.000000 0.031138 0.000000
# 6 0.000000 0.000000 0.000000 0.001429 0.000000 0.041415
#
#
# Mechanical properties :
#
#
# Convention : Reuss Voigt Hill
#
# Bulk Modulus (GPa) = 26.13435 68.97210 47.55322
# Shear Modulus (GPa) = 19.15727 25.84345 22.50036
#
# Velocity S-wave (km/s) = 3.28241 3.81243 3.55731
# Velocity P-wave (km/s) = 5.39109 7.62693 6.60432
#
# Compressibility (1/GPa) = 0.03826381
#
# Stress axis : x y z
#
# Youngs Moduli (GPa) = 87.57089 18.55210 74.63240
#
# Poissons Ratio (x) = 0.10493 0.47621
# Poissons Ratio (y) = 0.49532 0.61135
# Poissons Ratio (z) = 0.55876 0.15197
#
# Static dielectric constant tensor:
#      x y z
#    x 3.406300 0.000000 -0.035420 
#    y 0.000000 3.044120 0.000000 
#    z -0.035420 0.000000 3.703000 
# 
# 
# High freq. dielectric constant tensor:
#      x y z
#    x 1.680930 0.000000 0.001200 
#    y 0.000000 1.659380 0.000000 
#    z 0.001200 0.000000 1.705300 
# 
# From -- ./inp_files/320178.got.cif
#   From: 2010.06.25/outbox.cif.g09.slc.cpg/sg12_161_cif.got.tgz:320178.got - 2010.06.28 00:19:55.
