data_PCOD8081650
_publ_section_title
;
Structure prediction by ZEFSAII (Michael W. Deem and Ramdas Pophale) SiO2 
 PCOD8081650
Probable space group: C 2/M
;
_chemical_formula_sum "Si O2"
_cell_formula_units_Z 64
_cell_length_a 20.643916
_cell_length_b 13.095379
_cell_length_c 25.238576
_cell_angle_alpha 90.000000
_cell_angle_beta 146.714155
_cell_angle_gamma 90.000000
_cell_volume 3744.570535
_symmetry_space_group_name_H-M "C 2/M"
_symmetry_group_IT_number 12
_symmetry_cell_setting 'monoclinic'
loop_
_space_group_symop_operation_xyz
x,y,z
-x,y,-z
-x,-y,-z
x,-y,z
1/2+x,1/2+y,z
1/2-x,1/2+y,-z
1/2-x,1/2-y,-z
1/2+x,1/2-y,z
loop_
_atom_site_type_symbol
_atom_site_label
_atom_site_fract_x
_atom_site_fract_y
_atom_site_fract_z
Si Si1 0.567932 0.881998 0.348049
Si Si2 0.082682 0.275355 0.840291
Si Si3 0.000038 0.381207 0.940527
Si Si4 0.947703 0.305402 0.544109
Si Si5 0.277886 0.116741 0.976936
Si Si6 0.287634 0.381251 0.425898
Si Si7 0.638980 0.770171 0.239535
Si Si8 0.833091 0.618077 0.363299
O O1 0.464873 0.821203 0.247135
O O2 0.570626 0.851000 0.410690
O O3 0.696934 0.859877 0.411894
O O4 0.536090 0.000000 0.319860
O O5 0.158871 0.175459 0.880431
O O6 0.973700 0.242878 0.802279
O O7 0.167179 0.355705 0.928240
O O8 0.969254 0.500000 0.915998
O O9 0.897493 0.322389 0.839935
O O10 0.127688 0.357800 0.003707
O O11 0.000000 0.340215 0.000000
O O12 0.904957 0.187215 0.514555
O O13 0.871760 0.372772 0.451036
O O14 0.083303 0.314915 0.618311
O O15 0.241580 0.000000 0.953269
O O16 0.324981 0.500000 0.448779
O O17 0.225171 0.349059 0.328516
O O18 0.702451 0.663817 0.268739
O O19 0.834142 0.500000 0.346596
#
# Coordination Sequence:
#
# PCOD8081650 Si02
#       8
#     8   8   8   8   8   8   8   8
#     4  10  18  30  50  72  94 122 156 194 234 275
#     4   9  18  31  48  71  94 119 155 194 233 277
#     4   9  17  30  49  71  94 122 153 185 227 277
#     4  10  19  33  49  69  94 123 158 194 230 275
#     4   9  17  31  49  68  94 124 153 189 232 277
#     4   9  18  32  50  71  95 122 153 192 237 280
#     4   9  18  32  49  69  93 122 155 192 230 274
#     4  10  20  34  50  67  91 126 162 193 228 273
#
# _framework density 17.091412999999999
#
# number of rings (size 3 to 8) (size 9 to 14) (size 15 to 20)
#    0.000    2.625    0.000    2.625    0.000    4.500 
#    0.000    6.250    0.000    0.375    0.000    0.000 
#    0.000    0.000    0.000    0.000    0.000    0.000 
#
# Total GULP energy -396794.696339 kJ/mol
# GULP energy per Si atom -12399.834261 kJ/mol
# Density = 1.705251 g / cm^3
# Si number density = 17.091413 Si / 1000 Ang^3
#
#
#
# Elastic Constant Matrix: (Units=GPa)
#
#
# Indices 1 2 3 4 5 6 
#
# 1 90.7540 55.9321 56.1572 0.0001 -12.7224 0.0000
# 2 55.9321 107.9123 52.6488 0.0001 12.8129 0.0000
# 3 56.1572 52.6488 80.1752 0.0002 1.6815 0.0001
# 4 0.0001 0.0001 0.0002 26.3083 0.0001 4.7459
# 5 -12.7224 12.8129 1.6815 0.0001 28.2475 0.0000
# 6 0.0000 0.0000 0.0001 4.7459 0.0000 26.0972
#
#
#
# Elastic Compliance Matrix: (Units=1/GPa)
#
#
# Indices 1 2 3 4 5 6 
#
# 1 0.028112 -0.010191 -0.013378 0.000000 0.018080 0.000000
# 2 -0.010191 0.018297 -0.004613 0.000000 -0.012615 0.000000
# 3 -0.013378 -0.004613 0.024986 0.000000 -0.005420 0.000000
# 4 0.000000 0.000000 0.000000 0.039300 0.000000 -0.007147
# 5 0.018080 -0.012615 -0.005420 0.000000 0.049589 0.000000
# 6 0.000000 0.000000 0.000000 -0.007147 0.000000 0.039618
#
#
# Mechanical properties :
#
#
# Convention : Reuss Voigt Hill
#
# Bulk Modulus (GPa) = 66.52347 67.59086 67.05717
# Shear Modulus (GPa) = 19.13699 23.73749 21.43724
#
# Velocity S-wave (km/s) = 3.34980 3.73078 3.54541
# Velocity P-wave (km/s) = 7.34630 7.62829 7.48862
#
# Compressibility (1/GPa) = 0.01503229
#
# Stress axis : x y z
#
# Youngs Moduli (GPa) = 35.57227 54.65395 40.02320
#
# Poissons Ratio (x) = 0.55696 0.53542
# Poissons Ratio (y) = 0.36250 0.18461
# Poissons Ratio (z) = 0.47587 0.25210
#
# Static dielectric constant tensor:
#      x y z
#    x 3.250920 0.000000 0.000520 
#    y 0.000000 3.158590 0.000000 
#    z 0.000520 0.000000 3.162960 
# 
# 
# High freq. dielectric constant tensor:
#      x y z
#    x 1.660100 0.000000 -0.000450 
#    y 0.000000 1.654480 0.000000 
#    z -0.000450 0.000000 1.650300 
# 
# From -- ./inp_files/367834.got.cif
#   From: 2010.06.25/outbox.cif.g09.slc.cpg/sg12_184_cif.got.tgz:367834.got - 2010.06.28 00:19:55.
