data_PCOD8081738
_publ_section_title
;
Structure prediction by ZEFSAII (Michael W. Deem and Ramdas Pophale) SiO2 
 PCOD8081738
Probable space group: C 2/M
;
_chemical_formula_sum "Si O2"
_cell_formula_units_Z 64
_cell_length_a 19.706951
_cell_length_b 9.027116
_cell_length_c 21.926546
_cell_angle_alpha 90.000000
_cell_angle_beta 88.955367
_cell_angle_gamma 90.000000
_cell_volume 3900.016973
_symmetry_space_group_name_H-M "C 2/M"
_symmetry_group_IT_number 12
_symmetry_cell_setting 'monoclinic'
loop_
_space_group_symop_operation_xyz
x,y,z
-x,y,-z
-x,-y,-z
x,-y,z
1/2+x,1/2+y,z
1/2-x,1/2+y,-z
1/2-x,1/2-y,-z
1/2+x,1/2-y,z
loop_
_atom_site_type_symbol
_atom_site_label
_atom_site_fract_x
_atom_site_fract_y
_atom_site_fract_z
Si Si1 0.991609 0.329286 0.864954
Si Si2 0.303728 0.173717 0.541298
Si Si3 0.569100 0.667118 0.471537
Si Si4 0.227832 0.324391 0.126300
Si Si5 0.376742 0.825206 0.773226
Si Si6 0.381578 0.827669 0.967817
Si Si7 0.638818 0.666746 0.353011
Si Si8 0.121966 0.175644 0.904021
O O1 0.012514 0.500000 0.859981
O O2 0.060976 0.235329 0.862892
O O3 0.945207 0.282602 0.808372
O O4 0.949176 0.301113 0.927192
O O5 0.250000 0.250000 0.500000
O O6 0.374398 0.216399 0.506733
O O7 0.302903 0.243820 0.609994
O O8 0.291668 0.000000 0.545495
O O9 0.500000 0.729368 0.500000
O O10 0.583324 0.500000 0.495972
O O11 0.571056 0.664610 0.397055
O O12 0.225749 0.500000 0.126369
O O13 0.189520 0.268948 0.188108
O O14 0.184916 0.271698 0.067964
O O15 0.305142 0.265091 0.122358
O O16 0.379363 0.745146 0.709061
O O17 0.373005 0.000000 0.762849
O O18 0.375071 0.000000 0.985846
O O19 0.388692 0.730080 0.027418
O O20 0.664657 0.500000 0.339916
O O21 0.120445 0.000000 0.902874
#
# Coordination Sequence:
#
# PCOD8081738 Si02
#       8
#     8   8   8   8   8   8   8   8
#     4   9  19  33  49  67  90 124 160 193 233 286
#     4  10  18  30  50  77 106 135 166 200 239 282
#     4   8  16  31  50  74 106 136 160 194 243 290
#     4   8  17  32  49  68  91 122 158 195 238 287
#     4   9  17  34  55  68  85 122 171 204 228 278
#     4   9  17  32  50  66  88 123 160 191 229 287
#     4   9  18  31  51  77 101 127 162 202 242 287
#     4  11  20  29  45  70  98 119 146 196 249 292
#
# _framework density 16.410184999999998
#
# number of rings (size 3 to 8) (size 9 to 14) (size 15 to 20)
#    0.750    2.125    0.000    3.750    0.000    2.750 
#    0.000    3.750    2.750    0.000    0.000    0.000 
#    0.000    0.000    0.000    0.000    0.000    0.000 
#
# Total GULP energy -396472.993697 kJ/mol
# GULP energy per Si atom -12389.781053 kJ/mol
# Density = 1.637283 g / cm^3
# Si number density = 16.410185 Si / 1000 Ang^3
#
#
#
# Elastic Constant Matrix: (Units=GPa)
#
#
# Indices 1 2 3 4 5 6 
#
# 1 117.2780 46.7420 51.6915 0.0000 10.3865 0.0000
# 2 46.7420 76.5258 44.0823 0.0000 11.4541 0.0000
# 3 51.6915 44.0823 100.7340 0.0000 13.4430 0.0000
# 4 0.0000 0.0000 0.0000 28.4739 0.0000 3.8262
# 5 10.3865 11.4541 13.4430 0.0000 17.8548 0.0000
# 6 0.0000 0.0000 0.0000 3.8262 0.0000 26.6740
#
#
#
# Elastic Compliance Matrix: (Units=1/GPa)
#
#
# Indices 1 2 3 4 5 6 
#
# 1 0.012422 -0.005146 -0.004000 0.000000 -0.000913 0.000000
# 2 -0.005146 0.020214 -0.005419 0.000000 -0.005894 0.000000
# 3 -0.004000 -0.005419 0.015093 0.000000 -0.005561 0.000000
# 4 0.000000 0.000000 0.000000 0.035810 0.000000 -0.005137
# 5 -0.000913 -0.005894 -0.005561 0.000000 0.064506 0.000000
# 6 0.000000 0.000000 0.000000 -0.005137 0.000000 0.038226
#
#
# Mechanical properties :
#
#
# Convention : Reuss Voigt Hill
#
# Bulk Modulus (GPa) = 53.76640 64.39661 59.08151
# Shear Modulus (GPa) = 22.56288 24.73534 23.64911
#
# Velocity S-wave (km/s) = 3.71203 3.88663 3.80033
# Velocity P-wave (km/s) = 7.15593 7.71156 7.43894
#
# Compressibility (1/GPa) = 0.01859897
#
# Stress axis : x y z
#
# Youngs Moduli (GPa) = 80.50309 49.46953 66.25472
#
# Poissons Ratio (x) = 0.25458 0.26505
# Poissons Ratio (y) = 0.41429 0.35901
# Poissons Ratio (z) = 0.32205 0.26806
#
# Static dielectric constant tensor:
#      x y z
#    x 3.209800 0.000000 -0.026930 
#    y 0.000000 3.000580 0.000000 
#    z -0.026930 0.000000 2.924160 
# 
# 
# High freq. dielectric constant tensor:
#      x y z
#    x 1.624910 0.000000 0.003790 
#    y 0.000000 1.625540 0.000000 
#    z 0.003790 0.000000 1.612800 
# 
# From -- ./inp_files/345307.got.cif
#   From: 2010.06.25/outbox.cif.g09.slc.cpg/sg12_173_cif.got.tgz:345307.got - 2010.06.28 00:19:55.
