data_PCOD8081683
_publ_section_title
;
Structure prediction by ZEFSAII (Michael W. Deem and Ramdas Pophale) SiO2 
 PCOD8081683
Probable space group: C 2/M
;
_chemical_formula_sum "Si O2"
_cell_formula_units_Z 64
_cell_length_a 20.021743
_cell_length_b 17.861702
_cell_length_c 16.704927
_cell_angle_alpha 90.000000
_cell_angle_beta 147.722174
_cell_angle_gamma 90.000000
_cell_volume 3190.296470
_symmetry_space_group_name_H-M "C 2/M"
_symmetry_group_IT_number 12
_symmetry_cell_setting 'monoclinic'
loop_
_space_group_symop_operation_xyz
x,y,z
-x,y,-z
-x,-y,-z
x,-y,z
1/2+x,1/2+y,z
1/2-x,1/2+y,-z
1/2-x,1/2-y,-z
1/2+x,1/2-y,z
loop_
_atom_site_type_symbol
_atom_site_label
_atom_site_fract_x
_atom_site_fract_y
_atom_site_fract_z
Si Si1 0.333744 0.584359 0.947600
Si Si2 0.004107 0.777871 0.871006
Si Si3 0.326918 0.584087 0.127511
Si Si4 0.729787 0.734433 0.625225
Si Si5 0.101165 0.626112 0.005940
Si Si6 0.629203 0.183451 0.672283
Si Si7 0.164517 0.418788 0.244974
Si Si8 0.973804 0.226698 0.288699
O O1 0.370506 0.500000 0.957517
O O2 0.215347 0.611040 0.774692
O O3 0.450150 0.641002 0.051983
O O4 0.299304 0.585215 0.005580
O O5 0.853766 0.778508 0.723682
O O6 0.070058 0.714077 0.991833
O O7 0.050813 0.756601 0.829096
O O8 0.360913 0.500000 0.190759
O O9 0.440973 0.638666 0.269348
O O10 0.198549 0.613387 0.034578
O O11 0.695627 0.757109 0.681052
O O12 0.744086 0.645235 0.631634
O O13 0.616113 0.750696 0.450449
O O14 0.970223 0.587704 0.848444
O O15 0.151637 0.588743 0.136930
O O16 0.500000 0.156714 0.500000
O O17 0.613916 0.224280 0.742306
O O18 0.222492 0.500000 0.324205
#
# Coordination Sequence:
#
# PCOD8081683 Si02
#       8
#     8   8   8   8   8   8   8   8
#     4  10  21  36  55  79 103 130 170 220 269 312
#     4  10  20  35  56  78 101 133 175 219 258 302
#     4  10  19  31  51  78 107 137 171 214 259 304
#     4  10  21  35  53  76 104 139 175 211 254 305
#     4  10  18  30  50  74 102 135 171 209 254 301
#     4  10  21  37  55  77 106 138 174 213 256 312
#     4  10  19  30  47  74 107 137 166 205 251 304
#     4  10  20  35  54  76 103 138 176 212 254 305
#
# _framework density 20.060831
#
# number of rings (size 3 to 8) (size 9 to 14) (size 15 to 20)
#    0.000    2.000    0.000    4.875    0.000    4.250 
#    0.000    1.250    0.000    4.500    0.000    0.000 
#    0.000    0.000    0.000    0.000    0.000    0.000 
#
# Total GULP energy -396688.360808 kJ/mol
# GULP energy per Si atom -12396.511275 kJ/mol
# Density = 2.001517 g / cm^3
# Si number density = 20.060831 Si / 1000 Ang^3
#
#
#
# Elastic Constant Matrix: (Units=GPa)
#
#
# Indices 1 2 3 4 5 6 
#
# 1 64.1550 23.9548 21.6703 0.0002 15.0576 0.0001
# 2 23.9548 150.2996 44.9030 0.0001 12.3357 0.0000
# 3 21.6703 44.9030 73.6313 0.0005 6.0856 0.0003
# 4 0.0002 0.0001 0.0005 22.2339 0.0003 -0.9331
# 5 15.0576 12.3357 6.0856 0.0003 21.0359 0.0002
# 6 0.0001 0.0000 0.0003 -0.9331 0.0002 22.8592
#
#
#
# Elastic Compliance Matrix: (Units=1/GPa)
#
#
# Indices 1 2 3 4 5 6 
#
# 1 0.020416 -0.000884 -0.004410 0.000000 -0.012819 0.000000
# 2 -0.000884 0.008421 -0.004630 0.000000 -0.002966 0.000000
# 3 -0.004410 -0.004630 0.017639 0.000000 0.000769 0.000000
# 4 0.000000 0.000000 0.000000 0.045053 -0.000001 0.001839
# 5 -0.012819 -0.002966 0.000769 -0.000001 0.058231 0.000000
# 6 0.000000 0.000000 0.000000 0.001839 0.000000 0.043821
#
#
# Mechanical properties :
#
#
# Convention : Reuss Voigt Hill
#
# Bulk Modulus (GPa) = 37.55501 52.12691 44.84096
# Shear Modulus (GPa) = 22.49163 26.39634 24.44398
#
# Velocity S-wave (km/s) = 3.35202 3.63135 3.49448
# Velocity P-wave (km/s) = 5.80884 6.60478 6.21955
#
# Compressibility (1/GPa) = 0.02662761
#
# Stress axis : x y z
#
# Youngs Moduli (GPa) = 48.98185 118.75099 56.69250
#
# Poissons Ratio (x) = 0.10501 0.25000
# Poissons Ratio (y) = 0.04331 0.26249
# Poissons Ratio (z) = 0.21600 0.54982
#
# Static dielectric constant tensor:
#      x y z
#    x 3.678530 0.000000 0.132110 
#    y 0.000000 3.777090 0.000000 
#    z 0.132110 0.000000 3.433880 
# 
# 
# High freq. dielectric constant tensor:
#      x y z
#    x 1.785250 0.000000 0.008970 
#    y 0.000000 1.778340 0.000000 
#    z 0.008970 0.000000 1.767090 
# 
# From -- ./inp_files/285224.got.cif
#   From: 2010.06.25/outbox.cif.g09.slc.cpg/sg12_143_cif.got.tgz:285224.got - 2010.06.28 00:19:55.
