data_PCOD8081021
_publ_section_title
;
Structure prediction by ZEFSAII (Michael W. Deem and Ramdas Pophale) SiO2 
 PCOD8081021
Probable space group: C 2/M
;
_chemical_formula_sum "Si O2"
_cell_formula_units_Z 64
_cell_length_a 19.495773
_cell_length_b 9.148793
_cell_length_c 20.725055
_cell_angle_alpha 90.000000
_cell_angle_beta 114.127519
_cell_angle_gamma 90.000000
_cell_volume 3373.637982
_symmetry_space_group_name_H-M "C 2/M"
_symmetry_group_IT_number 12
_symmetry_cell_setting 'monoclinic'
loop_
_space_group_symop_operation_xyz
x,y,z
-x,y,-z
-x,-y,-z
x,-y,z
1/2+x,1/2+y,z
1/2-x,1/2+y,-z
1/2-x,1/2-y,-z
1/2+x,1/2-y,z
loop_
_atom_site_type_symbol
_atom_site_label
_atom_site_fract_x
_atom_site_fract_y
_atom_site_fract_z
Si Si1 0.041973 0.325449 0.579087
Si Si2 0.805397 0.828837 0.069398
Si Si3 0.293373 0.165967 0.327824
Si Si4 0.592274 0.835837 0.109912
Si Si5 0.915297 0.333410 0.034003
Si Si6 0.505990 0.173288 0.301677
Si Si7 0.842186 0.665250 0.201822
Si Si8 0.142843 0.675135 0.266341
O O1 0.042773 0.500000 0.580663
O O2 0.129140 0.272788 0.611079
O O3 0.000000 0.262966 0.500000
O O4 0.997419 0.267988 0.625534
O O5 0.887457 0.776498 0.078304
O O6 0.794108 0.772755 0.137921
O O7 0.794537 0.000000 0.062272
O O8 0.750000 0.750000 0.000000
O O9 0.302106 0.172812 0.254722
O O10 0.222820 0.265008 0.322104
O O11 0.277970 0.000000 0.344558
O O12 0.503173 0.834008 0.077542
O O13 0.626007 0.760089 0.187461
O O14 0.622582 0.000000 0.122657
O O15 0.613337 0.770611 0.047301
O O16 0.885037 0.500000 0.030769
O O17 0.428433 0.221138 0.237626
O O18 0.578065 0.234203 0.290298
O O19 0.509513 0.000000 0.304637
O O20 0.839987 0.500000 0.173806
O O21 0.143612 0.500000 0.266663
#
# Coordination Sequence:
#
# PCOD8081021 Si02
#       8
#     8   8   8   8   8   8   8   8
#     4   8  14  29  54  79 103 136 177 213 244 290
#     4  12  25  36  48  69  97 129 168 214 264 309
#     4   9  19  33  51  78 106 132 166 213 263 300
#     4   8  16  30  52  73  92 127 167 204 250 308
#     4   9  17  34  53  70  92 122 168 215 256 305
#     4   8  15  29  52  78 101 132 174 212 245 295
#     4   9  18  36  56  71  94 129 173 219 259 303
#     4  10  18  29  48  75 105 135 169 206 252 308
#
# _framework density 18.970618000000002
#
# number of rings (size 3 to 8) (size 9 to 14) (size 15 to 20)
#    0.000    2.875    0.000    4.125    1.750    2.500 
#    0.000    4.375    0.000    1.125    0.000    0.000 
#    0.000    0.000    0.000    0.000    0.000    0.000 
#
# Total GULP energy -396470.542325 kJ/mol
# GULP energy per Si atom -12389.704448 kJ/mol
# Density = 1.892744 g / cm^3
# Si number density = 18.970618 Si / 1000 Ang^3
#
#
#
# Elastic Constant Matrix: (Units=GPa)
#
#
# Indices 1 2 3 4 5 6 
#
# 1 74.2824 17.4833 26.1905 0.0000 11.3638 0.0000
# 2 17.4833 56.9663 27.5287 0.0000 3.2604 0.0000
# 3 26.1905 27.5287 115.6854 0.0000 8.5568 0.0000
# 4 0.0000 0.0000 0.0000 15.8742 0.0000 6.0504
# 5 11.3638 3.2604 8.5568 0.0000 19.8049 0.0000
# 6 0.0000 0.0000 0.0000 6.0504 0.0000 21.3057
#
#
#
# Elastic Compliance Matrix: (Units=1/GPa)
#
#
# Indices 1 2 3 4 5 6 
#
# 1 0.016269 -0.003442 -0.002289 0.000000 -0.007780 0.000000
# 2 -0.003442 0.020594 -0.004149 0.000000 0.000377 0.000000
# 3 -0.002289 -0.004149 0.010332 0.000000 -0.002468 0.000000
# 4 0.000000 0.000000 0.000000 0.070642 0.000000 -0.020061
# 5 -0.007780 0.000377 -0.002468 0.000000 0.055960 0.000000
# 6 0.000000 0.000000 0.000000 -0.020061 0.000000 0.052633
#
#
# Mechanical properties :
#
#
# Convention : Reuss Voigt Hill
#
# Bulk Modulus (GPa) = 36.44882 43.25990 39.85436
# Shear Modulus (GPa) = 19.58207 23.11238 21.34722
#
# Velocity S-wave (km/s) = 3.21632 3.49424 3.35816
# Velocity P-wave (km/s) = 5.74874 6.25562 6.00752
#
# Compressibility (1/GPa) = 0.02743573
#
# Stress axis : x y z
#
# Youngs Moduli (GPa) = 61.46527 48.55761 96.78459
#
# Poissons Ratio (x) = 0.16713 0.22152
# Poissons Ratio (y) = 0.21155 0.40159
# Poissons Ratio (z) = 0.14068 0.20148
#
# Static dielectric constant tensor:
#      x y z
#    x 4.086740 0.000000 -0.543730 
#    y 0.000000 3.268470 0.000000 
#    z -0.543730 0.000000 4.224760 
# 
# 
# High freq. dielectric constant tensor:
#      x y z
#    x 1.743480 0.000000 0.000740 
#    y 0.000000 1.681170 0.000000 
#    z 0.000740 0.000000 1.733160 
# 
# From -- ./inp_files/320037.got.cif
#   From: 2010.06.25/outbox.cif.g09.slc.cpg/sg12_161_cif.got.tgz:320037.got - 2010.06.28 00:19:55.
