data_PCOD8081929
_publ_section_title
;
Structure prediction by ZEFSAII (Michael W. Deem and Ramdas Pophale) SiO2 
 PCOD8081929
Probable space group: C 2/M
;
_chemical_formula_sum "Si O2"
_cell_formula_units_Z 40
_cell_length_a 20.099578
_cell_length_b 12.639639
_cell_length_c 8.991302
_cell_angle_alpha 90.000000
_cell_angle_beta 62.451283
_cell_angle_gamma 90.000000
_cell_volume 2025.259556
_symmetry_space_group_name_H-M "C 2/M"
_symmetry_group_IT_number 12
_symmetry_cell_setting 'monoclinic'
loop_
_space_group_symop_operation_xyz
x,y,z
-x,y,-z
-x,-y,-z
x,-y,z
1/2+x,1/2+y,z
1/2-x,1/2+y,-z
1/2-x,1/2-y,-z
1/2+x,1/2-y,z
loop_
_atom_site_type_symbol
_atom_site_label
_atom_site_fract_x
_atom_site_fract_y
_atom_site_fract_z
Si Si1 0.581509 0.240494 0.949885
Si Si2 0.626628 0.876518 0.614705
Si Si3 0.808628 0.879937 0.965791
Si Si4 0.456843 0.883594 0.740454
Si Si5 0.324195 0.207098 0.728531
O O1 0.627563 0.195631 0.761280
O O2 0.631933 0.324276 0.985868
O O3 0.500000 0.294452 0.000000
O O4 0.562470 0.137827 0.067677
O O5 0.545170 0.872496 0.622551
O O6 0.683318 0.817815 0.439835
O O7 0.649737 0.000000 0.620172
O O8 0.727306 0.875539 0.127246
O O9 0.833565 0.000000 0.914526
O O10 0.802131 0.825096 0.808398
O O11 0.411394 0.804500 0.682559
O O12 0.429539 0.000000 0.726691
#
# Coordination Sequence:
#
# PCOD8081929 Si02
#       5
#     8   8   8   8   8
#     4   9  19  33  50  73 102 134 169 202 240 295
#     4  10  18  30  52  81 108 129 156 202 253 298
#     4  10  21  37  53  69  97 136 172 207 246 289
#     4   9  16  29  51  77 104 132 159 197 253 304
#     4  10  20  33  52  76 100 127 166 209 249 296
#
# _framework density 19.750553
#
# number of rings (size 3 to 8) (size 9 to 14) (size 15 to 20)
#    0.000    2.400    0.000    3.000    0.000    5.200 
#    0.000    2.000    0.000   15.600    0.000    0.000 
#    0.000    0.000    0.000    0.000    0.000    0.000 
#
# Total GULP energy -247797.162934 kJ/mol
# GULP energy per Si atom -12389.858147 kJ/mol
# Density = 1.970560 g / cm^3
# Si number density = 19.750553 Si / 1000 Ang^3
#
#
#
# Elastic Constant Matrix: (Units=GPa)
#
#
# Indices 1 2 3 4 5 6 
#
# 1 35.7061 16.3999 1.6041 0.0000 1.3811 0.0000
# 2 16.3999 118.1818 57.2651 0.0000 0.6216 0.0000
# 3 1.6041 57.2651 141.1047 0.0000 3.6905 0.0000
# 4 0.0000 0.0000 0.0000 18.5897 0.0000 3.3342
# 5 1.3811 0.6216 3.6905 0.0000 15.7924 0.0000
# 6 0.0000 0.0000 0.0000 3.3342 0.0000 24.8175
#
#
#
# Elastic Compliance Matrix: (Units=1/GPa)
#
#
# Indices 1 2 3 4 5 6 
#
# 1 0.030363 -0.005063 0.001785 0.000000 -0.002873 0.000000
# 2 -0.005063 0.011382 -0.004590 0.000000 0.001067 0.000000
# 3 0.001785 -0.004590 0.008984 0.000000 -0.002075 0.000000
# 4 0.000000 0.000000 0.000000 0.055121 0.000000 -0.007406
# 5 -0.002873 0.001067 -0.002075 0.000000 0.064016 0.000000
# 6 0.000000 0.000000 0.000000 -0.007406 0.000000 0.041289
#
#
# Mechanical properties :
#
#
# Convention : Reuss Voigt Hill
#
# Bulk Modulus (GPa) = 28.57737 49.50342 39.04040
# Shear Modulus (GPa) = 20.95947 26.48816 23.72381
#
# Velocity S-wave (km/s) = 3.26115 3.66612 3.46955
# Velocity P-wave (km/s) = 5.35544 6.56044 5.98833
#
# Compressibility (1/GPa) = 0.03499272
#
# Stress axis : x y z
#
# Youngs Moduli (GPa) = 32.93502 87.85417 111.31404
#
# Poissons Ratio (x) = 0.44481 -0.19867
# Poissons Ratio (y) = 0.16675 0.51091
# Poissons Ratio (z) = -0.05878 0.40323
#
# Static dielectric constant tensor:
#      x y z
#    x 3.531400 0.000000 -0.034130 
#    y 0.000000 3.290430 0.000000 
#    z -0.034130 0.000000 3.752820 
# 
# 
# High freq. dielectric constant tensor:
#      x y z
#    x 1.763430 0.000000 -0.001980 
#    y 0.000000 1.738250 0.000000 
#    z -0.001980 0.000000 1.780630 
# 
# From -- ./inp_files/71208.got.cif
#   From: 2010.06.25/outbox.cif.g09.slc.cpg/sg12_36_cif.got.tgz:71208.got - 2010.06.28 00:19:55.
