data_PCOD8081324
_publ_section_title
;
Structure prediction by ZEFSAII (Michael W. Deem and Ramdas Pophale) SiO2 
 PCOD8081324
Probable space group: C 2/M
;
_chemical_formula_sum "Si O2"
_cell_formula_units_Z 56
_cell_length_a 28.541675
_cell_length_b 8.956644
_cell_length_c 29.142329
_cell_angle_alpha 90.000000
_cell_angle_beta 27.756746
_cell_angle_gamma 90.000000
_cell_volume 3469.546536
_symmetry_space_group_name_H-M "C 2/M"
_symmetry_group_IT_number 12
_symmetry_cell_setting 'monoclinic'
loop_
_space_group_symop_operation_xyz
x,y,z
-x,y,-z
-x,-y,-z
x,-y,z
1/2+x,1/2+y,z
1/2-x,1/2+y,-z
1/2-x,1/2-y,-z
1/2+x,1/2-y,z
loop_
_atom_site_type_symbol
_atom_site_label
_atom_site_fract_x
_atom_site_fract_y
_atom_site_fract_z
Si Si1 0.716297 0.828810 0.771455
Si Si2 0.621687 0.174207 0.701539
Si Si3 0.349493 0.677365 0.512490
Si Si4 0.402794 0.667913 0.052364
Si Si5 0.521959 0.171022 0.876893
Si Si6 0.643807 0.824666 0.582941
Si Si7 0.895566 0.672308 0.565116
O O1 0.685018 0.765339 0.848359
O O2 0.624981 0.812728 0.815459
O O3 0.808983 0.734565 0.672723
O O4 0.749245 0.000000 0.748562
O O5 0.734379 0.237715 0.611633
O O6 0.543657 0.238132 0.807005
O O7 0.581348 0.203931 0.684550
O O8 0.630982 0.000000 0.703858
O O9 0.357528 0.500000 0.503470
O O10 0.405799 0.746146 0.418581
O O11 0.403427 0.736852 0.511010
O O12 0.363340 0.500000 0.079756
O O13 0.500000 0.672441 0.000000
O O14 0.431961 0.735004 0.977563
O O15 0.485948 0.000000 0.907006
O O16 0.750000 0.750000 0.500000
O O17 0.656755 0.000000 0.562714
O O18 0.873104 0.500000 0.573767
O O19 0.000000 0.694720 0.500000
#
# Coordination Sequence:
#
# PCOD8081324 Si02
#       7
#     8   8   8   8   8   8   8
#     4  10  18  30  47  62  82 115 150 185 222 262
#     4   8  14  25  41  62  88 116 146 178 214 259
#     4  10  18  31  46  61  84 116 152 188 225 265
#     4   9  17  27  39  60  87 114 145 180 217 262
#     4   9  15  26  42  62  87 117 149 179 213 259
#     4   9  16  26  41  62  87 117 149 182 221 266
#     4  11  23  35  47  65  88 115 150 192 233 270
#
# _framework density 16.140436999999999
#
# number of rings (size 3 to 8) (size 9 to 14) (size 15 to 20)
#    0.000    2.571    1.429    3.000    0.000    3.429 
#    0.000    1.429    0.000    0.000    0.000    0.000 
#    0.000    1.143    0.000    3.429    0.000    4.571 
#
# Total GULP energy -347022.839248 kJ/mol
# GULP energy per Si atom -12393.672830 kJ/mol
# Density = 1.610370 g / cm^3
# Si number density = 16.140437 Si / 1000 Ang^3
#
#
#
# Elastic Constant Matrix: (Units=GPa)
#
#
# Indices 1 2 3 4 5 6 
#
# 1 72.0477 43.6676 50.9396 0.0018 31.5707 0.0000
# 2 43.6676 92.9912 39.2363 0.0188 18.2260 -0.0116
# 3 50.9396 39.2363 71.0642 0.0223 37.2504 -0.0133
# 4 0.0018 0.0188 0.0223 25.3468 -0.0043 7.1316
# 5 31.5707 18.2260 37.2504 -0.0043 32.9790 0.0016
# 6 0.0000 -0.0116 -0.0133 7.1316 0.0016 20.5696
#
#
#
# Elastic Compliance Matrix: (Units=1/GPa)
#
#
# Indices 1 2 3 4 5 6 
#
# 1 0.033352 -0.007708 -0.012621 0.000017 -0.013412 -0.000017
# 2 -0.007708 0.015882 -0.006154 -0.000007 0.005553 0.000007
# 3 -0.012621 -0.006154 0.045107 -0.000054 -0.035467 0.000047
# 4 0.000017 -0.000007 -0.000054 0.043717 0.000054 -0.015157
# 5 -0.013412 0.005553 -0.035467 0.000054 0.080153 -0.000045
# 6 -0.000017 0.000007 0.000047 -0.015157 -0.000045 0.053870
#
#
# Mechanical properties :
#
#
# Convention : Reuss Voigt Hill
#
# Bulk Modulus (GPa) = 24.16931 55.97670 40.07301
# Shear Modulus (GPa) = 14.75628 22.59640 18.67634
#
# Velocity S-wave (km/s) = 3.02693 3.74570 3.40533
# Velocity P-wave (km/s) = 5.21759 7.31186 6.35164
#
# Compressibility (1/GPa) = 0.04137478
#
# Stress axis : x y z
#
# Youngs Moduli (GPa) = 29.98356 62.96630 22.16932
#
# Poissons Ratio (x) = 0.48532 0.27979
# Poissons Ratio (y) = 0.23110 0.13644
# Poissons Ratio (z) = 0.37842 0.38752
#
# Static dielectric constant tensor:
#      x y z
#    x 2.996910 -0.000010 0.552150 
#    y -0.000010 3.154250 0.000010 
#    z 0.552150 0.000010 3.158480 
# 
# 
# High freq. dielectric constant tensor:
#      x y z
#    x 1.583710 0.000000 0.049500 
#    y 0.000000 1.626440 0.000000 
#    z 0.049500 0.000000 1.600390 
# 
# From -- ./inp_files/384418.got.cif
#   From: 2010.06.25/outbox.cif.g09.slc.cpg/sg12_193_cif.got.tgz:384418.got - 2010.06.28 00:19:55.
