data_PCOD8081375
_publ_section_title
;
Structure prediction by ZEFSAII (Michael W. Deem and Ramdas Pophale) SiO2 
 PCOD8081375
Probable space group: C 2/M
;
_chemical_formula_sum "Si O2"
_cell_formula_units_Z 48
_cell_length_a 17.492175
_cell_length_b 23.478031
_cell_length_c 12.690899
_cell_angle_alpha 90.000000
_cell_angle_beta 149.932478
_cell_angle_gamma 90.000000
_cell_volume 2611.278242
_symmetry_space_group_name_H-M "C 2/M"
_symmetry_group_IT_number 12
_symmetry_cell_setting 'monoclinic'
loop_
_space_group_symop_operation_xyz
x,y,z
-x,y,-z
-x,-y,-z
x,-y,z
1/2+x,1/2+y,z
1/2-x,1/2+y,-z
1/2-x,1/2-y,-z
1/2+x,1/2-y,z
loop_
_atom_site_type_symbol
_atom_site_label
_atom_site_fract_x
_atom_site_fract_y
_atom_site_fract_z
Si Si1 0.728598 0.780130 0.804529
Si Si2 0.893992 0.159202 0.284517
Si Si3 0.364052 0.876072 0.154414
Si Si4 0.312963 0.565587 0.889570
Si Si5 0.016211 0.836056 0.206258
Si Si6 0.303315 0.857302 0.423661
O O1 0.676458 0.715751 0.747290
O O2 0.675020 0.813857 0.844778
O O3 0.655680 0.808429 0.612877
O O4 0.913535 0.788621 0.022114
O O5 0.000000 0.129506 0.500000
O O6 0.003686 0.173155 0.316439
O O7 0.751453 0.117901 0.083185
O O8 0.330048 0.924810 0.201159
O O9 0.541249 0.877764 0.333186
O O10 0.358030 0.500000 0.935409
O O11 0.271185 0.588485 0.723675
O O12 0.455746 0.600746 0.105150
O O13 0.191173 0.831548 0.378361
#
# Coordination Sequence:
#
# PCOD8081375 Si02
#       6
#     8   8   8   8   8   8
#     4   9  16  31  49  66  90 127 160 188 235 291
#     4  10  19  34  50  62  86 132 176 200 224 275
#     4   9  18  30  47  69  98 125 154 193 235 279
#     4   9  17  31  52  76 100 128 153 177 229 304
#     4   9  19  32  47  70 102 126 154 197 241 278
#     4  10  18  30  47  73 104 125 145 195 251 286
#
# _framework density 18.381803000000001
#
# number of rings (size 3 to 8) (size 9 to 14) (size 15 to 20)
#    0.000    3.333    0.000    7.000    0.000    2.667 
#    0.000   10.000    0.000    8.000    0.000    0.000 
#    0.000   12.000    0.000    0.000    0.000    0.000 
#
# Total GULP energy -297410.358649 kJ/mol
# GULP energy per Si atom -12392.098277 kJ/mol
# Density = 1.833996 g / cm^3
# Si number density = 18.381803 Si / 1000 Ang^3
#
#
#
# Elastic Constant Matrix: (Units=GPa)
#
#
# Indices 1 2 3 4 5 6 
#
# 1 77.1069 17.9458 52.1142 0.0000 10.6469 0.0000
# 2 17.9458 53.0664 0.9126 0.0000 -2.8969 0.0000
# 3 52.1142 0.9126 108.5747 0.0000 -3.7286 0.0000
# 4 0.0000 0.0000 0.0000 8.1579 0.0000 1.4121
# 5 10.6469 -2.8969 -3.7286 0.0000 31.5709 0.0000
# 6 0.0000 0.0000 0.0000 1.4121 0.0000 10.4674
#
#
#
# Elastic Compliance Matrix: (Units=1/GPa)
#
#
# Indices 1 2 3 4 5 6 
#
# 1 0.024635 -0.008698 -0.012113 0.000000 -0.010537 0.000000
# 2 -0.008698 0.022011 0.004177 0.000000 0.005446 0.000000
# 3 -0.012113 0.004177 0.015204 0.000000 0.006264 0.000000
# 4 0.000000 0.000000 0.000000 0.125512 0.000000 -0.016933
# 5 -0.010537 0.005446 0.006264 0.000000 0.036468 0.000000
# 6 0.000000 0.000000 0.000000 -0.016933 0.000000 0.097819
#
#
# Mechanical properties :
#
#
# Convention : Reuss Voigt Hill
#
# Bulk Modulus (GPa) = 34.98672 42.29924 38.64298
# Shear Modulus (GPa) = 13.71949 21.22428 17.47188
#
# Velocity S-wave (km/s) = 2.73493 3.40168 3.08636
# Velocity P-wave (km/s) = 5.38960 6.20403 5.81110
#
# Compressibility (1/GPa) = 0.02858228
#
# Stress axis : x y z
#
# Youngs Moduli (GPa) = 40.59225 45.43142 65.77027
#
# Poissons Ratio (x) = 0.39516 0.79669
# Poissons Ratio (y) = 0.35307 -0.27471
# Poissons Ratio (z) = 0.49170 -0.18976
#
# Static dielectric constant tensor:
#      x y z
#    x 3.238980 0.000000 0.048950 
#    y 0.000000 2.933770 0.000000 
#    z 0.048950 0.000000 3.544190 
# 
# 
# High freq. dielectric constant tensor:
#      x y z
#    x 1.692220 0.000000 0.011370 
#    y 0.000000 1.662790 0.000000 
#    z 0.011370 0.000000 1.713050 
# 
# From -- ./inp_files/235305.got.cif
#   From: 2010.06.25/outbox.cif.g09.slc.cpg/sg12_118_cif.got.tgz:235305.got - 2010.06.28 00:19:55.
