data_PCOD8081817
_publ_section_title
;
Structure prediction by ZEFSAII (Michael W. Deem and Ramdas Pophale) SiO2 
 PCOD8081817
Probable space group: C 2/M
;
_chemical_formula_sum "Si O2"
_cell_formula_units_Z 56
_cell_length_a 31.226700
_cell_length_b 9.019547
_cell_length_c 18.764642
_cell_angle_alpha 90.000000
_cell_angle_beta 145.916884
_cell_angle_gamma 90.000000
_cell_volume 2961.729001
_symmetry_space_group_name_H-M "C 2/M"
_symmetry_group_IT_number 12
_symmetry_cell_setting 'monoclinic'
loop_
_space_group_symop_operation_xyz
x,y,z
-x,y,-z
-x,-y,-z
x,-y,z
1/2+x,1/2+y,z
1/2-x,1/2+y,-z
1/2-x,1/2-y,-z
1/2+x,1/2-y,z
loop_
_atom_site_type_symbol
_atom_site_label
_atom_site_fract_x
_atom_site_fract_y
_atom_site_fract_z
Si Si1 0.967667 0.829920 0.550338
Si Si2 0.688456 0.667249 0.599675
Si Si3 0.181287 0.671424 0.112312
Si Si4 0.763023 0.833209 0.944405
Si Si5 0.277433 0.328410 0.608635
Si Si6 0.412739 0.675076 0.895202
Si Si7 0.908245 0.664995 0.333512
O O1 0.902263 0.807041 0.519098
O O2 0.928987 0.779297 0.423679
O O3 0.044087 0.730133 0.669669
O O4 0.992516 0.000000 0.580229
O O5 0.704797 0.500000 0.594027
O O6 0.734660 0.689914 0.737128
O O7 0.714596 0.791237 0.580897
O O8 0.160036 0.500000 0.071761
O O9 0.181107 0.749348 0.034140
O O10 0.116966 0.743683 0.074581
O O11 0.680824 0.839306 0.796658
O O12 0.794537 0.000000 0.001043
O O13 0.750000 0.750000 0.000000
O O14 0.278027 0.500000 0.592486
O O15 0.250000 0.250000 0.500000
O O16 0.360512 0.278832 0.754620
O O17 0.406057 0.500000 0.899790
O O18 0.500000 0.723061 0.000000
O O19 0.938123 0.500000 0.391220
#
# Coordination Sequence:
#
# PCOD8081817 Si02
#       7
#     8   8   8   8   8   8   8
#     4  10  18  30  51  76 102 134 169 209 255 308
#     4   9  18  32  52  78 106 137 175 217 260 315
#     4  10  19  34  56  81 109 139 180 229 273 325
#     4  11  23  37  54  75 105 144 186 229 275 325
#     4  10  20  34  55  81 110 143 177 221 273 326
#     4   9  19  37  60  85 112 145 186 228 276 335
#     4  10  20  32  48  73 103 133 168 215 262 306
#
# _framework density 18.907876000000002
#
# number of rings (size 3 to 8) (size 9 to 14) (size 15 to 20)
#    0.000    2.143    1.429    3.000    0.000    4.286 
#    0.000    1.429    0.000    1.714    0.000    0.000 
#    0.000    0.000    0.000    0.000    0.000    0.000 
#
# Total GULP energy -346926.234100 kJ/mol
# GULP energy per Si atom -12390.222646 kJ/mol
# Density = 1.886484 g / cm^3
# Si number density = 18.907876 Si / 1000 Ang^3
#
#
#
# Elastic Constant Matrix: (Units=GPa)
#
#
# Indices 1 2 3 4 5 6 
#
# 1 118.3392 61.2205 46.9036 0.0000 0.5029 0.0000
# 2 61.2205 87.5303 34.5543 0.0000 -4.2071 0.0000
# 3 46.9036 34.5543 48.0081 0.0000 -2.9227 0.0000
# 4 0.0000 0.0000 0.0000 25.0625 0.0000 -1.4344
# 5 0.5029 -4.2071 -2.9227 0.0000 33.9462 0.0000
# 6 0.0000 0.0000 0.0000 -1.4344 0.0000 37.6586
#
#
#
# Elastic Compliance Matrix: (Units=1/GPa)
#
#
# Indices 1 2 3 4 5 6 
#
# 1 0.016685 -0.007383 -0.011115 0.000000 -0.002119 0.000000
# 2 -0.007383 0.019260 -0.006531 0.000000 0.001934 0.000000
# 3 -0.011115 -0.006531 0.036543 0.000000 0.002502 0.000000
# 4 0.000000 0.000000 0.000000 0.039987 0.000000 0.001523
# 5 -0.002119 0.001934 0.002502 0.000000 0.029945 0.000000
# 6 0.000000 0.000000 0.000000 0.001523 0.000000 0.026612
#
#
# Mechanical properties :
#
#
# Convention : Reuss Voigt Hill
#
# Bulk Modulus (GPa) = 44.58897 59.91493 52.25195
# Shear Modulus (GPa) = 22.06842 26.74673 24.40758
#
# Velocity S-wave (km/s) = 3.42007 3.76517 3.59676
# Velocity P-wave (km/s) = 6.26333 7.11749 6.70402
#
# Compressibility (1/GPa) = 0.02242707
#
# Stress axis : x y z
#
# Youngs Moduli (GPa) = 59.93581 51.92109 27.36509
#
# Poissons Ratio (x) = 0.38335 0.30418
# Poissons Ratio (y) = 0.44252 0.17873
# Poissons Ratio (z) = 0.66622 0.33912
#
# Static dielectric constant tensor:
#      x y z
#    x 3.872080 0.000000 0.884690 
#    y 0.000000 3.543380 0.000000 
#    z 0.884690 0.000000 6.458350 
# 
# 
# High freq. dielectric constant tensor:
#      x y z
#    x 1.732830 0.000000 0.016230 
#    y 0.000000 1.747550 0.000000 
#    z 0.016230 0.000000 1.706070 
# 
# From -- ./inp_files/295152.got.cif
#   From: 2010.06.25/outbox.cif.g09.slc.cpg/sg12_148_cif.got.tgz:295152.got - 2010.06.28 00:19:55.
