data_PCOD8081695
_publ_section_title
;
Structure prediction by ZEFSAII (Michael W. Deem and Ramdas Pophale) SiO2 
 PCOD8081695
Probable space group: C 2/M
;
_chemical_formula_sum "Si O2"
_cell_formula_units_Z 64
_cell_length_a 20.248995
_cell_length_b 9.013460
_cell_length_c 23.734778
_cell_angle_alpha 90.000000
_cell_angle_beta 121.810005
_cell_angle_gamma 90.000000
_cell_volume 3681.266413
_symmetry_space_group_name_H-M "C 2/M"
_symmetry_group_IT_number 12
_symmetry_cell_setting 'monoclinic'
loop_
_space_group_symop_operation_xyz
x,y,z
-x,y,-z
-x,-y,-z
x,-y,z
1/2+x,1/2+y,z
1/2-x,1/2+y,-z
1/2-x,1/2-y,-z
1/2+x,1/2-y,z
loop_
_atom_site_type_symbol
_atom_site_label
_atom_site_fract_x
_atom_site_fract_y
_atom_site_fract_z
Si Si1 0.001194 0.823647 0.671842
Si Si2 0.329788 0.828250 0.050753
Si Si3 0.538633 0.174378 0.458891
Si Si4 0.075899 0.327143 0.801879
Si Si5 0.444966 0.326518 0.814808
Si Si6 0.785769 0.675629 0.462287
Si Si7 0.514290 0.826014 0.941991
Si Si8 0.648745 0.327815 0.328375
O O1 0.074284 0.760830 0.741572
O O2 0.005434 0.760440 0.610716
O O3 0.921779 0.762082 0.665309
O O4 0.007288 0.000000 0.673261
O O5 0.347091 0.800197 0.125264
O O6 0.401032 0.772068 0.042590
O O7 0.317788 0.000000 0.033008
O O8 0.250000 0.750000 0.000000
O O9 0.500000 0.218143 0.500000
O O10 0.626735 0.231121 0.505195
O O11 0.533037 0.000000 0.443867
O O12 0.064227 0.500000 0.783903
O O13 0.007371 0.267776 0.809491
O O14 0.466680 0.500000 0.824488
O O15 0.445093 0.261407 0.877934
O O16 0.363964 0.298881 0.744392
O O17 0.783360 0.500000 0.468030
O O18 0.750000 0.750000 0.500000
O O19 0.733247 0.731639 0.385535
O O20 0.503956 0.000000 0.926434
O O21 0.500000 0.783272 0.000000
O O22 0.645537 0.500000 0.340207
#
# Coordination Sequence:
#
# PCOD8081695 Si02
#       8
#     8   8   8   8   8   8   8   8
#     4  10  18  30  50  74  97 125 163 208 250 286
#     4   9  18  31  50  75 100 129 161 201 244 287
#     4  10  21  34  49  71  99 135 169 197 242 302
#     4   9  17  30  48  72 100 129 164 200 242 292
#     4   9  16  27  45  72 100 125 159 202 247 289
#     4  10  18  31  50  72  97 125 161 203 244 288
#     4   9  18  33  51  71  98 134 169 200 242 291
#     4   8  15  27  45  70  97 119 150 201 249 282
#
# _framework density 17.385321000000001
#
# number of rings (size 3 to 8) (size 9 to 14) (size 15 to 20)
#    0.000    2.750    1.250    2.625    0.000    3.000 
#    0.000    0.625    2.750    0.000    0.000    0.000 
#    0.000    0.000    0.000    0.000    0.000    0.000 
#
# Total GULP energy -396462.568931 kJ/mol
# GULP energy per Si atom -12389.455279 kJ/mol
# Density = 1.734575 g / cm^3
# Si number density = 17.385321 Si / 1000 Ang^3
#
#
#
# Elastic Constant Matrix: (Units=GPa)
#
#
# Indices 1 2 3 4 5 6 
#
# 1 71.4423 27.1678 60.1090 0.0000 -3.3530 0.0000
# 2 27.1678 49.8355 58.1592 0.0000 0.3024 0.0000
# 3 60.1090 58.1592 181.0177 0.0000 -2.3963 0.0000
# 4 0.0000 0.0000 0.0000 30.8527 0.0000 -1.8635
# 5 -3.3530 0.3024 -2.3963 0.0000 23.6368 0.0000
# 6 0.0000 0.0000 0.0000 -1.8635 0.0000 16.3508
#
#
#
# Elastic Compliance Matrix: (Units=1/GPa)
#
#
# Indices 1 2 3 4 5 6 
#
# 1 0.020341 -0.005214 -0.005047 0.000000 0.002440 0.000000
# 2 -0.005214 0.033490 -0.009056 0.000000 -0.002086 0.000000
# 3 -0.005047 -0.009056 0.010116 0.000000 0.000425 0.000000
# 4 0.000000 0.000000 0.000000 0.032637 0.000000 0.003720
# 5 0.002440 -0.002086 0.000425 0.000000 0.042723 0.000000
# 6 0.000000 0.000000 0.000000 0.003720 0.000000 0.061583
#
#
# Mechanical properties :
#
#
# Convention : Reuss Voigt Hill
#
# Bulk Modulus (GPa) = 39.50641 65.90750 52.70696
# Shear Modulus (GPa) = 20.16453 24.62536 22.39494
#
# Velocity S-wave (km/s) = 3.40937 3.76765 3.59298
# Velocity P-wave (km/s) = 6.18641 7.54447 6.89894
#
# Compressibility (1/GPa) = 0.02531235
#
# Stress axis : x y z
#
# Youngs Moduli (GPa) = 49.16213 29.85983 98.85721
#
# Poissons Ratio (x) = 0.15568 0.49894
# Poissons Ratio (y) = 0.25631 0.89528
# Poissons Ratio (z) = 0.24812 0.27042
#
# Static dielectric constant tensor:
#      x y z
#    x 2.693150 0.000000 -0.200620 
#    y 0.000000 3.191680 0.000000 
#    z -0.200620 0.000000 3.558980 
# 
# 
# High freq. dielectric constant tensor:
#      x y z
#    x 1.618680 0.000000 0.003410 
#    y 0.000000 1.665130 0.000000 
#    z 0.003410 0.000000 1.696490 
# 
# From -- ./inp_files/345597.got.cif
#   From: 2010.06.25/outbox.cif.g09.slc.cpg/sg12_173_cif.got.tgz:345597.got - 2010.06.28 00:19:55.
