data_PCOD8081681
_publ_section_title
;
Structure prediction by ZEFSAII (Michael W. Deem and Ramdas Pophale) SiO2 
 PCOD8081681
Probable space group: C 2/M
;
_chemical_formula_sum "Si O2"
_cell_formula_units_Z 60
_cell_length_a 22.857166
_cell_length_b 9.182720
_cell_length_c 22.231930
_cell_angle_alpha 90.000000
_cell_angle_beta 43.497464
_cell_angle_gamma 90.000000
_cell_volume 3211.906077
_symmetry_space_group_name_H-M "C 2/M"
_symmetry_group_IT_number 12
_symmetry_cell_setting 'monoclinic'
loop_
_space_group_symop_operation_xyz
x,y,z
-x,y,-z
-x,-y,-z
x,-y,z
1/2+x,1/2+y,z
1/2-x,1/2+y,-z
1/2-x,1/2-y,-z
1/2+x,1/2-y,z
loop_
_atom_site_type_symbol
_atom_site_label
_atom_site_fract_x
_atom_site_fract_y
_atom_site_fract_z
Si Si1 0.000000 0.265252 0.000000
Si Si2 0.534388 0.671173 0.223506
Si Si3 0.189087 0.338806 0.864001
Si Si4 0.223329 0.829290 0.428385
Si Si5 0.273699 0.330861 0.921886
Si Si6 0.119508 0.670652 0.604277
Si Si7 0.466325 0.664147 0.151045
Si Si8 0.279688 0.673954 0.273703
O O1 0.912875 0.355594 0.068934
O O2 0.010597 0.171124 0.052788
O O3 0.513600 0.500000 0.246591
O O4 0.630515 0.706684 0.170343
O O5 0.472215 0.764872 0.311438
O O6 0.523621 0.728016 0.162189
O O7 0.227911 0.500000 0.825739
O O8 0.211101 0.282511 0.914631
O O9 0.235696 0.229587 0.782875
O O10 0.150509 0.755591 0.522349
O O11 0.315231 0.800807 0.389785
O O12 0.217708 0.751083 0.367602
O O13 0.204247 0.000000 0.435690
O O14 0.264704 0.500000 0.943444
O O15 0.250000 0.250000 0.000000
O O16 0.112176 0.500000 0.595073
O O17 0.449000 0.500000 0.180963
O O18 0.373308 0.735925 0.220078
O O19 0.268909 0.500000 0.283750
#
# Coordination Sequence:
#
# PCOD8081681 Si02
#       8
#     4   8   8   8   8   8   8   8
#     4  10  18  30  50  74 101 138 173 220 267 320
#     4  10  19  34  53  75 105 144 182 224 271 319
#     4  10  21  36  51  75 106 140 180 223 273 325
#     4  10  19  32  52  80 114 147 175 214 267 323
#     4  10  22  38  57  78 106 144 187 231 273 320
#     4  10  20  32  51  81 112 145 179 218 264 320
#     4   9  17  28  46  72 102 132 171 216 264 315
#     4  10  19  32  52  77 106 141 176 217 264 319
#
# _framework density 18.680496000000002
#
# number of rings (size 3 to 8) (size 9 to 14) (size 15 to 20)
#    0.000    2.133    1.333    2.400    0.000    2.667 
#    0.000    0.667    0.000    0.800    0.000    5.600 
#    0.000    0.000    0.000    0.000    0.000    0.000 
#
# Total GULP energy -371826.363984 kJ/mol
# GULP energy per Si atom -12394.212133 kJ/mol
# Density = 1.863798 g / cm^3
# Si number density = 18.680496 Si / 1000 Ang^3
#
#
#
# Elastic Constant Matrix: (Units=GPa)
#
#
# Indices 1 2 3 4 5 6 
#
# 1 94.7419 41.5605 50.4613 0.0000 13.5715 0.0000
# 2 41.5605 100.3876 63.1390 -0.0004 13.0674 0.0003
# 3 50.4613 63.1390 127.9206 0.0000 20.5015 0.0000
# 4 0.0000 -0.0004 0.0000 34.4229 0.0000 6.2354
# 5 13.5715 13.0674 20.5015 0.0000 30.7490 0.0000
# 6 0.0000 0.0003 0.0000 6.2354 0.0000 22.8184
#
#
#
# Elastic Compliance Matrix: (Units=1/GPa)
#
#
# Indices 1 2 3 4 5 6 
#
# 1 0.014287 -0.003331 -0.003592 0.000000 -0.002495 0.000000
# 2 -0.003331 0.015289 -0.006076 0.000000 -0.000976 0.000000
# 3 -0.003592 -0.006076 0.012949 0.000000 -0.004466 0.000000
# 4 0.000000 0.000000 0.000000 0.030563 0.000000 -0.008352
# 5 -0.002495 -0.000976 -0.004466 0.000000 0.037015 0.000000
# 6 0.000000 0.000000 0.000000 -0.008352 0.000000 0.046106
#
#
# Mechanical properties :
#
#
# Convention : Reuss Voigt Hill
#
# Bulk Modulus (GPa) = 60.50531 70.37463 65.43997
# Shear Modulus (GPa) = 26.63604 28.79068 27.71336
#
# Velocity S-wave (km/s) = 3.78017 3.93009 3.85586
# Velocity P-wave (km/s) = 7.17724 7.63863 7.41153
#
# Compressibility (1/GPa) = 0.01652747
#
# Stress axis : x y z
#
# Youngs Moduli (GPa) = 69.99558 65.40703 77.22644
#
# Poissons Ratio (x) = 0.21786 0.27738
# Poissons Ratio (y) = 0.23314 0.46922
# Poissons Ratio (z) = 0.25141 0.39741
#
# Static dielectric constant tensor:
#      x y z
#    x 3.445970 0.000000 0.128500 
#    y 0.000000 3.295990 0.000000 
#    z 0.128500 0.000000 3.334600 
# 
# 
# High freq. dielectric constant tensor:
#      x y z
#    x 1.703880 0.000000 0.016410 
#    y 0.000000 1.718910 0.000000 
#    z 0.016410 0.000000 1.722850 
# 
# From -- ./inp_files/348831.got.cif
#   From: 2010.06.25/outbox.cif.g09.slc.cpg/sg12_175_cif.got.tgz:348831.got - 2010.06.28 00:19:55.
