data_PCOD8081623
_publ_section_title
;
Structure prediction by ZEFSAII (Michael W. Deem and Ramdas Pophale) SiO2 
 PCOD8081623
Probable space group: C 2/M
;
_chemical_formula_sum "Si O2"
_cell_formula_units_Z 56
_cell_length_a 30.095934
_cell_length_b 8.940953
_cell_length_c 11.957501
_cell_angle_alpha 90.000000
_cell_angle_beta 119.076636
_cell_angle_gamma 90.000000
_cell_volume 2812.087444
_symmetry_space_group_name_H-M "C 2/M"
_symmetry_group_IT_number 12
_symmetry_cell_setting 'monoclinic'
loop_
_space_group_symop_operation_xyz
x,y,z
-x,y,-z
-x,-y,-z
x,-y,z
1/2+x,1/2+y,z
1/2-x,1/2+y,-z
1/2-x,1/2-y,-z
1/2+x,1/2-y,z
loop_
_atom_site_type_symbol
_atom_site_label
_atom_site_fract_x
_atom_site_fract_y
_atom_site_fract_z
Si Si1 0.910600 0.324737 0.129312
Si Si2 0.693524 0.179191 0.430579
Si Si3 0.355784 0.335012 0.244841
Si Si4 0.655479 0.822330 0.147420
Si Si5 0.110072 0.173954 0.476223
Si Si6 0.491856 0.178022 0.619670
Si Si7 0.255655 0.832062 0.892175
O O1 0.916094 0.500000 0.134979
O O2 0.864192 0.282287 0.155207
O O3 0.962185 0.258468 0.245712
O O4 0.895566 0.270140 0.983942
O O5 0.750000 0.250000 0.500000
O O6 0.660886 0.232794 0.281318
O O7 0.659300 0.239835 0.489560
O O8 0.699159 0.000000 0.443685
O O9 0.365104 0.500000 0.205013
O O10 0.392610 0.305083 0.393413
O O11 0.299851 0.325348 0.231495
O O12 0.704247 0.754771 0.141721
O O13 0.658078 0.000000 0.151042
O O14 0.056893 0.250354 0.377603
O O15 0.112258 0.000000 0.443105
O O16 0.500000 0.227802 0.500000
O O17 0.486921 0.000000 0.619872
O O18 0.273823 0.000000 0.938708
O O19 0.250000 0.750000 0.000000
#
# Coordination Sequence:
#
# PCOD8081623 Si02
#       7
#     8   8   8   8   8   8   8
#     4  10  19  34  57  83 114 149 187 233 289 349
#     4  11  23  42  65  87 116 154 200 245 290 344
#     4  10  20  32  50  80 116 149 184 234 289 344
#     4   9  19  36  57  80 113 154 191 237 290 347
#     4  11  23  39  60  85 117 157 200 241 292 348
#     4  10  20  35  58  90 121 150 193 246 294 346
#     4  10  18  30  49  76 109 141 178 223 278 340
#
# _framework density 19.914033
#
# number of rings (size 3 to 8) (size 9 to 14) (size 15 to 20)
#    0.000    1.857    2.857    1.714    0.000    3.714 
#    0.000    5.000    0.000    4.286    0.000    0.000 
#    0.000    0.000    0.000    0.000    0.000    0.000 
#
# Total GULP energy -346884.458920 kJ/mol
# GULP energy per Si atom -12388.730676 kJ/mol
# Density = 1.986871 g / cm^3
# Si number density = 19.914033 Si / 1000 Ang^3
#
#
#
# Elastic Constant Matrix: (Units=GPa)
#
#
# Indices 1 2 3 4 5 6 
#
# 1 84.8503 27.8043 25.2074 0.0000 12.2267 0.0000
# 2 27.8043 45.4587 27.0431 0.0000 5.1170 0.0000
# 3 25.2074 27.0431 120.7601 0.0000 15.7032 0.0000
# 4 0.0000 0.0000 0.0000 20.8790 0.0000 2.3045
# 5 12.2267 5.1170 15.7032 0.0000 26.6998 0.0000
# 6 0.0000 0.0000 0.0000 2.3045 0.0000 30.9058
#
#
#
# Elastic Compliance Matrix: (Units=1/GPa)
#
#
# Indices 1 2 3 4 5 6 
#
# 1 0.015506 -0.008514 -0.000670 0.000000 -0.005075 0.000000
# 2 -0.008514 0.030121 -0.005116 0.000000 0.001135 0.000000
# 3 -0.000670 -0.005116 0.010177 0.000000 -0.004698 0.000000
# 4 0.000000 0.000000 0.000000 0.048292 0.000000 -0.003601
# 5 -0.005075 0.001135 -0.004698 0.000000 0.042323 0.000000
# 6 0.000000 0.000000 0.000000 -0.003601 0.000000 0.032625
#
#
# Mechanical properties :
#
#
# Convention : Reuss Voigt Hill
#
# Bulk Modulus (GPa) = 36.75868 45.68652 41.22260
# Shear Modulus (GPa) = 23.07205 27.09787 25.08496
#
# Velocity S-wave (km/s) = 3.40749 3.69283 3.55302
# Velocity P-wave (km/s) = 5.82924 6.41672 6.13002
#
# Compressibility (1/GPa) = 0.02720446
#
# Stress axis : x y z
#
# Youngs Moduli (GPa) = 64.49232 33.19939 98.25752
#
# Poissons Ratio (x) = 0.28266 0.06584
# Poissons Ratio (y) = 0.54909 0.50266
# Poissons Ratio (z) = 0.04322 0.16984
#
# Static dielectric constant tensor:
#      x y z
#    x 3.716410 0.000000 0.361320 
#    y 0.000000 3.222760 0.000000 
#    z 0.361320 0.000000 4.159850 
# 
# 
# High freq. dielectric constant tensor:
#      x y z
#    x 1.763130 0.000000 0.018530 
#    y 0.000000 1.753990 0.000000 
#    z 0.018530 0.000000 1.786440 
# 
# From -- ./inp_files/181127.got.cif
#   From: 2010.06.25/outbox.cif.g09.slc.cpg/sg12_91_cif.got.tgz:181127.got - 2010.06.28 00:19:55.
