data_PCOD8081732
_publ_section_title
;
Structure prediction by ZEFSAII (Michael W. Deem and Ramdas Pophale) SiO2 
 PCOD8081732
Probable space group: C 2/M
;
_chemical_formula_sum "Si O2"
_cell_formula_units_Z 64
_cell_length_a 25.023577
_cell_length_b 9.089747
_cell_length_c 15.004201
_cell_angle_alpha 90.000000
_cell_angle_beta 79.283386
_cell_angle_gamma 90.000000
_cell_volume 3353.301943
_symmetry_space_group_name_H-M "C 2/M"
_symmetry_group_IT_number 12
_symmetry_cell_setting 'monoclinic'
loop_
_space_group_symop_operation_xyz
x,y,z
-x,y,-z
-x,-y,-z
x,-y,z
1/2+x,1/2+y,z
1/2-x,1/2+y,-z
1/2-x,1/2-y,-z
1/2+x,1/2-y,z
loop_
_atom_site_type_symbol
_atom_site_label
_atom_site_fract_x
_atom_site_fract_y
_atom_site_fract_z
Si Si1 0.114835 0.671495 0.673071
Si Si2 0.392815 0.671487 0.822323
Si Si3 0.304949 0.172317 0.512053
Si Si4 0.349497 0.162089 0.006183
Si Si5 0.484221 0.672442 0.239798
Si Si6 0.542600 0.162290 0.918303
Si Si7 0.196568 0.324718 0.801608
Si Si8 0.311007 0.672417 0.690513
O O1 0.102764 0.500000 0.688774
O O2 0.149481 0.705424 0.575033
O O3 0.056199 0.751808 0.675828
O O4 0.148224 0.728611 0.750281
O O5 0.396918 0.500000 0.841790
O O6 0.361987 0.739121 0.916959
O O7 0.453689 0.734256 0.784161
O O8 0.358035 0.706461 0.746302
O O9 0.250000 0.250000 0.500000
O O10 0.326596 0.238479 0.597602
O O11 0.293637 0.000000 0.525271
O O12 0.330407 0.000000 0.978709
O O13 0.401343 0.142231 0.051099
O O14 0.307799 0.231622 0.093055
O O15 0.484621 0.500000 0.257131
O O16 0.453669 0.716436 0.158889
O O17 0.523878 0.000000 0.888225
O O18 0.500000 0.229018 0.000000
O O19 0.196541 0.500000 0.804028
O O20 0.253829 0.267269 0.745830
O O21 0.307190 0.500000 0.668995
#
# Coordination Sequence:
#
# PCOD8081732 Si02
#       8
#     8   8   8   8   8   8   8   8
#     4  10  20  37  59  86 116 145 180 230 289 345
#     4  10  23  39  54  77 116 160 195 229 283 337
#     4  11  22  38  64  94 118 142 181 233 288 344
#     4  10  19  32  54  81 110 146 194 237 275 331
#     4  11  22  34  52  82 116 150 191 240 286 334
#     4  10  18  30  50  76 106 147 192 234 283 335
#     4   9  17  33  57  83 110 144 185 230 282 334
#     4  10  21  41  62  80 112 156 192 231 282 341
#
# _framework density 19.085666
#
# number of rings (size 3 to 8) (size 9 to 14) (size 15 to 20)
#    0.000    1.875    3.750    0.750    0.000    3.250 
#    0.000    1.250    0.000    3.750    0.000    0.000 
#    0.000    0.000    0.000    0.000    0.000    0.000 
#
# Total GULP energy -396525.513994 kJ/mol
# GULP energy per Si atom -12391.422312 kJ/mol
# Density = 1.904223 g / cm^3
# Si number density = 19.085666 Si / 1000 Ang^3
#
#
#
# Elastic Constant Matrix: (Units=GPa)
#
#
# Indices 1 2 3 4 5 6 
#
# 1 68.1960 34.8433 52.6096 0.0000 -10.2361 0.0000
# 2 34.8433 55.5568 57.3671 0.0000 -4.8451 0.0000
# 3 52.6096 57.3671 142.2359 0.0000 -13.0049 0.0000
# 4 0.0000 0.0000 0.0000 35.3477 0.0000 -1.8281
# 5 -10.2361 -4.8451 -13.0049 0.0000 29.9904 0.0000
# 6 0.0000 0.0000 0.0000 -1.8281 0.0000 24.0626
#
#
#
# Elastic Compliance Matrix: (Units=1/GPa)
#
#
# Indices 1 2 3 4 5 6 
#
# 1 0.023852 -0.010081 -0.004333 0.000000 0.004634 0.000000
# 2 -0.010081 0.035112 -0.010651 0.000000 -0.002387 0.000000
# 3 -0.004333 -0.010651 0.013158 0.000000 0.002506 0.000000
# 4 0.000000 0.000000 0.000000 0.028402 0.000000 0.002158
# 5 0.004634 -0.002387 0.002506 0.000000 0.035627 0.000000
# 6 0.000000 0.000000 0.000000 0.002158 0.000000 0.041722
#
#
# Mechanical properties :
#
#
# Convention : Reuss Voigt Hill
#
# Bulk Modulus (GPa) = 45.47000 61.73652 53.60326
# Shear Modulus (GPa) = 21.24634 25.95804 23.60219
#
# Velocity S-wave (km/s) = 3.34010 3.69193 3.52041
# Velocity P-wave (km/s) = 6.22502 7.11274 6.68363
#
# Compressibility (1/GPa) = 0.02199252
#
# Stress axis : x y z
#
# Youngs Moduli (GPa) = 41.92439 28.48018 75.99909
#
# Poissons Ratio (x) = 0.28712 0.32928
# Poissons Ratio (y) = 0.42266 0.80946
# Poissons Ratio (z) = 0.18164 0.30334
#
# Static dielectric constant tensor:
#      x y z
#    x 3.604550 0.000000 -0.271620 
#    y 0.000000 3.331500 0.000000 
#    z -0.271620 0.000000 3.636910 
# 
# 
# High freq. dielectric constant tensor:
#      x y z
#    x 1.740820 0.000000 -0.023110 
#    y 0.000000 1.718880 0.000000 
#    z -0.023110 0.000000 1.744710 
# 
# From -- ./inp_files/243919.got.cif
#   From: 2010.06.25/outbox.cif.g09.slc.cpg/sg12_122_cif.got.tgz:243919.got - 2010.06.28 00:19:55.
