data_PCOD8081251
_publ_section_title
;
Structure prediction by ZEFSAII (Michael W. Deem and Ramdas Pophale) SiO2 
 PCOD8081251
Probable space group: C 2/M
;
_chemical_formula_sum "Si O2"
_cell_formula_units_Z 64
_cell_length_a 29.961305
_cell_length_b 9.054399
_cell_length_c 30.728373
_cell_angle_alpha 90.000000
_cell_angle_beta 28.931560
_cell_angle_gamma 90.000000
_cell_volume 4032.681753
_symmetry_space_group_name_H-M "C 2/M"
_symmetry_group_IT_number 12
_symmetry_cell_setting 'monoclinic'
loop_
_space_group_symop_operation_xyz
x,y,z
-x,y,-z
-x,-y,-z
x,-y,z
1/2+x,1/2+y,z
1/2-x,1/2+y,-z
1/2-x,1/2-y,-z
1/2+x,1/2-y,z
loop_
_atom_site_type_symbol
_atom_site_label
_atom_site_fract_x
_atom_site_fract_y
_atom_site_fract_z
Si Si1 0.863438 0.175094 0.763832
Si Si2 0.843507 0.671384 0.868220
Si Si3 0.975634 0.825178 0.925903
Si Si4 0.312539 0.326227 0.126463
Si Si5 0.326606 0.325940 0.215088
Si Si6 0.353972 0.325256 0.610261
Si Si7 0.868701 0.828130 0.933515
Si Si8 0.473651 0.326098 0.588019
O O1 0.888100 0.246426 0.789014
O O2 0.767533 0.234605 0.827727
O O3 0.944904 0.223436 0.660962
O O4 0.856944 0.000000 0.774367
O O5 0.867448 0.500000 0.844676
O O6 0.889653 0.735952 0.872323
O O7 0.734316 0.701050 0.961341
O O8 0.077436 0.761104 0.847982
O O9 0.938104 0.769022 0.911351
O O10 0.979712 0.000000 0.921625
O O11 0.907914 0.776678 0.022578
O O12 0.293171 0.500000 0.136057
O O13 0.319389 0.282185 0.170828
O O14 0.321406 0.500000 0.225848
O O15 0.244091 0.252746 0.312758
O O16 0.338190 0.500000 0.624430
O O17 0.399881 0.264967 0.615846
O O18 0.422070 0.275786 0.512600
O O19 0.882984 0.000000 0.910735
O O20 0.469184 0.500000 0.586650
#
# Coordination Sequence:
#
# PCOD8081251 Si02
#       8
#     8   8   8   8   8   8   8   8
#     4  11  19  29  47  70  92 120 156 189 226 272
#     4  10  19  31  47  68  93 118 149 189 236 276
#     4   9  17  31  47  64  91 128 162 186 218 270
#     4  10  18  30  44  64  94 128 160 187 219 261
#     4  10  19  29  46  69  93 123 159 194 225 261
#     4   9  16  31  48  63  88 122 156 189 227 270
#     4   9  17  31  48  65  88 122 158 187 220 269
#     4   8  16  29  47  65  87 122 156 185 225 278
#
# _framework density 15.870331999999999
#
# number of rings (size 3 to 8) (size 9 to 14) (size 15 to 20)
#    0.000    2.500    2.500    1.875    0.000    2.000 
#    0.000    3.750    0.000    1.500    0.000    0.875 
#    0.000    0.000    0.000    0.000    0.000    0.000 
#
# Total GULP energy -396725.711866 kJ/mol
# GULP energy per Si atom -12397.678496 kJ/mol
# Density = 1.583421 g / cm^3
# Si number density = 15.870332 Si / 1000 Ang^3
#
#
#
# Elastic Constant Matrix: (Units=GPa)
#
#
# Indices 1 2 3 4 5 6 
#
# 1 77.9029 24.4997 54.2461 -0.0073 9.3050 0.0017
# 2 24.4997 37.5827 31.1680 0.0096 7.5963 0.0130
# 3 54.2461 31.1680 123.6284 0.0491 5.7255 -0.0626
# 4 -0.0073 0.0096 0.0491 22.5027 -0.0027 1.3980
# 5 9.3050 7.5963 5.7255 -0.0027 24.9558 -0.0019
# 6 0.0017 0.0130 -0.0626 1.3980 -0.0019 20.6803
#
#
#
# Elastic Compliance Matrix: (Units=1/GPa)
#
#
# Indices 1 2 3 4 5 6 
#
# 1 0.020295 -0.006573 -0.007065 0.000026 -0.003945 -0.000021
# 2 -0.006573 0.037601 -0.006245 -0.000003 -0.007562 -0.000042
# 3 -0.007065 -0.006245 0.012688 -0.000030 0.001624 0.000045
# 4 0.000026 -0.000003 -0.000030 0.044627 0.000003 -0.003017
# 5 -0.003945 -0.007562 0.001624 0.000003 0.043471 0.000014
# 6 -0.000021 -0.000042 0.000045 -0.003017 0.000014 0.048559
#
#
# Mechanical properties :
#
#
# Convention : Reuss Voigt Hill
#
# Bulk Modulus (GPa) = 32.45021 50.99351 41.72186
# Shear Modulus (GPa) = 19.43419 22.24111 20.83765
#
# Velocity S-wave (km/s) = 3.50317 3.74763 3.62746
# Velocity P-wave (km/s) = 6.07078 7.13634 6.62502
#
# Compressibility (1/GPa) = 0.03081644
#
# Stress axis : x y z
#
# Youngs Moduli (GPa) = 49.27436 26.59539 78.81429
#
# Poissons Ratio (x) = 0.17482 0.55683
# Poissons Ratio (y) = 0.32389 0.49220
# Poissons Ratio (z) = 0.34813 0.16609
#
# Static dielectric constant tensor:
#      x y z
#    x 3.067170 -0.000070 0.118740 
#    y -0.000070 2.816160 0.000030 
#    z 0.118740 0.000030 3.227870 
# 
# 
# High freq. dielectric constant tensor:
#      x y z
#    x 1.592940 0.000000 0.011900 
#    y 0.000000 1.591920 0.000000 
#    z 0.011900 0.000000 1.602020 
# 
# From -- ./inp_files/384548.got.cif
#   From: 2010.06.25/outbox.cif.g09.slc.cpg/sg12_193_cif.got.tgz:384548.got - 2010.06.28 00:19:55.
