data_PCOD8081950
_publ_section_title
;
Structure prediction by ZEFSAII (Michael W. Deem and Ramdas Pophale) SiO2 
 PCOD8081950
Probable space group: C 2/M
;
_chemical_formula_sum "Si O2"
_cell_formula_units_Z 56
_cell_length_a 26.575342
_cell_length_b 16.762301
_cell_length_c 9.608684
_cell_angle_alpha 90.000000
_cell_angle_beta 41.074282
_cell_angle_gamma 90.000000
_cell_volume 2812.329421
_symmetry_space_group_name_H-M "C 2/M"
_symmetry_group_IT_number 12
_symmetry_cell_setting 'monoclinic'
loop_
_space_group_symop_operation_xyz
x,y,z
-x,y,-z
-x,-y,-z
x,-y,z
1/2+x,1/2+y,z
1/2-x,1/2+y,-z
1/2-x,1/2-y,-z
1/2+x,1/2-y,z
loop_
_atom_site_type_symbol
_atom_site_label
_atom_site_fract_x
_atom_site_fract_y
_atom_site_fract_z
Si Si1 0.682559 0.412175 0.596968
Si Si2 0.146083 0.588109 0.715247
Si Si3 0.626249 0.162421 0.468802
Si Si4 0.469157 0.199141 0.911495
Si Si5 0.339147 0.693655 0.092854
Si Si6 0.787785 0.186430 0.704216
Si Si7 0.255304 0.407766 0.041545
O O1 0.644152 0.500000 0.677844
O O2 0.772977 0.420166 0.378872
O O3 0.664944 0.369935 0.776590
O O4 0.655959 0.359675 0.521089
O O5 0.117285 0.500000 0.727997
O O6 0.157154 0.645710 0.559690
O O7 0.085545 0.623739 0.949625
O O8 0.534309 0.165702 0.669790
O O9 0.657257 0.246530 0.344711
O O10 0.667418 0.097592 0.282823
O O11 0.500000 0.228440 0.000000
O O12 0.425272 0.270360 0.921361
O O13 0.281988 0.768712 0.230132
O O14 0.317103 0.644815 0.999659
O O15 0.755573 0.125885 0.885472
O O16 0.280710 0.500000 0.990330
#
# Coordination Sequence:
#
# PCOD8081950 Si02
#       7
#     8   8   8   8   8   8   8
#     4  11  19  31  57  87 114 146 188 242 287 329
#     4  10  18  30  52  86 119 149 186 229 285 341
#     4  10  20  35  58  82 113 151 193 233 287 347
#     4  10  21  34  55  89 122 156 188 237 292 348
#     4  11  20  37  61  85 115 155 200 238 282 347
#     4  11  21  37  58  84 114 152 196 245 283 341
#     4  11  23  40  62  87 114 151 198 247 294 341
#
# _framework density 19.912317999999999
#
# number of rings (size 3 to 8) (size 9 to 14) (size 15 to 20)
#    0.000    1.429    4.286    5.143    0.000    3.143 
#    0.000    2.857    0.000   11.143    0.000    0.000 
#    0.000    0.000    0.000    0.000    0.000    0.000 
#
# Total GULP energy -346938.941222 kJ/mol
# GULP energy per Si atom -12390.676472 kJ/mol
# Density = 1.986700 g / cm^3
# Si number density = 19.912318 Si / 1000 Ang^3
#
#
#
# Elastic Constant Matrix: (Units=GPa)
#
#
# Indices 1 2 3 4 5 6 
#
# 1 31.6943 20.3200 3.5966 0.0000 -2.4022 0.0000
# 2 20.3200 117.0112 13.3400 0.0000 5.4340 0.0000
# 3 3.5966 13.3400 50.0188 0.0000 -2.8172 0.0000
# 4 0.0000 0.0000 0.0000 31.5555 0.0000 5.7150
# 5 -2.4022 5.4340 -2.8172 0.0000 29.1457 0.0000
# 6 0.0000 0.0000 0.0000 5.7150 0.0000 21.4851
#
#
#
# Elastic Compliance Matrix: (Units=1/GPa)
#
#
# Indices 1 2 3 4 5 6 
#
# 1 0.036021 -0.006370 -0.000661 0.000000 0.004093 0.000000
# 2 -0.006370 0.010044 -0.002369 0.000000 -0.002627 0.000000
# 3 -0.000661 -0.002369 0.020807 0.000000 0.002398 0.000000
# 4 0.000000 0.000000 0.000000 0.033294 0.000000 -0.008856
# 5 0.004093 -0.002627 0.002398 0.000000 0.035369 0.000000
# 6 0.000000 0.000000 0.000000 -0.008856 0.000000 0.048900
#
#
# Mechanical properties :
#
#
# Convention : Reuss Voigt Hill
#
# Bulk Modulus (GPa) = 20.80172 30.35973 25.58073
# Shear Modulus (GPa) = 22.80418 27.20177 25.00297
#
# Velocity S-wave (km/s) = 3.38780 3.70006 3.54736
# Velocity P-wave (km/s) = 5.07663 5.79083 5.44545
#
# Compressibility (1/GPa) = 0.04807294
#
# Stress axis : x y z
#
# Youngs Moduli (GPa) = 27.76190 99.55753 48.06121
#
# Poissons Ratio (x) = 0.63418 0.03175
# Poissons Ratio (y) = 0.17684 0.11385
# Poissons Ratio (z) = 0.01834 0.23583
#
# Static dielectric constant tensor:
#      x y z
#    x 3.450440 0.000000 -0.096660 
#    y 0.000000 3.871090 0.000000 
#    z -0.096660 0.000000 3.520960 
# 
# 
# High freq. dielectric constant tensor:
#      x y z
#    x 1.740650 0.000000 0.005700 
#    y 0.000000 1.789280 0.000000 
#    z 0.005700 0.000000 1.761980 
# 
# From -- ./inp_files/112601.got.cif
#   From: 2010.06.25/outbox.cif.g09.slc.cpg/sg12_57_cif.got.tgz:112601.got - 2010.06.28 00:19:55.
