data_PCOD8081731
_publ_section_title
;
Structure prediction by ZEFSAII (Michael W. Deem and Ramdas Pophale) SiO2 
 PCOD8081731
Probable space group: C 2/M
;
_chemical_formula_sum "Si O2"
_cell_formula_units_Z 56
_cell_length_a 20.281000
_cell_length_b 8.955176
_cell_length_c 17.181751
_cell_angle_alpha 90.000000
_cell_angle_beta 76.044563
_cell_angle_gamma 90.000000
_cell_volume 3028.440943
_symmetry_space_group_name_H-M "C 2/M"
_symmetry_group_IT_number 12
_symmetry_cell_setting 'monoclinic'
loop_
_space_group_symop_operation_xyz
x,y,z
-x,y,-z
-x,-y,-z
x,-y,z
1/2+x,1/2+y,z
1/2-x,1/2+y,-z
1/2-x,1/2-y,-z
1/2+x,1/2-y,z
loop_
_atom_site_type_symbol
_atom_site_label
_atom_site_fract_x
_atom_site_fract_y
_atom_site_fract_z
Si Si1 0.953082 0.823861 0.687939
Si Si2 0.222143 0.673962 0.649936
Si Si3 0.317010 0.828171 0.007652
Si Si4 0.261298 0.827150 0.178832
Si Si5 0.411435 0.828016 0.403202
Si Si6 0.860227 0.672673 0.588316
Si Si7 0.624907 0.824553 0.162392
O O1 0.895803 0.765068 0.645861
O O2 0.936946 0.761072 0.778584
O O3 0.027256 0.774121 0.641424
O O4 0.949420 0.000000 0.690146
O O5 0.237441 0.500000 0.631088
O O6 0.210084 0.710059 0.744281
O O7 0.155288 0.725296 0.623418
O O8 0.284077 0.768748 0.597849
O O9 0.377307 0.781241 0.930259
O O10 0.304263 0.000000 0.995672
O O11 0.250000 0.750000 0.000000
O O12 0.323514 0.796065 0.098844
O O13 0.196524 0.724644 0.179668
O O14 0.237902 0.000000 0.180128
O O15 0.401936 0.804427 0.497509
O O16 0.428385 0.000000 0.379370
O O17 0.858475 0.500000 0.613050
O O18 0.615167 0.000000 0.179101
#
# Coordination Sequence:
#
# PCOD8081731 Si02
#       7
#     8   8   8   8   8   8   8
#     4  12  24  37  55  78 105 139 181 227 270 316
#     4  10  20  35  57  82 111 142 174 214 261 314
#     4   8  15  26  44  73 106 136 168 208 256 307
#     4   9  16  29  50  78 109 138 170 211 257 310
#     4  10  23  40  55  77 108 143 178 217 266 317
#     4  11  22  37  58  80 106 138 177 222 266 317
#     4  10  18  30  50  76 106 139 174 215 262 314
#
# _framework density 18.491364000000001
#
# number of rings (size 3 to 8) (size 9 to 14) (size 15 to 20)
#    0.000    2.000    1.429    3.000    0.000    4.000 
#    0.000    0.000    0.000    0.857    0.000    6.000 
#    0.000    0.000    0.000    0.000    0.000    0.000 
#
# Total GULP energy -347037.264703 kJ/mol
# GULP energy per Si atom -12394.188025 kJ/mol
# Density = 1.844928 g / cm^3
# Si number density = 18.491364 Si / 1000 Ang^3
#
#
#
# Elastic Constant Matrix: (Units=GPa)
#
#
# Indices 1 2 3 4 5 6 
#
# 1 55.5656 31.9993 24.5595 0.0000 -13.6867 0.0000
# 2 31.9993 94.7100 53.2079 0.0000 -14.0458 0.0000
# 3 24.5595 53.2079 120.2903 0.0000 -19.4026 0.0000
# 4 0.0000 0.0000 0.0000 25.1873 0.0000 -6.3090
# 5 -13.6867 -14.0458 -19.4026 0.0000 12.5148 0.0000
# 6 0.0000 0.0000 0.0000 -6.3090 0.0000 26.0245
#
#
#
# Elastic Compliance Matrix: (Units=1/GPa)
#
#
# Indices 1 2 3 4 5 6 
#
# 1 0.027062 -0.006159 0.001144 0.000000 0.024457 0.000000
# 2 -0.006159 0.016109 -0.005385 0.000000 0.002995 0.000000
# 3 0.001144 -0.005385 0.012919 0.000000 0.015237 0.000000
# 4 0.000000 0.000000 0.000000 0.042269 0.000000 0.010247
# 5 0.024457 0.002995 0.015237 0.000000 0.133637 0.000000
# 6 0.000000 0.000000 0.000000 0.010247 0.000000 0.040910
#
#
# Mechanical properties :
#
#
# Convention : Reuss Voigt Hill
#
# Bulk Modulus (GPa) = 28.33607 54.45546 41.39576
# Shear Modulus (GPa) = 16.36824 23.46528 19.91676
#
# Velocity S-wave (km/s) = 2.97843 3.56615 3.28546
# Velocity P-wave (km/s) = 5.21395 6.81686 6.06856
#
# Compressibility (1/GPa) = 0.03529071
#
# Stress axis : x y z
#
# Youngs Moduli (GPa) = 36.95189 62.07768 77.40413
#
# Poissons Ratio (x) = 0.38233 -0.08855
# Poissons Ratio (y) = 0.22758 0.41680
# Poissons Ratio (z) = -0.04227 0.33427
#
# Static dielectric constant tensor:
#      x y z
#    x 3.053640 0.000000 0.028490 
#    y 0.000000 3.399280 0.000000 
#    z 0.028490 0.000000 4.172300 
# 
# 
# High freq. dielectric constant tensor:
#      x y z
#    x 1.670240 0.000000 -0.001790 
#    y 0.000000 1.720120 0.000000 
#    z -0.001790 0.000000 1.747920 
# 
# From -- ./inp_files/281038.got.cif
#   From: 2010.06.25/outbox.cif.g09.slc.cpg/sg12_141_cif.got.tgz:281038.got - 2010.06.28 00:19:55.
