data_PCOD8081879
_publ_section_title
;
Structure prediction by ZEFSAII (Michael W. Deem and Ramdas Pophale) SiO2 
 PCOD8081879
Probable space group: C 2/M
;
_chemical_formula_sum "Si O2"
_cell_formula_units_Z 48
_cell_length_a 15.371385
_cell_length_b 8.634878
_cell_length_c 28.057645
_cell_angle_alpha 90.000000
_cell_angle_beta 37.723438
_cell_angle_gamma 90.000000
_cell_volume 2278.588239
_symmetry_space_group_name_H-M "C 2/M"
_symmetry_group_IT_number 12
_symmetry_cell_setting 'monoclinic'
loop_
_space_group_symop_operation_xyz
x,y,z
-x,y,-z
-x,-y,-z
x,-y,z
1/2+x,1/2+y,z
1/2-x,1/2+y,-z
1/2-x,1/2-y,-z
1/2+x,1/2-y,z
loop_
_atom_site_type_symbol
_atom_site_label
_atom_site_fract_x
_atom_site_fract_y
_atom_site_fract_z
Si Si1 0.147626 0.677572 0.802239
Si Si2 0.075492 0.681327 0.350955
Si Si3 0.335956 0.683250 0.507314
Si Si4 0.933084 0.677578 0.816866
Si Si5 0.595369 0.318392 0.662152
Si Si6 0.644224 0.816751 0.912402
O O1 0.198713 0.500000 0.780427
O O2 0.259239 0.774399 0.722366
O O3 0.139995 0.740537 0.859495
O O4 0.992793 0.694339 0.844853
O O5 0.057183 0.500000 0.365201
O O6 0.999236 0.762503 0.429787
O O7 0.006023 0.735436 0.331788
O O8 0.328281 0.500000 0.513031
O O9 0.250000 0.750000 0.500000
O O10 0.257902 0.754654 0.587662
O O11 0.939179 0.500000 0.796966
O O12 0.772278 0.736986 0.885293
O O13 0.034543 0.781612 0.740169
O O14 0.593089 0.500000 0.653288
O O15 0.663581 0.000000 0.907182
O O16 0.500000 0.761959 0.000000
#
# Coordination Sequence:
#
# PCOD8081879 Si02
#       6
#     8   8   8   8   8   8
#     4  10  22  40  61  88 125 163 199 247 304 359
#     4  11  20  33  56  86 119 158 206 252 298 356
#     4  10  18  30  51  81 117 158 204 251 300 353
#     4  11  23  39  61  91 123 160 204 250 300 357
#     4  11  20  34  56  83 119 160 203 253 305 354
#     4  10  22  42  67  92 121 160 200 243 301 366
#
# _framework density 21.065676
#
# number of rings (size 3 to 8) (size 9 to 14) (size 15 to 20)
#    0.000    1.500    1.667    7.000    0.000    2.333 
#    0.000    0.833    0.000    5.000    0.000    0.000 
#    0.000    0.000    0.000    0.000    0.000    0.000 
#
# Total GULP energy -297612.811196 kJ/mol
# GULP energy per Si atom -12400.533800 kJ/mol
# Density = 2.101773 g / cm^3
# Si number density = 21.065676 Si / 1000 Ang^3
#
#
#
# Elastic Constant Matrix: (Units=GPa)
#
#
# Indices 1 2 3 4 5 6 
#
# 1 85.4353 17.5446 42.3250 0.0000 -24.6565 0.0002
# 2 17.5446 101.2018 41.8753 0.0000 -15.9809 0.0002
# 3 42.3250 41.8753 149.5092 0.0000 -27.8202 0.0000
# 4 0.0000 0.0000 0.0000 32.1562 0.0000 -6.8068
# 5 -24.6565 -15.9809 -27.8202 0.0000 15.3102 0.0000
# 6 0.0002 0.0002 0.0000 -6.8068 0.0000 22.9394
#
#
#
# Elastic Compliance Matrix: (Units=1/GPa)
#
#
# Indices 1 2 3 4 5 6 
#
# 1 0.022263 0.002115 0.000283 0.000000 0.038576 0.000000
# 2 0.002115 0.012270 -0.001539 0.000000 0.013418 0.000000
# 3 0.000283 -0.001539 0.010312 0.000000 0.017588 0.000000
# 4 0.000000 0.000000 0.000000 0.033182 0.000000 0.009846
# 5 0.038576 0.013418 0.017588 0.000000 0.173406 0.000000
# 6 0.000000 0.000000 0.000000 0.009846 0.000000 0.046515
#
#
# Mechanical properties :
#
#
# Convention : Reuss Voigt Hill
#
# Bulk Modulus (GPa) = 21.47577 59.95959 40.71768
# Shear Modulus (GPa) = 16.03843 29.70793 22.87318
#
# Velocity S-wave (km/s) = 2.76226 3.75941 3.29873
# Velocity P-wave (km/s) = 4.51555 6.88252 5.82063
#
# Compressibility (1/GPa) = 0.04656410
#
# Stress axis : x y z
#
# Youngs Moduli (GPa) = 44.91725 81.49917 96.97370
#
# Poissons Ratio (x) = -0.17236 -0.02747
# Poissons Ratio (y) = -0.09499 0.14921
# Poissons Ratio (z) = -0.01272 0.12540
#
# Static dielectric constant tensor:
#      x y z
#    x 3.588900 0.000000 -0.091120 
#    y 0.000000 3.781490 0.000000 
#    z -0.091120 0.000000 4.227700 
# 
# 
# High freq. dielectric constant tensor:
#      x y z
#    x 1.805400 0.000000 -0.008320 
#    y 0.000000 1.829150 0.000000 
#    z -0.008320 0.000000 1.829700 
# 
# From -- ./inp_files/360241.got.cif
#   From: 2010.06.25/outbox.cif.g09.slc.cpg/sg12_181_cif.got.tgz:360241.got - 2010.06.28 00:19:55.
