data_PCOD8081907
_publ_section_title
;
Structure prediction by ZEFSAII (Michael W. Deem and Ramdas Pophale) SiO2 
 PCOD8081907
Probable space group: C 2/M
;
_chemical_formula_sum "Si O2"
_cell_formula_units_Z 56
_cell_length_a 20.656494
_cell_length_b 7.726020
_cell_length_c 18.491970
_cell_angle_alpha 90.000000
_cell_angle_beta 90.498828
_cell_angle_gamma 90.000000
_cell_volume 2951.067613
_symmetry_space_group_name_H-M "C 2/M"
_symmetry_group_IT_number 12
_symmetry_cell_setting 'monoclinic'
loop_
_space_group_symop_operation_xyz
x,y,z
-x,y,-z
-x,-y,-z
x,-y,z
1/2+x,1/2+y,z
1/2-x,1/2+y,-z
1/2-x,1/2-y,-z
1/2+x,1/2-y,z
loop_
_atom_site_type_symbol
_atom_site_label
_atom_site_fract_x
_atom_site_fract_y
_atom_site_fract_z
Si Si1 0.576472 0.500000 0.420201
Si Si2 0.006899 0.796727 0.082648
Si Si3 0.576873 0.500000 0.580984
Si Si4 0.924659 0.694069 0.316877
Si Si5 0.380538 0.294346 0.164982
Si Si6 0.424569 0.202324 0.686011
Si Si7 0.246864 0.795853 0.916180
Si Si8 0.130873 0.303918 0.165375
O O1 0.607395 0.500000 0.500774
O O2 0.499789 0.500000 0.425433
O O3 0.598978 0.324112 0.379972
O O4 0.943644 0.728929 0.123279
O O5 0.069385 0.700949 0.112906
O O6 0.016947 0.000000 0.093013
O O7 0.000000 0.743400 0.000000
O O8 0.600539 0.327943 0.622935
O O9 0.916276 0.500000 0.347659
O O10 0.881160 0.715350 0.245095
O O11 0.999384 0.731287 0.297556
O O12 0.379525 0.500000 0.170321
O O13 0.318340 0.222495 0.121075
O O14 0.386556 0.274067 0.756179
O O15 0.410411 0.000000 0.668050
O O16 0.308028 0.712111 0.873522
O O17 0.248467 0.000000 0.909007
O O18 0.250000 0.750000 0.000000
O O19 0.150199 0.500000 0.180070
#
# Coordination Sequence:
#
# PCOD8081907 Si02
#       8
#     4   8   4   8   8   8   8   8
#     4   9  18  30  52  78 112 150 170 207 278 329
#     4  10  20  31  49  75  99 134 180 222 270 322
#     4   9  18  32  48  80 116 142 174 213 268 331
#     4  10  18  30  52  78 107 142 178 221 267 319
#     4  10  19  33  52  72 104 142 182 228 272 321
#     4   9  18  31  50  79 109 138 179 224 263 321
#     4  10  22  38  53  72 105 143 180 230 281 320
#     4  10  20  34  51  73 103 138 177 223 274 322
#
# _framework density 18.976184
#
# number of rings (size 3 to 8) (size 9 to 14) (size 15 to 20)
#    0.000    2.286    2.143    0.857    1.000    3.143 
#    0.000    2.857    0.000    0.000    0.000    1.000 
#    0.000    0.000    0.000    0.000    0.000    0.000 
#
# Total GULP energy -347132.007465 kJ/mol
# GULP energy per Si atom -12397.571695 kJ/mol
# Density = 1.893299 g / cm^3
# Si number density = 18.976184 Si / 1000 Ang^3
#
#
#
# Elastic Constant Matrix: (Units=GPa)
#
#
# Indices 1 2 3 4 5 6 
#
# 1 97.8226 19.9150 49.8274 0.0000 -0.8123 0.0000
# 2 19.9150 70.7732 50.5448 0.0000 0.0785 0.0000
# 3 49.8274 50.5448 170.8378 0.0000 -0.6648 0.0000
# 4 0.0000 0.0000 0.0000 23.3084 0.0000 0.8671
# 5 -0.8123 0.0785 -0.6648 0.0000 21.3604 0.0000
# 6 0.0000 0.0000 0.0000 0.8671 0.0000 12.8017
#
#
#
# Elastic Compliance Matrix: (Units=1/GPa)
#
#
# Indices 1 2 3 4 5 6 
#
# 1 0.012079 -0.001121 -0.003190 0.000000 0.000364 0.000000
# 2 -0.001121 0.018020 -0.005006 0.000000 -0.000265 0.000000
# 3 -0.003190 -0.005006 0.008265 0.000000 0.000154 0.000000
# 4 0.000000 0.000000 0.000000 0.043011 0.000000 -0.002913
# 5 0.000364 -0.000265 0.000154 0.000000 0.046835 0.000000
# 6 0.000000 0.000000 0.000000 -0.002913 0.000000 0.078312
#
#
# Mechanical properties :
#
#
# Convention : Reuss Voigt Hill
#
# Bulk Modulus (GPa) = 50.68091 64.44534 57.56313
# Shear Modulus (GPa) = 21.57653 26.10386 23.84020
#
# Velocity S-wave (km/s) = 3.37565 3.71295 3.54831
# Velocity P-wave (km/s) = 6.47757 7.23990 6.86932
#
# Compressibility (1/GPa) = 0.01973129
#
# Stress axis : x y z
#
# Youngs Moduli (GPa) = 82.79089 55.49299 120.98592
#
# Poissons Ratio (x) = 0.06222 0.38592
# Poissons Ratio (y) = 0.09282 0.60561
# Poissons Ratio (z) = 0.26409 0.27777
#
# Static dielectric constant tensor:
#      x y z
#    x 3.456890 0.000000 -0.125770 
#    y 0.000000 3.425090 0.000000 
#    z -0.125770 0.000000 3.654320 
# 
# 
# High freq. dielectric constant tensor:
#      x y z
#    x 1.702640 0.000000 -0.003090 
#    y 0.000000 1.735530 0.000000 
#    z -0.003090 0.000000 1.736290 
# 
# From -- ./inp_files/231123.got.cif
#   From: 2010.06.25/outbox.cif.g09.slc.cpg/sg12_116_cif.got.tgz:231123.got - 2010.06.28 00:19:55.
