data_PCOD8081410
_publ_section_title
;
Structure prediction by ZEFSAII (Michael W. Deem and Ramdas Pophale) SiO2 
 PCOD8081410
Probable space group: C 2/M
;
_chemical_formula_sum "Si O2"
_cell_formula_units_Z 56
_cell_length_a 29.927041
_cell_length_b 8.577201
_cell_length_c 19.077114
_cell_angle_alpha 90.000000
_cell_angle_beta 37.920421
_cell_angle_gamma 90.000000
_cell_volume 3009.475795
_symmetry_space_group_name_H-M "C 2/M"
_symmetry_group_IT_number 12
_symmetry_cell_setting 'monoclinic'
loop_
_space_group_symop_operation_xyz
x,y,z
-x,y,-z
-x,-y,-z
x,-y,z
1/2+x,1/2+y,z
1/2-x,1/2+y,-z
1/2-x,1/2-y,-z
1/2+x,1/2-y,z
loop_
_atom_site_type_symbol
_atom_site_label
_atom_site_fract_x
_atom_site_fract_y
_atom_site_fract_z
Si Si1 0.316355 0.182381 0.614422
Si Si2 0.529285 0.316286 0.538134
Si Si3 0.001968 0.680623 0.709534
Si Si4 0.048667 0.680475 0.083153
Si Si5 0.847533 0.181042 0.435858
Si Si6 0.670441 0.815212 0.830588
Si Si7 0.111220 0.683928 0.753337
O O1 0.386918 0.268938 0.557220
O O2 0.299174 0.233639 0.555195
O O3 0.247713 0.232160 0.746507
O O4 0.330100 0.000000 0.602057
O O5 0.500000 0.255970 0.500000
O O6 0.520916 0.500000 0.555515
O O7 0.478230 0.235121 0.661244
O O8 0.026809 0.500000 0.677906
O O9 0.069211 0.789094 0.646740
O O10 0.940726 0.705344 0.845673
O O11 0.047755 0.500000 0.063827
O O12 0.970878 0.750359 0.155143
O O13 0.116328 0.753708 0.957265
O O14 0.834641 0.246377 0.373213
O O15 0.827975 0.000000 0.462293
O O16 0.637657 0.764363 0.796611
O O17 0.681364 0.000000 0.822387
O O18 0.111942 0.500000 0.742200
#
# Coordination Sequence:
#
# PCOD8081410 Si02
#       7
#     8   8   8   8   8   8   8
#     4  11  22  35  50  71 101 131 162 200 245 298
#     4  10  20  35  57  82 103 123 152 193 242 297
#     4   9  16  29  51  77 102 127 159 198 240 288
#     4   8  15  29  50  74  98 130 171 207 240 283
#     4  10  18  30  48  68  95 130 166 206 250 293
#     4  10  19  32  50  70  98 135 171 207 245 288
#     4   9  17  30  49  72  96 128 172 215 250 284
#
# _framework density 18.607890999999999
#
# number of rings (size 3 to 8) (size 9 to 14) (size 15 to 20)
#    0.000    2.429    0.000    6.429    0.000    4.000 
#    0.000    3.571    0.000    5.143    0.000    0.000 
#    0.000    0.000    0.000    0.000    0.000    0.000 
#
# Total GULP energy -347034.170902 kJ/mol
# GULP energy per Si atom -12394.077532 kJ/mol
# Density = 1.856554 g / cm^3
# Si number density = 18.607891 Si / 1000 Ang^3
#
#
#
# Elastic Constant Matrix: (Units=GPa)
#
#
# Indices 1 2 3 4 5 6 
#
# 1 79.6606 15.1219 44.8211 0.0031 22.5037 -0.0002
# 2 15.1219 39.5196 14.1356 -0.0475 6.3411 0.0145
# 3 44.8211 14.1356 125.2356 -0.0039 11.3415 0.0083
# 4 0.0031 -0.0475 -0.0039 23.6883 0.0113 4.5367
# 5 22.5037 6.3411 11.3415 0.0113 25.6289 0.0012
# 6 -0.0002 0.0145 0.0083 4.5367 0.0012 20.2936
#
#
#
# Elastic Compliance Matrix: (Units=1/GPa)
#
#
# Indices 1 2 3 4 5 6 
#
# 1 0.020523 -0.003488 -0.005623 -0.000005 -0.014669 0.000007
# 2 -0.003488 0.027706 -0.001600 0.000064 -0.003084 -0.000033
# 3 -0.005623 -0.001600 0.010100 -0.000001 0.000864 -0.000003
# 4 -0.000005 0.000064 -0.000001 0.044103 -0.000030 -0.009859
# 5 -0.014669 -0.003084 0.000864 -0.000030 0.052280 0.000005
# 6 0.000007 -0.000033 -0.000003 -0.009859 0.000005 0.051481
#
#
# Mechanical properties :
#
#
# Convention : Reuss Voigt Hill
#
# Bulk Modulus (GPa) = 27.09474 43.61923 35.35699
# Shear Modulus (GPa) = 20.84061 25.27796 23.05928
#
# Velocity S-wave (km/s) = 3.35025 3.68972 3.52408
# Velocity P-wave (km/s) = 5.43673 6.45323 5.96667
#
# Compressibility (1/GPa) = 0.03690753
#
# Stress axis : x y z
#
# Youngs Moduli (GPa) = 48.72551 36.09362 99.01290
#
# Poissons Ratio (x) = 0.12590 0.55674
# Poissons Ratio (y) = 0.16996 0.15837
# Poissons Ratio (z) = 0.27398 0.05773
#
# Static dielectric constant tensor:
#      x y z
#    x 3.292110 -0.000030 0.331600 
#    y -0.000030 3.222170 0.000050 
#    z 0.331600 0.000050 3.835180 
# 
# 
# High freq. dielectric constant tensor:
#      x y z
#    x 1.685710 0.000000 0.019800 
#    y 0.000000 1.708880 0.000000 
#    z 0.019800 0.000000 1.728870 
# 
# From -- ./inp_files/295052.got.cif
#   From: 2010.06.25/outbox.cif.g09.slc.cpg/sg12_148_cif.got.tgz:295052.got - 2010.06.28 00:19:55.
