data_PCOD8081856
_publ_section_title
;
Structure prediction by ZEFSAII (Michael W. Deem and Ramdas Pophale) SiO2 
 PCOD8081856
Probable space group: C 2/M
;
_chemical_formula_sum "Si O2"
_cell_formula_units_Z 56
_cell_length_a 30.317172
_cell_length_b 9.002887
_cell_length_c 11.651778
_cell_angle_alpha 90.000000
_cell_angle_beta 63.979097
_cell_angle_gamma 90.000000
_cell_volume 2857.890351
_symmetry_space_group_name_H-M "C 2/M"
_symmetry_group_IT_number 12
_symmetry_cell_setting 'monoclinic'
loop_
_space_group_symop_operation_xyz
x,y,z
-x,y,-z
-x,-y,-z
x,-y,z
1/2+x,1/2+y,z
1/2-x,1/2+y,-z
1/2-x,1/2-y,-z
1/2+x,1/2-y,z
loop_
_atom_site_type_symbol
_atom_site_label
_atom_site_fract_x
_atom_site_fract_y
_atom_site_fract_z
Si Si1 0.733278 0.326616 0.191315
Si Si2 0.706590 0.675788 0.478864
Si Si3 0.582185 0.827737 0.166000
Si Si4 0.511769 0.823932 0.861860
Si Si5 0.553933 0.172749 0.449207
Si Si6 0.105392 0.676720 0.617081
Si Si7 0.320354 0.325939 0.977975
O O1 0.745294 0.500000 0.172315
O O2 0.710936 0.280999 0.339499
O O3 0.695819 0.280489 0.132747
O O4 0.784076 0.240555 0.114514
O O5 0.708179 0.500000 0.495247
O O6 0.750000 0.750000 0.500000
O O7 0.655959 0.740449 0.586492
O O8 0.530179 0.768475 0.177875
O O9 0.584304 0.799091 0.299353
O O10 0.625959 0.737886 0.057328
O O11 0.589402 0.000000 0.127765
O O12 0.565637 0.774330 0.758359
O O13 0.510416 0.000000 0.867796
O O14 0.500000 0.755378 0.000000
O O15 0.500000 0.247450 0.500000
O O16 0.584970 0.238683 0.518949
O O17 0.545755 0.000000 0.485607
O O18 0.114439 0.500000 0.605955
O O19 0.321418 0.500000 0.993559
#
# Coordination Sequence:
#
# PCOD8081856 Si02
#       7
#     8   8   8   8   8   8   8
#     4   9  20  39  58  78 108 145 184 228 278 335
#     4  11  24  41  60  82 111 147 190 235 283 337
#     4  10  18  30  51  78 108 143 182 222 268 322
#     4   9  18  32  51  76 106 141 180 218 259 318
#     4   9  15  27  51  81 108 139 184 232 268 312
#     4  10  19  34  57  82 109 142 183 231 279 323
#     4  10  20  34  56  84 113 142 178 227 283 336
#
# _framework density 19.594873
#
# number of rings (size 3 to 8) (size 9 to 14) (size 15 to 20)
#    0.000    2.286    1.429    1.714    0.000    2.857 
#    0.000    3.571    0.000    1.714    0.000    0.000 
#    0.000    0.000    0.000    0.000    0.000    0.000 
#
# Total GULP energy -347201.288331 kJ/mol
# GULP energy per Si atom -12400.046012 kJ/mol
# Density = 1.955027 g / cm^3
# Si number density = 19.594873 Si / 1000 Ang^3
#
#
#
# Elastic Constant Matrix: (Units=GPa)
#
#
# Indices 1 2 3 4 5 6 
#
# 1 136.8649 38.0413 61.0754 0.0000 -25.7264 0.0000
# 2 38.0413 45.5464 37.7330 0.0000 -12.4641 0.0000
# 3 61.0754 37.7330 118.9649 0.0000 -12.4877 0.0000
# 4 0.0000 0.0000 0.0000 21.3043 0.0000 -5.6022
# 5 -25.7264 -12.4641 -12.4877 0.0000 37.6360 0.0000
# 6 0.0000 0.0000 0.0000 -5.6022 0.0000 26.2414
#
#
#
# Elastic Compliance Matrix: (Units=1/GPa)
#
#
# Indices 1 2 3 4 5 6 
#
# 1 0.011248 -0.005038 -0.003673 0.000000 0.004802 0.000000
# 2 -0.005038 0.033914 -0.007618 0.000000 0.005260 0.000000
# 3 -0.003673 -0.007618 0.012619 0.000000 -0.000847 0.000000
# 4 0.000000 0.000000 0.000000 0.049731 0.000000 0.010617
# 5 0.004802 0.005260 -0.000847 0.000000 0.031314 0.000000
# 6 0.000000 0.000000 0.000000 0.010617 0.000000 0.040374
#
#
# Mechanical properties :
#
#
# Convention : Reuss Voigt Hill
#
# Bulk Modulus (GPa) = 39.80360 63.89728 51.85044
# Shear Modulus (GPa) = 22.70325 28.00477 25.35401
#
# Velocity S-wave (km/s) = 3.40756 3.78456 3.60100
# Velocity P-wave (km/s) = 5.98660 7.19564 6.61878
#
# Compressibility (1/GPa) = 0.02512336
#
# Stress axis : x y z
#
# Youngs Moduli (GPa) = 88.90187 29.48609 79.24639
#
# Poissons Ratio (x) = 0.14855 0.29105
# Poissons Ratio (y) = 0.44790 0.60372
# Poissons Ratio (z) = 0.32652 0.22463
#
# Static dielectric constant tensor:
#      x y z
#    x 3.631980 0.000000 0.018570 
#    y 0.000000 3.157400 0.000000 
#    z 0.018570 0.000000 3.717980 
# 
# 
# High freq. dielectric constant tensor:
#      x y z
#    x 1.769260 0.000000 -0.008430 
#    y 0.000000 1.722790 0.000000 
#    z -0.008430 0.000000 1.767750 
# 
# From -- ./inp_files/186366.got.cif
#   From: 2010.06.25/outbox.cif.g09.slc.cpg/sg12_94_cif.got.tgz:186366.got - 2010.06.28 00:19:55.
