data_PCOD8081707
_publ_section_title
;
Structure prediction by ZEFSAII (Michael W. Deem and Ramdas Pophale) SiO2 
 PCOD8081707
Probable space group: C 2/M
;
_chemical_formula_sum "Si O2"
_cell_formula_units_Z 56
_cell_length_a 19.287775
_cell_length_b 9.111312
_cell_length_c 31.040878
_cell_angle_alpha 90.000000
_cell_angle_beta 145.211127
_cell_angle_gamma 90.000000
_cell_volume 3112.388970
_symmetry_space_group_name_H-M "C 2/M"
_symmetry_group_IT_number 12
_symmetry_cell_setting 'monoclinic'
loop_
_space_group_symop_operation_xyz
x,y,z
-x,y,-z
-x,-y,-z
x,-y,z
1/2+x,1/2+y,z
1/2-x,1/2+y,-z
1/2-x,1/2-y,-z
1/2+x,1/2-y,z
loop_
_atom_site_type_symbol
_atom_site_label
_atom_site_fract_x
_atom_site_fract_y
_atom_site_fract_z
Si Si1 0.605869 0.169836 0.691057
Si Si2 0.835895 0.670199 0.183839
Si Si3 0.064425 0.329342 0.897005
Si Si4 0.078482 0.167328 0.294768
Si Si5 0.360374 0.670403 0.578838
Si Si6 0.168206 0.168664 0.248498
Si Si7 0.259868 0.169954 0.938942
O O1 0.675156 0.205439 0.771210
O O2 0.486708 0.267806 0.624862
O O3 0.697318 0.210162 0.699158
O O4 0.565679 0.000000 0.669539
O O5 0.821893 0.500000 0.166694
O O6 0.730776 0.755784 0.103598
O O7 0.966180 0.723269 0.232849
O O8 0.067828 0.500000 0.886274
O O9 0.146379 0.241458 0.905410
O O10 0.927990 0.269437 0.825639
O O11 0.115387 0.304236 0.971395
O O12 0.151296 0.199634 0.375905
O O13 0.166715 0.195119 0.299178
O O14 0.029487 0.000000 0.270212
O O15 0.354501 0.500000 0.564449
O O16 0.250000 0.750000 0.500000
O O17 0.138694 0.000000 0.221853
O O18 0.230049 0.000000 0.918272
#
# Coordination Sequence:
#
# PCOD8081707 Si02
#       7
#     8   8   8   8   8   8   8
#     4   9  20  36  54  78 107 138 170 208 257 310
#     4  10  18  30  50  75 101 132 175 220 257 301
#     4  10  20  31  47  73 102 134 174 221 265 303
#     4   9  18  32  53  78 101 132 173 211 252 304
#     4  10  20  36  58  82 106 134 169 209 253 304
#     4  10  19  34  54  76 105 138 171 211 261 311
#     4  10  19  31  47  70 101 136 176 219 263 308
#
# _framework density 17.992609999999999
#
# number of rings (size 3 to 8) (size 9 to 14) (size 15 to 20)
#    0.000    2.286    1.429    1.714    0.000    3.429 
#    0.000    1.429    0.000    8.571    0.000    0.000 
#    0.000    0.000    0.000    0.000    0.000    0.000 
#
# Total GULP energy -347203.943128 kJ/mol
# GULP energy per Si atom -12400.140826 kJ/mol
# Density = 1.795166 g / cm^3
# Si number density = 17.992610 Si / 1000 Ang^3
#
#
#
# Elastic Constant Matrix: (Units=GPa)
#
#
# Indices 1 2 3 4 5 6 
#
# 1 104.3545 38.8186 43.6404 0.0000 -0.1912 0.0000
# 2 38.8186 99.6014 58.0076 0.0001 -0.2517 -0.0002
# 3 43.6404 58.0076 111.8696 0.0000 -5.0555 0.0000
# 4 0.0000 0.0001 0.0000 35.6647 0.0000 -0.4487
# 5 -0.1912 -0.2517 -5.0555 0.0000 18.6680 0.0000
# 6 0.0000 -0.0002 0.0000 -0.4487 0.0000 22.6430
#
#
#
# Elastic Compliance Matrix: (Units=1/GPa)
#
#
# Indices 1 2 3 4 5 6 
#
# 1 0.011979 -0.002762 -0.003277 0.000000 -0.000802 0.000000
# 2 -0.002762 0.015084 -0.006819 0.000000 -0.001672 0.000000
# 3 -0.003277 -0.006819 0.013918 0.000000 0.003644 0.000000
# 4 0.000000 0.000000 0.000000 0.028046 0.000000 0.000556
# 5 -0.000802 -0.001672 0.003644 0.000000 0.054524 0.000000
# 6 0.000000 0.000000 0.000000 0.000556 0.000000 0.044175
#
#
# Mechanical properties :
#
#
# Convention : Reuss Voigt Hill
#
# Bulk Modulus (GPa) = 65.51455 66.30652 65.91054
# Shear Modulus (GPa) = 25.18499 27.08574 26.13537
#
# Velocity S-wave (km/s) = 3.74537 3.88413 3.81538
# Velocity P-wave (km/s) = 7.42931 7.55297 7.49140
#
# Compressibility (1/GPa) = 0.01526378
#
# Stress axis : x y z
#
# Youngs Moduli (GPa) = 83.47795 66.29539 71.84884
#
# Poissons Ratio (x) = 0.18313 0.23545
# Poissons Ratio (y) = 0.23059 0.48997
# Poissons Ratio (z) = 0.27356 0.45210
#
# Static dielectric constant tensor:
#      x y z
#    x 3.261020 0.000000 -0.265030 
#    y 0.000000 3.443830 0.000000 
#    z -0.265030 0.000000 3.328320 
# 
# 
# High freq. dielectric constant tensor:
#      x y z
#    x 1.676510 0.000000 -0.019490 
#    y 0.000000 1.706760 0.000000 
#    z -0.019490 0.000000 1.688030 
# 
# From -- ./inp_files/314459.got.cif
#   From: 2010.06.25/outbox.cif.g09.slc.cpg/sg12_158_cif.got.tgz:314459.got - 2010.06.28 00:19:55.
