data_PCOD8081335
_publ_section_title
;
Structure prediction by ZEFSAII (Michael W. Deem and Ramdas Pophale) SiO2 
 PCOD8081335
Probable space group: C 2/M
;
_chemical_formula_sum "Si O2"
_cell_formula_units_Z 56
_cell_length_a 28.519485
_cell_length_b 8.836768
_cell_length_c 17.266202
_cell_angle_alpha 90.000000
_cell_angle_beta 50.720260
_cell_angle_gamma 90.000000
_cell_volume 3368.285461
_symmetry_space_group_name_H-M "C 2/M"
_symmetry_group_IT_number 12
_symmetry_cell_setting 'monoclinic'
loop_
_space_group_symop_operation_xyz
x,y,z
-x,y,-z
-x,-y,-z
x,-y,z
1/2+x,1/2+y,z
1/2-x,1/2+y,-z
1/2-x,1/2-y,-z
1/2+x,1/2-y,z
loop_
_atom_site_type_symbol
_atom_site_label
_atom_site_fract_x
_atom_site_fract_y
_atom_site_fract_z
Si Si1 0.163645 0.673700 0.067358
Si Si2 0.398028 0.672601 0.085631
Si Si3 0.923398 0.828710 0.233519
Si Si4 0.786746 0.820418 0.391897
Si Si5 0.236946 0.324451 0.136639
Si Si6 0.726299 0.177200 0.755372
Si Si7 0.041368 0.674140 0.117713
O O1 0.181694 0.500000 0.030238
O O2 0.181103 0.713979 0.137588
O O3 0.091928 0.700570 0.131208
O O4 0.199947 0.779541 0.970332
O O5 0.376666 0.500000 0.093374
O O6 0.431290 0.684081 0.132954
O O7 0.340250 0.781940 0.144028
O O8 0.444429 0.724835 0.971857
O O9 0.856816 0.769258 0.327202
O O10 0.975740 0.726964 0.218479
O O11 0.931940 0.000000 0.253272
O O12 0.750000 0.750000 0.500000
O O13 0.759058 0.760273 0.340464
O O14 0.781318 0.000000 0.397594
O O15 0.239686 0.500000 0.154705
O O16 0.227040 0.232206 0.226787
O O17 0.732694 0.000000 0.735335
O O18 0.038409 0.500000 0.095859
#
# Coordination Sequence:
#
# PCOD8081335 Si02
#       7
#     8   8   8   8   8   8   8
#     4   9  19  31  43  65  97 131 169 209 241 279
#     4  10  19  31  45  64  93 131 168 201 238 282
#     4   9  20  34  47  66  95 127 160 195 235 290
#     4  10  21  38  57  77  99 124 157 199 247 294
#     4  10  18  30  47  66  93 132 170 204 245 286
#     4  11  20  31  49  73 100 128 163 204 244 290
#     4  11  20  29  44  68  97 130 166 202 238 281
#
# _framework density 16.62567
#
# number of rings (size 3 to 8) (size 9 to 14) (size 15 to 20)
#    0.000    2.000    1.429    4.286    0.000    6.286 
#    0.000    0.000    0.000    0.000    0.000    1.000 
#    0.000    8.000    0.000    0.000    0.000    0.000 
#
# Total GULP energy -347192.757506 kJ/mol
# GULP energy per Si atom -12399.741339 kJ/mol
# Density = 1.658783 g / cm^3
# Si number density = 16.625670 Si / 1000 Ang^3
#
#
#
# Elastic Constant Matrix: (Units=GPa)
#
#
# Indices 1 2 3 4 5 6 
#
# 1 108.2504 45.4388 53.8899 0.0000 3.5904 -0.0003
# 2 45.4388 85.7433 37.5894 -0.0001 4.1952 -0.0008
# 3 53.8899 37.5894 87.4032 0.0000 4.6487 0.0000
# 4 0.0000 -0.0001 0.0000 25.3772 0.0001 1.0386
# 5 3.5904 4.1952 4.6487 0.0001 15.3768 -0.0001
# 6 -0.0003 -0.0008 0.0000 1.0386 -0.0001 26.4206
#
#
#
# Elastic Compliance Matrix: (Units=1/GPa)
#
#
# Indices 1 2 3 4 5 6 
#
# 1 0.014727 -0.004712 -0.007053 0.000000 -0.000021 0.000000
# 2 -0.004712 0.015946 -0.003842 0.000000 -0.002089 0.000000
# 3 -0.007053 -0.003842 0.017581 0.000000 -0.002620 0.000000
# 4 0.000000 0.000000 0.000000 0.039469 0.000000 -0.001552
# 5 -0.000021 -0.002089 -0.002620 0.000000 0.066400 0.000000
# 6 0.000000 0.000000 0.000000 -0.001552 0.000000 0.037910
#
#
# Mechanical properties :
#
#
# Convention : Reuss Voigt Hill
#
# Bulk Modulus (GPa) = 58.67804 61.69256 60.18530
# Shear Modulus (GPa) = 21.84096 23.06685 22.45390
#
# Velocity S-wave (km/s) = 3.62842 3.72885 3.67898
# Velocity P-wave (km/s) = 7.27490 7.46502 7.37057
#
# Compressibility (1/GPa) = 0.01704215
#
# Stress axis : x y z
#
# Youngs Moduli (GPa) = 67.90043 62.71161 56.87815
#
# Poissons Ratio (x) = 0.29547 0.40116
# Poissons Ratio (y) = 0.31992 0.21851
# Poissons Ratio (z) = 0.47890 0.24092
#
# Static dielectric constant tensor:
#      x y z
#    x 3.280530 0.000000 0.118820 
#    y 0.000000 3.186050 0.000000 
#    z 0.118820 0.000000 2.829520 
# 
# 
# High freq. dielectric constant tensor:
#      x y z
#    x 1.641450 0.000000 0.010360 
#    y 0.000000 1.653640 0.000000 
#    z 0.010360 0.000000 1.592170 
# 
# From -- ./inp_files/243609.got.cif
#   From: 2010.06.25/outbox.cif.g09.slc.cpg/sg12_122_cif.got.tgz:243609.got - 2010.06.28 00:19:55.
