data_PCOD8081699
_publ_section_title
;
Structure prediction by ZEFSAII (Michael W. Deem and Ramdas Pophale) SiO2 
 PCOD8081699
Probable space group: C 2/M
;
_chemical_formula_sum "Si O2"
_cell_formula_units_Z 56
_cell_length_a 18.414620
_cell_length_b 17.915525
_cell_length_c 16.340321
_cell_angle_alpha 90.000000
_cell_angle_beta 147.570306
_cell_angle_gamma 90.000000
_cell_volume 2890.891372
_symmetry_space_group_name_H-M "C 2/M"
_symmetry_group_IT_number 12
_symmetry_cell_setting 'monoclinic'
loop_
_space_group_symop_operation_xyz
x,y,z
-x,y,-z
-x,-y,-z
x,-y,z
1/2+x,1/2+y,z
1/2-x,1/2+y,-z
1/2-x,1/2-y,-z
1/2+x,1/2-y,z
loop_
_atom_site_type_symbol
_atom_site_label
_atom_site_fract_x
_atom_site_fract_y
_atom_site_fract_z
Si Si1 0.882122 0.585600 0.612771
Si Si2 0.497673 0.583123 0.369434
Si Si3 0.648794 0.150270 0.903668
Si Si4 0.059715 0.815598 0.830194
Si Si5 0.279609 0.290323 0.613791
Si Si6 0.805825 0.414670 0.879532
Si Si7 0.734246 0.141016 0.325781
O O1 0.841498 0.500000 0.560651
O O2 0.809011 0.633788 0.471457
O O3 0.842406 0.612741 0.665927
O O4 0.045120 0.595045 0.759165
O O5 0.512249 0.500000 0.346621
O O6 0.515268 0.642206 0.314111
O O7 0.356102 0.591363 0.280148
O O8 0.621815 0.599591 0.548349
O O9 0.601648 0.233810 0.840070
O O10 0.802215 0.139746 0.013630
O O11 0.643528 0.134632 0.996185
O O12 0.939415 0.809856 0.782060
O O13 0.250000 0.250000 0.500000
O O14 0.242549 0.231026 0.649691
O O15 0.855477 0.500000 0.937943
O O16 0.856098 0.381176 0.839994
#
# Coordination Sequence:
#
# PCOD8081699 Si02
#       7
#     8   8   8   8   8   8   8
#     4  11  20  32  51  76 101 128 166 217 264 293
#     4  10  18  30  50  74  99 130 170 213 250 294
#     4  10  20  33  49  69 100 138 168 207 245 305
#     4  10  18  34  51  67  96 132 175 213 251 287
#     4  10  18  33  51  72  95 133 175 218 247 294
#     4  10  21  32  45  72 108 143 171 195 241 310
#     4  11  19  31  48  71 105 140 168 205 246 301
#
# _framework density 19.371188
#
# number of rings (size 3 to 8) (size 9 to 14) (size 15 to 20)
#    0.000    1.714    5.714    2.143    0.000    2.286 
#    0.000    1.429    0.000    0.000    0.000    1.000 
#    0.000   24.000    0.000    1.286    0.000    0.286 
#
# Total GULP energy -346938.176489 kJ/mol
# GULP energy per Si atom -12390.649160 kJ/mol
# Density = 1.932710 g / cm^3
# Si number density = 19.371188 Si / 1000 Ang^3
#
#
#
# Elastic Constant Matrix: (Units=GPa)
#
#
# Indices 1 2 3 4 5 6 
#
# 1 22.1884 26.0349 11.0722 -0.0003 0.9963 -0.0003
# 2 26.0349 131.4890 36.9932 -0.0005 -12.0997 -0.0003
# 3 11.0722 36.9932 79.3431 -0.0013 17.1351 -0.0011
# 4 -0.0003 -0.0005 -0.0013 18.3924 -0.0007 5.8228
# 5 0.9963 -12.0997 17.1351 -0.0007 24.1517 -0.0005
# 6 -0.0003 -0.0003 -0.0011 5.8228 -0.0005 22.7862
#
#
#
# Elastic Compliance Matrix: (Units=1/GPa)
#
#
# Indices 1 2 3 4 5 6 
#
# 1 0.060519 -0.012489 -0.000865 0.000000 -0.008140 0.000000
# 2 -0.012489 0.013158 -0.007000 0.000000 0.012073 0.000000
# 3 -0.000865 -0.007000 0.019766 0.000000 -0.017494 0.000000
# 4 0.000000 0.000000 0.000000 0.059156 0.000001 -0.015117
# 5 -0.008140 0.012073 -0.017494 0.000001 0.060201 0.000000
# 6 0.000000 0.000000 0.000000 -0.015117 0.000000 0.047749
#
#
# Mechanical properties :
#
#
# Convention : Reuss Voigt Hill
#
# Bulk Modulus (GPa) = 18.96185 42.35790 30.65987
# Shear Modulus (GPa) = 15.68211 23.66074 19.67142
#
# Velocity S-wave (km/s) = 2.84836 3.49870 3.19015
# Velocity P-wave (km/s) = 4.54175 6.18346 5.42506
#
# Compressibility (1/GPa) = 0.05273747
#
# Stress axis : x y z
#
# Youngs Moduli (GPa) = 16.52365 75.99836 50.59254
#
# Poissons Ratio (x) = 0.94911 0.04375
# Poissons Ratio (y) = 0.20636 0.35412
# Poissons Ratio (z) = 0.01429 0.53195
#
# Static dielectric constant tensor:
#      x y z
#    x 3.226260 0.000000 0.413530 
#    y 0.000000 3.741910 0.000000 
#    z 0.413530 0.000000 3.740320 
# 
# 
# High freq. dielectric constant tensor:
#      x y z
#    x 1.698540 0.000000 0.039810 
#    y 0.000000 1.755490 0.000000 
#    z 0.039810 0.000000 1.761690 
# 
# From -- ./inp_files/285013.got.cif
#   From: 2010.06.25/outbox.cif.g09.slc.cpg/sg12_143_cif.got.tgz:285013.got - 2010.06.28 00:19:55.
