data_PCOD8081333
_publ_section_title
;
Structure prediction by ZEFSAII (Michael W. Deem and Ramdas Pophale) SiO2 
 PCOD8081333
Probable space group: C 2/M
;
_chemical_formula_sum "Si O2"
_cell_formula_units_Z 64
_cell_length_a 27.778107
_cell_length_b 9.140601
_cell_length_c 20.743314
_cell_angle_alpha 90.000000
_cell_angle_beta 43.838288
_cell_angle_gamma 90.000000
_cell_volume 3647.992309
_symmetry_space_group_name_H-M "C 2/M"
_symmetry_group_IT_number 12
_symmetry_cell_setting 'monoclinic'
loop_
_space_group_symop_operation_xyz
x,y,z
-x,y,-z
-x,-y,-z
x,-y,z
1/2+x,1/2+y,z
1/2-x,1/2+y,-z
1/2-x,1/2-y,-z
1/2+x,1/2-y,z
loop_
_atom_site_type_symbol
_atom_site_label
_atom_site_fract_x
_atom_site_fract_y
_atom_site_fract_z
Si Si1 0.853677 0.337522 0.482281
Si Si2 0.986553 0.339872 0.699336
Si Si3 0.439594 0.174154 0.607191
Si Si4 0.047454 0.172945 0.894160
Si Si5 0.013669 0.161369 0.788374
Si Si6 0.176937 0.833619 0.607834
Si Si7 0.167715 0.832889 0.368769
Si Si8 0.183774 0.331430 0.731063
O O1 0.824962 0.500000 0.527016
O O2 0.804212 0.265560 0.474064
O O3 0.857746 0.235276 0.539963
O O4 0.930931 0.352593 0.381762
O O5 0.953155 0.500000 0.738971
O O6 0.957423 0.267762 0.661720
O O7 0.966739 0.250906 0.782897
O O8 0.500000 0.225803 0.500000
O O9 0.366643 0.245645 0.657164
O O10 0.432961 0.000000 0.611941
O O11 0.007876 0.223277 0.866979
O O12 0.119449 0.259968 0.830697
O O13 0.064032 0.000000 0.875465
O O14 0.000000 0.216330 0.000000
O O15 0.093950 0.160987 0.691111
O O16 0.982097 0.000000 0.816915
O O17 0.204960 0.758608 0.646290
O O18 0.205469 0.000000 0.573237
O O19 0.251161 0.822000 0.283068
O O20 0.142487 0.000000 0.391234
O O21 0.167251 0.500000 0.728406
#
# Coordination Sequence:
#
# PCOD8081333 Si02
#       8
#     8   8   8   8   8   8   8   8
#     4  10  18  30  47  66  91 127 167 207 249 288
#     4   9  17  29  46  67  93 124 161 205 244 284
#     4  10  19  34  50  67  91 125 171 215 253 290
#     4   9  18  34  56  80 103 127 157 193 237 294
#     4   8  15  27  45  71  99 123 150 189 235 286
#     4   9  17  30  47  67  92 125 166 204 240 285
#     4  11  23  34  45  66  95 128 168 209 247 290
#     4  10  21  35  48  68  99 130 161 197 241 294
#
# _framework density 17.543897000000001
#
# number of rings (size 3 to 8) (size 9 to 14) (size 15 to 20)
#    0.000    2.500    1.250    2.250    0.000    7.000 
#    0.000    0.000    0.000    0.000    0.000    0.875 
#    0.000    0.000    0.000    0.000    0.000    0.000 
#
# Total GULP energy -396723.744654 kJ/mol
# GULP energy per Si atom -12397.617020 kJ/mol
# Density = 1.750397 g / cm^3
# Si number density = 17.543897 Si / 1000 Ang^3
#
#
#
# Elastic Constant Matrix: (Units=GPa)
#
#
# Indices 1 2 3 4 5 6 
#
# 1 126.9691 46.9145 31.9767 0.0061 20.2066 -0.0028
# 2 46.9145 82.0222 31.1034 0.0047 6.2362 0.0009
# 3 31.9767 31.1034 67.0124 0.0090 14.3091 -0.0068
# 4 0.0061 0.0047 0.0090 19.9532 -0.0119 5.2422
# 5 20.2066 6.2362 14.3091 -0.0119 20.6394 0.0082
# 6 -0.0028 0.0009 -0.0068 5.2422 0.0082 27.6370
#
#
#
# Elastic Compliance Matrix: (Units=1/GPa)
#
#
# Indices 1 2 3 4 5 6 
#
# 1 0.011626 -0.005571 -0.001046 -0.000009 -0.008974 0.000005
# 2 -0.005571 0.017467 -0.006440 0.000005 0.004641 -0.000005
# 3 -0.001046 -0.006440 0.020866 -0.000018 -0.011496 0.000012
# 4 -0.000009 0.000005 -0.000018 0.052746 0.000053 -0.010005
# 5 -0.008974 0.004641 -0.011496 0.000053 0.063805 -0.000033
# 6 0.000005 -0.000005 0.000012 -0.010005 -0.000033 0.038081
#
#
# Mechanical properties :
#
#
# Convention : Reuss Voigt Hill
#
# Bulk Modulus (GPa) = 41.93683 55.11031 48.52357
# Shear Modulus (GPa) = 20.95098 24.71320 22.83209
#
# Velocity S-wave (km/s) = 3.45947 3.75727 3.61144
# Velocity P-wave (km/s) = 6.31768 7.09252 6.71628
#
# Compressibility (1/GPa) = 0.02384539
#
# Stress axis : x y z
#
# Youngs Moduli (GPa) = 86.01522 57.24921 47.92593
#
# Poissons Ratio (x) = 0.31893 0.05012
# Poissons Ratio (y) = 0.47918 0.30865
# Poissons Ratio (z) = 0.08995 0.36870
#
# Static dielectric constant tensor:
#      x y z
#    x 3.346940 -0.000010 0.160980 
#    y -0.000010 3.513220 0.000010 
#    z 0.160980 0.000010 2.929050 
# 
# 
# High freq. dielectric constant tensor:
#      x y z
#    x 1.678820 0.000000 0.012360 
#    y 0.000000 1.686720 0.000000 
#    z 0.012360 0.000000 1.629160 
# 
# From -- ./inp_files/326846.got.cif
#   From: 2010.06.25/outbox.cif.g09.slc.cpg/sg12_164_cif.got.tgz:326846.got - 2010.06.28 00:19:55.
