data_PCOD8081294
_publ_section_title
;
Structure prediction by ZEFSAII (Michael W. Deem and Ramdas Pophale) SiO2 
 PCOD8081294
Probable space group: C 2/M
;
_chemical_formula_sum "Si O2"
_cell_formula_units_Z 64
_cell_length_a 21.616529
_cell_length_b 20.648550
_cell_length_c 12.131935
_cell_angle_alpha 90.000000
_cell_angle_beta 130.104656
_cell_angle_gamma 90.000000
_cell_volume 4141.833964
_symmetry_space_group_name_H-M "C 2/M"
_symmetry_group_IT_number 12
_symmetry_cell_setting 'monoclinic'
loop_
_space_group_symop_operation_xyz
x,y,z
-x,y,-z
-x,-y,-z
x,-y,z
1/2+x,1/2+y,z
1/2-x,1/2+y,-z
1/2-x,1/2-y,-z
1/2+x,1/2-y,z
loop_
_atom_site_type_symbol
_atom_site_label
_atom_site_fract_x
_atom_site_fract_y
_atom_site_fract_z
Si Si1 0.183947 0.575578 0.318781
Si Si2 0.702412 0.274719 0.280441
Si Si3 0.343028 0.835401 0.327801
Si Si4 0.542392 0.273932 0.442533
Si Si5 0.818144 0.167700 0.517585
Si Si6 0.409389 0.829996 0.938698
Si Si7 0.563184 0.830790 0.776720
Si Si8 0.083859 0.575650 0.421518
O O1 0.184571 0.500000 0.294396
O O2 0.276444 0.598934 0.443101
O O3 0.143308 0.610946 0.168706
O O4 0.133282 0.594271 0.368833
O O5 0.749749 0.315494 0.240929
O O6 0.761457 0.223085 0.403404
O O7 0.670904 0.323300 0.338809
O O8 0.625865 0.239230 0.138815
O O9 0.400894 0.782869 0.449137
O O10 0.360482 0.839874 0.217709
O O11 0.363302 0.902995 0.412067
O O12 0.500000 0.307275 0.500000
O O13 0.593156 0.328547 0.436195
O O14 0.477811 0.239862 0.286978
O O15 0.500000 0.836394 0.000000
O O16 0.403324 0.835779 0.062430
O O17 0.501666 0.888662 0.680290
O O18 0.066650 0.500000 0.410165
#
# Coordination Sequence:
#
# PCOD8081294 Si02
#       8
#     8   8   8   8   8   8   8   8
#     4  10  20  31  46  66  89 118 150 186 218 252
#     4   9  17  27  45  65  85 117 149 183 221 257
#     4   9  17  30  44  64  90 116 152 190 222 253
#     4   8  15  27  46  68  89 113 143 186 229 260
#     4   9  15  28  48  64  85 112 149 186 222 259
#     4  11  20  30  43  64  93 122 148 175 215 274
#     4  10  19  29  42  65  97 123 145 176 218 268
#     4  10  18  30  46  65  90 120 155 188 217 249
#
# _framework density 15.452092
#
# number of rings (size 3 to 8) (size 9 to 14) (size 15 to 20)
#    0.000    2.500    2.500    1.875    3.500    2.250 
#    0.000    0.000    0.000    0.375    0.000    0.000 
#    0.000    9.000    0.000    0.000    0.000    0.000 
#
# Total GULP energy -396735.676144 kJ/mol
# GULP energy per Si atom -12397.989879 kJ/mol
# Density = 1.541692 g / cm^3
# Si number density = 15.452092 Si / 1000 Ang^3
#
#
#
# Elastic Constant Matrix: (Units=GPa)
#
#
# Indices 1 2 3 4 5 6 
#
# 1 116.6406 43.9991 36.1972 0.0000 -15.9978 0.0000
# 2 43.9991 58.5282 39.5754 0.0000 0.5277 0.0000
# 3 36.1972 39.5754 69.8142 0.0000 -18.3427 0.0000
# 4 0.0000 0.0000 0.0000 13.5676 0.0000 2.5193
# 5 -15.9978 0.5277 -18.3427 0.0000 24.1076 0.0000
# 6 0.0000 0.0000 0.0000 2.5193 0.0000 19.0703
#
#
#
# Elastic Compliance Matrix: (Units=1/GPa)
#
#
# Indices 1 2 3 4 5 6 
#
# 1 0.014078 -0.012783 0.003094 0.000000 0.011976 0.000000
# 2 -0.012783 0.045046 -0.026741 0.000000 -0.029815 0.000000
# 3 0.003094 -0.026741 0.035710 0.000000 0.029809 0.000000
# 4 0.000000 0.000000 0.000000 0.075558 0.000000 -0.009982
# 5 0.011976 -0.029815 0.029809 0.000000 0.072761 0.000000
# 6 0.000000 0.000000 0.000000 -0.009982 0.000000 0.053756
#
#
# Mechanical properties :
#
#
# Convention : Reuss Voigt Hill
#
# Bulk Modulus (GPa) = 45.50928 53.83626 49.67277
# Shear Modulus (GPa) = 13.25926 19.69653 16.47789
#
# Velocity S-wave (km/s) = 2.93249 3.57414 3.26910
# Velocity P-wave (km/s) = 6.40170 7.20757 6.81656
#
# Compressibility (1/GPa) = 0.02197354
#
# Stress axis : x y z
#
# Youngs Moduli (GPa) = 71.03379 22.19949 28.00309
#
# Poissons Ratio (x) = 0.28378 -0.08663
# Poissons Ratio (y) = 0.90803 0.74883
# Poissons Ratio (z) = -0.21976 0.59364
#
# Static dielectric constant tensor:
#      x y z
#    x 3.295300 0.000000 -0.073420 
#    y 0.000000 2.748790 0.000000 
#    z -0.073420 0.000000 2.817160 
# 
# 
# High freq. dielectric constant tensor:
#      x y z
#    x 1.602330 0.000000 -0.014000 
#    y 0.000000 1.559720 0.000000 
#    z -0.014000 0.000000 1.570420 
# 
# From -- ./inp_files/159260.got.cif
#   From: 2010.06.25/outbox.cif.g09.slc.cpg/sg12_80_cif.got.tgz:159260.got - 2010.06.28 00:19:55.
