data_PCOD8081774
_publ_section_title
;
Structure prediction by ZEFSAII (Michael W. Deem and Ramdas Pophale) SiO2 
 PCOD8081774
Probable space group: C 2/M
;
_chemical_formula_sum "Si O2"
_cell_formula_units_Z 56
_cell_length_a 9.394039
_cell_length_b 24.811077
_cell_length_c 16.159201
_cell_angle_alpha 90.000000
_cell_angle_beta 125.721357
_cell_angle_gamma 90.000000
_cell_volume 3057.751506
_symmetry_space_group_name_H-M "C 2/M"
_symmetry_group_IT_number 12
_symmetry_cell_setting 'monoclinic'
loop_
_space_group_symop_operation_xyz
x,y,z
-x,y,-z
-x,-y,-z
x,-y,z
1/2+x,1/2+y,z
1/2-x,1/2+y,-z
1/2-x,1/2-y,-z
1/2+x,1/2-y,z
loop_
_atom_site_type_symbol
_atom_site_label
_atom_site_fract_x
_atom_site_fract_y
_atom_site_fract_z
Si Si1 0.451642 0.157632 0.737579
Si Si2 0.305590 0.742640 0.426535
Si Si3 0.777974 0.819309 0.743734
Si Si4 0.393930 0.214411 0.879450
Si Si5 0.824830 0.438803 0.766923
Si Si6 0.352005 0.941125 0.018764
Si Si7 0.632642 0.626905 0.837914
O O1 0.326845 0.202893 0.660718
O O2 0.624603 0.150682 0.741666
O O3 0.496228 0.176189 0.847958
O O4 0.330636 0.103254 0.692852
O O5 0.500000 0.718863 0.500000
O O6 0.250000 0.750000 0.500000
O O7 0.299803 0.797205 0.369414
O O8 0.855333 0.772667 0.828539
O O9 0.924638 0.864511 0.774054
O O10 0.211243 0.184982 0.839863
O O11 0.500000 0.221220 0.000000
O O12 0.775415 0.500000 0.725399
O O13 0.685599 0.418969 0.788818
O O14 0.033540 0.433822 0.860027
O O15 0.259219 0.000000 0.986398
O O16 0.500000 0.938120 0.000000
O O17 0.207640 0.894728 0.951981
#
# Coordination Sequence:
#
# PCOD8081774 Si02
#       7
#     8   8   8   8   8   8   8
#     4  10  21  36  54  83 112 141 185 226 277 331
#     4  11  22  39  63  85 111 143 182 229 279 333
#     4  11  23  34  49  84 115 142 181 228 278 336
#     4  10  20  33  49  71 112 158 187 214 260 330
#     4   9  18  34  56  77 105 145 192 234 270 320
#     4   8  14  28  50  74  97 136 191 233 261 305
#     4  10  18  30  51  73 105 143 189 227 268 319
#
# _framework density 18.314112000000002
#
# number of rings (size 3 to 8) (size 9 to 14) (size 15 to 20)
#    0.000    2.143    1.429    5.143    4.000    3.429 
#    0.000    1.429    0.000    2.143    0.000    1.000 
#    0.000    0.000    0.000    0.000    0.000    0.000 
#
# Total GULP energy -346881.758351 kJ/mol
# GULP energy per Si atom -12388.634227 kJ/mol
# Density = 1.827243 g / cm^3
# Si number density = 18.314112 Si / 1000 Ang^3
#
#
#
# Elastic Constant Matrix: (Units=GPa)
#
#
# Indices 1 2 3 4 5 6 
#
# 1 118.4918 31.1979 29.4395 0.0000 4.7861 0.0000
# 2 31.1979 82.7899 8.8350 0.0000 -1.5046 0.0000
# 3 29.4395 8.8350 65.0080 0.0000 -9.3412 0.0000
# 4 0.0000 0.0000 0.0000 4.4307 0.0000 2.5692
# 5 4.7861 -1.5046 -9.3412 0.0000 26.3971 0.0000
# 6 0.0000 0.0000 0.0000 2.5692 0.0000 13.0261
#
#
#
# Elastic Compliance Matrix: (Units=1/GPa)
#
#
# Indices 1 2 3 4 5 6 
#
# 1 0.010777 -0.003604 -0.004953 0.000000 -0.003912 0.000000
# 2 -0.003604 0.013462 0.000007 0.000000 0.001423 0.000000
# 3 -0.004953 0.000007 0.018705 0.000000 0.007518 0.000000
# 4 0.000000 0.000000 0.000000 0.254845 0.000000 -0.050265
# 5 -0.003912 0.001423 0.007518 0.000000 0.041334 0.000000
# 6 0.000000 0.000000 0.000000 -0.050265 0.000000 0.086683
#
#
# Mechanical properties :
#
#
# Convention : Reuss Voigt Hill
#
# Bulk Modulus (GPa) = 38.69286 45.02608 41.85947
# Shear Modulus (GPa) = 11.07374 21.89193 16.48283
#
# Velocity S-wave (km/s) = 2.46164 3.46115 3.00327
# Velocity P-wave (km/s) = 5.40859 6.37272 5.91034
#
# Compressibility (1/GPa) = 0.02584456
#
# Stress axis : x y z
#
# Youngs Moduli (GPa) = 92.79259 74.28404 53.46197
#
# Poissons Ratio (x) = 0.26769 0.26478
# Poissons Ratio (y) = 0.33439 -0.00037
# Poissons Ratio (z) = 0.45958 -0.00051
#
# Static dielectric constant tensor:
#      x y z
#    x 3.101650 0.000000 0.117580 
#    y 0.000000 3.451040 0.000000 
#    z 0.117580 0.000000 3.261240 
# 
# 
# High freq. dielectric constant tensor:
#      x y z
#    x 1.694420 0.000000 -0.005110 
#    y 0.000000 1.703610 0.000000 
#    z -0.005110 0.000000 1.685620 
# 
# From -- ./inp_files/185142.got.cif
#   From: 2010.06.25/outbox.cif.g09.slc.cpg/sg12_93_cif.got.tgz:185142.got - 2010.06.28 00:19:55.
