data_PCOD8081908
_publ_section_title
;
Structure prediction by ZEFSAII (Michael W. Deem and Ramdas Pophale) SiO2 
 PCOD8081908
Probable space group: C 2/M
;
_chemical_formula_sum "Si O2"
_cell_formula_units_Z 44
_cell_length_a 17.308569
_cell_length_b 13.257711
_cell_length_c 13.759461
_cell_angle_alpha 90.000000
_cell_angle_beta 59.872157
_cell_angle_gamma 90.000000
_cell_volume 2730.868893
_symmetry_space_group_name_H-M "C 2/M"
_symmetry_group_IT_number 12
_symmetry_cell_setting 'monoclinic'
loop_
_space_group_symop_operation_xyz
x,y,z
-x,y,-z
-x,-y,-z
x,-y,z
1/2+x,1/2+y,z
1/2-x,1/2+y,-z
1/2-x,1/2-y,-z
1/2+x,1/2-y,z
loop_
_atom_site_type_symbol
_atom_site_label
_atom_site_fract_x
_atom_site_fract_y
_atom_site_fract_z
Si Si1 0.227199 0.806696 0.367157
Si Si2 0.340610 0.114008 0.135027
Si Si3 0.000000 0.754175 0.000000
Si Si4 0.507089 0.617082 0.803186
Si Si5 0.354306 0.615228 0.759352
Si Si6 0.801858 0.886504 0.405049
O O1 0.318374 0.848870 0.259402
O O2 0.145037 0.821111 0.342562
O O3 0.208615 0.872468 0.473699
O O4 0.237250 0.688776 0.386914
O O5 0.413491 0.184600 0.038661
O O6 0.247148 0.119762 0.133013
O O7 0.377540 0.000000 0.114984
O O8 0.987241 0.823579 0.100754
O O9 0.492087 0.500000 0.837709
O O10 0.424329 0.660176 0.791978
O O11 0.595822 0.635454 0.685482
O O12 0.380460 0.500000 0.717693
O O13 0.774386 0.000000 0.393200
#
# Coordination Sequence:
#
# PCOD8081908 Si02
#       6
#     8   8   4   8   8   8
#     4   9  17  33  51  73  98 125 154 198 241 281
#     4   9  18  33  50  70  92 125 166 202 234 276
#     4  12  20  32  48  70  98 134 160 200 236 282
#     4  10  20  32  48  73 101 126 158 197 242 289
#     4   8  16  32  50  71  97 124 158 200 240 281
#     4  10  18  30  52  78  98 123 157 194 242 291
#
# _framework density 16.112089000000001
#
# number of rings (size 3 to 8) (size 9 to 14) (size 15 to 20)
#    1.091    1.455    1.818    1.636    0.000    1.455 
#    0.000    2.727    0.000    2.182    0.000    2.545 
#    0.000    0.000    0.000    0.000    0.000    0.000 
#
# Total GULP energy -272606.477357 kJ/mol
# GULP energy per Si atom -12391.203516 kJ/mol
# Density = 1.607542 g / cm^3
# Si number density = 16.112089 Si / 1000 Ang^3
#
#
#
# Elastic Constant Matrix: (Units=GPa)
#
#
# Indices 1 2 3 4 5 6 
#
# 1 68.8887 33.9984 14.1378 0.0000 6.0900 0.0000
# 2 33.9984 77.8281 20.0131 0.0000 -0.4848 0.0000
# 3 14.1378 20.0131 48.8780 0.0000 -15.1578 0.0000
# 4 0.0000 0.0000 0.0000 13.3602 0.0000 -11.0407
# 5 6.0900 -0.4848 -15.1578 0.0000 18.0958 0.0000
# 6 0.0000 0.0000 0.0000 -11.0407 0.0000 15.0519
#
#
#
# Elastic Compliance Matrix: (Units=1/GPa)
#
#
# Indices 1 2 3 4 5 6 
#
# 1 0.020737 -0.007325 -0.007057 0.000000 -0.013086 0.000000
# 2 -0.007325 0.017471 -0.005572 0.000000 -0.001734 0.000000
# 3 -0.007057 -0.005572 0.034411 0.000000 0.031049 0.000000
# 4 0.000000 0.000000 0.000000 0.190047 0.000000 0.139400
# 5 -0.013086 -0.001734 0.031049 0.000000 0.085627 0.000000
# 6 0.000000 0.000000 0.000000 0.139400 0.000000 0.168687
#
#
# Mechanical properties :
#
#
# Convention : Reuss Voigt Hill
#
# Bulk Modulus (GPa) = 30.57266 36.87706 33.72486
# Shear Modulus (GPa) = 8.80605 17.79796 13.30201
#
# Velocity S-wave (km/s) = 2.34038 3.32721 2.87643
# Velocity P-wave (km/s) = 5.13024 6.13986 5.65762
#
# Compressibility (1/GPa) = 0.03270897
#
# Stress axis : x y z
#
# Youngs Moduli (GPa) = 48.22398 57.23762 29.06069
#
# Poissons Ratio (x) = 0.41929 0.20507
# Poissons Ratio (y) = 0.35326 0.16194
# Poissons Ratio (z) = 0.34030 0.31896
#
# Static dielectric constant tensor:
#      x y z
#    x 2.930950 0.000000 -0.047070 
#    y 0.000000 3.035840 0.000000 
#    z -0.047070 0.000000 2.928710 
# 
# 
# High freq. dielectric constant tensor:
#      x y z
#    x 1.600430 0.000000 -0.004870 
#    y 0.000000 1.619060 0.000000 
#    z -0.004870 0.000000 1.612490 
# 
# From -- ./inp_files/155163.got.cif
#   From: 2010.06.25/outbox.cif.g09.slc.cpg/sg12_78_cif.got.tgz:155163.got - 2010.06.28 00:19:55.
