data_PCOD8081629
_publ_section_title
;
Structure prediction by ZEFSAII (Michael W. Deem and Ramdas Pophale) SiO2 
 PCOD8081629
Probable space group: C 2/M
;
_chemical_formula_sum "Si O2"
_cell_formula_units_Z 48
_cell_length_a 15.482596
_cell_length_b 16.711760
_cell_length_c 18.844368
_cell_angle_alpha 90.000000
_cell_angle_beta 151.769000
_cell_angle_gamma 90.000000
_cell_volume 2306.396459
_symmetry_space_group_name_H-M "C 2/M"
_symmetry_group_IT_number 12
_symmetry_cell_setting 'monoclinic'
loop_
_space_group_symop_operation_xyz
x,y,z
-x,y,-z
-x,-y,-z
x,-y,z
1/2+x,1/2+y,z
1/2-x,1/2+y,-z
1/2-x,1/2-y,-z
1/2+x,1/2-y,z
loop_
_atom_site_type_symbol
_atom_site_label
_atom_site_fract_x
_atom_site_fract_y
_atom_site_fract_z
Si Si1 0.405595 0.621807 0.078602
Si Si2 0.219330 0.589782 0.078803
Si Si3 0.710749 0.770994 0.173344
Si Si4 0.042420 0.500000 0.415298
Si Si5 0.044364 0.705717 0.188508
Si Si6 0.797750 0.000000 0.733494
Si Si7 0.559101 0.145339 0.743942
O O1 0.389281 0.588567 0.147115
O O2 0.412708 0.717635 0.085395
O O3 0.581048 0.580098 0.170627
O O4 0.225154 0.599862 0.903368
O O5 0.171806 0.500000 0.069106
O O6 0.263377 0.642328 0.179953
O O7 0.049562 0.628699 0.914586
O O8 0.723734 0.776461 0.269583
O O9 0.858853 0.707486 0.253592
O O10 0.500000 0.746861 0.000000
O O11 0.840626 0.500000 0.302019
O O12 0.065684 0.580007 0.385501
O O13 0.197711 0.500000 0.586122
O O14 0.073596 0.688851 0.293549
#
# Coordination Sequence:
#
# PCOD8081629 Si02
#       7
#     8   8   8   4   8   4   8
#     4  11  18  36  61  83 111 145 195 225 278 341
#     4  10  18  30  49  83 117 148 179 232 274 330
#     4  10  18  31  51  84 119 147 183 227 283 331
#     4  11  27  39  53  84 119 142 188 241 283 328
#     4  10  20  31  54  86 117 145 182 234 281 331
#     4  11  25  41  57  80 111 154 190 229 285 342
#     4  11  20  37  57  87 117 145 186 236 276 331
#
# _framework density 20.811686000000002
#
# number of rings (size 3 to 8) (size 9 to 14) (size 15 to 20)
#    0.000    1.500    5.833    2.500    3.500    3.667 
#    0.000    0.833    0.000    0.000    0.000    1.167 
#    0.000    0.000    0.000    0.000    0.000    0.000 
#
# Total GULP energy -297433.169380 kJ/mol
# GULP energy per Si atom -12393.048724 kJ/mol
# Density = 2.076432 g / cm^3
# Si number density = 20.811686 Si / 1000 Ang^3
#
#
#
# Elastic Constant Matrix: (Units=GPa)
#
#
# Indices 1 2 3 4 5 6 
#
# 1 150.8619 29.3212 9.7115 -0.0049 -11.6468 0.0007
# 2 29.3212 126.7743 7.2469 -0.0086 -7.6586 0.0016
# 3 9.7115 7.2469 23.1558 -0.0318 -8.3971 0.0008
# 4 -0.0049 -0.0086 -0.0318 6.8675 -0.0086 -6.4595
# 5 -11.6468 -7.6586 -8.3971 -0.0086 17.8535 0.0031
# 6 0.0007 0.0016 0.0008 -6.4595 0.0031 25.8147
#
#
#
# Elastic Compliance Matrix: (Units=1/GPa)
#
#
# Indices 1 2 3 4 5 6 
#
# 1 0.007256 -0.001390 -0.001336 0.000002 0.003509 0.000000
# 2 -0.001390 0.008410 -0.001290 0.000007 0.002094 0.000001
# 3 -0.001336 -0.001290 0.052606 0.000348 0.023318 0.000083
# 4 0.000002 0.000007 0.000348 0.190438 0.000251 0.047652
# 5 0.003509 0.002094 0.023318 0.000251 0.070166 0.000053
# 6 0.000000 0.000001 0.000083 0.047652 0.000053 0.050661
#
#
# Mechanical properties :
#
#
# Convention : Reuss Voigt Hill
#
# Bulk Modulus (GPa) = 16.59989 43.70568 30.15279
# Shear Modulus (GPa) = 12.26552 27.07461 19.67007
#
# Velocity S-wave (km/s) = 2.43030 3.61076 3.07766
# Velocity P-wave (km/s) = 3.98355 6.19916 5.21048
#
# Compressibility (1/GPa) = 0.06024135
#
# Stress axis : x y z
#
# Youngs Moduli (GPa) = 137.82536 118.91006 19.00926
#
# Poissons Ratio (x) = 0.16526 0.02539
# Poissons Ratio (y) = 0.19155 0.02451
# Poissons Ratio (z) = 0.18408 0.15334
#
# Static dielectric constant tensor:
#      x y z
#    x 4.528230 -0.000020 -0.120830 
#    y -0.000020 3.752480 -0.000020 
#    z -0.120830 -0.000020 2.962690 
# 
# 
# High freq. dielectric constant tensor:
#      x y z
#    x 1.844680 0.000000 -0.010010 
#    y 0.000000 1.823790 0.000000 
#    z -0.010010 0.000000 1.726570 
# 
# From -- ./inp_files/271804.got.cif
#   From: 2010.06.25/outbox.cif.g09.slc.cpg/sg12_136_cif.got.tgz:271804.got - 2010.06.28 00:19:55.
