data_PCOD8081205
_publ_section_title
;
Structure prediction by ZEFSAII (Michael W. Deem and Ramdas Pophale) SiO2 
 PCOD8081205
Probable space group: C 2/M
;
_chemical_formula_sum "Si O2"
_cell_formula_units_Z 56
_cell_length_a 18.579507
_cell_length_b 14.016114
_cell_length_c 12.407536
_cell_angle_alpha 90.000000
_cell_angle_beta 69.172987
_cell_angle_gamma 90.000000
_cell_volume 3019.952758
_symmetry_space_group_name_H-M "C 2/M"
_symmetry_group_IT_number 12
_symmetry_cell_setting 'monoclinic'
loop_
_space_group_symop_operation_xyz
x,y,z
-x,y,-z
-x,-y,-z
x,-y,z
1/2+x,1/2+y,z
1/2-x,1/2+y,-z
1/2-x,1/2-y,-z
1/2+x,1/2-y,z
loop_
_atom_site_type_symbol
_atom_site_label
_atom_site_fract_x
_atom_site_fract_y
_atom_site_fract_z
Si Si1 0.907397 0.795877 0.047070
Si Si2 0.840179 0.745577 0.467488
Si Si3 0.571667 0.101690 0.889463
Si Si4 0.580127 0.606513 0.173953
Si Si5 0.399228 0.605310 0.263655
Si Si6 0.962884 0.388888 0.332573
Si Si7 0.565083 0.270292 0.385644
O O1 0.877687 0.686968 0.085102
O O2 0.869413 0.857974 0.163330
O O3 0.879491 0.836477 0.946714
O O4 0.000000 0.794173 0.000000
O O5 0.750000 0.750000 0.500000
O O6 0.878624 0.827609 0.374384
O O7 0.877672 0.643947 0.415803
O O8 0.858222 0.756444 0.584462
O O9 0.535397 0.134008 0.794768
O O10 0.618224 0.000000 0.853107
O O11 0.500000 0.078811 0.000000
O O12 0.615613 0.500000 0.159933
O O13 0.490064 0.600166 0.202501
O O14 0.594628 0.658894 0.278459
O O15 0.364617 0.500000 0.303743
O O16 0.975703 0.500000 0.353112
O O17 0.030169 0.327984 0.355106
O O18 0.500000 0.315496 0.500000
#
# Coordination Sequence:
#
# PCOD8081205 Si02
#       7
#     8   8   8   8   8   8   8
#     4   9  15  27  46  75 110 131 161 211 259 311
#     4  11  23  37  51  73 107 140 179 219 266 318
#     4   9  15  24  47  80 109 133 162 212 271 314
#     4  10  18  29  51  81 107 135 169 211 259 310
#     4  10  18  31  50  75 103 135 170 210 258 307
#     4  10  19  35  56  80 105 137 179 223 268 313
#     4  10  19  34  52  76 104 140 174 223 264 310
#
# _framework density 18.543337000000001
#
# number of rings (size 3 to 8) (size 9 to 14) (size 15 to 20)
#    0.000    2.143    4.286    2.143    0.000    5.714 
#    0.000    0.000    0.000    0.857    0.000    0.000 
#    0.000    0.000    0.000    0.000    0.000    0.000 
#
# Total GULP energy -346878.561089 kJ/mol
# GULP energy per Si atom -12388.520039 kJ/mol
# Density = 1.850113 g / cm^3
# Si number density = 18.543337 Si / 1000 Ang^3
#
#
#
# Elastic Constant Matrix: (Units=GPa)
#
#
# Indices 1 2 3 4 5 6 
#
# 1 68.9100 30.7089 31.1223 0.0000 16.5132 0.0000
# 2 30.7089 157.4655 68.8840 0.0000 21.5482 0.0000
# 3 31.1223 68.8840 127.5831 0.0000 40.3086 0.0000
# 4 0.0000 0.0000 0.0000 36.1555 0.0000 8.7026
# 5 16.5132 21.5482 40.3086 0.0000 20.3560 0.0000
# 6 0.0000 0.0000 0.0000 8.7026 0.0000 8.3994
#
#
#
# Elastic Compliance Matrix: (Units=1/GPa)
#
#
# Indices 1 2 3 4 5 6 
#
# 1 0.018584 -0.002178 0.001809 0.000000 -0.016352 0.000000
# 2 -0.002178 0.008570 -0.004775 0.000000 0.002151 0.000000
# 3 0.001809 -0.004775 0.023617 0.000000 -0.043177 0.000000
# 4 0.000000 0.000000 0.000000 0.036848 0.000000 -0.038178
# 5 -0.016352 0.002151 -0.043177 0.000000 0.145613 0.000000
# 6 0.000000 0.000000 0.000000 -0.038178 0.000000 0.158612
#
#
# Mechanical properties :
#
#
# Convention : Reuss Voigt Hill
#
# Bulk Modulus (GPa) = 24.70260 68.37655 46.53957
# Shear Modulus (GPa) = 12.03004 27.86507 19.94756
#
# Velocity S-wave (km/s) = 2.54983 3.88067 3.28339
# Velocity P-wave (km/s) = 4.69247 7.55205 6.28700
#
# Compressibility (1/GPa) = 0.04048157
#
# Stress axis : x y z
#
# Youngs Moduli (GPa) = 53.81045 116.68633 42.34311
#
# Poissons Ratio (x) = 0.25412 -0.07659
# Poissons Ratio (y) = 0.11719 0.20220
# Poissons Ratio (z) = -0.09733 0.55722
#
# Static dielectric constant tensor:
#      x y z
#    x 2.988410 0.000000 0.133880 
#    y 0.000000 4.692030 0.000000 
#    z 0.133880 0.000000 3.881100 
# 
# 
# High freq. dielectric constant tensor:
#      x y z
#    x 1.639800 0.000000 0.027120 
#    y 0.000000 1.734900 0.000000 
#    z 0.027120 0.000000 1.737500 
# 
# From -- ./inp_files/166631.got.cif
#   From: 2010.06.25/outbox.cif.g09.slc.cpg/sg12_84_cif.got.tgz:166631.got - 2010.06.28 00:19:55.
