data_PCOD8081538
_publ_section_title
;
Structure prediction by ZEFSAII (Michael W. Deem and Ramdas Pophale) SiO2 
 PCOD8081538
Probable space group: C 2/M
;
_chemical_formula_sum "Si O2"
_cell_formula_units_Z 64
_cell_length_a 28.549692
_cell_length_b 9.603460
_cell_length_c 14.338760
_cell_angle_alpha 90.000000
_cell_angle_beta 86.406046
_cell_angle_gamma 90.000000
_cell_volume 3923.609777
_symmetry_space_group_name_H-M "C 2/M"
_symmetry_group_IT_number 12
_symmetry_cell_setting 'monoclinic'
loop_
_space_group_symop_operation_xyz
x,y,z
-x,y,-z
-x,-y,-z
x,-y,z
1/2+x,1/2+y,z
1/2-x,1/2+y,-z
1/2-x,1/2-y,-z
1/2+x,1/2-y,z
loop_
_atom_site_type_symbol
_atom_site_label
_atom_site_fract_x
_atom_site_fract_y
_atom_site_fract_z
Si Si1 0.551024 0.160852 0.531682
Si Si2 0.602429 0.337987 0.058237
Si Si3 0.665259 0.841335 0.180872
Si Si4 0.137123 0.835547 0.859592
Si Si5 0.738008 0.337859 0.910125
Si Si6 0.071606 0.161516 0.709432
Si Si7 0.470470 0.341882 0.785344
Si Si8 0.408540 0.158972 0.664402
O O1 0.500000 0.207242 0.500000
O O2 0.567356 0.252290 0.615936
O O3 0.590012 0.187871 0.446339
O O4 0.549563 0.000000 0.562888
O O5 0.615202 0.500000 0.064493
O O6 0.643204 0.257688 0.106639
O O7 0.551683 0.304570 0.110455
O O8 0.603895 0.289963 0.950452
O O9 0.721297 0.817947 0.172905
O O10 0.643005 0.807187 0.285829
O O11 0.653294 0.000000 0.154601
O O12 0.190099 0.780992 0.869192
O O13 0.114902 0.778371 0.765839
O O14 0.137157 0.000000 0.850673
O O15 0.732882 0.500000 0.939697
O O16 0.750000 0.250000 0.000000
O O17 0.026021 0.180965 0.780865
O O18 0.078330 0.000000 0.681316
O O19 0.457687 0.500000 0.760790
O O20 0.448748 0.248127 0.707747
O O21 0.422708 0.000000 0.681744
#
# Coordination Sequence:
#
# PCOD8081538 Si02
#       8
#     8   8   8   8   8   8   8   8
#     4  10  19  32  50  69  89 119 155 192 236 277
#     4   9  16  28  45  65  93 125 153 183 222 267
#     4   9  17  28  46  71  93 116 150 190 227 269
#     4   9  18  31  46  66  95 128 155 185 227 272
#     4  10  18  30  49  71  94 121 155 190 227 268
#     4  10  20  32  46  67  95 125 157 190 226 271
#     4   9  17  27  43  68  93 120 154 187 219 264
#     4   9  17  30  47  67  92 118 147 187 234 277
#
# _framework density 16.311509000000001
#
# number of rings (size 3 to 8) (size 9 to 14) (size 15 to 20)
#    0.000    2.625    2.500    0.000    0.000    1.250 
#    0.000    3.750    0.000    0.750    0.000    4.375 
#    0.000    0.000    0.000    0.000    0.000    0.000 
#
# Total GULP energy -396577.114187 kJ/mol
# GULP energy per Si atom -12393.034818 kJ/mol
# Density = 1.627438 g / cm^3
# Si number density = 16.311509 Si / 1000 Ang^3
#
#
#
# Elastic Constant Matrix: (Units=GPa)
#
#
# Indices 1 2 3 4 5 6 
#
# 1 102.8497 34.7279 70.6171 0.0000 4.5684 0.0000
# 2 34.7279 44.1186 42.8756 0.0000 4.7397 0.0000
# 3 70.6171 42.8756 123.7725 0.0000 5.7902 0.0000
# 4 0.0000 0.0000 0.0000 20.6417 0.0000 -0.9802
# 5 4.5684 4.7397 5.7902 0.0000 23.3773 0.0000
# 6 0.0000 0.0000 0.0000 -0.9802 0.0000 16.1229
#
#
#
# Elastic Compliance Matrix: (Units=1/GPa)
#
#
# Indices 1 2 3 4 5 6 
#
# 1 0.016962 -0.005929 -0.007613 0.000000 -0.000227 0.000000
# 2 -0.005929 0.036623 -0.009117 0.000000 -0.004009 0.000000
# 3 -0.007613 -0.009117 0.015606 0.000000 -0.000529 0.000000
# 4 0.000000 0.000000 0.000000 0.048586 0.000000 0.002954
# 5 -0.000227 -0.004009 -0.000529 0.000000 0.043765 0.000000
# 6 0.000000 0.000000 0.000000 0.002954 0.000000 0.062203
#
#
# Mechanical properties :
#
#
# Convention : Reuss Voigt Hill
#
# Bulk Modulus (GPa) = 41.88577 63.02021 52.45299
# Shear Modulus (GPa) = 18.04926 20.19639 19.12283
#
# Velocity S-wave (km/s) = 3.33007 3.52258 3.42768
# Velocity P-wave (km/s) = 6.36555 7.43398 6.92041
#
# Compressibility (1/GPa) = 0.02387446
#
# Stress axis : x y z
#
# Youngs Moduli (GPa) = 58.95493 27.30508 64.07885
#
# Poissons Ratio (x) = 0.16188 0.48785
# Poissons Ratio (y) = 0.34952 0.58418
# Poissons Ratio (z) = 0.44884 0.24893
#
# Static dielectric constant tensor:
#      x y z
#    x 3.287850 0.000000 -0.255850 
#    y 0.000000 3.019510 0.000000 
#    z -0.255850 0.000000 3.137470 
# 
# 
# High freq. dielectric constant tensor:
#      x y z
#    x 1.618280 0.000000 -0.023850 
#    y 0.000000 1.616870 0.000000 
#    z -0.023850 0.000000 1.616350 
# 
# From -- ./inp_files/248448.got.cif
#   From: 2010.06.25/outbox.cif.g09.slc.cpg/sg12_125_cif.got.tgz:248448.got - 2010.06.28 00:19:55.
