data_PCOD8081123
_publ_section_title
;
Structure prediction by ZEFSAII (Michael W. Deem and Ramdas Pophale) SiO2 
 PCOD8081123
Probable space group: C 2/M
;
_chemical_formula_sum "Si O2"
_cell_formula_units_Z 44
_cell_length_a 24.990614
_cell_length_b 9.393534
_cell_length_c 14.437172
_cell_angle_alpha 90.000000
_cell_angle_beta 43.379459
_cell_angle_gamma 90.000000
_cell_volume 2327.745083
_symmetry_space_group_name_H-M "C 2/M"
_symmetry_group_IT_number 12
_symmetry_cell_setting 'monoclinic'
loop_
_space_group_symop_operation_xyz
x,y,z
-x,y,-z
-x,-y,-z
x,-y,z
1/2+x,1/2+y,z
1/2-x,1/2+y,-z
1/2-x,1/2-y,-z
1/2+x,1/2-y,z
loop_
_atom_site_type_symbol
_atom_site_label
_atom_site_fract_x
_atom_site_fract_y
_atom_site_fract_z
Si Si1 0.849758 0.159458 0.783724
Si Si2 0.095497 0.334872 0.117375
Si Si3 0.500000 0.748777 0.500000
Si Si4 0.281461 0.669890 0.549282
Si Si5 0.783885 0.666637 0.178524
Si Si6 0.066433 0.340766 0.604073
O O1 0.854333 0.252031 0.870102
O O2 0.931392 0.151303 0.626355
O O3 0.784171 0.231498 0.800732
O O4 0.826546 0.000000 0.842312
O O5 0.108144 0.500000 0.123665
O O6 0.003895 0.297828 0.237145
O O7 0.130942 0.296029 0.971184
O O8 0.533892 0.845509 0.540296
O O9 0.282345 0.500000 0.532578
O O10 0.250000 0.750000 0.500000
O O11 0.224716 0.719451 0.704911
O O12 0.368330 0.721964 0.463386
O O13 0.768258 0.500000 0.200387
O O14 0.097541 0.500000 0.588400
#
# Coordination Sequence:
#
# PCOD8081123 Si02
#       6
#     8   8   4   8   8   8
#     4  10  18  29  49  79 114 149 185 222 271 330
#     4   9  19  34  53  79 113 147 181 222 273 334
#     4  10  18  30  52  84 118 150 184 222 274 332
#     4  11  23  41  62  83 108 145 190 238 278 326
#     4   9  18  35  55  77 107 146 187 226 273 330
#     4  10  20  35  56  84 114 146 184 229 277 328
#
# _framework density 18.902412999999999
#
# number of rings (size 3 to 8) (size 9 to 14) (size 15 to 20)
#    0.000    2.182    1.818    1.636    0.000    3.636 
#    0.000    2.727    0.000    5.455    0.000    0.000 
#    0.000    0.000    0.000    0.000    0.000    0.000 
#
# Total GULP energy -272680.903900 kJ/mol
# GULP energy per Si atom -12394.586541 kJ/mol
# Density = 1.885939 g / cm^3
# Si number density = 18.902413 Si / 1000 Ang^3
#
#
#
# Elastic Constant Matrix: (Units=GPa)
#
#
# Indices 1 2 3 4 5 6 
#
# 1 76.2943 32.5157 60.2720 0.0001 5.4901 -0.0001
# 2 32.5157 70.6022 43.2332 -0.0020 5.7518 0.0016
# 3 60.2720 43.2332 168.3365 -0.0001 3.2783 0.0000
# 4 0.0001 -0.0020 -0.0001 22.2115 0.0003 0.2958
# 5 5.4901 5.7518 3.2783 0.0003 22.9075 -0.0002
# 6 -0.0001 0.0016 0.0000 0.2958 -0.0002 29.2939
#
#
#
# Elastic Compliance Matrix: (Units=1/GPa)
#
#
# Indices 1 2 3 4 5 6 
#
# 1 0.020219 -0.005573 -0.005757 -0.000001 -0.002623 0.000000
# 2 -0.005573 0.018647 -0.002736 0.000002 -0.002955 -0.000001
# 3 -0.005757 -0.002736 0.008688 0.000000 0.000823 0.000000
# 4 -0.000001 0.000002 0.000000 0.045028 -0.000001 -0.000455
# 5 -0.002623 -0.002955 0.000823 -0.000001 0.044907 0.000000
# 6 0.000000 -0.000001 0.000000 -0.000455 0.000000 0.034141
#
#
# Mechanical properties :
#
#
# Convention : Reuss Voigt Hill
#
# Bulk Modulus (GPa) = 51.48761 65.25275 58.37018
# Shear Modulus (GPa) = 24.24418 26.83007 25.53712
#
# Velocity S-wave (km/s) = 3.58522 3.77158 3.67958
# Velocity P-wave (km/s) = 6.66605 7.31862 6.99994
#
# Compressibility (1/GPa) = 0.01942215
#
# Stress axis : x y z
#
# Youngs Moduli (GPa) = 49.45876 53.62922 115.09632
#
# Poissons Ratio (x) = 0.29887 0.66260
# Poissons Ratio (y) = 0.27563 0.31491
# Poissons Ratio (z) = 0.28473 0.14673
#
# Static dielectric constant tensor:
#      x y z
#    x 3.309700 0.000000 -0.107760 
#    y 0.000000 3.212340 0.000000 
#    z -0.107760 0.000000 3.916570 
# 
# 
# High freq. dielectric constant tensor:
#      x y z
#    x 1.708150 0.000000 -0.010650 
#    y 0.000000 1.715960 0.000000 
#    z -0.010650 0.000000 1.749770 
# 
# From -- ./inp_files/180458.got.cif
#   From: 2010.06.25/outbox.cif.g09.slc.cpg/sg12_91_cif.got.tgz:180458.got - 2010.06.28 00:19:55.
