data_PCOD8081382
_publ_section_title
;
Structure prediction by ZEFSAII (Michael W. Deem and Ramdas Pophale) SiO2 
 PCOD8081382
Probable space group: C 2/M
;
_chemical_formula_sum "Si O2"
_cell_formula_units_Z 64
_cell_length_a 20.460792
_cell_length_b 9.904319
_cell_length_c 24.166706
_cell_angle_alpha 90.000000
_cell_angle_beta 55.285695
_cell_angle_gamma 90.000000
_cell_volume 4025.662218
_symmetry_space_group_name_H-M "C 2/M"
_symmetry_group_IT_number 12
_symmetry_cell_setting 'monoclinic'
loop_
_space_group_symop_operation_xyz
x,y,z
-x,y,-z
-x,-y,-z
x,-y,z
1/2+x,1/2+y,z
1/2-x,1/2+y,-z
1/2-x,1/2-y,-z
1/2+x,1/2-y,z
loop_
_atom_site_type_symbol
_atom_site_label
_atom_site_fract_x
_atom_site_fract_y
_atom_site_fract_z
Si Si1 0.964009 0.151381 0.930805
Si Si2 0.632385 0.156993 0.672933
Si Si3 0.626447 0.650876 0.919977
Si Si4 0.694462 0.148789 0.808839
Si Si5 0.592636 0.844338 0.458126
Si Si6 0.326045 0.843949 0.466509
Si Si7 0.532717 0.151297 0.818033
Si Si8 0.711621 0.341513 0.342802
O O1 0.047613 0.153794 0.921460
O O2 0.965962 0.252789 0.877647
O O3 0.946652 0.000000 0.917613
O O4 0.895343 0.197385 0.007025
O O5 0.619765 0.185138 0.614032
O O6 0.558277 0.212723 0.745317
O O7 0.717961 0.214313 0.651174
O O8 0.635462 0.000000 0.686850
O O9 0.661893 0.500000 0.903777
O O10 0.692820 0.748298 0.861275
O O11 0.611703 0.150003 0.816531
O O12 0.764846 0.186479 0.732296
O O13 0.709579 0.000000 0.826214
O O14 0.500000 0.813802 0.500000
O O15 0.621301 0.808269 0.506059
O O16 0.634459 0.747269 0.393603
O O17 0.611463 0.000000 0.434339
O O18 0.250000 0.750000 0.500000
O O19 0.297927 0.000000 0.480164
O O20 0.496810 0.000000 0.831100
O O21 0.693587 0.500000 0.361629
#
# Coordination Sequence:
#
# PCOD8081382 Si02
#       8
#     8   8   8   8   8   8   8   8
#     4   8  13  20  28  41  65  96 128 160 192 231
#     4   8  14  25  41  59  78 100 133 175 211 244
#     4   8  13  20  29  42  64  96 130 160 192 234
#     4   8  14  22  33  50  70  92 125 169 205 234
#     4  10  21  33  44  64  91 114 139 174 218 263
#     4  10  18  30  48  65  84 111 141 178 217 253
#     4   8  13  21  32  47  67  93 124 160 201 239
#     4   9  16  28  44  60  79 105 139 176 212 252
#
# _framework density 15.898004999999999
#
# number of rings (size 3 to 8) (size 9 to 14) (size 15 to 20)
#    0.000    3.375    1.250    2.250    0.000    1.250 
#    0.000    5.000    0.000    0.000    0.000    0.000 
#    0.000    0.000    0.000    1.125    0.000   12.250 
#
# Total GULP energy -396522.193236 kJ/mol
# GULP energy per Si atom -12391.318539 kJ/mol
# Density = 1.586182 g / cm^3
# Si number density = 15.898005 Si / 1000 Ang^3
#
#
#
# Elastic Constant Matrix: (Units=GPa)
#
#
# Indices 1 2 3 4 5 6 
#
# 1 37.7328 25.2296 31.6292 0.0000 0.0705 -0.0002
# 2 25.2296 86.6481 83.8283 -0.0001 3.6037 -0.0004
# 3 31.6292 83.8283 149.3614 0.0000 11.7452 0.0000
# 4 0.0000 -0.0001 0.0000 33.3729 0.0000 -1.1375
# 5 0.0705 3.6037 11.7452 0.0000 9.8812 -0.0001
# 6 -0.0002 -0.0004 0.0000 -1.1375 -0.0001 8.7623
#
#
#
# Elastic Compliance Matrix: (Units=1/GPa)
#
#
# Indices 1 2 3 4 5 6 
#
# 1 0.034212 -0.005913 -0.004497 0.000000 0.007257 0.000001
# 2 -0.005913 0.026927 -0.014441 0.000000 0.007388 0.000001
# 3 -0.004497 -0.014441 0.016917 0.000000 -0.014810 -0.000001
# 4 0.000000 0.000000 0.000000 0.030098 0.000000 0.003907
# 5 0.007257 0.007388 -0.014810 0.000000 0.116060 0.000001
# 6 0.000001 0.000001 -0.000001 0.003907 0.000001 0.114633
#
#
# Mechanical properties :
#
#
# Convention : Reuss Voigt Hill
#
# Bulk Modulus (GPa) = 35.26907 61.67962 48.47435
# Shear Modulus (GPa) = 12.56286 19.27360 15.91823
#
# Velocity S-wave (km/s) = 2.81413 3.48563 3.16772
# Velocity P-wave (km/s) = 5.72642 7.42164 6.62845
#
# Compressibility (1/GPa) = 0.02835345
#
# Stress axis : x y z
#
# Youngs Moduli (GPa) = 29.22983 37.13792 59.11167
#
# Poissons Ratio (x) = 0.21959 0.26582
# Poissons Ratio (y) = 0.17283 0.85365
# Poissons Ratio (z) = 0.13145 0.53632
#
# Static dielectric constant tensor:
#      x y z
#    x 2.434630 0.000000 0.203610 
#    y 0.000000 3.132800 0.000000 
#    z 0.203610 0.000000 3.359480 
# 
# 
# High freq. dielectric constant tensor:
#      x y z
#    x 1.533590 0.000000 0.016940 
#    y 0.000000 1.604670 0.000000 
#    z 0.016940 0.000000 1.625430 
# 
# From -- ./inp_files/365180.got.cif
#   From: 2010.06.25/outbox.cif.g09.slc.cpg/sg12_183_cif.got.tgz:365180.got - 2010.06.28 00:19:55.
