data_PCOD8081911
_publ_section_title
;
Structure prediction by ZEFSAII (Michael W. Deem and Ramdas Pophale) SiO2 
 PCOD8081911
Probable space group: C 2/M
;
_chemical_formula_sum "Si O2"
_cell_formula_units_Z 64
_cell_length_a 23.813389
_cell_length_b 9.095713
_cell_length_c 21.051678
_cell_angle_alpha 90.000000
_cell_angle_beta 51.876779
_cell_angle_gamma 90.000000
_cell_volume 3587.116473
_symmetry_space_group_name_H-M "C 2/M"
_symmetry_group_IT_number 12
_symmetry_cell_setting 'monoclinic'
loop_
_space_group_symop_operation_xyz
x,y,z
-x,y,-z
-x,-y,-z
x,-y,z
1/2+x,1/2+y,z
1/2-x,1/2+y,-z
1/2-x,1/2-y,-z
1/2+x,1/2-y,z
loop_
_atom_site_type_symbol
_atom_site_label
_atom_site_fract_x
_atom_site_fract_y
_atom_site_fract_z
Si Si1 0.860418 0.172082 0.432854
Si Si2 0.369078 0.672247 0.837358
Si Si3 0.753930 0.328413 0.594136
Si Si4 0.490688 0.828529 0.286865
Si Si5 0.278189 0.831106 0.121571
Si Si6 0.964411 0.669196 0.159480
Si Si7 0.603348 0.328215 0.037669
Si Si8 0.305066 0.168784 0.246565
O O1 0.822586 0.241889 0.520496
O O2 0.814018 0.205387 0.402607
O O3 0.937186 0.247558 0.372093
O O4 0.870652 0.000000 0.437287
O O5 0.382932 0.500000 0.816975
O O6 0.430762 0.761592 0.758186
O O7 0.294344 0.724604 0.860350
O O8 0.368083 0.713315 0.912358
O O9 0.772094 0.500000 0.582939
O O10 0.737775 0.272555 0.675886
O O11 0.463938 0.796884 0.234514
O O12 0.492247 0.000000 0.302102
O O13 0.269847 0.810029 0.202596
O O14 0.292995 0.000000 0.093431
O O15 0.343987 0.736904 0.051087
O O16 0.982047 0.500000 0.133543
O O17 0.887971 0.715716 0.184981
O O18 0.024391 0.763828 0.082002
O O19 0.598984 0.500000 0.030136
O O20 0.299833 0.000000 0.273862
#
# Coordination Sequence:
#
# PCOD8081911 Si02
#       8
#     8   8   8   8   8   8   8   8
#     4  10  19  31  51  78 108 138 168 204 248 300
#     4   9  19  35  53  75 101 132 172 216 260 304
#     4  10  20  32  50  77 108 139 168 205 249 298
#     4  10  18  30  52  79 105 133 167 211 257 300
#     4  10  21  36  54  73  98 136 177 213 254 307
#     4   9  18  32  50  72 101 134 168 205 252 308
#     4  10  20  33  52  75 101 129 167 220 265 302
#     4  10  20  35  53  73 102 139 174 208 250 306
#
# _framework density 17.841629999999999
#
# number of rings (size 3 to 8) (size 9 to 14) (size 15 to 20)
#    0.000    2.250    1.250    1.875    0.000    4.000 
#    0.000    2.500    0.000    0.750    0.000    5.250 
#    0.000    0.000    0.000    0.000    0.000    0.000 
#
# Total GULP energy -396949.333574 kJ/mol
# GULP energy per Si atom -12404.666674 kJ/mol
# Density = 1.780102 g / cm^3
# Si number density = 17.841630 Si / 1000 Ang^3
#
#
#
# Elastic Constant Matrix: (Units=GPa)
#
#
# Indices 1 2 3 4 5 6 
#
# 1 37.0481 15.5715 21.0135 -0.0003 0.3308 0.0000
# 2 15.5715 81.5834 57.5075 0.0007 -9.4880 -0.0018
# 3 21.0135 57.5075 107.6230 -0.0001 -14.4016 -0.0003
# 4 -0.0003 0.0007 -0.0001 37.4345 -0.0003 -4.2249
# 5 0.3308 -9.4880 -14.4016 -0.0003 20.2842 0.0006
# 6 0.0000 -0.0018 -0.0003 -4.2249 0.0006 20.8043
#
#
#
# Elastic Compliance Matrix: (Units=1/GPa)
#
#
# Indices 1 2 3 4 5 6 
#
# 1 0.031269 -0.002869 -0.005326 0.000000 -0.005633 0.000000
# 2 -0.002869 0.019995 -0.009797 0.000000 0.002444 0.000001
# 3 -0.005326 -0.009797 0.016536 0.000000 0.007245 -0.000001
# 4 0.000000 0.000000 0.000000 0.027340 0.000000 0.005552
# 5 -0.005633 0.002444 0.007245 0.000000 0.055678 -0.000001
# 6 0.000000 0.000001 -0.000001 0.005552 -0.000001 0.049195
#
#
# Mechanical properties :
#
#
# Convention : Reuss Voigt Hill
#
# Bulk Modulus (GPa) = 31.43086 46.04882 38.73984
# Shear Modulus (GPa) = 20.27558 24.51540 22.39549
#
# Velocity S-wave (km/s) = 3.37474 3.71085 3.54678
# Velocity P-wave (km/s) = 5.73062 6.65029 6.20751
#
# Compressibility (1/GPa) = 0.03181587
#
# Stress axis : x y z
#
# Youngs Moduli (GPa) = 31.98050 50.01245 60.47412
#
# Poissons Ratio (x) = 0.14349 0.32209
# Poissons Ratio (y) = 0.09175 0.59246
# Poissons Ratio (z) = 0.17033 0.48997
#
# Static dielectric constant tensor:
#      x y z
#    x 3.159490 0.000000 -0.125090 
#    y 0.000000 3.296490 0.000000 
#    z -0.125090 0.000000 3.202090 
# 
# 
# High freq. dielectric constant tensor:
#      x y z
#    x 1.666470 0.000000 -0.014530 
#    y 0.000000 1.696060 0.000000 
#    z -0.014530 0.000000 1.688950 
# 
# From -- ./inp_files/295824.got.cif
#   From: 2010.06.25/outbox.cif.g09.slc.cpg/sg12_148_cif.got.tgz:295824.got - 2010.06.28 00:19:55.
