data_PCOD8081352
_publ_section_title
;
Structure prediction by ZEFSAII (Michael W. Deem and Ramdas Pophale) SiO2 
 PCOD8081352
Probable space group: C 2/M
;
_chemical_formula_sum "Si O2"
_cell_formula_units_Z 64
_cell_length_a 27.814089
_cell_length_b 8.945246
_cell_length_c 20.599251
_cell_angle_alpha 90.000000
_cell_angle_beta 46.113987
_cell_angle_gamma 90.000000
_cell_volume 3693.816786
_symmetry_space_group_name_H-M "C 2/M"
_symmetry_group_IT_number 12
_symmetry_cell_setting 'monoclinic'
loop_
_space_group_symop_operation_xyz
x,y,z
-x,y,-z
-x,-y,-z
x,-y,z
1/2+x,1/2+y,z
1/2-x,1/2+y,-z
1/2-x,1/2-y,-z
1/2+x,1/2-y,z
loop_
_atom_site_type_symbol
_atom_site_label
_atom_site_fract_x
_atom_site_fract_y
_atom_site_fract_z
Si Si1 0.573257 0.824722 0.645085
Si Si2 0.433308 0.825739 0.742613
Si Si3 0.744028 0.331151 0.688176
Si Si4 0.714094 0.822039 0.094244
Si Si5 0.400397 0.167840 0.520274
Si Si6 0.764730 0.830708 0.794745
Si Si7 0.299482 0.178400 0.401398
Si Si8 0.921688 0.166875 0.624377
O O1 0.495047 0.788342 0.734032
O O2 0.590829 0.755082 0.558252
O O3 0.624941 0.768164 0.651060
O O4 0.584580 0.000000 0.627612
O O5 0.363245 0.765540 0.835997
O O6 0.453604 0.759052 0.653648
O O7 0.425561 0.000000 0.737978
O O8 0.715412 0.500000 0.715059
O O9 0.822823 0.334699 0.608566
O O10 0.724634 0.249155 0.773693
O O11 0.712420 0.238765 0.659049
O O12 0.749147 0.761822 0.126555
O O13 0.720209 0.000000 0.085865
O O14 0.750000 0.750000 0.000000
O O15 0.440391 0.263663 0.536729
O O16 0.429578 0.000000 0.494558
O O17 0.842456 0.830366 0.706577
O O18 0.738129 0.000000 0.827921
O O19 0.250000 0.250000 0.500000
O O20 0.290497 0.000000 0.411039
O O21 0.949947 0.000000 0.600615
#
# Coordination Sequence:
#
# PCOD8081352 Si02
#       8
#     8   8   8   8   8   8   8   8
#     4   9  18  32  47  64  88 123 167 206 236 276
#     4   9  18  33  50  66  89 124 162 193 229 283
#     4  10  18  30  47  69  96 128 166 207 246 284
#     4  10  19  32  53  79 102 127 155 191 237 292
#     4   9  16  28  44  61  85 123 165 199 233 273
#     4   9  17  30  48  72  99 128 159 196 239 286
#     4  11  20  32  48  68  93 126 169 214 252 282
#     4   9  17  28  42  63  92 122 155 196 238 275
#
# _framework density 17.326250999999999
#
# number of rings (size 3 to 8) (size 9 to 14) (size 15 to 20)
#    0.000    2.500    1.250    1.875    0.000    4.500 
#    0.000    4.375    0.000    0.000    0.000    0.875 
#    0.000    7.000    0.000    0.000    0.000    0.000 
#
# Total GULP energy -396640.768427 kJ/mol
# GULP energy per Si atom -12395.024013 kJ/mol
# Density = 1.728682 g / cm^3
# Si number density = 17.326251 Si / 1000 Ang^3
#
#
#
# Elastic Constant Matrix: (Units=GPa)
#
#
# Indices 1 2 3 4 5 6 
#
# 1 122.3268 46.8251 41.5128 0.0012 17.0519 -0.0004
# 2 46.8251 85.6161 27.6946 0.0171 11.2675 -0.0119
# 3 41.5128 27.6946 73.7310 0.0057 19.3167 -0.0035
# 4 0.0012 0.0171 0.0057 22.6538 -0.0055 8.2146
# 5 17.0519 11.2675 19.3167 -0.0055 22.2222 0.0016
# 6 -0.0004 -0.0119 -0.0035 8.2146 0.0016 23.6484
#
#
#
# Elastic Compliance Matrix: (Units=1/GPa)
#
#
# Indices 1 2 3 4 5 6 
#
# 1 0.011795 -0.004730 -0.004042 0.000005 -0.003139 -0.000004
# 2 -0.004730 0.015360 -0.002612 -0.000016 -0.001889 0.000013
# 3 -0.004042 -0.002612 0.020278 -0.000008 -0.013201 0.000005
# 4 0.000005 -0.000016 -0.000008 0.050504 0.000025 -0.017543
# 5 -0.003139 -0.001889 -0.013201 0.000025 0.059841 -0.000016
# 6 -0.000004 0.000013 0.000005 -0.017543 -0.000016 0.048380
#
#
# Mechanical properties :
#
#
# Convention : Reuss Voigt Hill
#
# Bulk Modulus (GPa) = 40.54169 57.08211 48.81190
# Shear Modulus (GPa) = 21.08395 24.74764 22.91580
#
# Velocity S-wave (km/s) = 3.49216 3.78343 3.64071
# Velocity P-wave (km/s) = 6.30159 7.21822 6.77543
#
# Compressibility (1/GPa) = 0.02466597
#
# Stress axis : x y z
#
# Youngs Moduli (GPa) = 84.78457 65.10226 49.31485
#
# Poissons Ratio (x) = 0.30795 0.19931
# Poissons Ratio (y) = 0.40105 0.12879
# Poissons Ratio (z) = 0.34267 0.17002
#
# Static dielectric constant tensor:
#      x y z
#    x 3.437560 0.000000 0.071460 
#    y 0.000000 3.321920 0.000000 
#    z 0.071460 0.000000 3.002640 
# 
# 
# High freq. dielectric constant tensor:
#      x y z
#    x 1.666170 0.000000 0.009770 
#    y 0.000000 1.669640 0.000000 
#    z 0.009770 0.000000 1.631310 
# 
# From -- ./inp_files/323660.got.cif
#   From: 2010.06.25/outbox.cif.g09.slc.cpg/sg12_162_cif.got.tgz:323660.got - 2010.06.28 00:19:55.
