data_PCOD8081509
_publ_section_title
;
Structure prediction by ZEFSAII (Michael W. Deem and Ramdas Pophale) SiO2 
 PCOD8081509
Probable space group: C 2/M
;
_chemical_formula_sum "Si O2"
_cell_formula_units_Z 56
_cell_length_a 17.520469
_cell_length_b 28.467460
_cell_length_c 9.531542
_cell_angle_alpha 90.000000
_cell_angle_beta 42.546966
_cell_angle_gamma 90.000000
_cell_volume 3214.616286
_symmetry_space_group_name_H-M "C 2/M"
_symmetry_group_IT_number 12
_symmetry_cell_setting 'monoclinic'
loop_
_space_group_symop_operation_xyz
x,y,z
-x,y,-z
-x,-y,-z
x,-y,z
1/2+x,1/2+y,z
1/2-x,1/2+y,-z
1/2-x,1/2-y,-z
1/2+x,1/2-y,z
loop_
_atom_site_type_symbol
_atom_site_label
_atom_site_fract_x
_atom_site_fract_y
_atom_site_fract_z
Si Si1 0.354528 0.623945 0.895393
Si Si2 0.288808 0.664353 0.253126
Si Si3 0.686551 0.303501 0.284237
Si Si4 0.867050 0.947164 0.652130
Si Si5 0.932072 0.714336 0.468921
Si Si6 0.081424 0.258804 0.010566
Si Si7 0.888107 0.124760 0.394089
O O1 0.355901 0.669183 0.794059
O O2 0.312365 0.579340 0.860544
O O3 0.478323 0.617464 0.793232
O O4 0.271151 0.631952 0.139081
O O5 0.165189 0.682146 0.470299
O O6 0.340403 0.630508 0.302229
O O7 0.372503 0.707170 0.096028
O O8 0.630691 0.252942 0.351355
O O9 0.646566 0.327947 0.480494
O O10 0.821153 0.297384 0.102870
O O11 0.836379 0.920042 0.548997
O O12 0.000000 0.946015 0.500000
O O13 0.819686 0.000000 0.706511
O O14 0.000000 0.686208 0.500000
O O15 0.008768 0.740455 0.250843
O O16 0.000000 0.277577 0.000000
#
# Coordination Sequence:
#
# PCOD8081509 Si02
#       7
#     8   8   8   8   8   8   8
#     4  10  18  30  49  68  93 124 155 188 225 277
#     4  11  21  31  45  68  95 125 161 194 230 273
#     4  10  19  31  46  64  87 127 169 193 222 272
#     4   8  16  31  50  71  94 121 149 180 226 284
#     4  11  21  32  45  63  93 128 163 200 229 258
#     4  11  21  31  44  63  94 128 163 201 231 259
#     4  10  18  30  49  69  95 123 152 191 231 275
#
# _framework density 17.420431000000001
#
# number of rings (size 3 to 8) (size 9 to 14) (size 15 to 20)
#    0.000    1.857    0.000    7.714    0.000    4.571 
#    0.000    0.714    0.000    3.429    0.000    0.000 
#    0.000   72.000    0.000    0.000    0.000    0.000 
#
# Total GULP energy -347042.563067 kJ/mol
# GULP energy per Si atom -12394.377252 kJ/mol
# Density = 1.738078 g / cm^3
# Si number density = 17.420431 Si / 1000 Ang^3
#
#
#
# Elastic Constant Matrix: (Units=GPa)
#
#
# Indices 1 2 3 4 5 6 
#
# 1 67.9623 15.5179 25.7037 0.0000 9.7986 0.0000
# 2 15.5179 73.7032 17.4723 0.0000 5.3165 0.0000
# 3 25.7037 17.4723 72.9364 0.0000 8.0874 0.0000
# 4 0.0000 0.0000 0.0000 12.3269 0.0000 -1.3640
# 5 9.7986 5.3165 8.0874 0.0000 32.6124 0.0000
# 6 0.0000 0.0000 0.0000 -1.3640 0.0000 10.4562
#
#
#
# Elastic Compliance Matrix: (Units=1/GPa)
#
#
# Indices 1 2 3 4 5 6 
#
# 1 0.017760 -0.002214 -0.005323 0.000000 -0.003655 0.000000
# 2 -0.002214 0.014736 -0.002630 0.000000 -0.001085 0.000000
# 3 -0.005323 -0.002630 0.016444 0.000000 -0.002050 0.000000
# 4 0.000000 0.000000 0.000000 0.082312 0.000000 0.010738
# 5 -0.003655 -0.001085 -0.002050 0.000000 0.032447 0.000000
# 6 0.000000 0.000000 0.000000 0.010738 0.000000 0.097038
#
#
# Mechanical properties :
#
#
# Convention : Reuss Voigt Hill
#
# Bulk Modulus (GPa) = 34.95733 36.88774 35.92253
# Shear Modulus (GPa) = 17.20559 21.47297 19.33928
#
# Velocity S-wave (km/s) = 3.14613 3.51469 3.33550
# Velocity P-wave (km/s) = 5.77130 6.13936 5.95817
#
# Compressibility (1/GPa) = 0.02860631
#
# Stress axis : x y z
#
# Youngs Moduli (GPa) = 56.30725 67.86262 60.81346
#
# Poissons Ratio (x) = 0.15022 0.32372
# Poissons Ratio (y) = 0.12465 0.15991
# Poissons Ratio (z) = 0.29973 0.17845
#
# Static dielectric constant tensor:
#      x y z
#    x 3.335530 0.000000 0.067860 
#    y 0.000000 3.107930 0.000000 
#    z 0.067860 0.000000 3.279730 
# 
# 
# High freq. dielectric constant tensor:
#      x y z
#    x 1.674360 0.000000 0.017780 
#    y 0.000000 1.628640 0.000000 
#    z 0.017780 0.000000 1.668050 
# 
# From -- ./inp_files/54327.got.cif
#   From: 2010.06.25/outbox.cif.g09.slc.cpg/sg12_28_cif.got.tgz:54327.got - 2010.06.28 00:19:55.
