data_PCOD8081622
_publ_section_title
;
Structure prediction by ZEFSAII (Michael W. Deem and Ramdas Pophale) SiO2 
 PCOD8081622
Probable space group: C 2/M
;
_chemical_formula_sum "Si O2"
_cell_formula_units_Z 48
_cell_length_a 13.260964
_cell_length_b 11.852227
_cell_length_c 22.841143
_cell_angle_alpha 90.000000
_cell_angle_beta 150.918172
_cell_angle_gamma 90.000000
_cell_volume 1744.942779
_symmetry_space_group_name_H-M "C 2/M"
_symmetry_group_IT_number 12
_symmetry_cell_setting 'monoclinic'
loop_
_space_group_symop_operation_xyz
x,y,z
-x,y,-z
-x,-y,-z
x,-y,z
1/2+x,1/2+y,z
1/2-x,1/2+y,-z
1/2-x,1/2-y,-z
1/2+x,1/2-y,z
loop_
_atom_site_type_symbol
_atom_site_label
_atom_site_fract_x
_atom_site_fract_y
_atom_site_fract_z
Si Si1 0.407398 0.634612 0.672490
Si Si2 0.212314 0.366838 0.321889
Si Si3 0.360520 0.872861 0.059602
Si Si4 0.855864 0.133826 0.517203
Si Si5 0.600021 0.633361 0.201502
Si Si6 0.153698 0.271995 0.125024
O O1 0.393417 0.500000 0.663020
O O2 0.303719 0.679017 0.557477
O O3 0.309457 0.672301 0.687416
O O4 0.647084 0.667995 0.800719
O O5 0.210986 0.500000 0.328757
O O6 0.406954 0.336436 0.378914
O O7 0.217713 0.316072 0.392040
O O8 0.000982 0.321790 0.184505
O O9 0.508310 0.870607 0.077916
O O10 0.305372 0.000000 0.047730
O O11 0.132623 0.815926 0.933056
O O12 0.823046 0.000000 0.501386
O O13 0.598437 0.500000 0.201130
O O14 0.733788 0.681462 0.215241
O O15 0.000000 0.210390 0.000000
#
# Coordination Sequence:
#
# PCOD8081622 Si02
#       6
#     8   8   8   8   8   8
#     4  10  19  33  55  81 107 135 169 211 258 309
#     4   8  13  22  41  72 106 132 159 201 254 303
#     4  10  18  30  49  76 107 133 164 210 257 303
#     4   8  13  23  42  73 105 131 160 201 253 303
#     4  10  23  38  51  74 106 138 175 215 256 304
#     4  12  22  32  53  76 104 139 175 210 257 308
#
# _framework density 27.508065999999999
#
# number of rings (size 3 to 8) (size 9 to 14) (size 15 to 20)
#    0.000    2.333    3.333    2.000    0.000    1.000 
#    0.000    0.000    0.000    1.000    4.333    0.000 
#    0.000    2.667    0.000    0.833    0.000    0.000 
#
# Total GULP energy -297410.852322 kJ/mol
# GULP energy per Si atom -12392.118847 kJ/mol
# Density = 2.744546 g / cm^3
# Si number density = 27.508066 Si / 1000 Ang^3
#
#
#
# Elastic Constant Matrix: (Units=GPa)
#
#
# Indices 1 2 3 4 5 6 
#
# 1 110.8120 44.1603 38.4310 -0.0008 -56.5512 0.0010
# 2 44.1603 90.4368 66.3226 0.0000 -44.9414 0.0017
# 3 38.4310 66.3226 150.2023 0.0074 -59.9456 -0.0035
# 4 -0.0008 0.0000 0.0074 40.8284 0.0000 -19.0529
# 5 -56.5512 -44.9414 -59.9456 0.0000 58.2964 0.0006
# 6 0.0010 0.0017 -0.0035 -19.0529 0.0006 36.2511
#
#
#
# Elastic Compliance Matrix: (Units=1/GPa)
#
#
# Indices 1 2 3 4 5 6 
#
# 1 0.019582 -0.001928 0.004798 -0.000001 0.022444 -0.000001
# 2 -0.001928 0.019712 -0.004905 0.000000 0.008282 -0.000001
# 3 0.004798 -0.004905 0.013474 -0.000002 0.014728 0.000000
# 4 -0.000001 0.000000 -0.000002 0.032452 -0.000003 0.017056
# 5 0.022444 0.008282 0.014728 -0.000003 0.060455 -0.000002
# 6 -0.000001 -0.000001 0.000000 0.017056 -0.000002 0.036550
#
#
# Mechanical properties :
#
#
# Convention : Reuss Voigt Hill
#
# Bulk Modulus (GPa) = 20.53443 72.14207 46.33825
# Shear Modulus (GPa) = 24.68800 40.57767 32.63283
#
# Velocity S-wave (km/s) = 2.99905 3.84489 3.44801
# Velocity P-wave (km/s) = 4.41288 6.78186 5.72133
#
# Compressibility (1/GPa) = 0.04869871
#
# Stress axis : x y z
#
# Youngs Moduli (GPa) = 51.06633 50.73148 74.21731
#
# Poissons Ratio (x) = 0.09779 -0.35611
# Poissons Ratio (y) = 0.09843 0.36405
# Poissons Ratio (z) = -0.24502 0.24885
#
# Static dielectric constant tensor:
#      x y z
#    x 5.029490 0.000000 -0.836130 
#    y 0.000000 5.440280 0.000000 
#    z -0.836130 0.000000 5.541080 
# 
# 
# High freq. dielectric constant tensor:
#      x y z
#    x 2.094150 0.000000 -0.047000 
#    y 0.000000 2.180050 0.000000 
#    z -0.047000 0.000000 2.126230 
# 
# From -- ./inp_files/205125.got.cif
#   From: 2010.06.25/outbox.cif.g09.slc.cpg/sg12_103_cif.got.tgz:205125.got - 2010.06.28 00:19:55.
