data_PCOD8081545
_publ_section_title
;
Structure prediction by ZEFSAII (Michael W. Deem and Ramdas Pophale) SiO2 
 PCOD8081545
Probable space group: C 2/M
;
_chemical_formula_sum "Si O2"
_cell_formula_units_Z 56
_cell_length_a 30.055365
_cell_length_b 8.513185
_cell_length_c 18.966561
_cell_angle_alpha 90.000000
_cell_angle_beta 141.944780
_cell_angle_gamma 90.000000
_cell_volume 2991.436922
_symmetry_space_group_name_H-M "C 2/M"
_symmetry_group_IT_number 12
_symmetry_cell_setting 'monoclinic'
loop_
_space_group_symop_operation_xyz
x,y,z
-x,y,-z
-x,-y,-z
x,-y,z
1/2+x,1/2+y,z
1/2-x,1/2+y,-z
1/2-x,1/2-y,-z
1/2+x,1/2-y,z
loop_
_atom_site_type_symbol
_atom_site_label
_atom_site_fract_x
_atom_site_fract_y
_atom_site_fract_z
Si Si1 0.369941 0.185626 0.269475
Si Si2 0.560904 0.316890 0.026468
Si Si3 0.222010 0.318013 0.073892
Si Si4 0.218454 0.182413 0.220868
Si Si5 0.638919 0.683872 0.585912
Si Si6 0.004185 0.316270 0.342921
Si Si7 0.071778 0.185093 0.880359
O O1 0.297921 0.249079 0.139753
O O2 0.380334 0.252705 0.360696
O O3 0.438557 0.240901 0.310218
O O4 0.364789 0.000000 0.267984
O O5 0.544078 0.500000 0.000814
O O6 0.640538 0.286695 0.160135
O O7 0.500000 0.235419 0.000000
O O8 0.559045 0.251661 0.944244
O O9 0.215604 0.500000 0.046425
O O10 0.224105 0.292715 0.160056
O O11 0.152632 0.228988 0.955408
O O12 0.287762 0.233073 0.353694
O O13 0.223458 0.000000 0.204060
O O14 0.651662 0.500000 0.605273
O O15 0.575403 0.722743 0.452945
O O16 0.018671 0.500000 0.369290
O O17 0.986405 0.273660 0.240194
O O18 0.060983 0.000000 0.860684
#
# Coordination Sequence:
#
# PCOD8081545 Si02
#       7
#     8   8   8   8   8   8   8
#     4  10  20  34  51  71  96 130 173 216 253 288
#     4   8  15  30  55  84 106 125 154 195 245 299
#     4  10  18  30  49  71  99 132 166 207 249 293
#     4   9  16  29  51  76 102 131 163 201 244 291
#     4  11  21  33  51  73 100 133 171 212 247 288
#     4  11  23  36  50  69  98 135 172 211 251 293
#     4  10  20  34  52  74 102 133 164 201 249 303
#
# _framework density 18.720099999999999
#
# number of rings (size 3 to 8) (size 9 to 14) (size 15 to 20)
#    0.000    2.143    0.000    7.286    0.000    4.571 
#    0.000    0.000    0.000   16.286    0.000    0.000 
#    0.000    0.000    0.000    0.000    0.000    0.000 
#
# Total GULP energy -347082.509002 kJ/mol
# GULP energy per Si atom -12395.803893 kJ/mol
# Density = 1.867749 g / cm^3
# Si number density = 18.720100 Si / 1000 Ang^3
#
#
#
# Elastic Constant Matrix: (Units=GPa)
#
#
# Indices 1 2 3 4 5 6 
#
# 1 98.3738 26.4343 55.7790 0.0000 26.1090 0.0000
# 2 26.4343 64.9623 15.1126 0.0000 7.3825 0.0000
# 3 55.7790 15.1126 106.2789 0.0000 16.1546 0.0000
# 4 0.0000 0.0000 0.0000 32.9747 0.0000 0.9472
# 5 26.1090 7.3825 16.1546 0.0000 24.4424 0.0000
# 6 0.0000 0.0000 0.0000 0.9472 0.0000 8.8929
#
#
#
# Elastic Compliance Matrix: (Units=1/GPa)
#
#
# Indices 1 2 3 4 5 6 
#
# 1 0.019385 -0.004537 -0.007326 0.000000 -0.014495 0.000000
# 2 -0.004537 0.017286 -0.000022 0.000000 -0.000360 0.000000
# 3 -0.007326 -0.000022 0.013414 0.000000 -0.001034 0.000000
# 4 0.000000 0.000000 0.000000 0.030419 0.000000 -0.003240
# 5 -0.014495 -0.000360 -0.001034 0.000000 0.057188 0.000000
# 6 0.000000 0.000000 0.000000 -0.003240 0.000000 0.112795
#
#
# Mechanical properties :
#
#
# Convention : Reuss Voigt Hill
#
# Bulk Modulus (GPa) = 37.99971 51.58522 44.79247
# Shear Modulus (GPa) = 17.66608 24.74793 21.20701
#
# Velocity S-wave (km/s) = 3.07530 3.63987 3.36943
# Velocity P-wave (km/s) = 5.74046 6.72910 6.25434
#
# Compressibility (1/GPa) = 0.02631599
#
# Stress axis : x y z
#
# Youngs Moduli (GPa) = 51.58591 57.85127 74.54729
#
# Poissons Ratio (x) = 0.26245 0.54611
# Poissons Ratio (y) = 0.23403 0.00166
# Poissons Ratio (z) = 0.37790 0.00129
#
# Static dielectric constant tensor:
#      x y z
#    x 3.604060 0.000000 0.346470 
#    y 0.000000 3.324640 0.000000 
#    z 0.346470 0.000000 3.641850 
# 
# 
# High freq. dielectric constant tensor:
#      x y z
#    x 1.692920 0.000000 0.027000 
#    y 0.000000 1.725740 0.000000 
#    z 0.027000 0.000000 1.727880 
# 
# From -- ./inp_files/295157.got.cif
#   From: 2010.06.25/outbox.cif.g09.slc.cpg/sg12_148_cif.got.tgz:295157.got - 2010.06.28 00:19:55.
