data_PCOD8081860
_publ_section_title
;
Structure prediction by ZEFSAII (Michael W. Deem and Ramdas Pophale) SiO2 
 PCOD8081860
Probable space group: C 2/M
;
_chemical_formula_sum "Si O2"
_cell_formula_units_Z 56
_cell_length_a 23.726583
_cell_length_b 8.794724
_cell_length_c 14.392492
_cell_angle_alpha 90.000000
_cell_angle_beta 91.367392
_cell_angle_gamma 90.000000
_cell_volume 3002.408069
_symmetry_space_group_name_H-M "C 2/M"
_symmetry_group_IT_number 12
_symmetry_cell_setting 'monoclinic'
loop_
_space_group_symop_operation_xyz
x,y,z
-x,y,-z
-x,-y,-z
x,-y,z
1/2+x,1/2+y,z
1/2-x,1/2+y,-z
1/2-x,1/2-y,-z
1/2+x,1/2-y,z
loop_
_atom_site_type_symbol
_atom_site_label
_atom_site_fract_x
_atom_site_fract_y
_atom_site_fract_z
Si Si1 0.592548 0.327736 0.476303
Si Si2 0.870106 0.677122 0.809513
Si Si3 0.810206 0.173543 0.642551
Si Si4 0.080603 0.320781 0.666181
Si Si5 0.772125 0.180622 0.906522
Si Si6 0.200654 0.675606 0.728298
Si Si7 0.030772 0.822714 0.281124
O O1 0.579755 0.500000 0.507785
O O2 0.659765 0.306549 0.456380
O O3 0.573616 0.216660 0.557051
O O4 0.557423 0.286919 0.382892
O O5 0.874578 0.500000 0.832175
O O6 0.837181 0.704970 0.712649
O O7 0.835588 0.758988 0.890952
O O8 0.932859 0.745784 0.799861
O O9 0.742676 0.200364 0.640877
O O10 0.822960 0.000000 0.679586
O O11 0.077170 0.500000 0.678436
O O12 0.140121 0.248903 0.704340
O O13 0.031842 0.245179 0.725282
O O14 0.730541 0.239355 0.822454
O O15 0.773408 0.000000 0.912403
O O16 0.750000 0.250000 0.000000
O O17 0.188347 0.500000 0.743202
O O18 0.028318 0.000000 0.260901
#
# Coordination Sequence:
#
# PCOD8081860 Si02
#       7
#     8   8   8   8   8   8   8
#     4   9  18  31  47  67  93 130 175 216 255 292
#     4  10  18  30  51  79 103 125 160 204 247 290
#     4   8  15  31  50  66  94 135 169 201 248 300
#     4  11  21  31  46  70  99 133 172 211 248 288
#     4  10  19  35  58  82 106 130 157 193 241 296
#     4   8  17  33  50  70 101 135 161 194 249 305
#     4  10  20  35  51  67  95 136 175 210 250 291
#
# _framework density 18.651695
#
# number of rings (size 3 to 8) (size 9 to 14) (size 15 to 20)
#    0.000    2.571    0.000    4.714    0.000    5.143 
#    0.000    7.143    0.000    0.857    0.000    6.000 
#    0.000    0.000    0.000    0.000    0.000    0.000 
#
# Total GULP energy -347004.595304 kJ/mol
# GULP energy per Si atom -12393.021261 kJ/mol
# Density = 1.860924 g / cm^3
# Si number density = 18.651695 Si / 1000 Ang^3
#
#
#
# Elastic Constant Matrix: (Units=GPa)
#
#
# Indices 1 2 3 4 5 6 
#
# 1 155.4036 44.9129 36.4117 0.0000 -31.6243 0.0000
# 2 44.9129 83.9793 23.6086 0.0000 -14.8331 0.0000
# 3 36.4117 23.6086 45.2083 0.0000 -24.8116 0.0000
# 4 0.0000 0.0000 0.0000 23.8919 0.0000 -9.3124
# 5 -31.6243 -14.8331 -24.8116 0.0000 29.7357 0.0000
# 6 0.0000 0.0000 0.0000 -9.3124 0.0000 28.3243
#
#
#
# Elastic Compliance Matrix: (Units=1/GPa)
#
#
# Indices 1 2 3 4 5 6 
#
# 1 0.009154 -0.003145 -0.002303 0.000000 0.006245 0.000000
# 2 -0.003145 0.015080 -0.005625 0.000000 -0.000516 0.000000
# 3 -0.002303 -0.005625 0.044328 0.000000 0.031732 0.000000
# 4 0.000000 0.000000 0.000000 0.048007 0.000000 0.015784
# 5 0.006245 -0.000516 0.031732 0.000000 0.066491 0.000000
# 6 0.000000 0.000000 0.000000 0.015784 0.000000 0.040495
#
#
# Mechanical properties :
#
#
# Convention : Reuss Voigt Hill
#
# Bulk Modulus (GPa) = 21.54477 54.93975 38.24226
# Shear Modulus (GPa) = 19.14434 28.36758 23.75596
#
# Velocity S-wave (km/s) = 3.20724 3.90412 3.57271
# Velocity P-wave (km/s) = 5.02906 7.05992 6.12919
#
# Compressibility (1/GPa) = 0.04641497
#
# Stress axis : x y z
#
# Youngs Moduli (GPa) = 109.23746 66.31293 22.55924
#
# Poissons Ratio (x) = 0.20858 0.05196
# Poissons Ratio (y) = 0.34359 0.12690
# Poissons Ratio (z) = 0.25158 0.37302
#
# Static dielectric constant tensor:
#      x y z
#    x 3.884800 0.000000 -0.280450 
#    y 0.000000 3.253790 0.000000 
#    z -0.280450 0.000000 3.116030 
# 
# 
# High freq. dielectric constant tensor:
#      x y z
#    x 1.735650 0.000000 -0.033300 
#    y 0.000000 1.715640 0.000000 
#    z -0.033300 0.000000 1.677070 
# 
# From -- ./inp_files/231027.got.cif
#   From: 2010.06.25/outbox.cif.g09.slc.cpg/sg12_116_cif.got.tgz:231027.got - 2010.06.28 00:19:55.
