data_PCOD8081425
_publ_section_title
;
Structure prediction by ZEFSAII (Michael W. Deem and Ramdas Pophale) SiO2 
 PCOD8081425
Probable space group: C 2/M
;
_chemical_formula_sum "Si O2"
_cell_formula_units_Z 64
_cell_length_a 18.763215
_cell_length_b 20.051958
_cell_length_c 17.914370
_cell_angle_alpha 90.000000
_cell_angle_beta 145.505191
_cell_angle_gamma 90.000000
_cell_volume 3817.124736
_symmetry_space_group_name_H-M "C 2/M"
_symmetry_group_IT_number 12
_symmetry_cell_setting 'monoclinic'
loop_
_space_group_symop_operation_xyz
x,y,z
-x,y,-z
-x,-y,-z
x,-y,z
1/2+x,1/2+y,z
1/2-x,1/2+y,-z
1/2-x,1/2-y,-z
1/2+x,1/2-y,z
loop_
_atom_site_type_symbol
_atom_site_label
_atom_site_fract_x
_atom_site_fract_y
_atom_site_fract_z
Si Si1 0.592031 0.310921 0.857127
Si Si2 0.274393 0.922569 0.613344
Si Si3 0.363174 0.604648 0.356280
Si Si4 0.055279 0.753605 0.621255
Si Si5 0.811262 0.316603 0.141931
Si Si6 0.940306 0.576026 0.163222
Si Si7 0.209683 0.927013 0.867427
Si Si8 0.641964 0.697765 0.424028
O O1 0.639739 0.239493 0.871757
O O2 0.623708 0.368636 0.824945
O O3 0.439842 0.309496 0.723581
O O4 0.659858 0.325808 0.995516
O O5 0.235781 0.910322 0.664801
O O6 0.419254 0.900354 0.733526
O O7 0.194810 0.875040 0.489970
O O8 0.253118 0.000000 0.572092
O O9 0.500000 0.576895 0.500000
O O10 0.370063 0.682956 0.345554
O O11 0.308864 0.567973 0.237103
O O12 0.157732 0.703865 0.746554
O O13 0.000000 0.716686 0.500000
O O14 0.946536 0.774599 0.585705
O O15 0.884256 0.384169 0.185225
O O16 0.940457 0.500000 0.189270
O O17 0.854720 0.587909 0.015480
O O18 0.171579 0.000000 0.867367
O O19 0.750000 0.750000 0.500000
#
# Coordination Sequence:
#
# PCOD8081425 Si02
#       8
#     8   8   8   8   8   8   8   8
#     4   9  17  29  47  72  91 120 171 203 245 289
#     4  11  21  32  47  70 103 140 169 199 243 295
#     4  11  19  32  44  66 101 133 170 199 229 292
#     4  10  18  34  50  71 100 126 169 206 245 298
#     4   9  16  31  54  69  89 127 162 210 250 286
#     4   9  20  34  48  72  99 127 168 212 256 291
#     4  10  18  30  48  69  99 134 168 205 239 290
#     4  11  20  33  50  72  99 130 168 211 248 288
#
# _framework density 16.766546999999999
#
# number of rings (size 3 to 8) (size 9 to 14) (size 15 to 20)
#    0.000    2.000    5.000    1.875    0.000    3.000 
#    0.000    1.875    0.000    1.125    0.000    0.000 
#    0.000    0.000    0.000   10.750    0.000    0.000 
#
# Total GULP energy -396494.451837 kJ/mol
# GULP energy per Si atom -12390.451620 kJ/mol
# Density = 1.672839 g / cm^3
# Si number density = 16.766547 Si / 1000 Ang^3
#
#
#
# Elastic Constant Matrix: (Units=GPa)
#
#
# Indices 1 2 3 4 5 6 
#
# 1 33.6824 23.7478 40.9917 0.0004 -2.5254 0.0003
# 2 23.7478 69.2432 44.6268 0.0001 0.0519 0.0000
# 3 40.9917 44.6268 157.3191 0.0006 -6.5579 0.0008
# 4 0.0004 0.0001 0.0006 24.4291 0.0000 0.0428
# 5 -2.5254 0.0519 -6.5579 0.0000 27.6344 0.0001
# 6 0.0003 0.0000 0.0008 0.0428 0.0001 23.1867
#
#
#
# Elastic Compliance Matrix: (Units=1/GPa)
#
#
# Indices 1 2 3 4 5 6 
#
# 1 0.049139 -0.010600 -0.009705 0.000000 0.002207 0.000000
# 2 -0.010600 0.020001 -0.002983 0.000000 -0.001714 0.000000
# 3 -0.009705 -0.002983 0.009792 0.000000 0.001442 0.000000
# 4 0.000000 0.000000 0.000000 0.040935 0.000000 -0.000076
# 5 0.002207 -0.001714 0.001442 0.000000 0.036734 0.000000
# 6 0.000000 0.000000 0.000000 -0.000076 0.000000 0.043128
#
#
# Mechanical properties :
#
#
# Convention : Reuss Voigt Hill
#
# Bulk Modulus (GPa) = 30.90629 53.21969 42.06299
# Shear Modulus (GPa) = 19.44841 25.10861 22.27851
#
# Velocity S-wave (km/s) = 3.40950 3.87401 3.64915
# Velocity P-wave (km/s) = 5.82863 7.19869 6.54958
#
# Compressibility (1/GPa) = 0.03235587
#
# Stress axis : x y z
#
# Youngs Moduli (GPa) = 20.35041 49.99710 102.12750
#
# Poissons Ratio (x) = 0.52995 0.99115
# Poissons Ratio (y) = 0.21571 0.30468
# Poissons Ratio (z) = 0.19750 0.14916
#
# Static dielectric constant tensor:
#      x y z
#    x 2.781420 0.000000 -0.111770 
#    y 0.000000 3.249980 0.000000 
#    z -0.111770 0.000000 3.753370 
# 
# 
# High freq. dielectric constant tensor:
#      x y z
#    x 1.587060 0.000000 -0.002730 
#    y 0.000000 1.648870 0.000000 
#    z -0.002730 0.000000 1.672060 
# 
# From -- ./inp_files/322473.got.cif
#   From: 2010.06.25/outbox.cif.g09.slc.cpg/sg12_162_cif.got.tgz:322473.got - 2010.06.28 00:19:55.
