data_PCOD8081595
_publ_section_title
;
Structure prediction by ZEFSAII (Michael W. Deem and Ramdas Pophale) SiO2 
 PCOD8081595
Probable space group: C 2/M
;
_chemical_formula_sum "Si O2"
_cell_formula_units_Z 56
_cell_length_a 24.337965
_cell_length_b 11.691458
_cell_length_c 28.251100
_cell_angle_alpha 90.000000
_cell_angle_beta 22.347789
_cell_angle_gamma 90.000000
_cell_volume 3056.554024
_symmetry_space_group_name_H-M "C 2/M"
_symmetry_group_IT_number 12
_symmetry_cell_setting 'monoclinic'
loop_
_space_group_symop_operation_xyz
x,y,z
-x,y,-z
-x,-y,-z
x,-y,z
1/2+x,1/2+y,z
1/2-x,1/2+y,-z
1/2-x,1/2-y,-z
1/2+x,1/2-y,z
loop_
_atom_site_type_symbol
_atom_site_label
_atom_site_fract_x
_atom_site_fract_y
_atom_site_fract_z
Si Si1 0.855658 0.864325 0.592995
Si Si2 0.626116 0.868763 0.850715
Si Si3 0.273363 0.363959 0.557400
Si Si4 0.457043 0.234152 0.813268
Si Si5 0.676334 0.632930 0.997983
Si Si6 0.320652 0.208014 0.091632
Si Si7 0.522489 0.629440 0.294144
O O1 0.720992 0.825734 0.731742
O O2 0.834981 0.814126 0.557365
O O3 0.000000 0.810225 0.500000
O O4 0.867341 0.000000 0.581737
O O5 0.657586 0.779512 0.868766
O O6 0.662167 0.000000 0.837332
O O7 0.460472 0.865424 0.964396
O O8 0.275453 0.500000 0.555702
O O9 0.382207 0.310893 0.430898
O O10 0.109101 0.325823 0.683625
O O11 0.330995 0.143416 0.901235
O O12 0.447394 0.334792 0.783104
O O13 0.437061 0.289879 0.881299
O O14 0.630148 0.500000 0.034020
O O15 0.682408 0.676812 0.938355
O O16 0.169247 0.143465 0.206837
O O17 0.477404 0.500000 0.328685
#
# Coordination Sequence:
#
# PCOD8081595 Si02
#       7
#     8   8   8   8   8   8   8
#     4   9  17  28  44  68  98 130 159 193 241 289
#     4  10  18  30  49  74 104 132 165 206 248 298
#     4  10  19  31  49  74 103 131 161 199 244 297
#     4  10  20  34  52  72  97 131 169 203 247 300
#     4  10  21  36  52  71  98 130 168 214 254 294
#     4  10  19  31  49  72  98 131 166 202 248 296
#     4  10  19  31  49  74 104 133 162 200 246 296
#
# _framework density 18.321287000000002
#
# number of rings (size 3 to 8) (size 9 to 14) (size 15 to 20)
#    0.000    2.143    0.000    4.714    0.000    2.286 
#    0.000    7.143    0.000    0.857    0.000    0.000 
#    0.000   13.714    0.000    0.000    0.000    0.000 
#
# Total GULP energy -346895.946924 kJ/mol
# GULP energy per Si atom -12389.140962 kJ/mol
# Density = 1.827959 g / cm^3
# Si number density = 18.321287 Si / 1000 Ang^3
#
#
#
# Elastic Constant Matrix: (Units=GPa)
#
#
# Indices 1 2 3 4 5 6 
#
# 1 62.5373 24.1943 19.5651 0.0048 1.8705 0.0018
# 2 24.1943 44.5697 1.4470 0.0013 7.6422 0.0010
# 3 19.5651 1.4470 112.4701 0.0017 4.9940 0.0079
# 4 0.0048 0.0013 0.0017 22.6503 0.0030 2.5292
# 5 1.8705 7.6422 4.9940 0.0030 30.9245 -0.0015
# 6 0.0018 0.0010 0.0079 2.5292 -0.0015 15.6643
#
#
#
# Elastic Compliance Matrix: (Units=1/GPa)
#
#
# Indices 1 2 3 4 5 6 
#
# 1 0.021765 -0.012083 -0.003732 -0.000004 0.002272 0.000001
# 2 -0.012083 0.030138 0.002027 0.000002 -0.007044 -0.000003
# 3 -0.003732 0.002027 0.009595 0.000001 -0.001825 -0.000005
# 4 -0.000004 0.000002 0.000001 0.044960 -0.000005 -0.007259
# 5 0.002272 -0.007044 -0.001825 -0.000005 0.034235 0.000005
# 6 0.000001 -0.000003 -0.000005 -0.007259 0.000005 0.065012
#
#
# Mechanical properties :
#
#
# Convention : Reuss Voigt Hill
#
# Bulk Modulus (GPa) = 29.47891 34.44332 31.96111
# Shear Modulus (GPa) = 20.44258 25.47255 22.95756
#
# Velocity S-wave (km/s) = 3.34396 3.73275 3.54369
# Velocity P-wave (km/s) = 5.57084 6.11705 5.85033
#
# Compressibility (1/GPa) = 0.03392255
#
# Stress axis : x y z
#
# Youngs Moduli (GPa) = 45.94611 33.18064 104.21731
#
# Poissons Ratio (x) = 0.40093 0.38889
# Poissons Ratio (y) = 0.55517 -0.21125
# Poissons Ratio (z) = 0.17145 -0.06726
#
# Static dielectric constant tensor:
#      x y z
#    x 3.542360 0.000000 0.078330 
#    y 0.000000 2.868600 0.000020 
#    z 0.078330 0.000020 3.809390 
# 
# 
# High freq. dielectric constant tensor:
#      x y z
#    x 1.716830 0.000000 0.007420 
#    y 0.000000 1.651040 0.000000 
#    z 0.007420 0.000000 1.734120 
# 
# From -- ./inp_files/347009.got.cif
#   From: 2010.06.25/outbox.cif.g09.slc.cpg/sg12_174_cif.got.tgz:347009.got - 2010.06.28 00:19:55.
