data_PCOD8081291
_publ_section_title
;
Structure prediction by ZEFSAII (Michael W. Deem and Ramdas Pophale) SiO2 
 PCOD8081291
Probable space group: C 2/M
;
_chemical_formula_sum "Si O2"
_cell_formula_units_Z 56
_cell_length_a 33.163006
_cell_length_b 9.533408
_cell_length_c 9.668384
_cell_angle_alpha 90.000000
_cell_angle_beta 91.681702
_cell_angle_gamma 90.000000
_cell_volume 3055.405543
_symmetry_space_group_name_H-M "C 2/M"
_symmetry_group_IT_number 12
_symmetry_cell_setting 'monoclinic'
loop_
_space_group_symop_operation_xyz
x,y,z
-x,y,-z
-x,-y,-z
x,-y,z
1/2+x,1/2+y,z
1/2-x,1/2+y,-z
1/2-x,1/2-y,-z
1/2+x,1/2-y,z
loop_
_atom_site_type_symbol
_atom_site_label
_atom_site_fract_x
_atom_site_fract_y
_atom_site_fract_z
Si Si1 0.925856 0.667316 0.334595
Si Si2 0.000150 0.667056 0.841864
Si Si3 0.714009 0.843208 0.546097
Si Si4 0.660048 0.156974 0.281388
Si Si5 0.574234 0.167686 0.349743
Si Si6 0.789526 0.664567 0.962157
Si Si7 0.840591 0.336504 0.225640
O O1 0.926265 0.500000 0.332479
O O2 0.961163 0.724402 0.238144
O O3 0.932114 0.721571 0.492934
O O4 0.884230 0.728928 0.265807
O O5 0.000138 0.500000 0.845012
O O6 0.961188 0.722056 0.753764
O O7 0.000000 0.724881 0.000000
O O8 0.750000 0.750000 0.500000
O O9 0.677558 0.844437 0.435520
O O10 0.695198 0.774465 0.682189
O O11 0.730843 0.000000 0.572465
O O12 0.615987 0.229060 0.288961
O O13 0.692489 0.226875 0.179873
O O14 0.653931 0.000000 0.222281
O O15 0.576367 0.000000 0.353879
O O16 0.777571 0.500000 0.954766
O O17 0.750000 0.750000 0.000000
O O18 0.827119 0.691903 0.068422
O O19 0.843229 0.500000 0.262096
#
# Coordination Sequence:
#
# PCOD8081291 Si02
#       7
#     8   8   8   8   8   8   8
#     4   9  15  25  38  54  79 112 147 180 216 262
#     4   9  17  23  33  55  81 111 146 181 216 257
#     4  10  18  30  46  65  87 115 151 188 222 262
#     4   9  17  28  43  61  83 114 151 184 220 269
#     4   9  15  25  38  54  79 112 147 180 216 262
#     4  10  20  32  46  65  89 119 153 190 230 268
#     4   9  17  28  43  61  83 114 151 184 220 269
#
# _framework density 18.328171999999999
#
# number of rings (size 3 to 8) (size 9 to 14) (size 15 to 20)
#    0.000    2.714    1.429    1.286    2.000    1.714 
#    0.000    0.000    0.000    0.000    0.000    0.000 
#    0.000    0.000    0.000    7.714    0.000    8.571 
#
# Total GULP energy -346975.544156 kJ/mol
# GULP energy per Si atom -12391.983720 kJ/mol
# Density = 1.828646 g / cm^3
# Si number density = 18.328172 Si / 1000 Ang^3
#
#
#
# Elastic Constant Matrix: (Units=GPa)
#
#
# Indices 1 2 3 4 5 6 
#
# 1 133.9594 20.0165 37.4769 0.0000 -13.1073 0.0000
# 2 20.0165 17.1175 8.8279 0.0000 -1.4499 0.0000
# 3 37.4769 8.8279 98.3351 0.0000 -10.6687 0.0000
# 4 0.0000 0.0000 0.0000 8.1677 0.0000 -3.7269
# 5 -13.1073 -1.4499 -10.6687 0.0000 40.0697 0.0000
# 6 0.0000 0.0000 0.0000 -3.7269 0.0000 11.0459
#
#
#
# Elastic Compliance Matrix: (Units=1/GPa)
#
#
# Indices 1 2 3 4 5 6 
#
# 1 0.009919 -0.010052 -0.002642 0.000000 0.002178 0.000000
# 2 -0.010052 0.071466 -0.002740 0.000000 -0.001432 0.000000
# 3 -0.002642 -0.002740 0.011654 0.000000 0.002140 0.000000
# 4 0.000000 0.000000 0.000000 0.144714 0.000000 0.048827
# 5 0.002178 -0.001432 0.002140 0.000000 0.026187 0.000000
# 6 0.000000 0.000000 0.000000 0.048827 0.000000 0.107006
#
#
# Mechanical properties :
#
#
# Convention : Reuss Voigt Hill
#
# Bulk Modulus (GPa) = 16.08452 42.45051 29.26751
# Shear Modulus (GPa) = 11.83329 24.06271 17.94800
#
# Velocity S-wave (km/s) = 2.54369 3.62730 3.13270
# Velocity P-wave (km/s) = 4.17397 6.38394 5.39336
#
# Compressibility (1/GPa) = 0.06217159
#
# Stress axis : x y z
#
# Youngs Moduli (GPa) = 100.81616 13.99269 85.80596
#
# Poissons Ratio (x) = 0.14066 0.22667
# Poissons Ratio (y) = 1.01341 0.23511
# Poissons Ratio (z) = 0.26632 0.03834
#
# Static dielectric constant tensor:
#      x y z
#    x 3.589480 0.000000 -0.069800 
#    y 0.000000 2.613640 0.000000 
#    z -0.069800 0.000000 3.627420 
# 
# 
# High freq. dielectric constant tensor:
#      x y z
#    x 1.728860 0.000000 -0.005580 
#    y 0.000000 1.608380 0.000000 
#    z -0.005580 0.000000 1.729590 
# 
# From -- ./inp_files/110878.got.cif
#   From: 2010.06.25/outbox.cif.g09.slc.cpg/sg12_56_cif.got.tgz:110878.got - 2010.06.28 00:19:55.
