data_PCOD8081609
_publ_section_title
;
Structure prediction by ZEFSAII (Michael W. Deem and Ramdas Pophale) SiO2 
 PCOD8081609
Probable space group: C 2/M
;
_chemical_formula_sum "Si O2"
_cell_formula_units_Z 56
_cell_length_a 20.500642
_cell_length_b 9.096775
_cell_length_c 19.591535
_cell_angle_alpha 90.000000
_cell_angle_beta 121.872280
_cell_angle_gamma 90.000000
_cell_volume 3102.753685
_symmetry_space_group_name_H-M "C 2/M"
_symmetry_group_IT_number 12
_symmetry_cell_setting 'monoclinic'
loop_
_space_group_symop_operation_xyz
x,y,z
-x,y,-z
-x,-y,-z
x,-y,z
1/2+x,1/2+y,z
1/2-x,1/2+y,-z
1/2-x,1/2-y,-z
1/2+x,1/2-y,z
loop_
_atom_site_type_symbol
_atom_site_label
_atom_site_fract_x
_atom_site_fract_y
_atom_site_fract_z
Si Si1 0.998069 0.827144 0.340611
Si Si2 0.961634 0.673293 0.910361
Si Si3 0.150107 0.168691 0.654997
Si Si4 0.213428 0.329918 0.171753
Si Si5 0.461797 0.826733 0.185567
Si Si6 0.784198 0.327535 0.084064
Si Si7 0.422658 0.834234 0.500448
O O1 0.914816 0.786527 0.325851
O O2 0.005554 0.755750 0.270458
O O3 0.065786 0.759696 0.424563
O O4 0.010700 0.000000 0.342019
O O5 0.973107 0.500000 0.918751
O O6 0.872514 0.716200 0.856088
O O7 0.004495 0.734409 0.867103
O O8 0.000000 0.741896 0.000000
O O9 0.233422 0.197960 0.733126
O O10 0.144461 0.264488 0.583072
O O11 0.138355 0.000000 0.627349
O O12 0.218320 0.500000 0.150931
O O13 0.239521 0.226872 0.125316
O O14 0.372842 0.784573 0.139382
O O15 0.475533 0.000000 0.201666
O O16 0.772715 0.500000 0.069605
O O17 0.750000 0.250000 0.000000
O O18 0.500000 0.829275 0.500000
O O19 0.399608 0.000000 0.507300
#
# Coordination Sequence:
#
# PCOD8081609 Si02
#       7
#     8   8   8   8   8   8   8
#     4  10  18  30  49  75 107 138 168 210 261 312
#     4   9  18  34  55  76 101 137 179 217 257 309
#     4   9  17  29  47  74 105 136 168 207 259 311
#     4  10  19  34  55  77 104 136 174 216 260 312
#     4  10  20  34  53  77 103 136 176 217 258 308
#     4  11  22  34  52  76 104 134 170 217 266 312
#     4   9  17  28  46  73 105 138 170 208 251 305
#
# _framework density 18.048483000000001
#
# number of rings (size 3 to 8) (size 9 to 14) (size 15 to 20)
#    0.000    2.286    1.429    2.143    0.000    5.714 
#    0.000    0.714    0.000    2.571    0.000    0.000 
#    0.000    0.000    0.000    0.000    0.000    0.000 
#
# Total GULP energy -347249.715320 kJ/mol
# GULP energy per Si atom -12401.775547 kJ/mol
# Density = 1.800740 g / cm^3
# Si number density = 18.048483 Si / 1000 Ang^3
#
#
#
# Elastic Constant Matrix: (Units=GPa)
#
#
# Indices 1 2 3 4 5 6 
#
# 1 51.0979 22.5888 38.5901 0.0000 -5.9012 0.0000
# 2 22.5888 63.6577 54.8584 0.0000 -4.7246 0.0000
# 3 38.5901 54.8584 153.9523 0.0000 -6.8413 0.0000
# 4 0.0000 0.0000 0.0000 37.0217 0.0000 -3.8620
# 5 -5.9012 -4.7246 -6.8413 0.0000 26.9760 0.0000
# 6 0.0000 0.0000 0.0000 -3.8620 0.0000 15.0211
#
#
#
# Elastic Compliance Matrix: (Units=1/GPa)
#
#
# Indices 1 2 3 4 5 6 
#
# 1 0.025555 -0.004934 -0.004488 0.000000 0.003588 0.000000
# 2 -0.004934 0.023725 -0.007161 0.000000 0.001260 0.000000
# 3 -0.004488 -0.007161 0.010188 0.000000 0.000348 0.000000
# 4 0.000000 0.000000 0.000000 0.027756 0.000000 0.007136
# 5 0.003588 0.001260 0.000348 0.000000 0.038164 0.000000
# 6 0.000000 0.000000 0.000000 0.007136 0.000000 0.068408
#
#
# Mechanical properties :
#
#
# Convention : Reuss Voigt Hill
#
# Bulk Modulus (GPa) = 38.02157 55.64252 46.83204
# Shear Modulus (GPa) = 21.21083 25.98180 23.59632
#
# Velocity S-wave (km/s) = 3.43186 3.79826 3.61970
# Velocity P-wave (km/s) = 6.06759 7.08041 6.59347
#
# Compressibility (1/GPa) = 0.02630086
#
# Stress axis : x y z
#
# Youngs Moduli (GPa) = 39.13058 42.15028 98.15761
#
# Poissons Ratio (x) = 0.20798 0.44054
# Poissons Ratio (y) = 0.19308 0.70291
# Poissons Ratio (z) = 0.17562 0.30184
#
# Static dielectric constant tensor:
#      x y z
#    x 3.082060 0.000000 0.075110 
#    y 0.000000 3.225440 0.000000 
#    z 0.075110 0.000000 3.476210 
# 
# 
# High freq. dielectric constant tensor:
#      x y z
#    x 1.664360 0.000000 0.002040 
#    y 0.000000 1.688040 0.000000 
#    z 0.002040 0.000000 1.716690 
# 
# From -- ./inp_files/280928.got.cif
#   From: 2010.06.25/outbox.cif.g09.slc.cpg/sg12_141_cif.got.tgz:280928.got - 2010.06.28 00:19:55.
