data_PCOD8081736
_publ_section_title
;
Structure prediction by ZEFSAII (Michael W. Deem and Ramdas Pophale) SiO2 
 PCOD8081736
Probable space group: C 2/M
;
_chemical_formula_sum "Si O2"
_cell_formula_units_Z 48
_cell_length_a 12.354414
_cell_length_b 14.319291
_cell_length_c 15.190330
_cell_angle_alpha 90.000000
_cell_angle_beta 65.841995
_cell_angle_gamma 90.000000
_cell_volume 2451.917341
_symmetry_space_group_name_H-M "C 2/M"
_symmetry_group_IT_number 12
_symmetry_cell_setting 'monoclinic'
loop_
_space_group_symop_operation_xyz
x,y,z
-x,y,-z
-x,-y,-z
x,-y,z
1/2+x,1/2+y,z
1/2-x,1/2+y,-z
1/2-x,1/2-y,-z
1/2+x,1/2-y,z
loop_
_atom_site_type_symbol
_atom_site_label
_atom_site_fract_x
_atom_site_fract_y
_atom_site_fract_z
Si Si1 0.666896 0.105450 0.192942
Si Si2 0.409280 0.608992 0.634674
Si Si3 0.882917 0.893164 0.988947
Si Si4 0.670499 0.659268 0.517626
Si Si5 0.673971 0.601871 0.701686
Si Si6 0.432340 0.702941 0.798892
O O1 0.712938 0.125943 0.276398
O O2 0.568818 0.184182 0.206714
O O3 0.613755 0.000000 0.202984
O O4 0.772510 0.119895 0.089403
O O5 0.443731 0.500000 0.634719
O O6 0.528098 0.669743 0.575552
O O7 0.313176 0.617888 0.586943
O O8 0.361006 0.652416 0.741965
O O9 0.865040 0.829694 0.908990
O O10 0.897540 0.000000 0.953817
O O11 0.000000 0.858368 0.000000
O O12 0.750000 0.750000 0.500000
O O13 0.713908 0.596669 0.585738
O O14 0.625855 0.500000 0.746757
O O15 0.570452 0.675906 0.753406
#
# Coordination Sequence:
#
# PCOD8081736 Si02
#       6
#     8   8   8   8   8   8
#     4  10  21  34  52  78 106 136 171 210 256 305
#     4  10  20  34  53  79 105 133 173 221 258 295
#     4  10  18  32  54  81 104 129 170 217 254 297
#     4  10  18  30  50  77 106 134 165 206 258 305
#     4  10  19  34  55  78 102 134 174 217 253 296
#     4  11  19  32  55  79 103 134 173 213 257 304
#
# _framework density 19.576516999999999
#
# number of rings (size 3 to 8) (size 9 to 14) (size 15 to 20)
#    0.000    1.833    1.667    6.000    0.000    0.000 
#    0.000    0.000    0.000   19.500    0.000   24.500 
#    0.000    0.000    0.000    0.000    0.000    0.000 
#
# Total GULP energy -297340.313499 kJ/mol
# GULP energy per Si atom -12389.179729 kJ/mol
# Density = 1.953196 g / cm^3
# Si number density = 19.576517 Si / 1000 Ang^3
#
#
#
# Elastic Constant Matrix: (Units=GPa)
#
#
# Indices 1 2 3 4 5 6 
#
# 1 47.5912 56.6853 22.5889 0.0000 9.5520 0.0000
# 2 56.6853 141.0165 34.0296 0.0000 6.8874 0.0000
# 3 22.5889 34.0296 99.5412 0.0000 35.4611 0.0000
# 4 0.0000 0.0000 0.0000 28.5844 0.0000 0.4683
# 5 9.5520 6.8874 35.4611 0.0000 28.3635 0.0000
# 6 0.0000 0.0000 0.0000 0.4683 0.0000 36.1673
#
#
#
# Elastic Compliance Matrix: (Units=1/GPa)
#
#
# Indices 1 2 3 4 5 6 
#
# 1 0.043192 -0.016738 -0.000623 0.000000 -0.009702 0.000000
# 2 -0.016738 0.014321 -0.003366 0.000000 0.006367 0.000000
# 3 -0.000623 -0.003366 0.019784 0.000000 -0.023707 0.000000
# 4 0.000000 0.000000 0.000000 0.034992 0.000000 -0.000453
# 5 -0.009702 0.006367 -0.023707 0.000000 0.066618 0.000000
# 6 0.000000 0.000000 0.000000 -0.000453 0.000000 0.027655
#
#
# Mechanical properties :
#
#
# Convention : Reuss Voigt Hill
#
# Bulk Modulus (GPa) = 27.89951 57.19516 42.54733
# Shear Modulus (GPa) = 19.23364 30.27937 24.75651
#
# Velocity S-wave (km/s) = 3.13786 3.93710 3.55998
# Velocity P-wave (km/s) = 5.23552 7.06734 6.21925
#
# Compressibility (1/GPa) = 0.03584293
#
# Stress axis : x y z
#
# Youngs Moduli (GPa) = 23.15267 69.82840 50.54659
#
# Poissons Ratio (x) = 1.16877 0.03149
# Poissons Ratio (y) = 0.38752 0.17013
# Poissons Ratio (z) = 0.01442 0.23503
#
# Static dielectric constant tensor:
#      x y z
#    x 3.244530 0.000000 0.509650 
#    y 0.000000 3.675110 0.000000 
#    z 0.509650 0.000000 4.062420 
# 
# 
# High freq. dielectric constant tensor:
#      x y z
#    x 1.719640 0.000000 0.034940 
#    y 0.000000 1.755850 0.000000 
#    z 0.034940 0.000000 1.778830 
# 
# From -- ./inp_files/212542.got.cif
#   From: 2010.06.25/outbox.cif.g09.slc.cpg/sg12_107_cif.got.tgz:212542.got - 2010.06.28 00:19:55.
