data_PCOD8081589
_publ_section_title
;
Structure prediction by ZEFSAII (Michael W. Deem and Ramdas Pophale) SiO2 
 PCOD8081589
Probable space group: C 2/M
;
_chemical_formula_sum "Si O2"
_cell_formula_units_Z 64
_cell_length_a 18.895814
_cell_length_b 9.144050
_cell_length_c 20.783365
_cell_angle_alpha 90.000000
_cell_angle_beta 100.068572
_cell_angle_gamma 90.000000
_cell_volume 3535.733730
_symmetry_space_group_name_H-M "C 2/M"
_symmetry_group_IT_number 12
_symmetry_cell_setting 'monoclinic'
loop_
_space_group_symop_operation_xyz
x,y,z
-x,y,-z
-x,-y,-z
x,-y,z
1/2+x,1/2+y,z
1/2-x,1/2+y,-z
1/2-x,1/2-y,-z
1/2+x,1/2-y,z
loop_
_atom_site_type_symbol
_atom_site_label
_atom_site_fract_x
_atom_site_fract_y
_atom_site_fract_z
Si Si1 0.803789 0.671862 0.224343
Si Si2 0.580531 0.828652 0.514252
Si Si3 0.557149 0.833042 0.818604
Si Si4 0.471806 0.173867 0.926699
Si Si5 0.199143 0.671366 0.631261
Si Si6 0.412746 0.835532 0.733026
Si Si7 0.351311 0.669909 0.839213
Si Si8 0.668095 0.830405 0.407610
O O1 0.817574 0.500000 0.235325
O O2 0.870259 0.744552 0.195598
O O3 0.798522 0.737634 0.295898
O O4 0.733570 0.703360 0.170208
O O5 0.500000 0.758723 0.500000
O O6 0.620308 0.797020 0.588384
O O7 0.631018 0.764202 0.465571
O O8 0.572765 0.000000 0.499630
O O9 0.526200 0.765113 0.880323
O O10 0.498562 0.817925 0.752667
O O11 0.575573 0.000000 0.837321
O O12 0.392994 0.241269 0.901325
O O13 0.464169 0.000000 0.922113
O O14 0.500000 0.227666 0.000000
O O15 0.216315 0.500000 0.634128
O O16 0.259036 0.745758 0.596396
O O17 0.374390 0.717864 0.771806
O O18 0.391134 0.805702 0.656934
O O19 0.390633 0.000000 0.751773
O O20 0.368216 0.500000 0.850879
O O21 0.688399 0.000000 0.418932
#
# Coordination Sequence:
#
# PCOD8081589 Si02
#       8
#     8   8   8   8   8   8   8   8
#     4   9  17  28  46  73  99 126 161 202 245 287
#     4   9  19  32  48  73  99 124 166 218 254 287
#     4   8  15  28  47  70  95 124 161 199 234 278
#     4   9  18  34  55  76  99 131 167 198 234 283
#     4  10  19  32  50  70  96 131 166 202 248 300
#     4   9  17  29  48  71  94 126 165 204 244 287
#     4  10  18  30  49  74 102 127 159 199 240 289
#     4  10  19  31  49  72  97 126 164 208 252 295
#
# _framework density 18.100912000000001
#
# number of rings (size 3 to 8) (size 9 to 14) (size 15 to 20)
#    0.000    2.750    1.250    1.500    1.750    0.250 
#    0.000    0.625    0.000   10.500    0.000    0.000 
#    0.000    0.000    0.000    0.000    0.000    0.000 
#
# Total GULP energy -396634.265596 kJ/mol
# GULP energy per Si atom -12394.820800 kJ/mol
# Density = 1.805971 g / cm^3
# Si number density = 18.100912 Si / 1000 Ang^3
#
#
#
# Elastic Constant Matrix: (Units=GPa)
#
#
# Indices 1 2 3 4 5 6 
#
# 1 139.5659 29.7634 54.1058 0.0000 1.0250 0.0000
# 2 29.7634 28.8298 19.5456 0.0000 5.1325 0.0000
# 3 54.1058 19.5456 100.0811 0.0000 13.5892 0.0000
# 4 0.0000 0.0000 0.0000 18.6042 0.0000 2.2992
# 5 1.0250 5.1325 13.5892 0.0000 25.3722 0.0000
# 6 0.0000 0.0000 0.0000 2.2992 0.0000 20.0782
#
#
#
# Elastic Compliance Matrix: (Units=1/GPa)
#
#
# Indices 1 2 3 4 5 6 
#
# 1 0.010790 -0.008659 -0.004660 0.000000 0.003811 0.000000
# 2 -0.008659 0.047350 -0.003573 0.000000 -0.007315 0.000000
# 3 -0.004660 -0.003573 0.014111 0.000000 -0.006647 0.000000
# 4 0.000000 0.000000 0.000000 0.054523 0.000000 -0.006244
# 5 0.003811 -0.007315 -0.006647 0.000000 0.044299 0.000000
# 6 0.000000 0.000000 0.000000 -0.006244 0.000000 0.050520
#
#
# Mechanical properties :
#
#
# Convention : Reuss Voigt Hill
#
# Bulk Modulus (GPa) = 25.99539 52.81182 39.40361
# Shear Modulus (GPa) = 18.64278 23.81503 21.22891
#
# Velocity S-wave (km/s) = 3.21274 3.63117 3.42834
# Velocity P-wave (km/s) = 5.30611 6.84253 6.12270
#
# Compressibility (1/GPa) = 0.03846836
#
# Stress axis : x y z
#
# Youngs Moduli (GPa) = 92.67720 21.11925 70.86446
#
# Poissons Ratio (x) = 0.18287 0.33022
# Poissons Ratio (y) = 0.80248 0.25320
# Poissons Ratio (z) = 0.43186 0.07546
#
# Static dielectric constant tensor:
#      x y z
#    x 3.533710 0.000000 0.010660 
#    y 0.000000 2.968290 0.000000 
#    z 0.010660 0.000000 3.422490 
# 
# 
# High freq. dielectric constant tensor:
#      x y z
#    x 1.707150 0.000000 0.010820 
#    y 0.000000 1.654660 0.000000 
#    z 0.010820 0.000000 1.696780 
# 
# From -- ./inp_files/314201.got.cif
#   From: 2010.06.25/outbox.cif.g09.slc.cpg/sg12_158_cif.got.tgz:314201.got - 2010.06.28 00:19:55.
