data_PCOD8081364
_publ_section_title
;
Structure prediction by ZEFSAII (Michael W. Deem and Ramdas Pophale) SiO2 
 PCOD8081364
Probable space group: C 2/M
;
_chemical_formula_sum "Si O2"
_cell_formula_units_Z 48
_cell_length_a 30.185170
_cell_length_b 9.046876
_cell_length_c 28.226214
_cell_angle_alpha 90.000000
_cell_angle_beta 20.335497
_cell_angle_gamma 90.000000
_cell_volume 2678.677955
_symmetry_space_group_name_H-M "C 2/M"
_symmetry_group_IT_number 12
_symmetry_cell_setting 'monoclinic'
loop_
_space_group_symop_operation_xyz
x,y,z
-x,y,-z
-x,-y,-z
x,-y,z
1/2+x,1/2+y,z
1/2-x,1/2+y,-z
1/2-x,1/2-y,-z
1/2+x,1/2-y,z
loop_
_atom_site_type_symbol
_atom_site_label
_atom_site_fract_x
_atom_site_fract_y
_atom_site_fract_z
Si Si1 0.005422 0.324565 0.104516
Si Si2 0.004741 0.826697 0.393326
Si Si3 0.247025 0.323924 0.802413
Si Si4 0.626275 0.670434 0.176052
Si Si5 0.754436 0.323667 0.303180
Si Si6 0.390184 0.671572 0.913628
O O1 0.005531 0.500000 0.108717
O O2 0.876971 0.265481 0.208777
O O3 0.012014 0.256949 0.150523
O O4 0.124819 0.266591 0.953991
O O5 0.124701 0.760412 0.301979
O O6 0.019735 0.792397 0.322307
O O7 0.872421 0.757736 0.544675
O O8 0.000816 0.000000 0.406942
O O9 0.247672 0.500000 0.802168
O O10 0.238973 0.263463 0.757020
O O11 0.671351 0.500000 0.135323
O O12 0.567530 0.701698 0.183154
O O13 0.747535 0.771307 0.064726
O O14 0.753317 0.500000 0.304307
O O15 0.393920 0.500000 0.922457
#
# Coordination Sequence:
#
# PCOD8081364 Si02
#       6
#     8   8   8   8   8   8
#     4  10  18  30  47  70  99 125 153 190 231 272
#     4   9  15  26  45  70  97 120 148 192 240 276
#     4   9  15  25  44  69  96 123 153 192 233 270
#     4   9  17  31  50  72  94 118 152 196 238 271
#     4   9  17  26  42  71 100 123 151 191 234 275
#     4  10  19  30  48  71  94 121 157 194 230 276
#
# _framework density 17.919288000000002
#
# number of rings (size 3 to 8) (size 9 to 14) (size 15 to 20)
#    0.000    2.667    1.667    1.500    0.000    4.667 
#    0.000    0.833    0.000    3.000    0.000    1.167 
#    0.000    0.000    0.000    0.000    0.000    0.000 
#
# Total GULP energy -297545.871127 kJ/mol
# GULP energy per Si atom -12397.744630 kJ/mol
# Density = 1.787850 g / cm^3
# Si number density = 17.919288 Si / 1000 Ang^3
#
#
#
# Elastic Constant Matrix: (Units=GPa)
#
#
# Indices 1 2 3 4 5 6 
#
# 1 170.4153 27.0912 86.7837 -0.0043 -1.2531 0.0012
# 2 27.0912 21.5742 17.5776 0.0326 -0.5840 -0.0042
# 3 86.7837 17.5776 133.7805 0.0005 -12.6161 0.0061
# 4 -0.0043 0.0326 0.0005 8.4621 0.0000 -0.2311
# 5 -1.2531 -0.5840 -12.6161 0.0000 24.4158 0.0040
# 6 0.0012 -0.0042 0.0061 -0.2311 0.0040 23.1621
#
#
#
# Elastic Compliance Matrix: (Units=1/GPa)
#
#
# Indices 1 2 3 4 5 6 
#
# 1 0.010024 -0.008017 -0.005696 0.000036 -0.002621 0.000000
# 2 -0.008017 0.058455 -0.002509 -0.000229 -0.000310 0.000009
# 3 -0.005696 -0.002509 0.012054 0.000006 0.005876 -0.000004
# 4 0.000036 -0.000229 0.000006 0.118207 0.000000 0.001179
# 5 -0.002621 -0.000310 0.005876 0.000000 0.043851 -0.000009
# 6 0.000000 0.000009 -0.000004 0.001179 -0.000009 0.043186
#
#
# Mechanical properties :
#
#
# Convention : Reuss Voigt Hill
#
# Bulk Modulus (GPa) = 20.79515 65.40833 43.10174
# Shear Modulus (GPa) = 14.95875 24.16251 19.56063
#
# Velocity S-wave (km/s) = 2.89240 3.67605 3.30752
# Velocity P-wave (km/s) = 4.77333 7.38909 6.22027
#
# Compressibility (1/GPa) = 0.04808813
#
# Stress axis : x y z
#
# Youngs Moduli (GPa) = 99.75868 17.10711 82.95995
#
# Poissons Ratio (x) = 0.13715 0.47258
# Poissons Ratio (y) = 0.79981 0.20813
# Poissons Ratio (z) = 0.56827 0.04292
#
# Static dielectric constant tensor:
#      x y z
#    x 3.585290 0.000000 0.059170 
#    y 0.000000 2.790580 0.000030 
#    z 0.059170 0.000030 3.388180 
# 
# 
# High freq. dielectric constant tensor:
#      x y z
#    x 1.711380 0.000000 0.006850 
#    y 0.000000 1.634270 0.000000 
#    z 0.006850 0.000000 1.682170 
# 
# From -- ./inp_files/369262.got.cif
#   From: 2010.06.25/outbox.cif.g09.slc.cpg/sg12_185_cif.got.tgz:369262.got - 2010.06.28 00:19:55.
