data_PCOD8081137
_publ_section_title
;
Structure prediction by ZEFSAII (Michael W. Deem and Ramdas Pophale) SiO2 
 PCOD8081137
Probable space group: C 2/M
;
_chemical_formula_sum "Si O2"
_cell_formula_units_Z 48
_cell_length_a 13.229036
_cell_length_b 24.215266
_cell_length_c 13.753735
_cell_angle_alpha 90.000000
_cell_angle_beta 41.093299
_cell_angle_gamma 90.000000
_cell_volume 2895.964336
_symmetry_space_group_name_H-M "C 2/M"
_symmetry_group_IT_number 12
_symmetry_cell_setting 'monoclinic'
loop_
_space_group_symop_operation_xyz
x,y,z
-x,y,-z
-x,-y,-z
x,-y,z
1/2+x,1/2+y,z
1/2-x,1/2+y,-z
1/2-x,1/2-y,-z
1/2+x,1/2-y,z
loop_
_atom_site_type_symbol
_atom_site_label
_atom_site_fract_x
_atom_site_fract_y
_atom_site_fract_z
Si Si1 0.674870 0.726757 0.339812
Si Si2 0.512944 0.060533 0.654227
Si Si3 0.886624 0.762709 0.828943
Si Si4 0.259336 0.060791 0.691365
Si Si5 0.131089 0.667904 0.645995
Si Si6 0.662343 0.671376 0.692746
O O1 0.500000 0.721580 0.500000
O O2 0.685904 0.713810 0.217701
O O3 0.781911 0.681807 0.316795
O O4 0.738415 0.788409 0.310747
O O5 0.341290 0.069389 0.736437
O O6 0.620302 0.064345 0.482957
O O7 0.558677 0.106364 0.701048
O O8 0.527091 0.000000 0.693425
O O9 0.991975 0.709925 0.727512
O O10 0.988286 0.809293 0.806730
O O11 0.750000 0.750000 0.000000
O O12 0.143546 0.111400 0.756917
O O13 0.178142 0.000000 0.748642
O O14 0.256165 0.672352 0.470720
#
# Coordination Sequence:
#
# PCOD8081137 Si02
#       6
#     8   8   8   8   8   8
#     4  11  18  31  50  69  94 129 161 196 239 289
#     4   8  14  25  44  72  98 122 158 204 240 279
#     4  11  22  33  46  72 101 127 160 202 243 287
#     4   8  14  24  43  71 100 125 155 199 246 282
#     4  10  18  30  50  72  93 128 163 195 240 291
#     4  10  18  29  50  72  95 128 164 193 240 294
#
# _framework density 16.57479
#
# number of rings (size 3 to 8) (size 9 to 14) (size 15 to 20)
#    0.000    2.333    3.333    3.000    2.333    2.667 
#    0.000    0.000    0.000    2.500    0.000    4.667 
#    0.000    0.000    0.000    0.000    0.000    0.000 
#
# Total GULP energy -297450.997051 kJ/mol
# GULP energy per Si atom -12393.791544 kJ/mol
# Density = 1.653706 g / cm^3
# Si number density = 16.574790 Si / 1000 Ang^3
#
#
#
# Elastic Constant Matrix: (Units=GPa)
#
#
# Indices 1 2 3 4 5 6 
#
# 1 112.1888 71.0480 33.9608 0.0000 4.5832 0.0001
# 2 71.0480 155.1291 20.1406 0.0000 -3.5527 0.0000
# 3 33.9608 20.1406 60.1636 0.0000 -2.6777 0.0001
# 4 0.0000 0.0000 0.0000 6.5157 0.0000 -0.4928
# 5 4.5832 -3.5527 -2.6777 0.0000 14.7559 -0.0001
# 6 0.0001 0.0000 0.0001 -0.4928 -0.0001 29.2342
#
#
#
# Elastic Compliance Matrix: (Units=1/GPa)
#
#
# Indices 1 2 3 4 5 6 
#
# 1 0.015267 -0.006274 -0.006851 0.000000 -0.007496 0.000000
# 2 -0.006274 0.009340 0.000607 0.000000 0.004308 0.000000
# 3 -0.006851 0.000607 0.020553 0.000000 0.006004 0.000000
# 4 0.000000 0.000000 0.000000 0.153672 0.000000 0.002590
# 5 -0.007496 0.004308 0.006004 0.000000 0.072224 0.000000
# 6 0.000000 0.000000 0.000000 0.002590 0.000000 0.034250
#
#
# Mechanical properties :
#
#
# Convention : Reuss Voigt Hill
#
# Bulk Modulus (GPa) = 49.69620 64.19782 56.94701
# Shear Modulus (GPa) = 14.83454 23.58996 19.21225
#
# Velocity S-wave (km/s) = 2.99491 3.77668 3.40829
# Velocity P-wave (km/s) = 6.48131 7.60487 7.06546
#
# Compressibility (1/GPa) = 0.02012226
#
# Stress axis : x y z
#
# Youngs Moduli (GPa) = 65.49971 107.06914 48.65543
#
# Poissons Ratio (x) = 0.67180 0.33334
# Poissons Ratio (y) = 0.41098 -0.02953
# Poissons Ratio (z) = 0.44875 -0.06498
#
# Static dielectric constant tensor:
#      x y z
#    x 3.546170 0.000000 0.082860 
#    y 0.000000 3.359990 0.000000 
#    z 0.082860 0.000000 2.718000 
# 
# 
# High freq. dielectric constant tensor:
#      x y z
#    x 1.636440 0.000000 -0.002190 
#    y 0.000000 1.636230 0.000000 
#    z -0.002190 0.000000 1.595720 
# 
# From -- ./inp_files/50812.got.cif
#   From: 2010.06.25/outbox.cif.g09.slc.cpg/sg12_26_cif.got.tgz:50812.got - 2010.06.28 00:19:55.
