data_PCOD8081755
_publ_section_title
;
Structure prediction by ZEFSAII (Michael W. Deem and Ramdas Pophale) SiO2 
 PCOD8081755
Probable space group: C 2/M
;
_chemical_formula_sum "Si O2"
_cell_formula_units_Z 40
_cell_length_a 19.811172
_cell_length_b 10.448328
_cell_length_c 11.473307
_cell_angle_alpha 90.000000
_cell_angle_beta 76.650466
_cell_angle_gamma 90.000000
_cell_volume 2310.730656
_symmetry_space_group_name_H-M "C 2/M"
_symmetry_group_IT_number 12
_symmetry_cell_setting 'monoclinic'
loop_
_space_group_symop_operation_xyz
x,y,z
-x,y,-z
-x,-y,-z
x,-y,z
1/2+x,1/2+y,z
1/2-x,1/2+y,-z
1/2-x,1/2-y,-z
1/2+x,1/2-y,z
loop_
_atom_site_type_symbol
_atom_site_label
_atom_site_fract_x
_atom_site_fract_y
_atom_site_fract_z
Si Si1 0.655202 0.145287 0.352097
Si Si2 0.807954 0.855777 0.246600
Si Si3 0.889007 0.000000 0.052649
Si Si4 0.984594 0.776213 0.634794
Si Si5 0.879056 0.356205 0.374407
Si Si6 0.012506 0.000000 0.186405
O O1 0.728343 0.189752 0.267556
O O2 0.594374 0.230398 0.322576
O O3 0.661704 0.161871 0.488450
O O4 0.638130 0.000000 0.325439
O O5 0.851175 0.750216 0.298050
O O6 0.810901 0.000000 0.305551
O O7 0.842829 0.873287 0.103752
O O8 0.954410 0.000000 0.112457
O O9 0.912521 0.000000 0.909067
O O10 0.996481 0.878250 0.729674
O O11 0.000000 0.834234 0.500000
O O12 0.038707 0.660977 0.635357
O O13 0.867405 0.500000 0.329600
#
# Coordination Sequence:
#
# PCOD8081755 Si02
#       6
#     8   8   4   8   8   4
#     4   9  18  31  50  74 109 139 165 202 266 319
#     4   9  17  34  52  73 100 141 173 209 249 304
#     4   9  20  34  60  70  95 139 185 211 248 301
#     4  10  19  32  51  79 108 134 166 215 262 307
#     4  10  18  30  50  79 107 137 167 210 257 309
#     4  11  19  36  54  78  97 136 183 215 251 301
#
# _framework density 17.310542999999999
#
# number of rings (size 3 to 8) (size 9 to 14) (size 15 to 20)
#    0.600    1.800    2.000    1.500    0.000    2.400 
#    3.600    1.000    0.000    3.600    0.000    0.000 
#    0.000    0.000    0.000    0.000    0.000    0.000 
#
# Total GULP energy -247799.794398 kJ/mol
# GULP energy per Si atom -12389.989720 kJ/mol
# Density = 1.727114 g / cm^3
# Si number density = 17.310543 Si / 1000 Ang^3
#
#
#
# Elastic Constant Matrix: (Units=GPa)
#
#
# Indices 1 2 3 4 5 6 
#
# 1 94.2777 24.2245 32.3254 0.0000 -22.4034 0.0000
# 2 24.2245 71.5126 24.0624 0.0000 -1.1049 0.0000
# 3 32.3254 24.0624 68.1017 0.0000 -21.3046 0.0000
# 4 0.0000 0.0000 0.0000 4.0041 0.0000 -22.5740
# 5 -22.4034 -1.1049 -21.3046 0.0000 27.0333 0.0000
# 6 0.0000 0.0000 0.0000 -22.5740 0.0000 -11.0183
#
#
#
# Elastic Compliance Matrix: (Units=1/GPa)
#
#
# Indices 1 2 3 4 5 6 
#
# 1 0.014935 -0.004085 -0.002424 0.000000 0.010300 0.000000
# 2 -0.004085 0.017514 -0.006748 0.000000 -0.007987 0.000000
# 3 -0.002424 -0.006748 0.023232 0.000000 0.016024 0.000000
# 4 0.000000 0.000000 0.000000 0.019899 0.000000 -0.040769
# 5 0.010300 -0.007987 0.016024 0.000000 0.057830 0.000000
# 6 0.000000 0.000000 0.000000 -0.040769 0.000000 -0.007232
#
#
# Mechanical properties :
#
#
# Convention : Reuss Voigt Hill
#
# Bulk Modulus (GPa) = 34.28397 43.90182 39.09289
# Shear Modulus (GPa) = 30.78540 14.22246 22.50393
#
# Velocity S-wave (km/s) = 4.22171 2.86948 3.60948
# Velocity P-wave (km/s) = 6.60394 6.03282 6.32483
#
# Compressibility (1/GPa) = 0.02916815
#
# Stress axis : x y z
#
# Youngs Moduli (GPa) = 66.95597 57.09581 43.04461
#
# Poissons Ratio (x) = 0.23321 0.10433
# Poissons Ratio (y) = 0.27348 0.29048
# Poissons Ratio (z) = 0.16228 0.38530
#
# Static dielectric constant tensor:
#      x y z
#    x 3.331030 0.000000 -0.355000 
#    y 0.000000 3.076470 0.000000 
#    z -0.355000 0.000000 3.139330 
# 
# 
# High freq. dielectric constant tensor:
#      x y z
#    x 1.677780 0.000000 -0.024170 
#    y 0.000000 1.655800 0.000000 
#    z -0.024170 0.000000 1.636260 
# 
# From -- ./inp_files/152776.got.cif
#   From: 2010.06.25/outbox.cif.g09.slc.cpg/sg12_77_cif.got.tgz:152776.got - 2010.06.28 00:19:55.
