data_PCOD8081117
_publ_section_title
;
Structure prediction by ZEFSAII (Michael W. Deem and Ramdas Pophale) SiO2 
 PCOD8081117
Probable space group: C 2/M
;
_chemical_formula_sum "Si O2"
_cell_formula_units_Z 64
_cell_length_a 30.097432
_cell_length_b 8.929201
_cell_length_c 25.632851
_cell_angle_alpha 90.000000
_cell_angle_beta 151.267340
_cell_angle_gamma 90.000000
_cell_volume 3311.572212
_symmetry_space_group_name_H-M "C 2/M"
_symmetry_group_IT_number 12
_symmetry_cell_setting 'monoclinic'
loop_
_space_group_symop_operation_xyz
x,y,z
-x,y,-z
-x,-y,-z
x,-y,z
1/2+x,1/2+y,z
1/2-x,1/2+y,-z
1/2-x,1/2-y,-z
1/2+x,1/2-y,z
loop_
_atom_site_type_symbol
_atom_site_label
_atom_site_fract_x
_atom_site_fract_y
_atom_site_fract_z
Si Si1 0.985320 0.329481 0.252113
Si Si2 0.908543 0.323686 0.286107
Si Si3 0.347783 0.672848 0.722571
Si Si4 0.539184 0.322043 0.878576
Si Si5 0.711473 0.677197 0.120568
Si Si6 0.746965 0.177423 0.721888
Si Si7 0.341149 0.829347 0.511393
Si Si8 0.579219 0.675116 0.503620
O O1 0.961288 0.500000 0.213282
O O2 0.097503 0.308020 0.373285
O O3 0.935785 0.281716 0.254904
O O4 0.947192 0.225807 0.167145
O O5 0.916106 0.500000 0.303404
O O6 0.805406 0.263078 0.190634
O O7 0.976376 0.244630 0.397701
O O8 0.369786 0.500000 0.754029
O O9 0.443530 0.748888 0.802787
O O10 0.310806 0.737795 0.739819
O O11 0.269405 0.695101 0.596388
O O12 0.537453 0.500000 0.878392
O O13 0.623207 0.255540 0.999338
O O14 0.709104 0.500000 0.113454
O O15 0.705612 0.726035 0.175059
O O16 0.644927 0.250452 0.614986
O O17 0.733976 0.000000 0.704781
O O18 0.375691 0.708343 0.505785
O O19 0.358746 0.000000 0.508154
O O20 0.572266 0.500000 0.507239
#
# Coordination Sequence:
#
# PCOD8081117 Si02
#       8
#     8   8   8   8   8   8   8   8
#     4   9  18  32  50  70  96 132 168 201 244 297
#     4   9  18  35  54  71  97 132 167 201 242 294
#     4   8  15  29  51  76 101 128 157 200 250 289
#     4  10  20  33  49  74 103 127 165 214 247 278
#     4   9  19  34  53  74  94 127 175 213 237 281
#     4   9  17  33  54  73  98 133 166 194 240 301
#     4   8  15  31  52  73 100 133 165 195 238 300
#     4  10  18  29  49  79 106 125 155 201 251 295
#
# _framework density 19.326167999999999
#
# number of rings (size 3 to 8) (size 9 to 14) (size 15 to 20)
#    0.000    3.000    0.000    2.625    0.000    4.000 
#    0.000    9.375    0.000    0.000    0.000    4.375 
#    0.000    0.000    0.000    0.000    0.000    0.000 
#
# Total GULP energy -396527.559874 kJ/mol
# GULP energy per Si atom -12391.486246 kJ/mol
# Density = 1.928218 g / cm^3
# Si number density = 19.326168 Si / 1000 Ang^3
#
#
#
# Elastic Constant Matrix: (Units=GPa)
#
#
# Indices 1 2 3 4 5 6 
#
# 1 62.8517 12.8969 37.0523 0.0000 5.3336 0.0000
# 2 12.8969 37.2297 24.5107 0.0000 -1.0649 0.0000
# 3 37.0523 24.5107 136.4830 0.0000 0.9461 0.0000
# 4 0.0000 0.0000 0.0000 18.8513 0.0000 -6.8403
# 5 5.3336 -1.0649 0.9461 0.0000 35.4480 0.0000
# 6 0.0000 0.0000 0.0000 -6.8403 0.0000 14.0023
#
#
#
# Elastic Compliance Matrix: (Units=1/GPa)
#
#
# Indices 1 2 3 4 5 6 
#
# 1 0.019682 -0.003854 -0.004631 0.000000 -0.002954 0.000000
# 2 -0.003854 0.031257 -0.004578 0.000000 0.001641 0.000000
# 3 -0.004631 -0.004578 0.009404 0.000000 0.000308 0.000000
# 4 0.000000 0.000000 0.000000 0.064476 0.000000 0.031497
# 5 -0.002954 0.001641 0.000308 0.000000 0.028696 0.000000
# 6 0.000000 0.000000 0.000000 0.031497 0.000000 0.086804
#
#
# Mechanical properties :
#
#
# Convention : Reuss Voigt Hill
#
# Bulk Modulus (GPa) = 29.22563 42.83158 36.02861
# Shear Modulus (GPa) = 17.99537 24.46729 21.23133
#
# Velocity S-wave (km/s) = 3.05477 3.56198 3.31808
# Velocity P-wave (km/s) = 5.25331 6.25520 5.77602
#
# Compressibility (1/GPa) = 0.03421654
#
# Stress axis : x y z
#
# Youngs Moduli (GPa) = 50.80853 31.99334 106.33645
#
# Poissons Ratio (x) = 0.12330 0.49240
# Poissons Ratio (y) = 0.19581 0.48685
# Poissons Ratio (z) = 0.23527 0.14648
#
# Static dielectric constant tensor:
#      x y z
#    x 3.454010 0.000000 0.190550 
#    y 0.000000 3.057110 0.000000 
#    z 0.190550 0.000000 3.936810 
# 
# 
# High freq. dielectric constant tensor:
#      x y z
#    x 1.735040 0.000000 0.004640 
#    y 0.000000 1.707820 0.000000 
#    z 0.004640 0.000000 1.761670 
# 
# From -- ./inp_files/244067.got.cif
#   From: 2010.06.25/outbox.cif.g09.slc.cpg/sg12_123_cif.got.tgz:244067.got - 2010.06.28 00:19:55.
