data_PCOD8081547
_publ_section_title
;
Structure prediction by ZEFSAII (Michael W. Deem and Ramdas Pophale) SiO2 
 PCOD8081547
Probable space group: C 2/M
;
_chemical_formula_sum "Si O2"
_cell_formula_units_Z 40
_cell_length_a 20.553993
_cell_length_b 9.217368
_cell_length_c 18.127612
_cell_angle_alpha 90.000000
_cell_angle_beta 137.935298
_cell_angle_gamma 90.000000
_cell_volume 2300.904991
_symmetry_space_group_name_H-M "C 2/M"
_symmetry_group_IT_number 12
_symmetry_cell_setting 'monoclinic'
loop_
_space_group_symop_operation_xyz
x,y,z
-x,y,-z
-x,-y,-z
x,-y,z
1/2+x,1/2+y,z
1/2-x,1/2+y,-z
1/2-x,1/2-y,-z
1/2+x,1/2-y,z
loop_
_atom_site_type_symbol
_atom_site_label
_atom_site_fract_x
_atom_site_fract_y
_atom_site_fract_z
Si Si1 0.848305 0.831654 0.066485
Si Si2 0.048440 0.832655 0.700759
Si Si3 0.606104 0.668534 0.060061
Si Si4 0.215216 0.169814 0.725343
Si Si5 0.584173 0.163921 0.510760
O O1 0.929210 0.792257 0.195769
O O2 0.822496 0.000000 0.049417
O O3 0.750000 0.750000 0.000000
O O4 0.890812 0.787437 0.023198
O O5 0.144408 0.796837 0.734163
O O6 0.956865 0.736822 0.598267
O O7 0.019334 0.000000 0.665932
O O8 0.632768 0.500000 0.093632
O O9 0.680347 0.764502 0.168985
O O10 0.500000 0.705311 0.000000
O O11 0.175568 0.245596 0.617740
O O12 0.225239 0.000000 0.718328
O O13 0.500000 0.167961 0.500000
O O14 0.617129 0.000000 0.521129
#
# Coordination Sequence:
#
# PCOD8081547 Si02
#       5
#     8   8   8   8   8
#     4  10  19  32  51  74 102 133 167 207 251 296
#     4   9  17  29  46  72 101 128 161 204 252 295
#     4  10  21  35  51  73 103 138 171 205 248 298
#     4  10  18  30  49  72 100 132 166 207 250 296
#     4   9  17  28  45  71 100 130 162 201 250 301
#
# _framework density 17.384464000000001
#
# number of rings (size 3 to 8) (size 9 to 14) (size 15 to 20)
#    0.000    2.400    2.000    1.200    0.000    4.400 
#    0.000    0.000    0.000    1.200    0.000    0.000 
#    0.000    0.000    0.000    0.000    0.000    0.000 
#
# Total GULP energy -248030.237317 kJ/mol
# GULP energy per Si atom -12401.511866 kJ/mol
# Density = 1.734490 g / cm^3
# Si number density = 17.384464 Si / 1000 Ang^3
#
#
#
# Elastic Constant Matrix: (Units=GPa)
#
#
# Indices 1 2 3 4 5 6 
#
# 1 75.5493 40.3702 56.7405 0.0000 -4.2643 0.0000
# 2 40.3702 102.1411 85.9303 0.0000 3.7405 0.0000
# 3 56.7405 85.9303 170.2292 0.0000 -5.1448 0.0000
# 4 0.0000 0.0000 0.0000 39.9913 0.0000 3.0072
# 5 -4.2643 3.7405 -5.1448 0.0000 16.0050 0.0000
# 6 0.0000 0.0000 0.0000 3.0072 0.0000 15.0465
#
#
#
# Elastic Compliance Matrix: (Units=1/GPa)
#
#
# Indices 1 2 3 4 5 6 
#
# 1 0.018749 -0.004250 -0.003961 0.000000 0.004715 0.000000
# 2 -0.004250 0.018748 -0.008294 0.000000 -0.008180 0.000000
# 3 -0.003961 -0.008294 0.011520 0.000000 0.004586 0.000000
# 4 0.000000 0.000000 0.000000 0.025387 0.000000 -0.005074
# 5 0.004715 -0.008180 0.004586 0.000000 0.067123 0.000000
# 6 0.000000 0.000000 0.000000 -0.005074 0.000000 0.067475
#
#
# Mechanical properties :
#
#
# Convention : Reuss Voigt Hill
#
# Bulk Modulus (GPa) = 62.48009 79.33350 70.90680
# Shear Modulus (GPa) = 20.21444 25.20046 22.70745
#
# Velocity S-wave (km/s) = 3.41367 3.81149 3.61805
# Velocity P-wave (km/s) = 7.18023 8.06869 7.63739
#
# Compressibility (1/GPa) = 0.01600510
#
# Stress axis : x y z
#
# Youngs Moduli (GPa) = 53.33670 53.33995 86.80381
#
# Poissons Ratio (x) = 0.22672 0.34385
# Poissons Ratio (y) = 0.22670 0.71997
# Poissons Ratio (z) = 0.21128 0.44241
#
# Static dielectric constant tensor:
#      x y z
#    x 2.869160 0.000000 -0.105090 
#    y 0.000000 3.309600 0.000000 
#    z -0.105090 0.000000 3.306540 
# 
# 
# High freq. dielectric constant tensor:
#      x y z
#    x 1.621070 0.000000 -0.010480 
#    y 0.000000 1.677480 0.000000 
#    z -0.010480 0.000000 1.687070 
# 
# From -- ./inp_files/162384.got.cif
#   From: 2010.06.25/outbox.cif.g09.slc.cpg/sg12_82_cif.got.tgz:162384.got - 2010.06.28 00:19:55.
