data_PCOD8081811
_publ_section_title
;
Structure prediction by ZEFSAII (Michael W. Deem and Ramdas Pophale) SiO2 
 PCOD8081811
Probable space group: C 2/M
;
_chemical_formula_sum "Si O2"
_cell_formula_units_Z 56
_cell_length_a 12.935782
_cell_length_b 17.387929
_cell_length_c 12.212468
_cell_angle_alpha 90.000000
_cell_angle_beta 112.790615
_cell_angle_gamma 90.000000
_cell_volume 2532.446838
_symmetry_space_group_name_H-M "C 2/M"
_symmetry_group_IT_number 12
_symmetry_cell_setting 'monoclinic'
loop_
_space_group_symop_operation_xyz
x,y,z
-x,y,-z
-x,-y,-z
x,-y,z
1/2+x,1/2+y,z
1/2-x,1/2+y,-z
1/2-x,1/2-y,-z
1/2+x,1/2-y,z
loop_
_atom_site_type_symbol
_atom_site_label
_atom_site_fract_x
_atom_site_fract_y
_atom_site_fract_z
Si Si1 0.423575 0.380239 0.873905
Si Si2 0.109001 0.713675 0.829074
Si Si3 0.788721 0.910476 0.531115
Si Si4 0.853230 0.282961 0.911888
Si Si5 0.015671 0.858292 0.691576
Si Si6 0.760156 0.411488 0.727758
Si Si7 0.811988 0.415024 0.283641
O O1 0.416596 0.286983 0.878298
O O2 0.482815 0.406215 0.786541
O O3 0.302267 0.418704 0.833548
O O4 0.500000 0.414817 0.000000
O O5 0.227245 0.756703 0.883038
O O6 0.023839 0.769698 0.732016
O O7 0.104205 0.637916 0.751248
O O8 0.081841 0.695196 0.946825
O O9 0.716536 0.896724 0.391751
O O10 0.716731 0.880682 0.606938
O O11 0.908415 0.866363 0.566890
O O12 0.815585 0.000000 0.559557
O O13 0.845819 0.358156 0.831019
O O14 0.129109 0.892864 0.690304
O O15 0.783296 0.500000 0.769378
O O16 0.865593 0.500000 0.314702
#
# Coordination Sequence:
#
# PCOD8081811 Si02
#       7
#     8   8   8   8   8   8   8
#     4  10  18  32  50  70 100 138 162 200 257 302
#     4   9  17  31  48  71 101 134 167 205 249 303
#     4   9  18  34  51  74 107 136 164 205 256 303
#     4   9  18  32  48  70 100 138 170 198 250 306
#     4  10  18  30  51  76 100 133 168 205 255 300
#     4  10  20  33  52  75 104 138 169 206 250 300
#     4   9  19  32  49  74 101 131 168 209 254 302
#
# _framework density 22.113002000000002
#
# number of rings (size 3 to 8) (size 9 to 14) (size 15 to 20)
#    0.000    2.571    1.429    0.857    2.000    2.571 
#    0.000   12.857    0.000    1.286    0.000    0.000 
#    0.000   24.000    0.000    0.000    0.000    0.000 
#
# Total GULP energy -346998.922394 kJ/mol
# GULP energy per Si atom -12392.818657 kJ/mol
# Density = 2.206267 g / cm^3
# Si number density = 22.113002 Si / 1000 Ang^3
#
#
#
# Elastic Constant Matrix: (Units=GPa)
#
#
# Indices 1 2 3 4 5 6 
#
# 1 11.3373 7.1713 11.4614 0.0000 -10.1832 0.0000
# 2 7.1713 99.0374 51.2911 0.0000 -5.1732 0.0000
# 3 11.4614 51.2911 112.7617 0.0000 -7.0232 0.0000
# 4 0.0000 0.0000 0.0000 34.2947 0.0000 -0.8405
# 5 -10.1832 -5.1732 -7.0232 0.0000 24.7626 0.0000
# 6 0.0000 0.0000 0.0000 -0.8405 0.0000 22.7258
#
#
#
# Elastic Compliance Matrix: (Units=1/GPa)
#
#
# Indices 1 2 3 4 5 6 
#
# 1 0.154623 -0.002431 -0.010874 0.000000 0.059994 0.000000
# 2 -0.002431 0.013275 -0.005783 0.000000 0.000134 0.000000
# 3 -0.010874 -0.005783 0.012470 0.000000 -0.002143 0.000000
# 4 0.000000 0.000000 0.000000 0.029185 0.000000 0.001079
# 5 0.059994 0.000134 -0.002143 0.000000 0.064475 0.000000
# 6 0.000000 0.000000 0.000000 0.001079 0.000000 0.044043
#
#
# Mechanical properties :
#
#
# Convention : Reuss Voigt Hill
#
# Bulk Modulus (GPa) = 7.03270 40.33153 23.68211
# Shear Modulus (GPa) = 12.38713 26.57080 19.47897
#
# Velocity S-wave (km/s) = 2.36937 3.47016 2.97119
# Velocity P-wave (km/s) = 3.26687 5.85956 4.74378
#
# Compressibility (1/GPa) = 0.14219286
#
# Stress axis : x y z
#
# Youngs Moduli (GPa) = 6.46736 75.32858 80.18927
#
# Poissons Ratio (x) = 0.18311 0.87197
# Poissons Ratio (y) = 0.01572 0.46373
# Poissons Ratio (z) = 0.07033 0.43562
#
# Static dielectric constant tensor:
#      x y z
#    x 3.774330 0.000000 -0.158560 
#    y 0.000000 3.809080 0.000000 
#    z -0.158560 0.000000 4.118300 
# 
# 
# High freq. dielectric constant tensor:
#      x y z
#    x 1.852790 0.000000 -0.014490 
#    y 0.000000 1.849960 0.000000 
#    z -0.014490 0.000000 1.872590 
# 
# From -- ./inp_files/145634.got.cif
#   From: 2010.06.25/outbox.cif.g09.slc.cpg/sg12_73_cif.got.tgz:145634.got - 2010.06.28 00:19:55.
