data_PCOD8081118
_publ_section_title
;
Structure prediction by ZEFSAII (Michael W. Deem and Ramdas Pophale) SiO2 
 PCOD8081118
Probable space group: C 2/M
;
_chemical_formula_sum "Si O2"
_cell_formula_units_Z 64
_cell_length_a 23.557698
_cell_length_b 8.778546
_cell_length_c 17.018864
_cell_angle_alpha 90.000000
_cell_angle_beta 94.773856
_cell_angle_gamma 90.000000
_cell_volume 3507.331317
_symmetry_space_group_name_H-M "C 2/M"
_symmetry_group_IT_number 12
_symmetry_cell_setting 'monoclinic'
loop_
_space_group_symop_operation_xyz
x,y,z
-x,y,-z
-x,-y,-z
x,-y,z
1/2+x,1/2+y,z
1/2-x,1/2+y,-z
1/2-x,1/2-y,-z
1/2+x,1/2-y,z
loop_
_atom_site_type_symbol
_atom_site_label
_atom_site_fract_x
_atom_site_fract_y
_atom_site_fract_z
Si Si1 0.359091 0.321184 0.334326
Si Si2 0.233432 0.680809 0.580670
Si Si3 0.194226 0.321793 0.272304
Si Si4 0.570803 0.824368 0.205348
Si Si5 0.378179 0.825582 0.090791
Si Si6 0.716275 0.822611 0.807379
Si Si7 0.549768 0.821951 0.749805
Si Si8 0.059883 0.821253 0.037568
O O1 0.359274 0.500000 0.349903
O O2 0.330676 0.237727 0.406058
O O3 0.321183 0.277169 0.255708
O O4 0.423324 0.264742 0.322426
O O5 0.234533 0.500000 0.576732
O O6 0.250000 0.750000 0.500000
O O7 0.279260 0.738117 0.649702
O O8 0.208993 0.500000 0.277557
O O9 0.126695 0.292999 0.263742
O O10 0.220332 0.247387 0.194527
O O11 0.516598 0.776734 0.251916
O O12 0.573918 0.730075 0.126368
O O13 0.565809 0.000000 0.180131
O O14 0.311853 0.803495 0.109585
O O15 0.419865 0.771136 0.165670
O O16 0.390854 0.000000 0.071452
O O17 0.389205 0.728055 0.014445
O O18 0.715111 0.000000 0.781898
O O19 0.559711 0.000000 0.736989
O O20 0.056004 0.000000 0.036867
O O21 0.000000 0.750403 0.000000
#
# Coordination Sequence:
#
# PCOD8081118 Si02
#       8
#     8   8   8   8   8   8   8   8
#     4  10  18  29  49  79 109 135 168 213 256 300
#     4  11  21  36  59  85 112 140 169 207 253 303
#     4  10  20  35  55  81 107 136 174 213 256 311
#     4  10  21  36  54  73 102 143 181 214 258 318
#     4   9  17  30  50  70  94 131 177 219 264 316
#     4   9  17  31  50  72  98 134 173 213 261 312
#     4   9  17  31  50  73 100 137 178 216 257 305
#     4  11  22  32  46  73 104 132 173 227 275 312
#
# _framework density 18.247492999999999
#
# number of rings (size 3 to 8) (size 9 to 14) (size 15 to 20)
#    0.000    2.125    1.250    5.625    0.000    4.500 
#    0.000    0.625    0.000    0.750    0.000    5.250 
#    0.000    0.000    0.000    0.000    0.000    0.000 
#
# Total GULP energy -396666.288331 kJ/mol
# GULP energy per Si atom -12395.821510 kJ/mol
# Density = 1.820596 g / cm^3
# Si number density = 18.247493 Si / 1000 Ang^3
#
#
#
# Elastic Constant Matrix: (Units=GPa)
#
#
# Indices 1 2 3 4 5 6 
#
# 1 127.7431 55.6593 53.1730 0.0000 -29.3164 0.0000
# 2 55.6593 111.7956 52.9680 0.0000 -15.7570 0.0000
# 3 53.1730 52.9680 85.5928 0.0000 -29.3884 0.0000
# 4 0.0000 0.0000 0.0000 27.2500 0.0000 -6.8904
# 5 -29.3164 -15.7570 -29.3884 0.0000 29.6317 0.0000
# 6 0.0000 0.0000 0.0000 -6.8904 0.0000 27.3808
#
#
#
# Elastic Compliance Matrix: (Units=1/GPa)
#
#
# Indices 1 2 3 4 5 6 
#
# 1 0.012337 -0.003782 -0.002765 0.000000 0.007453 0.000000
# 2 -0.003782 0.013863 -0.007556 0.000000 -0.003864 0.000000
# 3 -0.002765 -0.007556 0.023895 0.000000 0.016945 0.000000
# 4 0.000000 0.000000 0.000000 0.039191 0.000000 0.009863
# 5 0.007453 -0.003864 0.016945 0.000000 0.055872 0.000000
# 6 0.000000 0.000000 0.000000 0.009863 0.000000 0.039004
#
#
# Mechanical properties :
#
#
# Convention : Reuss Voigt Hill
#
# Bulk Modulus (GPa) = 45.68466 72.08134 58.88300
# Shear Modulus (GPa) = 22.76175 27.74124 25.25150
#
# Velocity S-wave (km/s) = 3.53567 3.90330 3.72403
# Velocity P-wave (km/s) = 6.46208 7.73965 7.12954
#
# Compressibility (1/GPa) = 0.02188919
#
# Stress axis : x y z
#
# Youngs Moduli (GPa) = 81.05476 72.13270 41.84898
#
# Poissons Ratio (x) = 0.27279 0.11572
# Poissons Ratio (y) = 0.30654 0.31623
# Poissons Ratio (z) = 0.22413 0.54507
#
# Static dielectric constant tensor:
#      x y z
#    x 3.906390 0.000000 -0.514340 
#    y 0.000000 3.404910 0.000000 
#    z -0.514340 0.000000 3.149860 
# 
# 
# High freq. dielectric constant tensor:
#      x y z
#    x 1.707770 0.000000 -0.036040 
#    y 0.000000 1.714700 0.000000 
#    z -0.036040 0.000000 1.670220 
# 
# From -- ./inp_files/287649.got.cif
#   From: 2010.06.25/outbox.cif.g09.slc.cpg/sg12_144_cif.got.tgz:287649.got - 2010.06.28 00:19:55.
