data_PCOD8081109
_publ_section_title
;
Structure prediction by ZEFSAII (Michael W. Deem and Ramdas Pophale) SiO2 
 PCOD8081109
Probable space group: C 2/M
;
_chemical_formula_sum "Si O2"
_cell_formula_units_Z 64
_cell_length_a 24.159001
_cell_length_b 8.720336
_cell_length_c 20.123363
_cell_angle_alpha 90.000000
_cell_angle_beta 57.612470
_cell_angle_gamma 90.000000
_cell_volume 3580.007001
_symmetry_space_group_name_H-M "C 2/M"
_symmetry_group_IT_number 12
_symmetry_cell_setting 'monoclinic'
loop_
_space_group_symop_operation_xyz
x,y,z
-x,y,-z
-x,-y,-z
x,-y,z
1/2+x,1/2+y,z
1/2-x,1/2+y,-z
1/2-x,1/2-y,-z
1/2+x,1/2-y,z
loop_
_atom_site_type_symbol
_atom_site_label
_atom_site_fract_x
_atom_site_fract_y
_atom_site_fract_z
Si Si1 0.457696 0.679422 0.233461
Si Si2 0.791262 0.680954 0.845102
Si Si3 0.650118 0.181964 0.953550
Si Si4 0.133949 0.179764 0.828653
Si Si5 0.783931 0.821922 0.570413
Si Si6 0.726891 0.321606 0.276751
Si Si7 0.345803 0.679994 0.398815
Si Si8 0.596780 0.819138 0.127873
O O1 0.469846 0.500000 0.233676
O O2 0.425143 0.716997 0.183254
O O3 0.411502 0.746458 0.322427
O O4 0.526473 0.762153 0.195912
O O5 0.779847 0.500000 0.858887
O O6 0.725766 0.768999 0.908471
O O7 0.809168 0.724210 0.757378
O O8 0.849243 0.741478 0.854794
O O9 0.613545 0.263683 0.915359
O O10 0.645620 0.000000 0.948288
O O11 0.614381 0.240963 0.043048
O O12 0.197604 0.272804 0.764581
O O13 0.150997 0.000000 0.818698
O O14 0.808815 0.789431 0.629430
O O15 0.717377 0.731576 0.601208
O O16 0.839323 0.771256 0.480834
O O17 0.767329 0.000000 0.571178
O O18 0.723782 0.500000 0.259780
O O19 0.349453 0.500000 0.387718
O O20 0.596962 0.000000 0.128474
#
# Coordination Sequence:
#
# PCOD8081109 Si02
#       8
#     8   8   8   8   8   8   8   8
#     4  10  21  34  51  72 101 137 169 201 241 291
#     4  10  20  35  54  75  97 127 164 209 254 293
#     4  10  20  35  54  76  98 125 161 209 256 295
#     4  10  19  32  49  74 103 133 164 200 245 295
#     4   9  17  28  48  76 104 131 162 199 242 289
#     4  10  18  29  49  78 104 130 162 202 248 294
#     4   9  17  31  48  72 104 134 164 199 238 288
#     4  10  23  38  52  71  97 130 170 208 249 296
#
# _framework density 17.87706
#
# number of rings (size 3 to 8) (size 9 to 14) (size 15 to 20)
#    0.000    2.250    1.250    3.375    0.000    4.500 
#    0.000    2.500    0.000    0.750    0.000    5.250 
#    0.000    0.000    0.000    0.000    0.000    0.000 
#
# Total GULP energy -396700.123744 kJ/mol
# GULP energy per Si atom -12396.878867 kJ/mol
# Density = 1.783637 g / cm^3
# Si number density = 17.877060 Si / 1000 Ang^3
#
#
#
# Elastic Constant Matrix: (Units=GPa)
#
#
# Indices 1 2 3 4 5 6 
#
# 1 55.8147 9.5855 46.6873 -0.0002 -3.4399 0.0007
# 2 9.5855 24.0441 14.6297 -0.0001 2.4534 0.0034
# 3 46.6873 14.6297 140.8300 -0.0004 9.4728 0.0002
# 4 -0.0002 -0.0001 -0.0004 23.5351 0.0000 0.2849
# 5 -3.4399 2.4534 9.4728 0.0000 21.7599 -0.0002
# 6 0.0007 0.0034 0.0002 0.2849 -0.0002 27.4632
#
#
#
# Elastic Compliance Matrix: (Units=1/GPa)
#
#
# Indices 1 2 3 4 5 6 
#
# 1 0.026966 -0.006246 -0.008885 0.000000 0.008835 0.000000
# 2 -0.006246 0.046045 -0.002366 0.000000 -0.005149 -0.000006
# 3 -0.008885 -0.002366 0.010681 0.000000 -0.005788 0.000000
# 4 0.000000 0.000000 0.000000 0.042495 0.000000 -0.000441
# 5 0.008835 -0.005149 -0.005788 0.000000 0.050453 0.000001
# 6 0.000000 -0.000006 0.000000 -0.000441 0.000001 0.036417
#
#
# Mechanical properties :
#
#
# Convention : Reuss Voigt Hill
#
# Bulk Modulus (GPa) = 20.53457 40.27707 30.40582
# Shear Modulus (GPa) = 18.91903 24.53738 21.72821
#
# Velocity S-wave (km/s) = 3.25666 3.70883 3.49008
# Velocity P-wave (km/s) = 5.06484 6.39684 5.76941
#
# Compressibility (1/GPa) = 0.04869837
#
# Stress axis : x y z
#
# Youngs Moduli (GPa) = 37.08436 21.71768 93.62061
#
# Poissons Ratio (x) = 0.13564 0.83182
# Poissons Ratio (y) = 0.23161 0.22155
# Poissons Ratio (z) = 0.32949 0.05139
#
# Static dielectric constant tensor:
#      x y z
#    x 3.223810 0.000000 0.302200 
#    y 0.000000 3.279810 0.000000 
#    z 0.302200 0.000000 3.778060 
# 
# 
# High freq. dielectric constant tensor:
#      x y z
#    x 1.667000 0.000000 0.023550 
#    y 0.000000 1.693440 0.000000 
#    z 0.023550 0.000000 1.697770 
# 
# From -- ./inp_files/324078.got.cif
#   From: 2010.06.25/outbox.cif.g09.slc.cpg/sg12_163_cif.got.tgz:324078.got - 2010.06.28 00:19:55.
