data_PCOD8081779
_publ_section_title
;
Structure prediction by ZEFSAII (Michael W. Deem and Ramdas Pophale) SiO2 
 PCOD8081779
Probable space group: C 2/M
;
_chemical_formula_sum "Si O2"
_cell_formula_units_Z 64
_cell_length_a 31.307130
_cell_length_b 9.101914
_cell_length_c 14.444665
_cell_angle_alpha 90.000000
_cell_angle_beta 117.331707
_cell_angle_gamma 90.000000
_cell_volume 3656.571410
_symmetry_space_group_name_H-M "C 2/M"
_symmetry_group_IT_number 12
_symmetry_cell_setting 'monoclinic'
loop_
_space_group_symop_operation_xyz
x,y,z
-x,y,-z
-x,-y,-z
x,-y,z
1/2+x,1/2+y,z
1/2-x,1/2+y,-z
1/2-x,1/2-y,-z
1/2+x,1/2-y,z
loop_
_atom_site_type_symbol
_atom_site_label
_atom_site_fract_x
_atom_site_fract_y
_atom_site_fract_z
Si Si1 0.299797 0.329009 0.948930
Si Si2 0.470132 0.167664 0.320382
Si Si3 0.881957 0.672180 0.346944
Si Si4 0.576765 0.828260 0.417681
Si Si5 0.392988 0.331905 0.930330
Si Si6 0.073729 0.168665 0.233240
Si Si7 0.975106 0.331044 0.115496
Si Si8 0.201892 0.171546 0.840674
O O1 0.287310 0.500000 0.924125
O O2 0.343530 0.278686 0.927335
O O3 0.254279 0.235573 0.871476
O O4 0.313356 0.293893 0.068866
O O5 0.428893 0.241516 0.342483
O O6 0.523398 0.235511 0.388986
O O7 0.454432 0.185455 0.198438
O O8 0.473082 0.000000 0.355633
O O9 0.876554 0.500000 0.318878
O O10 0.887208 0.700090 0.461876
O O11 0.834955 0.754463 0.266209
O O12 0.596663 0.746805 0.346201
O O13 0.572043 0.000000 0.388498
O O14 0.403788 0.500000 0.970215
O O15 0.388953 0.317117 0.815004
O O16 0.436156 0.230604 0.006669
O O17 0.024108 0.242377 0.152712
O O18 0.063497 0.000000 0.247579
O O19 0.985580 0.500000 0.101632
O O20 0.202838 0.000000 0.821167
#
# Coordination Sequence:
#
# PCOD8081779 Si02
#       8
#     8   8   8   8   8   8   8   8
#     4   9  19  36  54  72  98 128 156 190 236 290
#     4   8  15  28  46  70  98 127 161 196 230 275
#     4  10  18  30  51  73  96 129 163 195 236 287
#     4   9  18  32  49  70  96 128 166 203 237 276
#     4  10  20  33  50  71  95 127 164 198 237 285
#     4  10  20  33  48  67  96 132 165 200 240 278
#     4  10  19  30  47  72 101 131 162 197 235 279
#     4  10  20  33  51  76 102 124 151 192 239 287
#
# _framework density 17.502735000000001
#
# number of rings (size 3 to 8) (size 9 to 14) (size 15 to 20)
#    0.000    2.500    0.000    3.375    0.000    5.500 
#    0.000    2.500    0.000    4.500    0.000    0.000 
#    0.000    0.000    0.000    0.000    0.000    0.000 
#
# Total GULP energy -396783.964258 kJ/mol
# GULP energy per Si atom -12399.498883 kJ/mol
# Density = 1.746290 g / cm^3
# Si number density = 17.502735 Si / 1000 Ang^3
#
#
#
# Elastic Constant Matrix: (Units=GPa)
#
#
# Indices 1 2 3 4 5 6 
#
# 1 93.9438 40.9833 54.4514 0.0000 -10.3806 0.0000
# 2 40.9833 76.7800 53.2103 0.0000 -0.6927 0.0000
# 3 54.4514 53.2103 116.3387 0.0000 3.5315 0.0000
# 4 0.0000 0.0000 0.0000 30.0502 0.0000 0.5379
# 5 -10.3806 -0.6927 3.5315 0.0000 20.4777 0.0000
# 6 0.0000 0.0000 0.0000 0.5379 0.0000 20.8586
#
#
#
# Elastic Compliance Matrix: (Units=1/GPa)
#
#
# Indices 1 2 3 4 5 6 
#
# 1 0.017483 -0.004930 -0.006224 0.000000 0.009769 0.000000
# 2 -0.004930 0.020554 -0.007076 0.000000 -0.000584 0.000000
# 3 -0.006224 -0.007076 0.014926 0.000000 -0.005969 0.000000
# 4 0.000000 0.000000 0.000000 0.033293 0.000000 -0.000859
# 5 0.009769 -0.000584 -0.005969 0.000000 0.054795 0.000000
# 6 0.000000 0.000000 0.000000 -0.000859 0.000000 0.047964
#
#
# Mechanical properties :
#
#
# Convention : Reuss Voigt Hill
#
# Bulk Modulus (GPa) = 60.59557 64.92804 62.76181
# Shear Modulus (GPa) = 21.64725 23.50513 22.57619
#
# Velocity S-wave (km/s) = 3.52062 3.66859 3.59537
# Velocity P-wave (km/s) = 7.15697 7.42437 7.29189
#
# Compressibility (1/GPa) = 0.01650286
#
# Stress axis : x y z
#
# Youngs Moduli (GPa) = 57.19994 48.65193 66.99627
#
# Poissons Ratio (x) = 0.23986 0.41700
# Poissons Ratio (y) = 0.28200 0.47405
# Poissons Ratio (z) = 0.35602 0.34425
#
# Static dielectric constant tensor:
#      x y z
#    x 3.227580 0.000000 -0.149640 
#    y 0.000000 3.174000 0.000000 
#    z -0.149640 0.000000 3.180810 
# 
# 
# High freq. dielectric constant tensor:
#      x y z
#    x 1.661380 0.000000 -0.012420 
#    y 0.000000 1.667650 0.000000 
#    z -0.012420 0.000000 1.669850 
# 
# From -- ./inp_files/248985.got.cif
#   From: 2010.06.25/outbox.cif.g09.slc.cpg/sg12_125_cif.got.tgz:248985.got - 2010.06.28 00:19:55.
