data_PCOD8081405
_publ_section_title
;
Structure prediction by ZEFSAII (Michael W. Deem and Ramdas Pophale) SiO2 
 PCOD8081405
Probable space group: C 2/M
;
_chemical_formula_sum "Si O2"
_cell_formula_units_Z 64
_cell_length_a 28.318001
_cell_length_b 8.963286
_cell_length_c 21.221278
_cell_angle_alpha 90.000000
_cell_angle_beta 46.835999
_cell_angle_gamma 90.000000
_cell_volume 3928.857689
_symmetry_space_group_name_H-M "C 2/M"
_symmetry_group_IT_number 12
_symmetry_cell_setting 'monoclinic'
loop_
_space_group_symop_operation_xyz
x,y,z
-x,y,-z
-x,-y,-z
x,-y,z
1/2+x,1/2+y,z
1/2-x,1/2+y,-z
1/2-x,1/2-y,-z
1/2+x,1/2-y,z
loop_
_atom_site_type_symbol
_atom_site_label
_atom_site_fract_x
_atom_site_fract_y
_atom_site_fract_z
Si Si1 0.436457 0.327330 0.017639
Si Si2 0.610723 0.326656 0.689039
Si Si3 0.271328 0.322746 0.333101
Si Si4 0.350771 0.825270 0.897488
Si Si5 0.030627 0.176541 0.154012
Si Si6 0.699571 0.674295 0.500070
Si Si7 0.752947 0.826950 0.904115
Si Si8 0.693015 0.174712 0.826109
O O1 0.415542 0.500000 0.040442
O O2 0.449899 0.276689 0.934172
O O3 0.500000 0.297152 0.000000
O O4 0.380282 0.227493 0.098110
O O5 0.606087 0.500000 0.708967
O O6 0.665078 0.262700 0.687426
O O7 0.540557 0.255311 0.766423
O O8 0.629960 0.300677 0.597779
O O9 0.266091 0.500000 0.338565
O O10 0.206813 0.254659 0.425665
O O11 0.272940 0.263601 0.260957
O O12 0.420286 0.748492 0.841075
O O13 0.316331 0.766379 0.865535
O O14 0.361182 0.000000 0.882390
O O15 0.307530 0.779637 0.997188
O O16 0.031944 0.000000 0.161875
O O17 0.714843 0.500000 0.478890
O O18 0.750000 0.750000 0.500000
O O19 0.735264 0.787717 0.848938
O O20 0.768846 0.000000 0.899225
O O21 0.692490 0.000000 0.811738
#
# Coordination Sequence:
#
# PCOD8081405 Si02
#       8
#     8   8   8   8   8   8   8   8
#     4  10  20  32  46  65  94 133 169 194 224 274
#     4   8  16  30  48  69  95 128 163 197 228 276
#     4  10  19  32  49  70  98 129 165 201 238 286
#     4  10  19  32  49  69  92 118 155 201 243 282
#     4  10  18  30  48  68  93 127 162 193 233 278
#     4   9  16  29  48  70  96 126 163 203 243 279
#     4   9  19  34  49  66  91 121 156 198 243 287
#     4  11  21  33  48  69  96 125 160 201 242 282
#
# _framework density 16.289722000000001
#
# number of rings (size 3 to 8) (size 9 to 14) (size 15 to 20)
#    0.000    2.375    1.250    3.000    0.000    3.750 
#    0.000    5.000    0.000    0.000    0.000    0.875 
#    0.000    7.000    0.000    0.000    0.000    0.000 
#
# Total GULP energy -396740.536148 kJ/mol
# GULP energy per Si atom -12398.141755 kJ/mol
# Density = 1.625265 g / cm^3
# Si number density = 16.289722 Si / 1000 Ang^3
#
#
#
# Elastic Constant Matrix: (Units=GPa)
#
#
# Indices 1 2 3 4 5 6 
#
# 1 77.1020 29.3878 34.1699 0.0032 7.7167 -0.0025
# 2 29.3878 59.6673 34.0523 0.0158 9.6739 -0.0253
# 3 34.1699 34.0523 89.6789 -0.0036 18.7871 -0.0053
# 4 0.0032 0.0158 -0.0036 26.1264 0.0041 2.7157
# 5 7.7167 9.6739 18.7871 0.0041 13.8950 0.0066
# 6 -0.0025 -0.0253 -0.0053 2.7157 0.0066 21.7539
#
#
#
# Elastic Compliance Matrix: (Units=1/GPa)
#
#
# Indices 1 2 3 4 5 6 
#
# 1 0.017151 -0.006055 -0.004358 0.000002 0.000583 -0.000006
# 2 -0.006055 0.023834 -0.005541 -0.000017 -0.005740 0.000029
# 3 -0.004358 -0.005541 0.018975 0.000009 -0.019377 0.000002
# 4 0.000002 -0.000017 0.000009 0.038779 -0.000011 -0.004841
# 5 0.000583 -0.005740 -0.019377 -0.000011 0.101840 -0.000041
# 6 -0.000006 0.000029 0.000002 -0.004841 -0.000041 0.046573
#
#
# Mechanical properties :
#
#
# Convention : Reuss Voigt Hill
#
# Bulk Modulus (GPa) = 35.64674 46.85204 41.24939
# Shear Modulus (GPa) = 17.33646 20.94428 19.14037
#
# Velocity S-wave (km/s) = 3.26584 3.58961 3.43154
# Velocity P-wave (km/s) = 6.01260 6.78266 6.40921
#
# Compressibility (1/GPa) = 0.02805306
#
# Stress axis : x y z
#
# Youngs Moduli (GPa) = 58.30712 41.95611 52.70161
#
# Poissons Ratio (x) = 0.25403 0.22967
# Poissons Ratio (y) = 0.35302 0.29201
# Poissons Ratio (z) = 0.25410 0.23247
#
# Static dielectric constant tensor:
#      x y z
#    x 2.972370 -0.000030 0.000670 
#    y -0.000030 3.059160 0.000030 
#    z 0.000670 0.000030 3.316940 
# 
# 
# High freq. dielectric constant tensor:
#      x y z
#    x 1.604460 0.000000 0.005240 
#    y 0.000000 1.625660 0.000000 
#    z 0.005240 0.000000 1.619150 
# 
# From -- ./inp_files/326835.got.cif
#   From: 2010.06.25/outbox.cif.g09.slc.cpg/sg12_164_cif.got.tgz:326835.got - 2010.06.28 00:19:55.
