data_PCOD8081219
_publ_section_title
;
Structure prediction by ZEFSAII (Michael W. Deem and Ramdas Pophale) SiO2 
 PCOD8081219
Probable space group: C 2/M
;
_chemical_formula_sum "Si O2"
_cell_formula_units_Z 64
_cell_length_a 24.861009
_cell_length_b 9.282764
_cell_length_c 13.858122
_cell_angle_alpha 90.000000
_cell_angle_beta 97.063093
_cell_angle_gamma 90.000000
_cell_volume 3173.892133
_symmetry_space_group_name_H-M "C 2/M"
_symmetry_group_IT_number 12
_symmetry_cell_setting 'monoclinic'
loop_
_space_group_symop_operation_xyz
x,y,z
-x,y,-z
-x,-y,-z
x,-y,z
1/2+x,1/2+y,z
1/2-x,1/2+y,-z
1/2-x,1/2-y,-z
1/2+x,1/2-y,z
loop_
_atom_site_type_symbol
_atom_site_label
_atom_site_fract_x
_atom_site_fract_y
_atom_site_fract_z
Si Si1 0.341653 0.842790 0.145338
Si Si2 0.070377 0.338759 0.148330
Si Si3 0.957786 0.667153 0.411880
Si Si4 0.899862 0.159170 0.025163
Si Si5 0.160397 0.332360 0.528916
Si Si6 0.780601 0.167984 0.295955
Si Si7 0.542915 0.226075 0.795074
Si Si8 0.340759 0.165769 0.687079
O O1 0.346284 0.750003 0.046670
O O2 0.307597 0.752359 0.214247
O O3 0.403097 0.874427 0.196163
O O4 0.314416 0.000000 0.122133
O O5 0.089415 0.500000 0.123489
O O6 0.111802 0.267767 0.235375
O O7 0.010390 0.352517 0.177934
O O8 0.069754 0.239495 0.054269
O O9 0.970018 0.500000 0.388305
O O10 0.898242 0.688005 0.439094
O O11 0.966716 0.767767 0.319103
O O12 0.000000 0.723751 0.500000
O O13 0.941427 0.145693 0.126362
O O14 0.882405 0.000000 0.988648
O O15 0.178741 0.500000 0.535731
O O16 0.202340 0.236602 0.598518
O O17 0.160193 0.267142 0.420495
O O18 0.716186 0.186797 0.271534
O O19 0.797519 0.000000 0.296366
O O20 0.355786 0.000000 0.675094
#
# Coordination Sequence:
#
# PCOD8081219 Si02
#       8
#     8   8   8   8   8   8   8   8
#     4  10  20  36  60  88 109 139 191 239 280 331
#     4  11  21  37  60  85 116 150 192 241 289 336
#     4  10  18  29  51  85 118 144 177 229 285 329
#     4  10  23  39  58  86 118 151 187 230 290 350
#     4  10  18  34  58  82 113 150 197 240 276 331
#     4  11  21  36  57  83 118 154 193 236 287 340
#     4  10  21  33  59  85 119 143 188 230 285 331
#     4   9  21  37  56  85 116 152 195 243 287 332
#
# _framework density 20.164518000000001
#
# number of rings (size 3 to 8) (size 9 to 14) (size 15 to 20)
#    0.750    1.125    1.250    3.750    0.000    3.500 
#    0.000    3.125    0.000    3.000    0.000    0.000 
#    0.000    0.000    0.000    0.000    0.000    0.000 
#
# Total GULP energy -396475.658332 kJ/mol
# GULP energy per Si atom -12389.864323 kJ/mol
# Density = 2.011862 g / cm^3
# Si number density = 20.164518 Si / 1000 Ang^3
#
#
#
# Elastic Constant Matrix: (Units=GPa)
#
#
# Indices 1 2 3 4 5 6 
#
# 1 77.3658 30.0781 40.0768 0.0000 -16.1815 0.0000
# 2 30.0781 98.9886 32.1327 0.0000 -14.0653 0.0000
# 3 40.0768 32.1327 85.7147 0.0000 -28.6730 0.0000
# 4 0.0000 0.0000 0.0000 14.9520 0.0000 -0.6465
# 5 -16.1815 -14.0653 -28.6730 0.0000 33.6207 0.0000
# 6 0.0000 0.0000 0.0000 -0.6465 0.0000 12.5224
#
#
#
# Elastic Compliance Matrix: (Units=1/GPa)
#
#
# Indices 1 2 3 4 5 6 
#
# 1 0.017915 -0.003039 -0.006685 0.000000 0.001650 0.000000
# 2 -0.003039 0.012078 -0.002667 0.000000 0.001316 0.000000
# 3 -0.006685 -0.002667 0.020068 0.000000 0.012781 0.000000
# 4 0.000000 0.000000 0.000000 0.067030 0.000000 0.003461
# 5 0.001650 0.001316 0.012781 0.000000 0.041988 0.000000
# 6 0.000000 0.000000 0.000000 0.003461 0.000000 0.080036
#
#
# Mechanical properties :
#
#
# Convention : Reuss Voigt Hill
#
# Bulk Modulus (GPa) = 39.55878 51.84937 45.70408
# Shear Modulus (GPa) = 18.36047 22.87111 20.61579
#
# Velocity S-wave (km/s) = 3.02078 3.37148 3.20094
# Velocity P-wave (km/s) = 5.64158 6.39725 6.03126
#
# Compressibility (1/GPa) = 0.02527884
#
# Stress axis : x y z
#
# Youngs Moduli (GPa) = 55.81818 82.79352 49.83145
#
# Poissons Ratio (x) = 0.25162 0.33314
# Poissons Ratio (y) = 0.16964 0.13289
# Poissons Ratio (z) = 0.37317 0.22078
#
# Static dielectric constant tensor:
#      x y z
#    x 3.533400 0.000000 -0.045820 
#    y 0.000000 3.289980 0.000000 
#    z -0.045820 0.000000 3.791910 
# 
# 
# High freq. dielectric constant tensor:
#      x y z
#    x 1.782980 0.000000 -0.016220 
#    y 0.000000 1.749960 0.000000 
#    z -0.016220 0.000000 1.793050 
# 
# From -- ./inp_files/244045.got.cif
#   From: 2010.06.25/outbox.cif.g09.slc.cpg/sg12_123_cif.got.tgz:244045.got - 2010.06.28 00:19:55.
