data_PCOD8081720
_publ_section_title
;
Structure prediction by ZEFSAII (Michael W. Deem and Ramdas Pophale) SiO2 
 PCOD8081720
Probable space group: C 2/M
;
_chemical_formula_sum "Si O2"
_cell_formula_units_Z 56
_cell_length_a 14.060918
_cell_length_b 13.709546
_cell_length_c 22.672907
_cell_angle_alpha 90.000000
_cell_angle_beta 137.863779
_cell_angle_gamma 90.000000
_cell_volume 2932.235603
_symmetry_space_group_name_H-M "C 2/M"
_symmetry_group_IT_number 12
_symmetry_cell_setting 'monoclinic'
loop_
_space_group_symop_operation_xyz
x,y,z
-x,y,-z
-x,-y,-z
x,-y,z
1/2+x,1/2+y,z
1/2-x,1/2+y,-z
1/2-x,1/2-y,-z
1/2+x,1/2-y,z
loop_
_atom_site_type_symbol
_atom_site_label
_atom_site_fract_x
_atom_site_fract_y
_atom_site_fract_z
Si Si1 0.467462 0.888938 0.110353
Si Si2 0.950953 0.199993 0.389712
Si Si3 0.772919 0.886097 0.209827
Si Si4 0.703913 0.385749 0.573808
Si Si5 0.195021 0.608666 0.850447
Si Si6 0.846072 0.706291 0.951087
Si Si7 0.503450 0.112350 0.653731
O O1 0.626619 0.850635 0.173154
O O2 0.437118 0.879336 0.165646
O O3 0.454299 0.000000 0.081825
O O4 0.347810 0.824835 0.020627
O O5 0.903304 0.162310 0.303823
O O6 0.831770 0.178438 0.384475
O O7 0.095080 0.144137 0.472363
O O8 0.979007 0.316498 0.394787
O O9 0.772900 0.851953 0.141382
O O10 0.793861 0.000000 0.223313
O O11 0.686568 0.500000 0.581713
O O12 0.860762 0.361895 0.623762
O O13 0.258260 0.500000 0.883403
O O14 0.321870 0.679289 0.928679
O O15 0.137088 0.629831 0.758481
O O16 0.000000 0.673066 0.000000
O O17 0.499139 0.000000 0.629676
#
# Coordination Sequence:
#
# PCOD8081720 Si02
#       7
#     8   8   8   8   8   8   8
#     4   9  18  31  50  73  99 129 166 212 261 311
#     4  11  19  34  57  83 109 141 177 221 269 313
#     4  10  18  30  50  76 102 129 164 211 266 316
#     4  10  21  36  57  86 112 138 178 223 267 320
#     4  10  19  33  50  70  96 135 177 210 247 305
#     4  10  19  31  47  73 100 130 165 210 261 308
#     4  10  21  37  56  80 110 145 184 219 260 321
#
# _framework density 19.098057000000001
#
# number of rings (size 3 to 8) (size 9 to 14) (size 15 to 20)
#    0.000    2.000    1.429    3.857    0.000    4.286 
#    0.000    1.429    0.000    2.571    0.000    0.000 
#    0.000    0.000    0.000    0.000    0.000    0.000 
#
# Total GULP energy -347126.041379 kJ/mol
# GULP energy per Si atom -12397.358621 kJ/mol
# Density = 1.905459 g / cm^3
# Si number density = 19.098057 Si / 1000 Ang^3
#
#
#
# Elastic Constant Matrix: (Units=GPa)
#
#
# Indices 1 2 3 4 5 6 
#
# 1 41.7445 38.8271 7.8058 0.0000 -7.5417 0.0000
# 2 38.8271 109.1728 34.3352 0.0000 -4.5181 0.0000
# 3 7.8058 34.3352 81.8525 0.0000 -7.0882 0.0000
# 4 0.0000 0.0000 0.0000 31.7365 0.0000 -4.4573
# 5 -7.5417 -4.5181 -7.0882 0.0000 18.5201 0.0000
# 6 0.0000 0.0000 0.0000 -4.4573 0.0000 31.1116
#
#
#
# Elastic Compliance Matrix: (Units=1/GPa)
#
#
# Indices 1 2 3 4 5 6 
#
# 1 0.039289 -0.014514 0.003538 0.000000 0.013812 0.000000
# 2 -0.014514 0.015928 -0.005660 0.000000 -0.004191 0.000000
# 3 0.003538 -0.005660 0.014748 0.000000 0.005704 0.000000
# 4 0.000000 0.000000 0.000000 0.032156 0.000000 0.004607
# 5 0.013812 -0.004191 0.005704 0.000000 0.060781 0.000000
# 6 0.000000 0.000000 0.000000 0.004607 0.000000 0.032802
#
#
# Mechanical properties :
#
#
# Convention : Reuss Voigt Hill
#
# Bulk Modulus (GPa) = 27.25406 43.85622 35.55514
# Shear Modulus (GPa) = 20.72894 26.39376 23.56135
#
# Velocity S-wave (km/s) = 3.29811 3.72158 3.51622
# Velocity P-wave (km/s) = 5.36702 6.44053 5.92812
#
# Compressibility (1/GPa) = 0.03669179
#
# Stress axis : x y z
#
# Youngs Moduli (GPa) = 25.45267 62.78095 67.80523
#
# Poissons Ratio (x) = 0.91120 -0.23987
# Poissons Ratio (y) = 0.36942 0.38381
# Poissons Ratio (z) = -0.09004 0.35537
#
# Static dielectric constant tensor:
#      x y z
#    x 3.201560 0.000000 -0.110680 
#    y 0.000000 3.551360 0.000000 
#    z -0.110680 0.000000 3.616430 
# 
# 
# High freq. dielectric constant tensor:
#      x y z
#    x 1.709590 0.000000 -0.008590 
#    y 0.000000 1.744390 0.000000 
#    z -0.008590 0.000000 1.749770 
# 
# From -- ./inp_files/339941.got.cif
#   From: 2010.06.25/outbox.cif.g09.slc.cpg/sg12_170_cif.got.tgz:339941.got - 2010.06.28 00:19:55.
