data_PCOD8081172
_publ_section_title
;
Structure prediction by ZEFSAII (Michael W. Deem and Ramdas Pophale) SiO2 
 PCOD8081172
Probable space group: C 2/M
;
_chemical_formula_sum "Si O2"
_cell_formula_units_Z 64
_cell_length_a 23.979597
_cell_length_b 8.958408
_cell_length_c 16.712821
_cell_angle_alpha 90.000000
_cell_angle_beta 95.507606
_cell_angle_gamma 90.000000
_cell_volume 3573.657295
_symmetry_space_group_name_H-M "C 2/M"
_symmetry_group_IT_number 12
_symmetry_cell_setting 'monoclinic'
loop_
_space_group_symop_operation_xyz
x,y,z
-x,y,-z
-x,-y,-z
x,-y,z
1/2+x,1/2+y,z
1/2-x,1/2+y,-z
1/2-x,1/2-y,-z
1/2+x,1/2-y,z
loop_
_atom_site_type_symbol
_atom_site_label
_atom_site_fract_x
_atom_site_fract_y
_atom_site_fract_z
Si Si1 0.405958 0.823986 0.631736
Si Si2 0.885350 0.826594 0.465867
Si Si3 0.292790 0.673896 0.324535
Si Si4 0.213689 0.171554 0.100422
Si Si5 0.326589 0.671868 0.073584
Si Si6 0.180740 0.825603 0.273163
Si Si7 0.534704 0.826788 0.643692
Si Si8 0.875081 0.326636 0.216693
O O1 0.378855 0.763195 0.546733
O O2 0.376068 0.748271 0.702966
O O3 0.470898 0.778227 0.645626
O O4 0.397437 0.000000 0.634562
O O5 0.828386 0.797343 0.409458
O O6 0.938901 0.768446 0.424123
O O7 0.894675 0.000000 0.485394
O O8 0.284263 0.500000 0.306630
O O9 0.233023 0.752317 0.326679
O O10 0.324090 0.745160 0.253665
O O11 0.266350 0.279166 0.098905
O O12 0.182325 0.206946 0.178672
O O13 0.234798 0.000000 0.100504
O O14 0.170372 0.201672 0.021378
O O15 0.335664 0.500000 0.095404
O O16 0.375692 0.764148 0.125841
O O17 0.180725 0.000000 0.292617
O O18 0.566151 0.792738 0.731709
O O19 0.540492 0.000000 0.620603
O O20 0.861115 0.500000 0.214556
#
# Coordination Sequence:
#
# PCOD8081172 Si02
#       8
#     8   8   8   8   8   8   8   8
#     4  11  23  38  55  75 101 138 180 216 258 310
#     4  10  21  36  56  81 106 131 168 219 267 308
#     4  10  20  34  52  77 106 137 171 209 257 311
#     4   9  19  33  49  74 107 140 170 208 255 307
#     4  10  18  29  50  79 108 135 169 209 255 309
#     4  11  22  36  54  75 105 141 175 212 257 309
#     4   9  20  37  56  77 103 136 174 218 262 305
#     4  10  18  31  52  78 107 136 169 212 261 306
#
# _framework density 17.908823999999999
#
# number of rings (size 3 to 8) (size 9 to 14) (size 15 to 20)
#    0.000    2.000    1.250    2.625    0.000    6.000 
#    0.000    0.000    0.000    0.750    0.000    5.250 
#    0.000    0.000    0.000    0.000    0.000    0.000 
#
# Total GULP energy -396873.990829 kJ/mol
# GULP energy per Si atom -12402.312213 kJ/mol
# Density = 1.786806 g / cm^3
# Si number density = 17.908824 Si / 1000 Ang^3
#
#
#
# Elastic Constant Matrix: (Units=GPa)
#
#
# Indices 1 2 3 4 5 6 
#
# 1 64.8291 32.6595 43.0300 0.0000 -8.9461 0.0000
# 2 32.6595 86.9873 48.6622 0.0000 -5.2248 0.0000
# 3 43.0300 48.6622 117.9126 0.0000 0.8740 0.0000
# 4 0.0000 0.0000 0.0000 31.1897 0.0000 0.3432
# 5 -8.9461 -5.2248 0.8740 0.0000 21.6783 0.0000
# 6 0.0000 0.0000 0.0000 0.3432 0.0000 27.4390
#
#
#
# Elastic Compliance Matrix: (Units=1/GPa)
#
#
# Indices 1 2 3 4 5 6 
#
# 1 0.023379 -0.004469 -0.006753 0.000000 0.008843 0.000000
# 2 -0.004469 0.016130 -0.005042 0.000000 0.002247 0.000000
# 3 -0.006753 -0.005042 0.013060 0.000000 -0.004529 0.000000
# 4 0.000000 0.000000 0.000000 0.032066 0.000000 -0.000401
# 5 0.008843 0.002247 -0.004529 0.000000 0.050503 0.000000
# 6 0.000000 0.000000 0.000000 -0.000401 0.000000 0.036450
#
#
# Mechanical properties :
#
#
# Convention : Reuss Voigt Hill
#
# Bulk Modulus (GPa) = 49.90056 57.60360 53.75208
# Shear Modulus (GPa) = 23.71969 25.75322 24.73645
#
# Velocity S-wave (km/s) = 3.64327 3.79624 3.72054
# Velocity P-wave (km/s) = 6.75441 7.17286 6.96678
#
# Compressibility (1/GPa) = 0.02003986
#
# Stress axis : x y z
#
# Youngs Moduli (GPa) = 42.77327 61.99818 76.57056
#
# Poissons Ratio (x) = 0.27705 0.51709
# Poissons Ratio (y) = 0.19114 0.38610
# Poissons Ratio (z) = 0.28885 0.31262
#
# Static dielectric constant tensor:
#      x y z
#    x 3.136460 0.000000 0.215000 
#    y 0.000000 3.427410 0.000000 
#    z 0.215000 0.000000 3.519590 
# 
# 
# High freq. dielectric constant tensor:
#      x y z
#    x 1.664590 0.000000 0.019170 
#    y 0.000000 1.707900 0.000000 
#    z 0.019170 0.000000 1.698260 
# 
# From -- ./inp_files/281382.got.cif
#   From: 2010.06.25/outbox.cif.g09.slc.cpg/sg12_141_cif.got.tgz:281382.got - 2010.06.28 00:19:55.
