data_PCOD8081753
_publ_section_title
;
Structure prediction by ZEFSAII (Michael W. Deem and Ramdas Pophale) SiO2 
 PCOD8081753
Probable space group: C 2/M
;
_chemical_formula_sum "Si O2"
_cell_formula_units_Z 56
_cell_length_a 19.942476
_cell_length_b 16.361936
_cell_length_c 14.570307
_cell_angle_alpha 90.000000
_cell_angle_beta 144.830493
_cell_angle_gamma 90.000000
_cell_volume 2738.438258
_symmetry_space_group_name_H-M "C 2/M"
_symmetry_group_IT_number 12
_symmetry_cell_setting 'monoclinic'
loop_
_space_group_symop_operation_xyz
x,y,z
-x,y,-z
-x,-y,-z
x,-y,z
1/2+x,1/2+y,z
1/2-x,1/2+y,-z
1/2-x,1/2-y,-z
1/2+x,1/2-y,z
loop_
_atom_site_type_symbol
_atom_site_label
_atom_site_fract_x
_atom_site_fract_y
_atom_site_fract_z
Si Si1 0.584482 0.592885 0.791565
Si Si2 0.749836 0.659607 0.120369
Si Si3 0.509981 0.095438 0.615026
Si Si4 0.625875 0.405167 0.153877
Si Si5 0.202355 0.597434 0.506201
Si Si6 0.821711 0.905735 0.460632
Si Si7 0.130163 0.184606 0.666182
O O1 0.621134 0.500000 0.857412
O O2 0.446504 0.604489 0.649919
O O3 0.616791 0.609850 0.722094
O O4 0.650218 0.657850 0.930954
O O5 0.863865 0.617480 0.204216
O O6 0.707657 0.605414 0.157790
O O7 0.782503 0.750001 0.191143
O O8 0.500000 0.131385 0.500000
O O9 0.415467 0.134376 0.579974
O O10 0.487843 0.000000 0.587120
O O11 0.605262 0.500000 0.148887
O O12 0.690522 0.367069 0.314115
O O13 0.500000 0.361831 0.000000
O O14 0.200077 0.500000 0.509803
O O15 0.222875 0.623253 0.423243
O O16 0.809310 0.848871 0.357962
O O17 0.803557 0.000000 0.411288
O O18 0.000000 0.220174 0.500000
#
# Coordination Sequence:
#
# PCOD8081753 Si02
#       7
#     8   8   8   8   8   8   8
#     4  10  20  36  60  86 110 145 193 241 285 327
#     4  12  21  33  55  83 117 146 179 231 290 344
#     4  10  18  30  50  78 113 153 190 220 267 339
#     4  10  19  31  51  80 112 146 185 233 283 332
#     4   9  17  30  52  80 108 142 189 236 274 322
#     4   9  18  37  62  85 109 144 194 243 281 324
#     4  10  22  37  57  82 116 153 190 231 281 341
#
# _framework density 20.449611999999998
#
# number of rings (size 3 to 8) (size 9 to 14) (size 15 to 20)
#    0.000    2.000    1.429    3.429    0.000    4.000 
#    0.000    0.714    6.286    0.000    0.000    4.000 
#    0.000    0.000    0.000    0.000    0.000    0.000 
#
# Total GULP energy -347076.675563 kJ/mol
# GULP energy per Si atom -12395.595556 kJ/mol
# Density = 2.040307 g / cm^3
# Si number density = 20.449612 Si / 1000 Ang^3
#
#
#
# Elastic Constant Matrix: (Units=GPa)
#
#
# Indices 1 2 3 4 5 6 
#
# 1 166.4414 33.0675 40.8231 0.0000 4.0192 0.0000
# 2 33.0675 49.2560 36.9371 0.0000 -0.3876 0.0000
# 3 40.8231 36.9371 63.7592 0.0000 -2.3451 0.0000
# 4 0.0000 0.0000 0.0000 24.5035 0.0000 -4.6857
# 5 4.0192 -0.3876 -2.3451 0.0000 31.4524 0.0000
# 6 0.0000 0.0000 0.0000 -4.6857 0.0000 14.7425
#
#
#
# Elastic Compliance Matrix: (Units=1/GPa)
#
#
# Indices 1 2 3 4 5 6 
#
# 1 0.007339 -0.002439 -0.003331 0.000000 -0.001216 0.000000
# 2 -0.002439 0.036746 -0.019752 0.000000 -0.000708 0.000000
# 3 -0.003331 -0.019752 0.029347 0.000000 0.002370 0.000000
# 4 0.000000 0.000000 0.000000 0.043452 0.000000 0.013811
# 5 -0.001216 -0.000708 0.002370 0.000000 0.032117 0.000000
# 6 0.000000 0.000000 0.000000 0.013811 0.000000 0.072220
#
#
# Mechanical properties :
#
#
# Convention : Reuss Voigt Hill
#
# Bulk Modulus (GPa) = 44.66696 55.67912 50.17304
# Shear Modulus (GPa) = 17.87451 25.38160 21.62806
#
# Velocity S-wave (km/s) = 2.95968 3.52686 3.25565
# Velocity P-wave (km/s) = 5.79392 6.62356 6.22258
#
# Compressibility (1/GPa) = 0.02238791
#
# Stress axis : x y z
#
# Youngs Moduli (GPa) = 136.25918 27.21382 34.07518
#
# Poissons Ratio (x) = 0.06637 0.11350
# Poissons Ratio (y) = 0.33229 0.67307
# Poissons Ratio (z) = 0.45386 0.53754
#
# Static dielectric constant tensor:
#      x y z
#    x 3.934550 0.000000 0.102240 
#    y 0.000000 3.331740 0.000000 
#    z 0.102240 0.000000 3.695250 
# 
# 
# High freq. dielectric constant tensor:
#      x y z
#    x 1.808530 0.000000 0.002130 
#    y 0.000000 1.769070 0.000000 
#    z 0.002130 0.000000 1.783510 
# 
# From -- ./inp_files/234717.got.cif
#   From: 2010.06.25/outbox.cif.g09.slc.cpg/sg12_118_cif.got.tgz:234717.got - 2010.06.28 00:19:55.
