data_PCOD8081718
_publ_section_title
;
Structure prediction by ZEFSAII (Michael W. Deem and Ramdas Pophale) SiO2 
 PCOD8081718
Probable space group: C 2/M
;
_chemical_formula_sum "Si O2"
_cell_formula_units_Z 64
_cell_length_a 32.097415
_cell_length_b 8.973573
_cell_length_c 14.790181
_cell_angle_alpha 90.000000
_cell_angle_beta 130.828579
_cell_angle_gamma 90.000000
_cell_volume 3223.405253
_symmetry_space_group_name_H-M "C 2/M"
_symmetry_group_IT_number 12
_symmetry_cell_setting 'monoclinic'
loop_
_space_group_symop_operation_xyz
x,y,z
-x,y,-z
-x,-y,-z
x,-y,z
1/2+x,1/2+y,z
1/2-x,1/2+y,-z
1/2-x,1/2-y,-z
1/2+x,1/2-y,z
loop_
_atom_site_type_symbol
_atom_site_label
_atom_site_fract_x
_atom_site_fract_y
_atom_site_fract_z
Si Si1 0.564073 0.331323 0.810061
Si Si2 0.862692 0.324940 0.943593
Si Si3 0.701857 0.663735 0.386384
Si Si4 0.132690 0.323031 0.551429
Si Si5 0.062643 0.170880 0.600514
Si Si6 0.597666 0.175336 0.194754
Si Si7 0.056471 0.174281 0.297581
Si Si8 0.743359 0.662738 0.246725
O O1 0.575009 0.500000 0.858863
O O2 0.580922 0.312243 0.730053
O O3 0.499923 0.291560 0.729877
O O4 0.601328 0.220053 0.919933
O O5 0.856653 0.500000 0.928740
O O6 0.895058 0.269121 0.898552
O O7 0.800380 0.264167 0.869692
O O8 0.691483 0.500000 0.415806
O O9 0.750000 0.750000 0.500000
O O10 0.650404 0.772153 0.326809
O O11 0.715358 0.640065 0.302378
O O12 0.131402 0.500000 0.534825
O O13 0.100468 0.279194 0.596066
O O14 0.105990 0.246147 0.425899
O O15 0.195794 0.266150 0.655270
O O16 0.000000 0.222547 0.500000
O O17 0.069221 0.000000 0.576079
O O18 0.549805 0.255039 0.186231
O O19 0.588579 0.000000 0.186501
O O20 0.067808 0.000000 0.303660
O O21 0.748341 0.500000 0.206187
#
# Coordination Sequence:
#
# PCOD8081718 Si02
#       8
#     8   8   8   8   8   8   8   8
#     4  10  22  40  62  84 113 153 193 238 288 343
#     4  10  22  39  60  84 114 152 197 242 285 338
#     4  10  18  30  50  75 107 150 193 236 285 341
#     4  11  22  36  59  92 123 150 186 241 297 345
#     4  10  20  40  63  86 118 152 190 233 285 350
#     4  10  21  36  52  78 115 152 191 241 291 337
#     4  11  22  37  58  86 117 155 198 238 287 349
#     4   9  20  37  55  78 113 152 190 232 283 341
#
# _framework density 19.854780000000002
#
# number of rings (size 3 to 8) (size 9 to 14) (size 15 to 20)
#    0.000    1.875    1.250    2.625    0.000    6.250 
#    0.000    3.125    0.000    0.000    0.000    0.000 
#    0.000    0.000    0.000    0.000    0.000    0.000 
#
# Total GULP energy -396642.852530 kJ/mol
# GULP energy per Si atom -12395.089142 kJ/mol
# Density = 1.980959 g / cm^3
# Si number density = 19.854780 Si / 1000 Ang^3
#
#
#
# Elastic Constant Matrix: (Units=GPa)
#
#
# Indices 1 2 3 4 5 6 
#
# 1 76.6396 30.5813 25.8220 0.0000 3.3987 0.0000
# 2 30.5813 72.6660 35.2844 0.0000 1.2366 0.0000
# 3 25.8220 35.2844 87.1390 0.0000 0.5205 0.0000
# 4 0.0000 0.0000 0.0000 31.3432 0.0000 -1.0463
# 5 3.3987 1.2366 0.5205 0.0000 24.4878 0.0000
# 6 0.0000 0.0000 0.0000 -1.0463 0.0000 31.2586
#
#
#
# Elastic Compliance Matrix: (Units=1/GPa)
#
#
# Indices 1 2 3 4 5 6 
#
# 1 0.016205 -0.005553 -0.002542 0.000000 -0.001915 0.000000
# 2 -0.005553 0.019045 -0.006066 0.000000 -0.000062 0.000000
# 3 -0.002542 -0.006066 0.014683 0.000000 0.000347 0.000000
# 4 0.000000 0.000000 0.000000 0.031941 0.000000 0.001069
# 5 -0.001915 -0.000062 0.000347 0.000000 0.041098 0.000000
# 6 0.000000 0.000000 0.000000 0.001069 0.000000 0.032027
#
#
# Mechanical properties :
#
#
# Convention : Reuss Voigt Hill
#
# Bulk Modulus (GPa) = 46.27128 46.64668 46.45898
# Shear Modulus (GPa) = 26.24326 27.06839 26.65582
#
# Velocity S-wave (km/s) = 3.63955 3.69632 3.66804
# Velocity P-wave (km/s) = 6.40447 6.46235 6.43347
#
# Compressibility (1/GPa) = 0.02161168
#
# Stress axis : x y z
#
# Youngs Moduli (GPa) = 61.70814 52.50725 68.10432
#
# Poissons Ratio (x) = 0.29157 0.17313
# Poissons Ratio (y) = 0.34266 0.41311
# Poissons Ratio (z) = 0.15687 0.31850
#
# Static dielectric constant tensor:
#      x y z
#    x 3.617300 0.000000 0.138680 
#    y 0.000000 3.700650 0.000000 
#    z 0.138680 0.000000 3.320960 
# 
# 
# High freq. dielectric constant tensor:
#      x y z
#    x 1.772960 0.000000 0.003120 
#    y 0.000000 1.775730 0.000000 
#    z 0.003120 0.000000 1.763080 
# 
# From -- ./inp_files/249923.got.cif
#   From: 2010.06.25/outbox.cif.g09.slc.cpg/sg12_125_cif.got.tgz:249923.got - 2010.06.28 00:19:55.
