data_PCOD8081179
_publ_section_title
;
Structure prediction by ZEFSAII (Michael W. Deem and Ramdas Pophale) SiO2 
 PCOD8081179
Probable space group: C 2/M
;
_chemical_formula_sum "Si O2"
_cell_formula_units_Z 56
_cell_length_a 28.199296
_cell_length_b 8.839272
_cell_length_c 12.821029
_cell_angle_alpha 90.000000
_cell_angle_beta 125.283322
_cell_angle_gamma 90.000000
_cell_volume 2608.738267
_symmetry_space_group_name_H-M "C 2/M"
_symmetry_group_IT_number 12
_symmetry_cell_setting 'monoclinic'
loop_
_space_group_symop_operation_xyz
x,y,z
-x,y,-z
-x,-y,-z
x,-y,z
1/2+x,1/2+y,z
1/2-x,1/2+y,-z
1/2-x,1/2-y,-z
1/2+x,1/2-y,z
loop_
_atom_site_type_symbol
_atom_site_label
_atom_site_fract_x
_atom_site_fract_y
_atom_site_fract_z
Si Si1 0.240613 0.665955 0.882961
Si Si2 0.555922 0.177003 0.234633
Si Si3 0.757093 0.324121 0.700589
Si Si4 0.923332 0.322154 0.112248
Si Si5 0.106125 0.334323 0.695389
Si Si6 0.124322 0.821349 0.509947
Si Si7 0.371936 0.321409 0.848200
O O1 0.271639 0.500000 0.917564
O O2 0.266553 0.781115 0.832633
O O3 0.173748 0.638262 0.781291
O O4 0.250000 0.750000 0.000000
O O5 0.488800 0.215428 0.164186
O O6 0.591135 0.235823 0.377829
O O7 0.575444 0.259170 0.154162
O O8 0.567025 0.000000 0.235951
O O9 0.766439 0.500000 0.693190
O O10 0.692388 0.273180 0.584359
O O11 0.811100 0.234892 0.716282
O O12 0.909209 0.500000 0.089369
O O13 0.913814 0.262513 0.219164
O O14 0.880402 0.237180 0.977711
O O15 0.075918 0.500000 0.640664
O O16 0.093951 0.224780 0.581408
O O17 0.117980 0.000000 0.489521
O O18 0.372356 0.500000 0.847061
#
# Coordination Sequence:
#
# PCOD8081179 Si02
#       7
#     8   8   8   8   8   8   8
#     4  10  18  29  50  81 116 154 194 240 295 353
#     4  11  24  42  64  86 117 162 205 247 294 351
#     4  10  21  38  59  83 116 156 196 243 298 359
#     4  10  22  41  64  90 120 159 204 244 291 354
#     4   9  19  36  58  84 117 155 195 240 290 351
#     4  10  22  40  62  90 122 156 198 246 297 352
#     4  12  25  40  62  91 121 154 197 251 306 357
#
# _framework density 21.466315999999999
#
# number of rings (size 3 to 8) (size 9 to 14) (size 15 to 20)
#    0.000    1.714    0.000    4.286    0.000    8.000 
#    0.000    2.857    0.000    0.000    0.000    0.000 
#    0.000    0.000    0.000    0.000    0.000    0.000 
#
# Total GULP energy -347059.417539 kJ/mol
# GULP energy per Si atom -12394.979198 kJ/mol
# Density = 2.141746 g / cm^3
# Si number density = 21.466316 Si / 1000 Ang^3
#
#
#
# Elastic Constant Matrix: (Units=GPa)
#
#
# Indices 1 2 3 4 5 6 
#
# 1 108.2695 30.4572 17.2817 0.0000 6.7959 0.0000
# 2 30.4572 93.0550 28.9850 0.0000 8.3060 0.0000
# 3 17.2817 28.9850 77.8466 0.0000 0.1906 0.0000
# 4 0.0000 0.0000 0.0000 29.6900 0.0000 -0.3803
# 5 6.7959 8.3060 0.1906 0.0000 40.3877 0.0000
# 6 0.0000 0.0000 0.0000 -0.3803 0.0000 22.5967
#
#
#
# Elastic Compliance Matrix: (Units=1/GPa)
#
#
# Indices 1 2 3 4 5 6 
#
# 1 0.010316 -0.002899 -0.001208 0.000000 -0.001134 0.000000
# 2 -0.002899 0.013224 -0.004275 0.000000 -0.002212 0.000000
# 3 -0.001208 -0.004275 0.014703 0.000000 0.001013 0.000000
# 4 0.000000 0.000000 0.000000 0.033689 0.000000 0.000567
# 5 -0.001134 -0.002212 0.001013 0.000000 0.025401 0.000000
# 6 0.000000 0.000000 0.000000 0.000567 0.000000 0.044264
#
#
# Mechanical properties :
#
#
# Convention : Reuss Voigt Hill
#
# Bulk Modulus (GPa) = 46.55580 48.06878 47.31229
# Shear Modulus (GPa) = 30.20793 32.03135 31.11964
#
# Velocity S-wave (km/s) = 3.75537 3.86705 3.81162
# Velocity P-wave (km/s) = 6.36700 6.50999 6.43889
#
# Compressibility (1/GPa) = 0.02147960
#
# Stress axis : x y z
#
# Youngs Moduli (GPa) = 96.93980 75.61953 68.01274
#
# Poissons Ratio (x) = 0.21921 0.08215
# Poissons Ratio (y) = 0.28102 0.29074
# Poissons Ratio (z) = 0.11709 0.32326
#
# Static dielectric constant tensor:
#      x y z
#    x 4.014500 0.000000 -0.151720 
#    y 0.000000 3.976990 0.000000 
#    z -0.151720 0.000000 3.664410 
# 
# 
# High freq. dielectric constant tensor:
#      x y z
#    x 1.851850 0.000000 -0.002930 
#    y 0.000000 1.841810 0.000000 
#    z -0.002930 0.000000 1.836670 
# 
# From -- ./inp_files/181071.got.cif
#   From: 2010.06.25/outbox.cif.g09.slc.cpg/sg12_91_cif.got.tgz:181071.got - 2010.06.28 00:19:55.
