data_PCOD8081754
_publ_section_title
;
Structure prediction by ZEFSAII (Michael W. Deem and Ramdas Pophale) SiO2 
 PCOD8081754
Probable space group: C 2/M
;
_chemical_formula_sum "Si O2"
_cell_formula_units_Z 64
_cell_length_a 28.133393
_cell_length_b 20.987832
_cell_length_c 18.615100
_cell_angle_alpha 90.000000
_cell_angle_beta 161.470141
_cell_angle_gamma 90.000000
_cell_volume 3493.070467
_symmetry_space_group_name_H-M "C 2/M"
_symmetry_group_IT_number 12
_symmetry_cell_setting 'monoclinic'
loop_
_space_group_symop_operation_xyz
x,y,z
-x,y,-z
-x,-y,-z
x,-y,z
1/2+x,1/2+y,z
1/2-x,1/2+y,-z
1/2-x,1/2-y,-z
1/2+x,1/2-y,z
loop_
_atom_site_type_symbol
_atom_site_label
_atom_site_fract_x
_atom_site_fract_y
_atom_site_fract_z
Si Si1 0.881814 0.075614 0.767314
Si Si2 0.151202 0.717939 0.044662
Si Si3 0.263548 0.929741 0.162737
Si Si4 0.913710 0.349222 0.617553
Si Si5 0.128438 0.246271 0.765186
Si Si6 0.641627 0.714045 0.532781
Si Si7 0.008019 0.617508 0.608296
Si Si8 0.994513 0.150708 0.791085
O O1 0.721817 0.106413 0.553831
O O2 0.932273 0.108219 0.766064
O O3 0.863871 0.000000 0.730721
O O4 0.000000 0.090504 0.000000
O O5 0.294651 0.717961 0.196277
O O6 0.206977 0.701761 0.205114
O O7 0.026509 0.665520 0.844635
O O8 0.066299 0.784958 0.924406
O O9 0.380834 0.935154 0.265112
O O10 0.338686 0.896293 0.339804
O O11 0.210650 0.000000 0.109417
O O12 0.122468 0.889262 0.934513
O O13 0.855887 0.285499 0.495159
O O14 0.013051 0.386722 0.701216
O O15 0.061573 0.315330 0.651865
O O16 0.996092 0.203103 0.609042
O O17 0.250000 0.250000 0.000000
O O18 0.630354 0.665961 0.448760
#
# Coordination Sequence:
#
# PCOD8081754 Si02
#       8
#     8   8   8   8   8   8   8   8
#     4  11  24  42  63  83 108 148 190 233 289 345
#     4  11  20  34  56  87 119 153 186 225 285 343
#     4  11  21  31  50  80 110 149 186 230 284 335
#     4  10  22  36  56  83 114 147 186 230 284 334
#     4  11  16  31  51  84 122 159 177 215 282 346
#     4  10  21  32  56  87 117 154 186 225 284 342
#     4  10  18  30  50  78 116 141 178 226 276 336
#     4  11  21  37  56  80 117 146 186 237 282 337
#
# _framework density 18.321988999999999
#
# number of rings (size 3 to 8) (size 9 to 14) (size 15 to 20)
#    0.000    1.375    5.000    4.500    3.500    4.000 
#    0.000    1.875    0.000    2.250    0.000    0.875 
#    0.000    0.000    0.000    0.000    0.000    0.000 
#
# Total GULP energy -396594.116835 kJ/mol
# GULP energy per Si atom -12393.566151 kJ/mol
# Density = 1.828029 g / cm^3
# Si number density = 18.321989 Si / 1000 Ang^3
#
#
#
# Elastic Constant Matrix: (Units=GPa)
#
#
# Indices 1 2 3 4 5 6 
#
# 1 95.4206 41.6852 61.4942 0.0000 -12.9993 0.0000
# 2 41.6852 86.1183 55.1331 0.0000 -9.0854 0.0000
# 3 61.4942 55.1331 120.9343 0.0000 -29.4754 0.0000
# 4 0.0000 0.0000 0.0000 -0.3254 0.0000 -10.3887
# 5 -12.9993 -9.0854 -29.4754 0.0000 40.5463 0.0000
# 6 0.0000 0.0000 0.0000 -10.3887 0.0000 18.4214
#
#
#
# Elastic Compliance Matrix: (Units=1/GPa)
#
#
# Indices 1 2 3 4 5 6 
#
# 1 0.016376 -0.003630 -0.006795 0.000000 -0.000503 0.000000
# 2 -0.003630 0.017356 -0.006566 0.000000 -0.002048 0.000000
# 3 -0.006795 -0.006566 0.016806 0.000000 0.008567 0.000000
# 4 0.000000 0.000000 0.000000 -0.161705 0.000000 -0.091194
# 5 -0.000503 -0.002048 0.008567 0.000000 0.030271 0.000000
# 6 0.000000 0.000000 0.000000 -0.091194 0.000000 0.002856
#
#
# Mechanical properties :
#
#
# Convention : Reuss Voigt Hill
#
# Bulk Modulus (GPa) = 60.39833 68.78869 64.59351
# Shear Modulus (GPa) = -129.73867 21.33916 -54.19975
#
# Velocity S-wave (km/s) = -8.42402 3.41644 -5.44482
# Velocity P-wave (km/s) = 7.84744 7.29305 2.04862
#
# Compressibility (1/GPa) = 0.01655675
#
# Stress axis : x y z
#
# Youngs Moduli (GPa) = 61.06454 57.61534 59.50376
#
# Poissons Ratio (x) = 0.20913 0.40432
# Poissons Ratio (y) = 0.22165 0.39071
# Poissons Ratio (z) = 0.41493 0.37831
#
# Static dielectric constant tensor:
#      x y z
#    x 3.569400 0.000000 0.057120 
#    y 0.000000 3.178880 0.000000 
#    z 0.057120 0.000000 3.566500 
# 
# 
# High freq. dielectric constant tensor:
#      x y z
#    x 1.708740 0.000000 -0.001090 
#    y 0.000000 1.680670 0.000000 
#    z -0.001090 0.000000 1.707610 
# 
# From -- ./inp_files/294171.got.cif
#   From: 2010.06.25/outbox.cif.g09.slc.cpg/sg12_148_cif.got.tgz:294171.got - 2010.06.28 00:19:55.
