data_PCOD8081527
_publ_section_title
;
Structure prediction by ZEFSAII (Michael W. Deem and Ramdas Pophale) SiO2 
 PCOD8081527
Probable space group: C 2/M
;
_chemical_formula_sum "Si O2"
_cell_formula_units_Z 64
_cell_length_a 20.109372
_cell_length_b 9.352584
_cell_length_c 23.619460
_cell_angle_alpha 90.000000
_cell_angle_beta 122.323157
_cell_angle_gamma 90.000000
_cell_volume 3753.879573
_symmetry_space_group_name_H-M "C 2/M"
_symmetry_group_IT_number 12
_symmetry_cell_setting 'monoclinic'
loop_
_space_group_symop_operation_xyz
x,y,z
-x,y,-z
-x,-y,-z
x,-y,z
1/2+x,1/2+y,z
1/2-x,1/2+y,-z
1/2-x,1/2-y,-z
1/2+x,1/2-y,z
loop_
_atom_site_type_symbol
_atom_site_label
_atom_site_fract_x
_atom_site_fract_y
_atom_site_fract_z
Si Si1 0.996979 0.831655 0.667611
Si Si2 0.328717 0.830688 0.053774
Si Si3 0.534337 0.167914 0.456021
Si Si4 0.091351 0.158245 0.817420
Si Si5 0.433120 0.341677 0.816489
Si Si6 0.786341 0.666668 0.465423
Si Si7 0.515033 0.833065 0.943139
Si Si8 0.648488 0.331827 0.326563
O O1 0.070273 0.797159 0.743179
O O2 0.010418 0.749563 0.614792
O O3 0.915547 0.771368 0.657755
O O4 0.991928 0.000000 0.652991
O O5 0.351946 0.774020 0.126992
O O6 0.397656 0.792867 0.039803
O O7 0.313737 0.000000 0.050218
O O8 0.250000 0.750000 0.000000
O O9 0.500000 0.217294 0.500000
O O10 0.624759 0.214745 0.501634
O O11 0.523384 0.000000 0.440658
O O12 0.010669 0.149292 0.814283
O O13 0.131264 0.000000 0.836578
O O14 0.410504 0.500000 0.828592
O O15 0.446043 0.239984 0.875641
O O16 0.365855 0.274839 0.744207
O O17 0.778422 0.500000 0.475025
O O18 0.750000 0.750000 0.500000
O O19 0.736677 0.706569 0.386306
O O20 0.501118 0.000000 0.931277
O O21 0.500000 0.779538 0.000000
O O22 0.632713 0.500000 0.316099
#
# Coordination Sequence:
#
# PCOD8081527 Si02
#       8
#     8   8   8   8   8   8   8   8
#     4   9  16  29  50  72  92 120 158 199 239 281
#     4  10  19  31  50  74  99 128 159 196 237 278
#     4  10  21  33  45  67  99 133 160 189 237 290
#     4   8  15  28  47  71  96 121 154 197 241 282
#     4   8  14  26  45  69  93 119 153 194 235 276
#     4  10  18  30  49  70  93 122 157 198 238 279
#     4   9  18  32  49  70  97 129 158 187 232 282
#     4   8  14  26  46  70  93 115 149 198 243 274
#
# _framework density 17.049029000000001
#
# number of rings (size 3 to 8) (size 9 to 14) (size 15 to 20)
#    0.000    3.000    1.250    1.875    0.000    1.500 
#    0.000    2.500    2.750    0.000    0.000    0.000 
#    0.000    0.000    0.000    0.000    0.000    0.000 
#
# Total GULP energy -396577.423102 kJ/mol
# GULP energy per Si atom -12393.044472 kJ/mol
# Density = 1.701022 g / cm^3
# Si number density = 17.049029 Si / 1000 Ang^3
#
#
#
# Elastic Constant Matrix: (Units=GPa)
#
#
# Indices 1 2 3 4 5 6 
#
# 1 65.6093 32.9747 57.2793 0.0000 -5.6506 0.0000
# 2 32.9747 55.5468 62.8302 0.0000 -0.9611 0.0000
# 3 57.2793 62.8302 171.6267 0.0000 -7.1918 0.0000
# 4 0.0000 0.0000 0.0000 32.1282 0.0000 -3.0567
# 5 -5.6506 -0.9611 -7.1918 0.0000 26.3448 0.0000
# 6 0.0000 0.0000 0.0000 -3.0567 0.0000 15.7196
#
#
#
# Elastic Compliance Matrix: (Units=1/GPa)
#
#
# Indices 1 2 3 4 5 6 
#
# 1 0.024103 -0.009076 -0.004571 0.000000 0.003591 0.000000
# 2 -0.009076 0.034245 -0.009647 0.000000 -0.003331 0.000000
# 3 -0.004571 -0.009647 0.010953 0.000000 0.001658 0.000000
# 4 0.000000 0.000000 0.000000 0.031712 0.000000 0.006166
# 5 0.003591 -0.003331 0.001658 0.000000 0.039059 0.000000
# 6 0.000000 0.000000 0.000000 0.006166 0.000000 0.064814
#
#
# Mechanical properties :
#
#
# Convention : Reuss Voigt Hill
#
# Bulk Modulus (GPa) = 44.02738 66.55015 55.28876
# Shear Modulus (GPa) = 19.30151 24.15176 21.72664
#
# Velocity S-wave (km/s) = 3.36835 3.76787 3.57369
# Velocity P-wave (km/s) = 6.40373 7.61895 7.03762
#
# Compressibility (1/GPa) = 0.02271314
#
# Stress axis : x y z
#
# Youngs Moduli (GPa) = 41.48794 29.20120 91.29542
#
# Poissons Ratio (x) = 0.26502 0.41734
# Poissons Ratio (y) = 0.37654 0.88075
# Poissons Ratio (z) = 0.18966 0.28171
#
# Static dielectric constant tensor:
#      x y z
#    x 2.837240 0.000000 0.046830 
#    y 0.000000 3.107870 0.000000 
#    z 0.046830 0.000000 3.003790 
# 
# 
# High freq. dielectric constant tensor:
#      x y z
#    x 1.613530 0.000000 0.004100 
#    y 0.000000 1.644130 0.000000 
#    z 0.004100 0.000000 1.675820 
# 
# From -- ./inp_files/345596.got.cif
#   From: 2010.06.25/outbox.cif.g09.slc.cpg/sg12_173_cif.got.tgz:345596.got - 2010.06.28 00:19:55.
