data_PCOD8081617
_publ_section_title
;
Structure prediction by ZEFSAII (Michael W. Deem and Ramdas Pophale) SiO2 
 PCOD8081617
Probable space group: C 2/M
;
_chemical_formula_sum "Si O2"
_cell_formula_units_Z 56
_cell_length_a 26.386132
_cell_length_b 8.988714
_cell_length_c 13.297972
_cell_angle_alpha 90.000000
_cell_angle_beta 61.498348
_cell_angle_gamma 90.000000
_cell_volume 2771.726750
_symmetry_space_group_name_H-M "C 2/M"
_symmetry_group_IT_number 12
_symmetry_cell_setting 'monoclinic'
loop_
_space_group_symop_operation_xyz
x,y,z
-x,y,-z
-x,-y,-z
x,-y,z
1/2+x,1/2+y,z
1/2-x,1/2+y,-z
1/2-x,1/2-y,-z
1/2+x,1/2-y,z
loop_
_atom_site_type_symbol
_atom_site_label
_atom_site_fract_x
_atom_site_fract_y
_atom_site_fract_z
Si Si1 0.841213 0.173063 0.759409
Si Si2 0.227465 0.329010 0.771930
Si Si3 0.129309 0.828618 0.765851
Si Si4 0.029569 0.324243 0.770470
Si Si5 0.831194 0.325710 0.965413
Si Si6 0.067506 0.826621 0.035067
Si Si7 0.036525 0.325899 0.368812
O O1 0.796741 0.197527 0.707429
O O2 0.808590 0.243004 0.887247
O O3 0.902189 0.246293 0.679158
O O4 0.850085 0.000000 0.771987
O O5 0.211810 0.500000 0.765367
O O6 0.194800 0.231456 0.718440
O O7 0.205900 0.281738 0.902982
O O8 0.095521 0.736963 0.711241
O O9 0.132835 0.000000 0.731248
O O10 0.093909 0.800646 0.901049
O O11 0.029485 0.500000 0.787697
O O12 0.996551 0.241194 0.893761
O O13 0.000564 0.276864 0.692810
O O14 0.832849 0.500000 0.943212
O O15 0.896235 0.265741 0.917337
O O16 0.066246 0.000000 0.064169
O O17 0.049416 0.500000 0.353748
O O18 0.000000 0.278716 0.500000
#
# Coordination Sequence:
#
# PCOD8081617 Si02
#       7
#     8   8   8   8   8   8   8
#     4  11  21  34  55  81 110 143 180 229 279 323
#     4   9  20  35  51  77 113 150 186 220 262 322
#     4  10  21  34  51  78 112 149 184 220 264 318
#     4  11  21  34  55  78 105 143 181 225 278 329
#     4  10  18  30  49  75 110 150 187 219 262 323
#     4  10  19  31  48  75 111 146 183 224 266 318
#     4  10  23  42  61  82 107 139 183 232 283 335
#
# _framework density 20.204013
#
# number of rings (size 3 to 8) (size 9 to 14) (size 15 to 20)
#    0.000    1.857    1.429    3.000    0.000    6.000 
#    0.000    0.000    0.000    0.857    0.000    0.000 
#    0.000    0.000    0.000    0.000    0.000    0.000 
#
# Total GULP energy -347133.454874 kJ/mol
# GULP energy per Si atom -12397.623388 kJ/mol
# Density = 2.015803 g / cm^3
# Si number density = 20.204013 Si / 1000 Ang^3
#
#
#
# Elastic Constant Matrix: (Units=GPa)
#
#
# Indices 1 2 3 4 5 6 
#
# 1 155.3466 58.2495 27.6774 0.0000 -11.2475 0.0000
# 2 58.2495 77.2029 32.3317 0.0000 -6.5534 0.0000
# 3 27.6774 32.3317 38.1738 0.0000 -2.8667 0.0000
# 4 0.0000 0.0000 0.0000 15.6638 0.0000 -2.0419
# 5 -11.2475 -6.5534 -2.8667 0.0000 12.8714 0.0000
# 6 0.0000 0.0000 0.0000 -2.0419 0.0000 36.4170
#
#
#
# Elastic Compliance Matrix: (Units=1/GPa)
#
#
# Indices 1 2 3 4 5 6 
#
# 1 0.009281 -0.006092 -0.001213 0.000000 0.004738 0.000000
# 2 -0.006092 0.024628 -0.016171 0.000000 0.003614 0.000000
# 3 -0.001213 -0.016171 0.040756 0.000000 -0.000217 0.000000
# 4 0.000000 0.000000 0.000000 0.064311 0.000000 0.003606
# 5 0.004738 0.003614 -0.000217 0.000000 0.083624 0.000000
# 6 0.000000 0.000000 0.000000 0.003606 0.000000 0.027662
#
#
# Mechanical properties :
#
#
# Convention : Reuss Voigt Hill
#
# Bulk Modulus (GPa) = 36.08534 56.36007 46.22270
# Shear Modulus (GPa) = 16.31579 23.15474 19.73527
#
# Velocity S-wave (km/s) = 2.84483 3.38900 3.12877
# Velocity P-wave (km/s) = 5.35630 6.57798 5.99833
#
# Compressibility (1/GPa) = 0.02771209
#
# Stress axis : x y z
#
# Youngs Moduli (GPa) = 107.75028 40.60376 24.53652
#
# Poissons Ratio (x) = 0.24736 0.02977
# Poissons Ratio (y) = 0.65641 0.39678
# Poissons Ratio (z) = 0.13075 0.65660
#
# Static dielectric constant tensor:
#      x y z
#    x 4.064640 0.000000 0.008350 
#    y 0.000000 3.607800 0.000000 
#    z 0.008350 0.000000 3.213130 
# 
# 
# High freq. dielectric constant tensor:
#      x y z
#    x 1.812760 0.000000 -0.004980 
#    y 0.000000 1.793000 0.000000 
#    z -0.004980 0.000000 1.731860 
# 
# From -- ./inp_files/243612.got.cif
#   From: 2010.06.25/outbox.cif.g09.slc.cpg/sg12_122_cif.got.tgz:243612.got - 2010.06.28 00:19:55.
