data_PCOD8081420
_publ_section_title
;
Structure prediction by ZEFSAII (Michael W. Deem and Ramdas Pophale) SiO2 
 PCOD8081420
Probable space group: C 2/M
;
_chemical_formula_sum "Si O2"
_cell_formula_units_Z 48
_cell_length_a 19.301289
_cell_length_b 8.649794
_cell_length_c 18.542377
_cell_angle_alpha 90.000000
_cell_angle_beta 58.498991
_cell_angle_gamma 90.000000
_cell_volume 2639.481271
_symmetry_space_group_name_H-M "C 2/M"
_symmetry_group_IT_number 12
_symmetry_cell_setting 'monoclinic'
loop_
_space_group_symop_operation_xyz
x,y,z
-x,y,-z
-x,-y,-z
x,-y,z
1/2+x,1/2+y,z
1/2-x,1/2+y,-z
1/2-x,1/2-y,-z
1/2+x,1/2-y,z
loop_
_atom_site_type_symbol
_atom_site_label
_atom_site_fract_x
_atom_site_fract_y
_atom_site_fract_z
Si Si1 0.176557 0.180783 0.495711
Si Si2 0.326485 0.816019 0.000908
Si Si3 0.737884 0.816276 0.172351
Si Si4 0.585482 0.681631 0.680111
Si Si5 0.254974 0.317351 0.326430
Si Si6 0.914353 0.815645 0.829102
O O1 0.250000 0.250000 0.500000
O O2 0.096778 0.218025 0.588029
O O3 0.177666 0.256502 0.415487
O O4 0.188409 0.000000 0.480041
O O5 0.317127 0.751799 0.087392
O O6 0.327757 0.000000 0.999887
O O7 0.250000 0.750000 0.000000
O O8 0.404963 0.749093 0.916157
O O9 0.745198 0.758707 0.250354
O O10 0.654991 0.749199 0.185349
O O11 0.737484 0.000000 0.165481
O O12 0.584306 0.500000 0.693765
O O13 0.660513 0.749418 0.686548
O O14 0.499998 0.750334 0.753235
O O15 0.253888 0.500000 0.330601
O O16 0.909781 0.000000 0.832190
#
# Coordination Sequence:
#
# PCOD8081420 Si02
#       6
#     8   8   8   8   8   8
#     4   9  16  29  49  71  95 124 160 195 230 277
#     4  10  18  30  48  69  94 123 158 193 229 280
#     4  10  19  32  50  71  96 124 156 195 236 279
#     4   8  16  31  50  71  93 122 159 194 229 275
#     4   9  18  33  51  71  95 124 160 197 232 275
#     4  10  18  31  51  71  94 123 157 195 233 277
#
# _framework density 18.185390999999999
#
# number of rings (size 3 to 8) (size 9 to 14) (size 15 to 20)
#    0.000    2.667    0.000    6.000    0.000    1.333 
#    0.000   10.000    0.000   10.000    0.000    0.000 
#    0.000    0.000    0.000    0.000    0.000    0.000 
#
# Total GULP energy -297370.481941 kJ/mol
# GULP energy per Si atom -12390.436748 kJ/mol
# Density = 1.814400 g / cm^3
# Si number density = 18.185391 Si / 1000 Ang^3
#
#
#
# Elastic Constant Matrix: (Units=GPa)
#
#
# Indices 1 2 3 4 5 6 
#
# 1 53.1198 18.6679 61.0742 0.0001 -0.0083 -0.0004
# 2 18.6679 69.4306 48.4501 0.0000 3.2589 -0.0002
# 3 61.0742 48.4501 207.0479 0.0003 1.9475 -0.0001
# 4 0.0001 0.0000 0.0003 33.4263 0.0000 2.2363
# 5 -0.0083 3.2589 1.9475 0.0000 33.5095 0.0000
# 6 -0.0004 -0.0002 -0.0001 2.2363 0.0000 17.2922
#
#
#
# Elastic Compliance Matrix: (Units=1/GPa)
#
#
# Indices 1 2 3 4 5 6 
#
# 1 0.028772 -0.002201 -0.007979 0.000000 0.000685 0.000001
# 2 -0.002201 0.017452 -0.003421 0.000000 -0.001499 0.000000
# 3 -0.007979 -0.003421 0.007985 0.000000 -0.000133 0.000000
# 4 0.000000 0.000000 0.000000 0.030178 0.000000 -0.003903
# 5 0.000685 -0.001499 -0.000133 0.000000 0.029996 0.000000
# 6 0.000001 0.000000 0.000000 -0.003903 0.000000 0.058334
#
#
# Mechanical properties :
#
#
# Convention : Reuss Voigt Hill
#
# Bulk Modulus (GPa) = 37.02393 65.10916 51.06655
# Shear Modulus (GPa) = 23.93264 30.27267 27.10265
#
# Velocity S-wave (km/s) = 3.63166 4.08446 3.86470
# Velocity P-wave (km/s) = 6.16349 7.62394 6.93228
#
# Compressibility (1/GPa) = 0.02700956
#
# Stress axis : x y z
#
# Youngs Moduli (GPa) = 34.75578 57.30046 125.23492
#
# Poissons Ratio (x) = 0.12609 0.99920
# Poissons Ratio (y) = 0.07648 0.42838
# Poissons Ratio (z) = 0.27730 0.19600
#
# Static dielectric constant tensor:
#      x y z
#    x 3.132140 0.000000 -0.055390 
#    y 0.000000 3.319420 0.000000 
#    z -0.055390 0.000000 4.460200 
# 
# 
# High freq. dielectric constant tensor:
#      x y z
#    x 1.651110 0.000000 -0.000330 
#    y 0.000000 1.701170 0.000000 
#    z -0.000330 0.000000 1.735350 
# 
# From -- ./inp_files/281830.got.cif
#   From: 2010.06.25/outbox.cif.g09.slc.cpg/sg12_141_cif.got.tgz:281830.got - 2010.06.28 00:19:55.
