data_PCOD8081387
_publ_section_title
;
Structure prediction by ZEFSAII (Michael W. Deem and Ramdas Pophale) SiO2 
 PCOD8081387
Probable space group: C 2/M
;
_chemical_formula_sum "Si O2"
_cell_formula_units_Z 64
_cell_length_a 28.397811
_cell_length_b 9.117013
_cell_length_c 15.467493
_cell_angle_alpha 90.000000
_cell_angle_beta 89.180823
_cell_angle_gamma 90.000000
_cell_volume 4004.174331
_symmetry_space_group_name_H-M "C 2/M"
_symmetry_group_IT_number 12
_symmetry_cell_setting 'monoclinic'
loop_
_space_group_symop_operation_xyz
x,y,z
-x,y,-z
-x,-y,-z
x,-y,z
1/2+x,1/2+y,z
1/2-x,1/2+y,-z
1/2-x,1/2-y,-z
1/2+x,1/2-y,z
loop_
_atom_site_type_symbol
_atom_site_label
_atom_site_fract_x
_atom_site_fract_y
_atom_site_fract_z
Si Si1 0.699211 0.332138 0.416484
Si Si2 0.055548 0.661133 0.988524
Si Si3 0.554130 0.173580 0.178244
Si Si4 0.609615 0.672287 0.660697
Si Si5 0.194764 0.329443 0.592725
Si Si6 0.955057 0.827871 0.177229
Si Si7 0.552652 0.325888 0.497009
Si Si8 0.106721 0.830252 0.324616
O O1 0.695815 0.500000 0.449731
O O2 0.751437 0.296858 0.379985
O O3 0.685643 0.230237 0.496874
O O4 0.662277 0.305774 0.340134
O O5 0.075836 0.500000 0.963773
O O6 0.074358 0.713137 0.081994
O O7 0.068152 0.775546 0.912684
O O8 0.000000 0.649482 0.000000
O O9 0.503982 0.248785 0.197403
O O10 0.592673 0.231985 0.243877
O O11 0.547240 0.000000 0.188052
O O12 0.617861 0.500000 0.653178
O O13 0.660500 0.749949 0.661718
O O14 0.581749 0.713957 0.747706
O O15 0.580741 0.734160 0.579225
O O16 0.183232 0.500000 0.593345
O O17 0.964964 0.000000 0.172566
O O18 0.500000 0.260184 0.500000
O O19 0.550974 0.500000 0.502423
O O20 0.577921 0.274802 0.408823
O O21 0.095258 0.000000 0.305135
#
# Coordination Sequence:
#
# PCOD8081387 Si02
#       8
#     8   8   8   8   8   8   8   8
#     4   9  18  33  49  66  90 122 156 194 239 277
#     4   8  16  31  47  64  92 126 151 185 239 281
#     4  10  20  32  46  67  98 128 153 189 237 279
#     4  10  19  32  47  66  94 125 156 190 233 276
#     4  10  19  30  48  70  91 118 156 196 235 279
#     4  10  19  30  49  72  92 122 162 196 225 269
#     4   9  16  27  43  61  86 123 159 184 215 263
#     4  10  18  30  48  66  89 124 161 193 225 267
#
# _framework density 15.983320000000001
#
# number of rings (size 3 to 8) (size 9 to 14) (size 15 to 20)
#    0.000    2.500    1.250    2.625    0.000    6.750 
#    0.000    0.000    0.000    1.500    0.000    0.875 
#    0.000    0.000    0.000    0.000    0.000    0.000 
#
# Total GULP energy -396745.381511 kJ/mol
# GULP energy per Si atom -12398.293172 kJ/mol
# Density = 1.594694 g / cm^3
# Si number density = 15.983320 Si / 1000 Ang^3
#
#
#
# Elastic Constant Matrix: (Units=GPa)
#
#
# Indices 1 2 3 4 5 6 
#
# 1 97.4236 40.9324 54.2269 0.0000 2.3273 0.0000
# 2 40.9324 64.3657 49.0759 0.0000 -0.0570 0.0000
# 3 54.2269 49.0759 118.7636 0.0000 8.1956 0.0000
# 4 0.0000 0.0000 0.0000 23.8059 0.0000 -0.1670
# 5 2.3273 -0.0570 8.1956 0.0000 13.9933 0.0000
# 6 0.0000 0.0000 0.0000 -0.1670 0.0000 23.3432
#
#
#
# Elastic Compliance Matrix: (Units=1/GPa)
#
#
# Indices 1 2 3 4 5 6 
#
# 1 0.015413 -0.006479 -0.004358 0.000000 -0.000038 0.000000
# 2 -0.006479 0.025870 -0.008142 0.000000 0.005952 0.000000
# 3 -0.004358 -0.008142 0.014305 0.000000 -0.007687 0.000000
# 4 0.000000 0.000000 0.000000 0.042008 0.000000 0.000300
# 5 -0.000038 0.005952 -0.007687 0.000000 0.075995 0.000000
# 6 0.000000 0.000000 0.000000 0.000300 0.000000 0.042841
#
#
# Mechanical properties :
#
#
# Convention : Reuss Voigt Hill
#
# Bulk Modulus (GPa) = 56.72333 63.22480 59.97406
# Shear Modulus (GPa) = 19.21097 21.31634 20.26365
#
# Velocity S-wave (km/s) = 3.47066 3.65589 3.56448
# Velocity P-wave (km/s) = 7.18518 7.58046 7.38546
#
# Compressibility (1/GPa) = 0.01762943
#
# Stress axis : x y z
#
# Youngs Moduli (GPa) = 64.87999 38.65453 69.90659
#
# Poissons Ratio (x) = 0.25046 0.30462
# Poissons Ratio (y) = 0.42038 0.56921
# Poissons Ratio (z) = 0.28272 0.31474
#
# Static dielectric constant tensor:
#      x y z
#    x 3.024100 0.000000 0.062350 
#    y 0.000000 2.977000 0.000000 
#    z 0.062350 0.000000 3.174800 
# 
# 
# High freq. dielectric constant tensor:
#      x y z
#    x 1.596750 0.000000 0.002700 
#    y 0.000000 1.609410 0.000000 
#    z 0.002700 0.000000 1.602210 
# 
# From -- ./inp_files/248359.got.cif
#   From: 2010.06.25/outbox.cif.g09.slc.cpg/sg12_125_cif.got.tgz:248359.got - 2010.06.28 00:19:55.
