data_PCOD8081571
_publ_section_title
;
Structure prediction by ZEFSAII (Michael W. Deem and Ramdas Pophale) SiO2 
 PCOD8081571
Probable space group: C 2/M
;
_chemical_formula_sum "Si O2"
_cell_formula_units_Z 48
_cell_length_a 30.157410
_cell_length_b 8.962622
_cell_length_c 16.402948
_cell_angle_alpha 90.000000
_cell_angle_beta 37.769776
_cell_angle_gamma 90.000000
_cell_volume 2715.502089
_symmetry_space_group_name_H-M "C 2/M"
_symmetry_group_IT_number 12
_symmetry_cell_setting 'monoclinic'
loop_
_space_group_symop_operation_xyz
x,y,z
-x,y,-z
-x,-y,-z
x,-y,z
1/2+x,1/2+y,z
1/2-x,1/2+y,-z
1/2-x,1/2-y,-z
1/2+x,1/2-y,z
loop_
_atom_site_type_symbol
_atom_site_label
_atom_site_fract_x
_atom_site_fract_y
_atom_site_fract_z
Si Si1 0.041126 0.176300 0.357874
Si Si2 0.640309 0.331528 0.634660
Si Si3 0.280371 0.828701 0.708439
Si Si4 0.303838 0.825541 0.859317
Si Si5 0.071176 0.675826 0.591062
Si Si6 0.792814 0.332498 0.322339
O O1 0.119214 0.248876 0.245219
O O2 0.000000 0.222263 0.500000
O O3 0.998588 0.240882 0.342459
O O4 0.048695 0.000000 0.337736
O O5 0.611151 0.500000 0.684806
O O6 0.584003 0.233669 0.664268
O O7 0.717556 0.328252 0.479176
O O8 0.647495 0.261250 0.714375
O O9 0.270983 0.798908 0.817484
O O10 0.360823 0.779733 0.564490
O O11 0.218950 0.735715 0.750389
O O12 0.268570 0.000000 0.701672
O O13 0.312086 0.000000 0.866320
O O14 0.250000 0.750000 0.000000
O O15 0.057167 0.500000 0.612630
O O16 0.821913 0.500000 0.270542
#
# Coordination Sequence:
#
# PCOD8081571 Si02
#       6
#     8   8   8   8   8   8
#     4  11  22  35  54  79 106 138 178 220 265 317
#     4   9  16  26  40  64  99 133 166 207 257 308
#     4   9  18  31  48  70  99 135 172 212 261 312
#     4  11  23  39  56  77 106 141 180 222 268 315
#     4  10  18  30  49  73 102 135 173 214 261 312
#     4   9  16  25  41  65  95 131 169 208 254 307
#
# _framework density 17.676289000000001
#
# number of rings (size 3 to 8) (size 9 to 14) (size 15 to 20)
#    0.000    2.167    1.667    2.500    0.000    6.667 
#    0.000    0.000    0.000    0.000    0.000    1.167 
#    0.000    9.333    0.000    0.000    0.000    0.000 
#
# Total GULP energy -297639.178352 kJ/mol
# GULP energy per Si atom -12401.632431 kJ/mol
# Density = 1.763606 g / cm^3
# Si number density = 17.676289 Si / 1000 Ang^3
#
#
#
# Elastic Constant Matrix: (Units=GPa)
#
#
# Indices 1 2 3 4 5 6 
#
# 1 130.4976 70.2640 44.5130 -0.0006 11.2163 0.0003
# 2 70.2640 116.9349 45.2349 -0.0014 3.6747 0.0021
# 3 44.5130 45.2349 67.8669 -0.0009 0.0583 0.0008
# 4 -0.0006 -0.0014 -0.0009 21.1767 0.0006 1.3118
# 5 11.2163 3.6747 0.0583 0.0006 14.6294 -0.0006
# 6 0.0003 0.0021 0.0008 1.3118 -0.0006 39.8722
#
#
#
# Elastic Compliance Matrix: (Units=1/GPa)
#
#
# Indices 1 2 3 4 5 6 
#
# 1 0.013139 -0.005786 -0.004754 0.000000 -0.008601 0.000000
# 2 -0.005786 0.014192 -0.005665 0.000001 0.000894 -0.000001
# 3 -0.004754 -0.005665 0.021625 0.000000 0.004982 0.000000
# 4 0.000000 0.000001 0.000000 0.047318 -0.000002 -0.001557
# 5 -0.008601 0.000894 0.004982 -0.000002 0.074706 0.000001
# 6 0.000000 -0.000001 0.000000 -0.001557 0.000001 0.025131
#
#
# Mechanical properties :
#
#
# Convention : Reuss Voigt Hill
#
# Bulk Modulus (GPa) = 60.43923 70.59149 65.51536
# Shear Modulus (GPa) = 21.36429 25.48816 23.42623
#
# Velocity S-wave (km/s) = 3.48032 3.80141 3.64440
# Velocity P-wave (km/s) = 7.10047 7.70000 7.40630
#
# Compressibility (1/GPa) = 0.01654554
#
# Stress axis : x y z
#
# Youngs Moduli (GPa) = 76.10878 70.46387 46.24379
#
# Poissons Ratio (x) = 0.40768 0.21985
# Poissons Ratio (y) = 0.44034 0.26198
# Poissons Ratio (z) = 0.36183 0.39919
#
# Static dielectric constant tensor:
#      x y z
#    x 3.381890 0.000000 0.161500 
#    y 0.000000 3.446240 0.000000 
#    z 0.161500 0.000000 2.701710 
# 
# 
# High freq. dielectric constant tensor:
#      x y z
#    x 1.699390 0.000000 0.016420 
#    y 0.000000 1.701230 0.000000 
#    z 0.016420 0.000000 1.619080 
# 
# From -- ./inp_files/230409.got.cif
#   From: 2010.06.25/outbox.cif.g09.slc.cpg/sg12_116_cif.got.tgz:230409.got - 2010.06.28 00:19:55.
