data_PCOD8081507
_publ_section_title
;
Structure prediction by ZEFSAII (Michael W. Deem and Ramdas Pophale) SiO2 
 PCOD8081507
Probable space group: C 2/M
;
_chemical_formula_sum "Si O2"
_cell_formula_units_Z 56
_cell_length_a 25.313645
_cell_length_b 9.270637
_cell_length_c 13.997387
_cell_angle_alpha 90.000000
_cell_angle_beta 76.310448
_cell_angle_gamma 90.000000
_cell_volume 3191.503259
_symmetry_space_group_name_H-M "C 2/M"
_symmetry_group_IT_number 12
_symmetry_cell_setting 'monoclinic'
loop_
_space_group_symop_operation_xyz
x,y,z
-x,y,-z
-x,-y,-z
x,-y,z
1/2+x,1/2+y,z
1/2-x,1/2+y,-z
1/2-x,1/2-y,-z
1/2+x,1/2-y,z
loop_
_atom_site_type_symbol
_atom_site_label
_atom_site_fract_x
_atom_site_fract_y
_atom_site_fract_z
Si Si1 0.556383 0.832588 0.943981
Si Si2 0.782648 0.331533 0.197232
Si Si3 0.557296 0.329343 0.592399
Si Si4 0.116591 0.328639 0.731856
Si Si5 0.935839 0.829370 0.626369
Si Si6 0.338819 0.832686 0.985071
Si Si7 0.835690 0.169677 0.790872
O O1 0.577652 0.771486 0.833798
O O2 0.546052 0.000000 0.930967
O O3 0.500000 0.756163 0.000000
O O4 0.599103 0.807659 0.010132
O O5 0.794788 0.500000 0.182504
O O6 0.821835 0.277555 0.266389
O O7 0.719511 0.297174 0.245911
O O8 0.800096 0.269746 0.085790
O O9 0.564819 0.500000 0.600193
O O10 0.599356 0.249227 0.642588
O O11 0.494816 0.283706 0.642618
O O12 0.571047 0.276306 0.479426
O O13 0.112917 0.500000 0.718359
O O14 0.887258 0.764051 0.711931
O O15 0.931619 0.000000 0.627695
O O16 0.328399 0.741288 0.895838
O O17 0.327147 0.000000 0.967561
O O18 0.842821 0.000000 0.803586
#
# Coordination Sequence:
#
# PCOD8081507 Si02
#       7
#     8   8   8   8   8   8   8
#     4   8  15  27  42  62  91 123 149 172 212 273
#     4   8  16  31  47  66  94 125 152 179 219 276
#     4   9  17  33  51  66  89 119 151 188 231 274
#     4   9  17  30  49  69  89 118 153 185 223 268
#     4   8  17  32  49  67  89 120 153 184 226 280
#     4   9  17  29  45  67  94 122 151 184 223 263
#     4  10  18  30  49  68  89 121 158 188 220 266
#
# _framework density 17.546589999999998
#
# number of rings (size 3 to 8) (size 9 to 14) (size 15 to 20)
#    0.000    3.286    0.000    3.000    2.000    0.000 
#    0.000    6.429    0.000    0.857    0.000    0.000 
#    0.000    0.000    0.000    0.000    0.000    0.000 
#
# Total GULP energy -346969.861763 kJ/mol
# GULP energy per Si atom -12391.780777 kJ/mol
# Density = 1.750665 g / cm^3
# Si number density = 17.546590 Si / 1000 Ang^3
#
#
#
# Elastic Constant Matrix: (Units=GPa)
#
#
# Indices 1 2 3 4 5 6 
#
# 1 110.6585 26.6321 57.0192 0.0000 1.9613 0.0000
# 2 26.6321 26.1692 23.2015 0.0000 6.7276 0.0000
# 3 57.0192 23.2015 80.6747 0.0000 13.9890 0.0000
# 4 0.0000 0.0000 0.0000 24.1483 0.0000 7.4804
# 5 1.9613 6.7276 13.9890 0.0000 30.7303 0.0000
# 6 0.0000 0.0000 0.0000 7.4804 0.0000 18.4638
#
#
#
# Elastic Compliance Matrix: (Units=1/GPa)
#
#
# Indices 1 2 3 4 5 6 
#
# 1 0.016166 -0.009236 -0.009707 0.000000 0.005409 0.000000
# 2 -0.009236 0.057256 -0.008542 0.000000 -0.008057 0.000000
# 3 -0.009707 -0.008542 0.023105 0.000000 -0.008028 0.000000
# 4 0.000000 0.000000 0.000000 0.047354 0.000000 -0.019185
# 5 0.005409 -0.008057 -0.008028 0.000000 0.037614 0.000000
# 6 0.000000 0.000000 0.000000 -0.019185 0.000000 0.061933
#
#
# Mechanical properties :
#
#
# Convention : Reuss Voigt Hill
#
# Bulk Modulus (GPa) = 24.06320 47.91202 35.98761
# Shear Modulus (GPa) = 16.01283 22.04512 19.02897
#
# Velocity S-wave (km/s) = 3.02419 3.54838 3.29672
# Velocity P-wave (km/s) = 5.09293 6.64477 5.91992
#
# Compressibility (1/GPa) = 0.04155723
#
# Stress axis : x y z
#
# Youngs Moduli (GPa) = 61.85971 17.46532 43.28049
#
# Poissons Ratio (x) = 0.16130 0.42014
# Poissons Ratio (y) = 0.57132 0.36970
# Poissons Ratio (z) = 0.60049 0.14919
#
# Static dielectric constant tensor:
#      x y z
#    x 3.674430 0.000000 -0.206360 
#    y 0.000000 2.761820 0.000000 
#    z -0.206360 0.000000 3.279140 
# 
# 
# High freq. dielectric constant tensor:
#      x y z
#    x 1.692390 0.000000 0.001480 
#    y 0.000000 1.628280 0.000000 
#    z 0.001480 0.000000 1.667150 
# 
# From -- ./inp_files/173845.got.cif
#   From: 2010.06.25/outbox.cif.g09.slc.cpg/sg12_87_cif.got.tgz:173845.got - 2010.06.28 00:19:55.
