data_PCOD8081852
_publ_section_title
;
Structure prediction by ZEFSAII (Michael W. Deem and Ramdas Pophale) SiO2 
 PCOD8081852
Probable space group: C 2/M
;
_chemical_formula_sum "Si O2"
_cell_formula_units_Z 64
_cell_length_a 15.270849
_cell_length_b 24.774743
_cell_length_c 14.665730
_cell_angle_alpha 90.000000
_cell_angle_beta 141.749620
_cell_angle_gamma 90.000000
_cell_volume 3435.075123
_symmetry_space_group_name_H-M "C 2/M"
_symmetry_group_IT_number 12
_symmetry_cell_setting 'monoclinic'
loop_
_space_group_symop_operation_xyz
x,y,z
-x,y,-z
-x,-y,-z
x,-y,z
1/2+x,1/2+y,z
1/2-x,1/2+y,-z
1/2-x,1/2-y,-z
1/2+x,1/2-y,z
loop_
_atom_site_type_symbol
_atom_site_label
_atom_site_fract_x
_atom_site_fract_y
_atom_site_fract_z
Si Si1 0.020035 0.254234 0.329851
Si Si2 0.329733 0.854754 0.192077
Si Si3 0.463564 0.060134 0.186242
Si Si4 0.232133 0.276425 0.346470
Si Si5 0.131882 0.381404 0.173335
Si Si6 0.582098 0.650648 0.849470
Si Si7 0.123984 0.828684 0.168147
Si Si8 0.299226 0.440483 0.162229
O O1 0.120557 0.281793 0.337124
O O2 0.109728 0.227578 0.484774
O O3 0.919263 0.301000 0.285423
O O4 0.926907 0.207010 0.210332
O O5 0.430565 0.905566 0.251203
O O6 0.234556 0.867226 0.204258
O O7 0.228665 0.844694 0.023243
O O8 0.585660 0.089140 0.228238
O O9 0.513010 0.000000 0.255750
O O10 0.325400 0.055694 0.012176
O O11 0.216636 0.327373 0.267510
O O12 0.207444 0.223517 0.267465
O O13 0.239577 0.420929 0.210185
O O14 0.000000 0.366630 0.000000
O O15 0.445890 0.640363 0.803193
O O16 0.583156 0.600906 0.779508
O O17 0.000000 0.808824 0.000000
O O18 0.367063 0.500000 0.230609
#
# Coordination Sequence:
#
# PCOD8081852 Si02
#       8
#     8   8   8   8   8   8   8   8
#     4  10  20  33  50  74 104 140 172 207 258 313
#     4  10  18  32  53  76 103 135 171 213 263 303
#     4   9  17  31  51  77 106 131 169 218 259 302
#     4  10  20  33  48  75 108 137 168 206 258 313
#     4  10  18  30  51  78 107 138 168 210 259 307
#     4   9  19  34  51  72 102 137 175 215 252 305
#     4   9  19  33  50  73 103 135 170 212 255 305
#     4   9  18  31  51  77 102 135 173 212 257 303
#
# _framework density 18.631325
#
# number of rings (size 3 to 8) (size 9 to 14) (size 15 to 20)
#    0.000    2.500    1.250    1.125    1.750    2.000 
#    0.000    0.625    0.000    6.000    0.000    1.750 
#    0.000    0.000    0.000    0.000    0.000    0.125 
#
# Total GULP energy -396733.362522 kJ/mol
# GULP energy per Si atom -12397.917579 kJ/mol
# Density = 1.858892 g / cm^3
# Si number density = 18.631325 Si / 1000 Ang^3
#
#
#
# Elastic Constant Matrix: (Units=GPa)
#
#
# Indices 1 2 3 4 5 6 
#
# 1 113.1847 57.6182 17.3447 0.0000 2.8967 0.0000
# 2 57.6182 116.9340 29.1344 0.0000 3.9576 0.0000
# 3 17.3447 29.1344 43.9649 0.0000 1.4143 0.0000
# 4 0.0000 0.0000 0.0000 2.7617 0.0000 -2.5381
# 5 2.8967 3.9576 1.4143 0.0000 13.6394 0.0000
# 6 0.0000 0.0000 0.0000 -2.5381 0.0000 27.8576
#
#
#
# Elastic Compliance Matrix: (Units=1/GPa)
#
#
# Indices 1 2 3 4 5 6 
#
# 1 0.011836 -0.005567 -0.000954 0.000000 -0.000799 0.000000
# 2 -0.005567 0.012932 -0.006312 0.000000 -0.001916 0.000000
# 3 -0.000954 -0.006312 0.027331 0.000000 -0.000800 0.000000
# 4 0.000000 0.000000 0.000000 0.395185 0.000000 0.036005
# 5 -0.000799 -0.001916 -0.000800 0.000000 0.074125 0.000000
# 6 0.000000 0.000000 0.000000 0.036005 0.000000 0.039177
#
#
# Mechanical properties :
#
#
# Convention : Reuss Voigt Hill
#
# Bulk Modulus (GPa) = 37.83369 53.58647 45.71008
# Shear Modulus (GPa) = 8.40245 20.18418 14.29331
#
# Velocity S-wave (km/s) = 2.12594 3.29499 2.77278
# Velocity P-wave (km/s) = 5.13583 6.58027 5.90240
#
# Compressibility (1/GPa) = 0.02643147
#
# Stress axis : x y z
#
# Youngs Moduli (GPa) = 84.48895 77.32460 36.58910
#
# Poissons Ratio (x) = 0.43048 0.03492
# Poissons Ratio (y) = 0.47036 0.23095
# Poissons Ratio (z) = 0.08064 0.48808
#
# Static dielectric constant tensor:
#      x y z
#    x 3.596470 0.000000 -0.035350 
#    y 0.000000 3.494360 0.000000 
#    z -0.035350 0.000000 3.134570 
# 
# 
# High freq. dielectric constant tensor:
#      x y z
#    x 1.733500 0.000000 -0.000430 
#    y 0.000000 1.709850 0.000000 
#    z -0.000430 0.000000 1.687990 
# 
# From -- ./inp_files/218530.got.cif
#   From: 2010.06.25/outbox.cif.g09.slc.cpg/sg12_110_cif.got.tgz:218530.got - 2010.06.28 00:19:55.
