data_PCOD8081386
_publ_section_title
;
Structure prediction by ZEFSAII (Michael W. Deem and Ramdas Pophale) SiO2 
 PCOD8081386
Probable space group: C 2/M
;
_chemical_formula_sum "Si O2"
_cell_formula_units_Z 48
_cell_length_a 20.534608
_cell_length_b 9.780836
_cell_length_c 22.808338
_cell_angle_alpha 90.000000
_cell_angle_beta 139.715124
_cell_angle_gamma 90.000000
_cell_volume 2961.992605
_symmetry_space_group_name_H-M "C 2/M"
_symmetry_group_IT_number 12
_symmetry_cell_setting 'monoclinic'
loop_
_space_group_symop_operation_xyz
x,y,z
-x,y,-z
-x,-y,-z
x,-y,z
1/2+x,1/2+y,z
1/2-x,1/2+y,-z
1/2-x,1/2-y,-z
1/2+x,1/2-y,z
loop_
_atom_site_type_symbol
_atom_site_label
_atom_site_fract_x
_atom_site_fract_y
_atom_site_fract_z
Si Si1 0.234716 0.841629 0.045992
Si Si2 0.946015 0.340595 0.233640
Si Si3 0.109195 0.347346 0.428922
Si Si4 0.574015 0.839370 0.213536
Si Si5 0.482454 0.341697 0.055337
Si Si6 0.254497 0.650801 0.417453
O O1 0.326890 0.810822 0.154304
O O2 0.237291 0.000000 0.028173
O O3 0.250000 0.750000 0.000000
O O4 0.132654 0.803407 0.008907
O O5 0.973156 0.500000 0.252023
O O6 0.003620 0.283490 0.331187
O O7 0.992252 0.283104 0.204590
O O8 0.094898 0.500000 0.444679
O O9 0.185703 0.348783 0.427509
O O10 0.152126 0.254592 0.511095
O O11 0.558723 0.752170 0.144322
O O12 0.686294 0.809020 0.314657
O O13 0.558892 0.000000 0.189596
O O14 0.505214 0.500000 0.084962
O O15 0.500000 0.307318 0.000000
O O16 0.300355 0.500000 0.439685
#
# Coordination Sequence:
#
# PCOD8081386 Si02
#       6
#     8   8   8   8   8   8
#     4  10  18  30  48  66  88 119 151 185 223 264
#     4   8  14  25  42  63  86 112 145 182 218 258
#     4   8  13  22  36  56  83 112 138 169 213 264
#     4   9  16  28  45  63  85 116 152 184 217 263
#     4  10  21  33  44  65  95 121 148 186 229 265
#     4   8  14  23  36  57  85 112 138 174 217 259
#
# _framework density 16.205307000000001
#
# number of rings (size 3 to 8) (size 9 to 14) (size 15 to 20)
#    0.000    3.167    1.667    2.000    0.000    1.000 
#    0.000    3.333    0.000    0.000    0.000    1.167 
#    0.000    9.333    0.000    0.000    0.000    0.000 
#
# Total GULP energy -297427.656900 kJ/mol
# GULP energy per Si atom -12392.819037 kJ/mol
# Density = 1.616842 g / cm^3
# Si number density = 16.205307 Si / 1000 Ang^3
#
#
#
# Elastic Constant Matrix: (Units=GPa)
#
#
# Indices 1 2 3 4 5 6 
#
# 1 56.4390 31.4045 42.6096 0.0000 -3.0354 0.0000
# 2 31.4045 72.4932 74.5290 0.0000 -5.5177 0.0000
# 3 42.6096 74.5290 153.4342 0.0000 -3.0653 0.0000
# 4 0.0000 0.0000 0.0000 31.4789 0.0000 -4.3974
# 5 -3.0354 -5.5177 -3.0653 0.0000 13.7189 0.0000
# 6 0.0000 0.0000 0.0000 -4.3974 0.0000 12.9146
#
#
#
# Elastic Compliance Matrix: (Units=1/GPa)
#
#
# Indices 1 2 3 4 5 6 
#
# 1 0.024171 -0.006929 -0.003310 0.000000 0.001821 0.000000
# 2 -0.006929 0.030474 -0.012721 0.000000 0.007881 0.000000
# 3 -0.003310 -0.012721 0.013559 0.000000 -0.002819 0.000000
# 4 0.000000 0.000000 0.000000 0.033354 0.000000 0.011357
# 5 0.001821 0.007881 -0.002819 0.000000 0.075835 0.000000
# 6 0.000000 0.000000 0.000000 0.011357 0.000000 0.081299
#
#
# Mechanical properties :
#
#
# Convention : Reuss Voigt Hill
#
# Bulk Modulus (GPa) = 44.87510 64.38360 54.62935
# Shear Modulus (GPa) = 16.02358 20.54403 18.28381
#
# Velocity S-wave (km/s) = 3.14791 3.56439 3.36260
# Velocity P-wave (km/s) = 6.40032 7.53366 6.99000
#
# Compressibility (1/GPa) = 0.02228407
#
# Stress axis : x y z
#
# Youngs Moduli (GPa) = 41.37198 32.81493 73.74978
#
# Poissons Ratio (x) = 0.22738 0.24413
# Poissons Ratio (y) = 0.28667 0.93815
# Poissons Ratio (z) = 0.13695 0.41743
#
# Static dielectric constant tensor:
#      x y z
#    x 2.592320 0.000000 0.117130 
#    y 0.000000 3.068740 0.000000 
#    z 0.117130 0.000000 3.413670 
# 
# 
# High freq. dielectric constant tensor:
#      x y z
#    x 1.560440 0.000000 0.007200 
#    y 0.000000 1.610370 0.000000 
#    z 0.007200 0.000000 1.641100 
# 
# From -- ./inp_files/231360.got.cif
#   From: 2010.06.25/outbox.cif.g09.slc.cpg/sg12_116_cif.got.tgz:231360.got - 2010.06.28 00:19:55.
