data_PCOD8081508
_publ_section_title
;
Structure prediction by ZEFSAII (Michael W. Deem and Ramdas Pophale) SiO2 
 PCOD8081508
Probable space group: C 2/M
;
_chemical_formula_sum "Si O2"
_cell_formula_units_Z 48
_cell_length_a 20.968023
_cell_length_b 12.897597
_cell_length_c 20.567771
_cell_angle_alpha 90.000000
_cell_angle_beta 30.095845
_cell_angle_gamma 90.000000
_cell_volume 2789.198454
_symmetry_space_group_name_H-M "C 2/M"
_symmetry_group_IT_number 12
_symmetry_cell_setting 'monoclinic'
loop_
_space_group_symop_operation_xyz
x,y,z
-x,y,-z
-x,-y,-z
x,-y,z
1/2+x,1/2+y,z
1/2-x,1/2+y,-z
1/2-x,1/2-y,-z
1/2+x,1/2-y,z
loop_
_atom_site_type_symbol
_atom_site_label
_atom_site_fract_x
_atom_site_fract_y
_atom_site_fract_z
Si Si1 0.049456 0.809477 0.362609
Si Si2 0.811101 0.882597 0.638082
Si Si3 0.286642 0.117183 0.772992
Si Si4 0.690111 0.380762 0.115767
Si Si5 0.091995 0.761437 0.861330
Si Si6 0.133239 0.191850 0.025964
O O1 0.128371 0.880005 0.343446
O O2 0.088629 0.689526 0.338650
O O3 0.080692 0.849883 0.263297
O O4 0.899496 0.820174 0.508830
O O5 0.671047 0.834232 0.762888
O O6 0.798927 0.000000 0.624892
O O7 0.186222 0.151023 0.806291
O O8 0.330081 0.000000 0.721264
O O9 0.222991 0.124759 0.899929
O O10 0.731296 0.500000 0.087818
O O11 0.629597 0.362399 0.098690
O O12 0.814959 0.310076 0.015986
O O13 0.009842 0.808532 0.875136
O O14 0.000000 0.720418 0.000000
#
# Coordination Sequence:
#
# PCOD8081508 Si02
#       6
#     8   8   8   8   8   8
#     4   9  18  31  47  72  95 117 159 197 225 276
#     4  10  18  31  51  70  94 125 153 191 240 278
#     4   9  17  31  51  70  94 127 156 191 235 272
#     4  10  18  30  49  68  92 125 156 192 236 277
#     4   9  19  32  46  70  98 121 155 195 230 276
#     4   9  19  31  45  72  98 120 157 196 228 276
#
# _framework density 17.209244999999999
#
# number of rings (size 3 to 8) (size 9 to 14) (size 15 to 20)
#    0.000    2.667    0.000    3.500    0.000    4.667 
#    0.000    7.500    0.000    0.000    0.000    0.000 
#    0.000    0.000    0.000    0.000    0.000    0.000 
#
# Total GULP energy -297605.854174 kJ/mol
# GULP energy per Si atom -12400.243924 kJ/mol
# Density = 1.717008 g / cm^3
# Si number density = 17.209245 Si / 1000 Ang^3
#
#
#
# Elastic Constant Matrix: (Units=GPa)
#
#
# Indices 1 2 3 4 5 6 
#
# 1 71.0785 25.3865 18.7132 -0.0001 13.4281 0.0000
# 2 25.3865 142.7955 49.2469 0.0001 -2.0479 -0.0001
# 3 18.7132 49.2469 83.7418 0.0001 3.0123 -0.0001
# 4 -0.0001 0.0001 0.0001 16.8735 -0.0001 2.7692
# 5 13.4281 -2.0479 3.0123 -0.0001 20.9197 0.0001
# 6 0.0000 -0.0001 -0.0001 2.7692 0.0001 13.9465
#
#
#
# Elastic Compliance Matrix: (Units=1/GPa)
#
#
# Indices 1 2 3 4 5 6 
#
# 1 0.017665 -0.002611 -0.002005 0.000000 -0.011306 0.000000
# 2 -0.002611 0.009225 -0.004960 0.000000 0.003293 0.000000
# 3 -0.002005 -0.004960 0.015357 0.000000 -0.001410 0.000000
# 4 0.000000 0.000000 0.000000 0.061261 0.000000 -0.012164
# 5 -0.011306 0.003293 -0.001410 0.000000 0.055585 0.000000
# 6 0.000000 0.000000 0.000000 -0.012164 0.000000 0.074118
#
#
# Mechanical properties :
#
#
# Convention : Reuss Voigt Hill
#
# Bulk Modulus (GPa) = 43.30001 53.81211 48.55606
# Shear Modulus (GPa) = 19.22619 23.96590 21.59604
#
# Velocity S-wave (km/s) = 3.34608 3.73583 3.54631
# Velocity P-wave (km/s) = 6.33592 7.06723 6.71154
#
# Compressibility (1/GPa) = 0.02309468
#
# Stress axis : x y z
#
# Youngs Moduli (GPa) = 56.60759 108.40012 65.11607
#
# Poissons Ratio (x) = 0.28305 0.13058
# Poissons Ratio (y) = 0.14781 0.32298
# Poissons Ratio (z) = 0.11352 0.53767
#
# Static dielectric constant tensor:
#      x y z
#    x 3.126310 0.000000 0.106920 
#    y 0.000000 3.121010 0.000000 
#    z 0.106920 0.000000 3.207130 
# 
# 
# High freq. dielectric constant tensor:
#      x y z
#    x 1.645880 0.000000 0.012230 
#    y 0.000000 1.661520 0.000000 
#    z 0.012230 0.000000 1.656810 
# 
# From -- ./inp_files/164009.got.cif
#   From: 2010.06.25/outbox.cif.g09.slc.cpg/sg12_83_cif.got.tgz:164009.got - 2010.06.28 00:19:55.
