data_PCOD8081663
_publ_section_title
;
Structure prediction by ZEFSAII (Michael W. Deem and Ramdas Pophale) SiO2 
 PCOD8081663
Probable space group: C 2/M
;
_chemical_formula_sum "Si O2"
_cell_formula_units_Z 64
_cell_length_a 20.669512
_cell_length_b 9.109490
_cell_length_c 23.517105
_cell_angle_alpha 90.000000
_cell_angle_beta 124.072435
_cell_angle_gamma 90.000000
_cell_volume 3667.849571
_symmetry_space_group_name_H-M "C 2/M"
_symmetry_group_IT_number 12
_symmetry_cell_setting 'monoclinic'
loop_
_space_group_symop_operation_xyz
x,y,z
-x,y,-z
-x,-y,-z
x,-y,z
1/2+x,1/2+y,z
1/2-x,1/2+y,-z
1/2-x,1/2-y,-z
1/2+x,1/2-y,z
loop_
_atom_site_type_symbol
_atom_site_label
_atom_site_fract_x
_atom_site_fract_y
_atom_site_fract_z
Si Si1 0.692906 0.674343 0.683401
Si Si2 0.459612 0.329566 0.328837
Si Si3 0.132783 0.172939 0.423178
Si Si4 0.331392 0.329898 0.037444
Si Si5 0.261049 0.328195 0.419418
Si Si6 0.142472 0.168065 0.824424
Si Si7 0.272493 0.327609 0.822332
Si Si8 0.085032 0.173200 0.031923
O O1 0.698049 0.500000 0.692774
O O2 0.607084 0.732199 0.661055
O O3 0.708537 0.725424 0.626862
O O4 0.758806 0.745425 0.756012
O O5 0.468390 0.500000 0.346080
O O6 0.545057 0.259060 0.380955
O O7 0.433979 0.297948 0.251150
O O8 0.181024 0.246081 0.395636
O O9 0.171542 0.212827 0.502520
O O10 0.132264 0.000000 0.411392
O O11 0.314055 0.500000 0.017550
O O12 0.378149 0.306182 0.119681
O O13 0.250000 0.250000 0.000000
O O14 0.381703 0.261673 0.010828
O O15 0.243164 0.500000 0.410752
O O16 0.212485 0.274426 0.840972
O O17 0.169417 0.000000 0.826596
O O18 0.261283 0.500000 0.807552
O O19 0.359104 0.288857 0.887385
O O20 0.076893 0.000000 0.020753
O O21 0.000000 0.244698 0.000000
#
# Coordination Sequence:
#
# PCOD8081663 Si02
#       8
#     8   8   8   8   8   8   8   8
#     4   9  18  33  51  70  96 127 160 194 234 285
#     4   8  15  29  48  72  96 121 157 200 237 271
#     4   9  17  31  51  73  98 125 158 198 233 274
#     4  10  18  30  51  72  93 125 161 196 234 280
#     4   9  18  32  50  71  97 131 160 188 234 285
#     4   9  17  30  49  72  96 125 157 193 240 286
#     4  10  18  30  50  73  95 123 158 197 240 281
#     4   9  18  32  47  69  99 126 155 196 241 281
#
# _framework density 17.448917000000002
#
# number of rings (size 3 to 8) (size 9 to 14) (size 15 to 20)
#    0.000    2.875    1.250    1.125    0.000    1.000 
#    2.250    5.000    0.000    3.375    0.000    7.000 
#    0.000    0.000    0.000    0.000    0.000    0.000 
#
# Total GULP energy -396674.874349 kJ/mol
# GULP energy per Si atom -12396.089823 kJ/mol
# Density = 1.740920 g / cm^3
# Si number density = 17.448917 Si / 1000 Ang^3
#
#
#
# Elastic Constant Matrix: (Units=GPa)
#
#
# Indices 1 2 3 4 5 6 
#
# 1 148.9779 29.4943 95.7098 0.0000 0.6977 0.0000
# 2 29.4943 29.2833 30.5068 0.0000 0.5907 0.0000
# 3 95.7098 30.5068 124.8774 0.0000 -4.1182 0.0000
# 4 0.0000 0.0000 0.0000 22.9411 0.0000 -1.1797
# 5 0.6977 0.5907 -4.1182 0.0000 35.3459 0.0000
# 6 0.0000 0.0000 0.0000 -1.1797 0.0000 22.1362
#
#
#
# Elastic Compliance Matrix: (Units=1/GPa)
#
#
# Indices 1 2 3 4 5 6 
#
# 1 0.013591 -0.003709 -0.009554 0.000000 -0.001319 0.000000
# 2 -0.003709 0.046972 -0.008689 0.000000 -0.001724 0.000000
# 3 -0.009554 -0.008689 0.017531 0.000000 0.002376 0.000000
# 4 0.000000 0.000000 0.000000 0.043710 0.000000 0.002329
# 5 -0.001319 -0.001724 0.002376 0.000000 0.028624 0.000000
# 6 0.000000 0.000000 0.000000 0.002329 0.000000 0.045299
#
#
# Mechanical properties :
#
#
# Convention : Reuss Voigt Hill
#
# Bulk Modulus (GPa) = 29.24835 68.28448 48.76641
# Shear Modulus (GPa) = 19.91828 25.91317 22.91572
#
# Velocity S-wave (km/s) = 3.38230 3.85786 3.62788
# Velocity P-wave (km/s) = 5.66144 7.68525 6.74963
#
# Compressibility (1/GPa) = 0.03418997
#
# Stress axis : x y z
#
# Youngs Moduli (GPa) = 73.58053 21.28937 57.04154
#
# Poissons Ratio (x) = 0.07896 0.54495
# Poissons Ratio (y) = 0.27292 0.49564
# Poissons Ratio (z) = 0.70296 0.18498
#
# Static dielectric constant tensor:
#      x y z
#    x 3.434040 0.000000 -0.054340 
#    y 0.000000 2.999800 0.000000 
#    z -0.054340 0.000000 3.521260 
# 
# 
# High freq. dielectric constant tensor:
#      x y z
#    x 1.664970 0.000000 -0.003860 
#    y 0.000000 1.645060 0.000000 
#    z -0.003860 0.000000 1.682660 
# 
# From -- ./inp_files/345573.got.cif
#   From: 2010.06.25/outbox.cif.g09.slc.cpg/sg12_173_cif.got.tgz:345573.got - 2010.06.28 00:19:55.
