data_PCOD8081111
_publ_section_title
;
Structure prediction by ZEFSAII (Michael W. Deem and Ramdas Pophale) SiO2 
 PCOD8081111
Probable space group: C 2/M
;
_chemical_formula_sum "Si O2"
_cell_formula_units_Z 56
_cell_length_a 24.317022
_cell_length_b 14.402177
_cell_length_c 23.171309
_cell_angle_alpha 90.000000
_cell_angle_beta 158.601243
_cell_angle_gamma 90.000000
_cell_volume 2960.815121
_symmetry_space_group_name_H-M "C 2/M"
_symmetry_group_IT_number 12
_symmetry_cell_setting 'monoclinic'
loop_
_space_group_symop_operation_xyz
x,y,z
-x,y,-z
-x,-y,-z
x,-y,z
1/2+x,1/2+y,z
1/2-x,1/2+y,-z
1/2-x,1/2-y,-z
1/2+x,1/2-y,z
loop_
_atom_site_type_symbol
_atom_site_label
_atom_site_fract_x
_atom_site_fract_y
_atom_site_fract_z
Si Si1 0.422595 0.728432 0.864249
Si Si2 0.015577 0.274030 0.691526
Si Si3 0.745635 0.607545 0.385018
Si Si4 0.814984 0.603813 0.054801
Si Si5 0.821633 0.399460 0.819795
Si Si6 0.026208 0.894619 0.276536
Si Si7 0.206775 0.314715 0.089486
O O1 0.333574 0.641839 0.750992
O O2 0.300775 0.813480 0.754853
O O3 0.500000 0.697880 0.000000
O O4 0.552845 0.758116 0.947299
O O5 0.071613 0.325876 0.803956
O O6 0.156024 0.256497 0.786477
O O7 0.898891 0.336207 0.542874
O O8 0.939514 0.176944 0.637782
O O9 0.784815 0.500000 0.415898
O O10 0.637459 0.626774 0.333072
O O11 0.871181 0.500000 0.123137
O O12 0.645599 0.619599 0.913179
O O13 0.814882 0.618124 0.986087
O O14 0.756741 0.500000 0.734968
O O15 0.751213 0.376214 0.813416
O O16 0.000000 0.407672 0.000000
O O17 0.048721 0.000000 0.321530
#
# Coordination Sequence:
#
# PCOD8081111 Si02
#       7
#     8   8   8   8   8   8   8
#     4   9  19  36  56  75  97 130 172 211 252 302
#     4  11  20  32  50  76 109 135 166 207 250 296
#     4  11  22  36  52  71 100 136 172 212 256 297
#     4  10  18  29  49  78 108 139 172 200 236 293
#     4   8  15  30  54  81 103 123 157 206 252 295
#     4   9  19  34  52  74 103 139 172 202 242 299
#     4   9  17  31  53  77 104 134 164 203 249 296
#
# _framework density 18.913709000000001
#
# number of rings (size 3 to 8) (size 9 to 14) (size 15 to 20)
#    0.000    2.714    0.000    4.714    0.000    1.429 
#    0.000    4.286    0.000    6.000    0.000    0.000 
#    0.000    0.000    0.000    0.000    0.000    0.000 
#
# Total GULP energy -347071.841694 kJ/mol
# GULP energy per Si atom -12395.422918 kJ/mol
# Density = 1.887066 g / cm^3
# Si number density = 18.913709 Si / 1000 Ang^3
#
#
#
# Elastic Constant Matrix: (Units=GPa)
#
#
# Indices 1 2 3 4 5 6 
#
# 1 94.5107 50.7446 35.9006 0.0038 10.9011 0.0001
# 2 50.7446 132.0518 49.9484 0.0099 -6.8754 0.0028
# 3 35.9006 49.9484 64.3450 0.0204 -2.9142 0.0085
# 4 0.0038 0.0099 0.0204 21.4256 0.0059 -9.9799
# 5 10.9011 -6.8754 -2.9142 0.0059 13.1914 0.0023
# 6 0.0001 0.0028 0.0085 -9.9799 0.0023 20.9910
#
#
#
# Elastic Compliance Matrix: (Units=1/GPa)
#
#
# Indices 1 2 3 4 5 6 
#
# 1 0.018406 -0.005483 -0.006900 0.000018 -0.019592 0.000014
# 2 -0.005483 0.012545 -0.006240 -0.000002 0.009691 -0.000001
# 3 -0.006900 -0.006240 0.024592 -0.000034 0.007883 -0.000026
# 4 0.000018 -0.000002 -0.000034 0.059949 -0.000055 0.028502
# 5 -0.019592 0.009691 0.007883 -0.000055 0.098790 -0.000041
# 6 0.000014 -0.000001 -0.000026 0.028502 -0.000041 0.061190
#
#
# Mechanical properties :
#
#
# Convention : Reuss Voigt Hill
#
# Bulk Modulus (GPa) = 54.65693 62.67719 58.66706
# Shear Modulus (GPa) = 15.68299 21.40918 18.54608
#
# Velocity S-wave (km/s) = 2.88268 3.36808 3.13479
# Velocity P-wave (km/s) = 6.32776 6.95239 6.64742
#
# Compressibility (1/GPa) = 0.01829594
#
# Stress axis : x y z
#
# Youngs Moduli (GPa) = 54.33095 79.71618 40.66371
#
# Poissons Ratio (x) = 0.43708 0.28060
# Poissons Ratio (y) = 0.29789 0.25373
# Poissons Ratio (z) = 0.37491 0.49741
#
# Static dielectric constant tensor:
#      x y z
#    x 3.432170 -0.000010 0.221250 
#    y -0.000010 3.937450 -0.000030 
#    z 0.221250 -0.000030 3.174580 
# 
# 
# High freq. dielectric constant tensor:
#      x y z
#    x 1.728910 0.000000 0.016750 
#    y 0.000000 1.747050 0.000000 
#    z 0.016750 0.000000 1.700530 
# 
# From -- ./inp_files/349794.got.cif
#   From: 2010.06.25/outbox.cif.g09.slc.cpg/sg12_175_cif.got.tgz:349794.got - 2010.06.28 00:19:55.
