data_PCOD8081701
_publ_section_title
;
Structure prediction by ZEFSAII (Michael W. Deem and Ramdas Pophale) SiO2 
 PCOD8081701
Probable space group: C 2/M
;
_chemical_formula_sum "Si O2"
_cell_formula_units_Z 48
_cell_length_a 27.926087
_cell_length_b 8.845541
_cell_length_c 15.975858
_cell_angle_alpha 90.000000
_cell_angle_beta 136.143853
_cell_angle_gamma 90.000000
_cell_volume 2734.248492
_symmetry_space_group_name_H-M "C 2/M"
_symmetry_group_IT_number 12
_symmetry_cell_setting 'monoclinic'
loop_
_space_group_symop_operation_xyz
x,y,z
-x,y,-z
-x,-y,-z
x,-y,z
1/2+x,1/2+y,z
1/2-x,1/2+y,-z
1/2-x,1/2-y,-z
1/2+x,1/2-y,z
loop_
_atom_site_type_symbol
_atom_site_label
_atom_site_fract_x
_atom_site_fract_y
_atom_site_fract_z
Si Si1 0.780519 0.676441 0.411670
Si Si2 0.352954 0.323548 0.651766
Si Si3 0.125240 0.676027 0.971121
Si Si4 0.228805 0.820991 0.776745
Si Si5 0.489508 0.175095 0.888927
Si Si6 0.316275 0.823569 0.124349
O O1 0.789672 0.500000 0.406282
O O2 0.705230 0.716628 0.353145
O O3 0.839238 0.730984 0.549791
O O4 0.791617 0.765685 0.340208
O O5 0.352201 0.500000 0.629208
O O6 0.425633 0.275621 0.780698
O O7 0.125994 0.500000 0.992916
O O8 0.056588 0.744615 0.926413
O O9 0.122731 0.704528 0.867113
O O10 0.195083 0.742896 0.101616
O O11 0.171716 0.755756 0.770648
O O12 0.225867 0.000000 0.777079
O O13 0.476230 0.000000 0.848621
O O14 0.500000 0.195102 0.000000
O O15 0.304011 0.000000 0.123211
O O16 0.250000 0.750000 0.000000
#
# Coordination Sequence:
#
# PCOD8081701 Si02
#       6
#     8   8   8   8   8   8
#     4  10  20  34  52  72  96 128 163 199 242 292
#     4  10  21  35  50  72 100 128 161 201 243 285
#     4   8  16  29  46  70 100 133 164 195 235 287
#     4  10  18  30  50  75 100 126 162 205 247 289
#     4  10  19  32  51  73  99 133 167 195 232 286
#     4   9  16  28  45  68  99 131 165 203 243 286
#
# _framework density 17.555097
#
# number of rings (size 3 to 8) (size 9 to 14) (size 15 to 20)
#    0.000    2.500    0.000    4.000    0.000    3.667 
#    0.000    5.000    0.000    1.000    0.000    7.000 
#    0.000    0.000    0.000    0.000    0.000    0.000 
#
# Total GULP energy -297517.548759 kJ/mol
# GULP energy per Si atom -12396.564532 kJ/mol
# Density = 1.751514 g / cm^3
# Si number density = 17.555097 Si / 1000 Ang^3
#
#
#
# Elastic Constant Matrix: (Units=GPa)
#
#
# Indices 1 2 3 4 5 6 
#
# 1 108.3447 37.3132 41.2100 0.0000 -20.0572 0.0000
# 2 37.3132 68.0193 25.7979 0.0000 -12.3045 0.0000
# 3 41.2100 25.7979 71.5343 0.0000 -12.4520 0.0000
# 4 0.0000 0.0000 0.0000 29.8287 0.0000 -4.7186
# 5 -20.0572 -12.3045 -12.4520 0.0000 30.8300 0.0000
# 6 0.0000 0.0000 0.0000 -4.7186 0.0000 24.0841
#
#
#
# Elastic Compliance Matrix: (Units=1/GPa)
#
#
# Indices 1 2 3 4 5 6 
#
# 1 0.013798 -0.004618 -0.005423 0.000000 0.004943 0.000000
# 2 -0.004618 0.019218 -0.003720 0.000000 0.003163 0.000000
# 3 -0.005423 -0.003720 0.018901 0.000000 0.002622 0.000000
# 4 0.000000 0.000000 0.000000 0.034597 0.000000 0.006778
# 5 0.004943 0.003163 0.002622 0.000000 0.037973 0.000000
# 6 0.000000 0.000000 0.000000 0.006778 0.000000 0.042849
#
#
# Mechanical properties :
#
#
# Convention : Reuss Voigt Hill
#
# Bulk Modulus (GPa) = 40.99068 50.72673 45.85870
# Shear Modulus (GPa) = 24.63175 26.52036 25.57606
#
# Velocity S-wave (km/s) = 3.74988 3.89098 3.82108
# Velocity P-wave (km/s) = 6.49224 7.01033 6.75625
#
# Compressibility (1/GPa) = 0.02439579
#
# Stress axis : x y z
#
# Youngs Moduli (GPa) = 72.47409 52.03432 52.90687
#
# Poissons Ratio (x) = 0.24030 0.28691
# Poissons Ratio (y) = 0.33470 0.19679
# Poissons Ratio (z) = 0.39302 0.19355
#
# Static dielectric constant tensor:
#      x y z
#    x 3.706480 0.000000 -0.200850 
#    y 0.000000 3.268210 0.000000 
#    z -0.200850 0.000000 3.088300 
# 
# 
# High freq. dielectric constant tensor:
#      x y z
#    x 1.680040 0.000000 -0.023730 
#    y 0.000000 1.675870 0.000000 
#    z -0.023730 0.000000 1.654800 
# 
# From -- ./inp_files/229956.got.cif
#   From: 2010.06.25/outbox.cif.g09.slc.cpg/sg12_115_cif.got.tgz:229956.got - 2010.06.28 00:19:55.
