data_PCOD8081859
_publ_section_title
;
Structure prediction by ZEFSAII (Michael W. Deem and Ramdas Pophale) SiO2 
 PCOD8081859
Probable space group: C 2/M
;
_chemical_formula_sum "Si O2"
_cell_formula_units_Z 64
_cell_length_a 25.701446
_cell_length_b 8.913016
_cell_length_c 14.968030
_cell_angle_alpha 90.000000
_cell_angle_beta 99.214893
_cell_angle_gamma 90.000000
_cell_volume 3384.587121
_symmetry_space_group_name_H-M "C 2/M"
_symmetry_group_IT_number 12
_symmetry_cell_setting 'monoclinic'
loop_
_space_group_symop_operation_xyz
x,y,z
-x,y,-z
-x,-y,-z
x,-y,z
1/2+x,1/2+y,z
1/2-x,1/2+y,-z
1/2-x,1/2-y,-z
1/2+x,1/2-y,z
loop_
_atom_site_type_symbol
_atom_site_label
_atom_site_fract_x
_atom_site_fract_y
_atom_site_fract_z
Si Si1 0.599390 0.677327 0.133040
Si Si2 0.599280 0.323292 0.929723
Si Si3 0.319924 0.821958 0.163402
Si Si4 0.287262 0.677328 0.782254
Si Si5 0.521605 0.330460 0.595813
Si Si6 0.500508 0.679589 0.785493
Si Si7 0.357466 0.329976 0.345895
Si Si8 0.233249 0.322887 0.586610
O O1 0.601767 0.500000 0.145614
O O2 0.656160 0.748303 0.176258
O O3 0.552992 0.741433 0.183480
O O4 0.585966 0.719857 0.027745
O O5 0.608029 0.500000 0.920657
O O6 0.654720 0.242082 0.920527
O O7 0.551009 0.263700 0.855864
O O8 0.258889 0.770914 0.161221
O O9 0.355758 0.750877 0.250408
O O10 0.324588 0.000000 0.168305
O O11 0.291177 0.500000 0.788025
O O12 0.272069 0.727690 0.677709
O O13 0.500000 0.247728 0.500000
O O14 0.499459 0.500000 0.590808
O O15 0.503173 0.255580 0.684757
O O16 0.583747 0.328845 0.603197
O O17 0.502235 0.500000 0.785591
O O18 0.336082 0.500000 0.331246
O O19 0.324792 0.236993 0.409172
O O20 0.232035 0.500000 0.576193
O O21 0.250000 0.250000 0.500000
#
# Coordination Sequence:
#
# PCOD8081859 Si02
#       8
#     8   8   8   8   8   8   8   8
#     4   9  17  29  49  74 103 133 165 215 271 311
#     4  10  18  30  51  79 100 126 171 217 263 316
#     4  10  19  32  51  72 101 139 174 210 255 309
#     4   8  17  32  47  71 103 133 169 212 257 308
#     4   9  17  28  46  77 108 130 162 212 264 311
#     4   9  16  28  46  73 105 130 162 210 259 308
#     4  10  18  32  53  77 104 132 170 218 262 307
#     4  10  20  34  53  77 104 137 178 216 259 313
#
# _framework density 18.909248999999999
#
# number of rings (size 3 to 8) (size 9 to 14) (size 15 to 20)
#    0.000    2.625    1.250    2.250    0.000    3.000 
#    0.000    3.750    0.000    6.750    0.000    0.000 
#    0.000    0.000    0.000    0.000    0.000    0.000 
#
# Total GULP energy -396618.858078 kJ/mol
# GULP energy per Si atom -12394.339315 kJ/mol
# Density = 1.886621 g / cm^3
# Si number density = 18.909249 Si / 1000 Ang^3
#
#
#
# Elastic Constant Matrix: (Units=GPa)
#
#
# Indices 1 2 3 4 5 6 
#
# 1 135.8994 22.1948 81.6754 0.0000 -5.7745 0.0000
# 2 22.1948 43.5691 24.6743 0.0000 -4.2096 0.0000
# 3 81.6754 24.6743 141.9604 0.0000 -13.1557 0.0000
# 4 0.0000 0.0000 0.0000 17.2723 0.0000 -6.2384
# 5 -5.7745 -4.2096 -13.1557 0.0000 29.1386 0.0000
# 6 0.0000 0.0000 0.0000 -6.2384 0.0000 22.8777
#
#
#
# Elastic Compliance Matrix: (Units=1/GPa)
#
#
# Indices 1 2 3 4 5 6 
#
# 1 0.011480 -0.002382 -0.006275 0.000000 -0.000902 0.000000
# 2 -0.002382 0.026038 -0.002975 0.000000 0.001947 0.000000
# 3 -0.006275 -0.002975 0.011497 0.000000 0.003518 0.000000
# 4 0.000000 0.000000 0.000000 0.064221 0.000000 0.017512
# 5 -0.000902 0.001947 0.003518 0.000000 0.036009 0.000000
# 6 0.000000 0.000000 0.000000 0.017512 0.000000 0.048486
#
#
# Mechanical properties :
#
#
# Convention : Reuss Voigt Hill
#
# Bulk Modulus (GPa) = 38.83058 64.27975 51.55516
# Shear Modulus (GPa) = 21.77901 26.71669 24.24785
#
# Velocity S-wave (km/s) = 3.39745 3.76292 3.58484
# Velocity P-wave (km/s) = 5.99750 7.27647 6.66772
#
# Compressibility (1/GPa) = 0.02575290
#
# Stress axis : x y z
#
# Youngs Moduli (GPa) = 87.10780 38.40498 86.97728
#
# Poissons Ratio (x) = 0.09148 0.54574
# Poissons Ratio (y) = 0.20748 0.25876
# Poissons Ratio (z) = 0.54656 0.11425
#
# Static dielectric constant tensor:
#      x y z
#    x 3.733150 0.000000 -0.056320 
#    y 0.000000 3.129620 0.000000 
#    z -0.056320 0.000000 3.599480 
# 
# 
# High freq. dielectric constant tensor:
#      x y z
#    x 1.743800 0.000000 -0.009280 
#    y 0.000000 1.681970 0.000000 
#    z -0.009280 0.000000 1.737610 
# 
# From -- ./inp_files/244049.got.cif
#   From: 2010.06.25/outbox.cif.g09.slc.cpg/sg12_123_cif.got.tgz:244049.got - 2010.06.28 00:19:55.
