data_PCOD8081256
_publ_section_title
;
Structure prediction by ZEFSAII (Michael W. Deem and Ramdas Pophale) SiO2 
 PCOD8081256
Probable space group: C 2/M
;
_chemical_formula_sum "Si O2"
_cell_formula_units_Z 56
_cell_length_a 23.795223
_cell_length_b 8.981921
_cell_length_c 17.959564
_cell_angle_alpha 90.000000
_cell_angle_beta 115.774736
_cell_angle_gamma 90.000000
_cell_volume 3456.556229
_symmetry_space_group_name_H-M "C 2/M"
_symmetry_group_IT_number 12
_symmetry_cell_setting 'monoclinic'
loop_
_space_group_symop_operation_xyz
x,y,z
-x,y,-z
-x,-y,-z
x,-y,z
1/2+x,1/2+y,z
1/2-x,1/2+y,-z
1/2-x,1/2-y,-z
1/2+x,1/2-y,z
loop_
_atom_site_type_symbol
_atom_site_label
_atom_site_fract_x
_atom_site_fract_y
_atom_site_fract_z
Si Si1 0.794660 0.171673 0.439680
Si Si2 0.666704 0.329441 0.385166
Si Si3 0.776097 0.827611 0.269887
Si Si4 0.158723 0.670022 0.990654
Si Si5 0.299537 0.670683 0.124698
Si Si6 0.928120 0.827448 0.942471
Si Si7 0.637390 0.824154 0.227500
O O1 0.739258 0.287650 0.420423
O O2 0.848027 0.195552 0.534207
O O3 0.818920 0.199359 0.368503
O O4 0.769496 0.000000 0.429674
O O5 0.656376 0.500000 0.356414
O O6 0.624614 0.229916 0.305475
O O7 0.807937 0.761462 0.213506
O O8 0.706246 0.765285 0.243997
O O9 0.767366 0.000000 0.246290
O O10 0.136481 0.500000 0.976506
O O11 0.158281 0.732081 0.906193
O O12 0.226814 0.686781 0.064540
O O13 0.110913 0.763023 0.011841
O O14 0.321697 0.500000 0.130129
O O15 0.912920 0.746327 0.856322
O O16 0.911867 0.000000 0.924755
O O17 0.000000 0.798924 0.000000
O O18 0.630938 0.000000 0.220480
#
# Coordination Sequence:
#
# PCOD8081256 Si02
#       7
#     8   8   8   8   8   8   8
#     4   8  14  23  36  55  83 117 149 180 214 258
#     4   9  15  23  36  57  83 113 147 182 220 258
#     4   8  13  24  41  61  85 115 149 180 212 255
#     4  10  19  31  46  66  88 116 151 184 224 266
#     4   9  16  28  45  65  90 119 150 184 220 260
#     4  11  23  36  49  66  88 114 148 191 233 269
#     4  10  18  30  45  61  83 115 152 184 220 267
#
# _framework density 16.201094999999999
#
# number of rings (size 3 to 8) (size 9 to 14) (size 15 to 20)
#    0.000    2.714    1.429    2.571    0.000    2.286 
#    0.000    0.714    0.000    0.000    0.000    0.000 
#    0.000    1.143    0.000   13.143    0.000    4.000 
#
# Total GULP energy -346889.705273 kJ/mol
# GULP energy per Si atom -12388.918045 kJ/mol
# Density = 1.616422 g / cm^3
# Si number density = 16.201095 Si / 1000 Ang^3
#
#
#
# Elastic Constant Matrix: (Units=GPa)
#
#
# Indices 1 2 3 4 5 6 
#
# 1 32.0558 27.3018 44.4217 0.0000 -8.6136 0.0000
# 2 27.3018 77.7759 57.6332 0.0000 -3.8432 0.0000
# 3 44.4217 57.6332 153.1107 0.0000 -36.1005 0.0000
# 4 0.0000 0.0000 0.0000 23.4458 0.0000 -3.4182
# 5 -8.6136 -3.8432 -36.1005 0.0000 21.1879 0.0000
# 6 0.0000 0.0000 0.0000 -3.4182 0.0000 16.3424
#
#
#
# Elastic Compliance Matrix: (Units=1/GPa)
#
#
# Indices 1 2 3 4 5 6 
#
# 1 0.058236 -0.010967 -0.012794 0.000000 -0.000114 0.000000
# 2 -0.010967 0.022646 -0.009068 0.000000 -0.015801 0.000000
# 3 -0.012794 -0.009068 0.020129 0.000000 0.027449 0.000000
# 4 0.000000 0.000000 0.000000 0.043993 0.000000 0.009202
# 5 -0.000114 -0.015801 0.027449 0.000000 0.091053 0.000000
# 6 0.000000 0.000000 0.000000 0.009202 0.000000 0.063115
#
#
# Mechanical properties :
#
#
# Convention : Reuss Voigt Hill
#
# Bulk Modulus (GPa) = 28.28777 57.96175 43.12476
# Shear Modulus (GPa) = 13.27614 21.10094 17.18854
#
# Velocity S-wave (km/s) = 2.86573 3.61285 3.26076
# Velocity P-wave (km/s) = 5.33368 7.29778 6.39163
#
# Compressibility (1/GPa) = 0.03535096
#
# Stress axis : x y z
#
# Youngs Moduli (GPa) = 17.17155 44.15777 49.68049
#
# Poissons Ratio (x) = 0.48429 0.63563
# Poissons Ratio (y) = 0.18833 0.45050
# Poissons Ratio (z) = 0.21970 0.40042
#
# Static dielectric constant tensor:
#      x y z
#    x 2.663780 0.000000 -0.442910 
#    y 0.000000 3.084520 0.000000 
#    z -0.442910 0.000000 3.536530 
# 
# 
# High freq. dielectric constant tensor:
#      x y z
#    x 1.553550 0.000000 -0.040150 
#    y 0.000000 1.624050 0.000000 
#    z -0.040150 0.000000 1.637830 
# 
# From -- ./inp_files/287888.got.cif
#   From: 2010.06.25/outbox.cif.g09.slc.cpg/sg12_144_cif.got.tgz:287888.got - 2010.06.28 00:19:55.
