data_PCOD8081436
_publ_section_title
;
Structure prediction by ZEFSAII (Michael W. Deem and Ramdas Pophale) SiO2 
 PCOD8081436
Probable space group: C 2/M
;
_chemical_formula_sum "Si O2"
_cell_formula_units_Z 64
_cell_length_a 28.832553
_cell_length_b 9.214125
_cell_length_c 26.447866
_cell_angle_alpha 90.000000
_cell_angle_beta 150.302561
_cell_angle_gamma 90.000000
_cell_volume 3480.977619
_symmetry_space_group_name_H-M "C 2/M"
_symmetry_group_IT_number 12
_symmetry_cell_setting 'monoclinic'
loop_
_space_group_symop_operation_xyz
x,y,z
-x,y,-z
-x,-y,-z
x,-y,z
1/2+x,1/2+y,z
1/2-x,1/2+y,-z
1/2-x,1/2-y,-z
1/2+x,1/2-y,z
loop_
_atom_site_type_symbol
_atom_site_label
_atom_site_fract_x
_atom_site_fract_y
_atom_site_fract_z
Si Si1 0.491833 0.169125 0.226173
Si Si2 0.030757 0.827112 0.690818
Si Si3 0.204564 0.331451 0.410805
Si Si4 0.756000 0.826872 0.275934
Si Si5 0.950901 0.672764 0.902874
Si Si6 0.716559 0.672848 0.810943
Si Si7 0.404174 0.172022 0.040572
Si Si8 0.846297 0.171622 0.461071
O O1 0.467932 0.263802 0.251946
O O2 0.595169 0.204381 0.303017
O O3 0.482470 0.000000 0.231263
O O4 0.419196 0.215260 0.113303
O O5 0.122708 0.771352 0.748933
O O6 0.941432 0.764742 0.575380
O O7 0.027913 0.000000 0.692477
O O8 0.222395 0.500000 0.437120
O O9 0.250000 0.250000 0.500000
O O10 0.256201 0.280304 0.408559
O O11 0.654807 0.767326 0.197633
O O12 0.782241 0.766120 0.245350
O O13 0.831262 0.772581 0.389193
O O14 0.753648 0.000000 0.271726
O O15 0.949402 0.500000 0.899928
O O16 0.000000 0.729143 0.000000
O O17 0.009805 0.734531 0.911246
O O18 0.719354 0.500000 0.812650
O O19 0.805634 0.734250 0.926524
O O20 0.403970 0.000000 0.034705
O O21 0.855221 0.000000 0.468842
#
# Coordination Sequence:
#
# PCOD8081436 Si02
#       8
#     8   8   8   8   8   8   8   8
#     4  10  20  32  49  70  93 124 159 193 230 273
#     4  10  20  33  47  66  95 128 159 193 231 269
#     4  10  18  30  48  70  95 123 152 187 232 276
#     4   9  15  24  40  64  91 120 152 185 231 285
#     4   9  13  20  38  62  90 122 148 179 232 288
#     4   9  17  28  43  64  92 124 156 192 233 276
#     4   9  16  27  42  65  95 123 153 191 233 277
#     4   9  17  28  43  64  92 122 150 185 229 279
#
# _framework density 18.385639999999999
#
# number of rings (size 3 to 8) (size 9 to 14) (size 15 to 20)
#    0.000    2.625    2.500    0.750    0.000    4.000 
#    0.000    2.500    0.000    0.000    0.000    2.625 
#    0.000    1.500    0.000    0.250    0.000    0.000 
#
# Total GULP energy -396642.660012 kJ/mol
# GULP energy per Si atom -12395.083125 kJ/mol
# Density = 1.834379 g / cm^3
# Si number density = 18.385640 Si / 1000 Ang^3
#
#
#
# Elastic Constant Matrix: (Units=GPa)
#
#
# Indices 1 2 3 4 5 6 
#
# 1 155.1435 19.0086 104.8013 0.0000 2.0148 0.0000
# 2 19.0086 9.8381 15.5062 0.0000 -1.1318 0.0000
# 3 104.8013 15.5062 139.9883 0.0000 -18.2323 0.0000
# 4 0.0000 0.0000 0.0000 12.3543 0.0000 -4.0018
# 5 2.0148 -1.1318 -18.2323 0.0000 35.9866 0.0000
# 6 0.0000 0.0000 0.0000 -4.0018 0.0000 17.1735
#
#
#
# Elastic Compliance Matrix: (Units=1/GPa)
#
#
# Indices 1 2 3 4 5 6 
#
# 1 0.015784 -0.013618 -0.011219 0.000000 -0.006996 0.000000
# 2 -0.013618 0.135252 -0.004425 0.000000 0.002774 0.000000
# 3 -0.011219 -0.004425 0.017233 0.000000 0.009220 0.000000
# 4 0.000000 0.000000 0.000000 0.087552 0.000000 0.020402
# 5 -0.006996 0.002774 0.009220 0.000000 0.032938 0.000000
# 6 0.000000 0.000000 0.000000 0.020402 0.000000 0.062984
#
#
# Mechanical properties :
#
#
# Convention : Reuss Voigt Hill
#
# Bulk Modulus (GPa) = 9.11206 64.84467 36.97837
# Shear Modulus (GPa) = 11.18943 24.14644 17.66794
#
# Velocity S-wave (km/s) = 2.46965 3.62792 3.10330
# Velocity P-wave (km/s) = 3.61926 7.27289 5.74430
#
# Compressibility (1/GPa) = 0.10974469
#
# Stress axis : x y z
#
# Youngs Moduli (GPa) = 63.35673 7.39359 58.02659
#
# Poissons Ratio (x) = 0.10069 0.65100
# Poissons Ratio (y) = 0.86282 0.25676
# Poissons Ratio (z) = 0.71080 0.03272
#
# Static dielectric constant tensor:
#      x y z
#    x 3.450060 0.000000 0.161930 
#    y 0.000000 2.670590 0.000000 
#    z 0.161930 0.000000 3.640420 
# 
# 
# High freq. dielectric constant tensor:
#      x y z
#    x 1.721790 0.000000 -0.005700 
#    y 0.000000 1.628430 0.000000 
#    z -0.005700 0.000000 1.729130 
# 
# From -- ./inp_files/351798.got.cif
#   From: 2010.06.25/outbox.cif.g09.slc.cpg/sg12_176_cif.got.tgz:351798.got - 2010.06.28 00:19:55.
