data_PCOD8081672
_publ_section_title
;
Structure prediction by ZEFSAII (Michael W. Deem and Ramdas Pophale) SiO2 
 PCOD8081672
Probable space group: C 2/M
;
_chemical_formula_sum "Si O2"
_cell_formula_units_Z 64
_cell_length_a 14.871803
_cell_length_b 8.946012
_cell_length_c 27.381014
_cell_angle_alpha 90.000000
_cell_angle_beta 73.411953
_cell_angle_gamma 90.000000
_cell_volume 3491.253191
_symmetry_space_group_name_H-M "C 2/M"
_symmetry_group_IT_number 12
_symmetry_cell_setting 'monoclinic'
loop_
_space_group_symop_operation_xyz
x,y,z
-x,y,-z
-x,-y,-z
x,-y,z
1/2+x,1/2+y,z
1/2-x,1/2+y,-z
1/2-x,1/2-y,-z
1/2+x,1/2-y,z
loop_
_atom_site_type_symbol
_atom_site_label
_atom_site_fract_x
_atom_site_fract_y
_atom_site_fract_z
Si Si1 0.944447 0.826422 0.873962
Si Si2 0.406152 0.822585 0.691055
Si Si3 0.715778 0.677117 0.764806
Si Si4 0.459656 0.177392 0.576952
Si Si5 0.482707 0.672812 0.243605
Si Si6 0.848594 0.677022 0.500135
Si Si7 0.145846 0.823081 0.876457
Si Si8 0.232947 0.676264 0.054254
O O1 0.956683 0.796379 0.814484
O O2 0.865788 0.720221 0.907606
O O3 0.037770 0.776868 0.888423
O O4 0.920575 0.000000 0.887473
O O5 0.306724 0.754361 0.724226
O O6 0.430171 0.756174 0.634033
O O7 0.484465 0.774672 0.717219
O O8 0.402571 0.000000 0.689140
O O9 0.724569 0.500000 0.766465
O O10 0.624438 0.721010 0.748186
O O11 0.705740 0.742627 0.821452
O O12 0.381960 0.229241 0.549149
O O13 0.566121 0.230209 0.548475
O O14 0.460246 0.000000 0.576965
O O15 0.490544 0.500000 0.257208
O O16 0.834379 0.500000 0.500027
O O17 0.750000 0.750000 0.500000
O O18 0.186715 0.763942 0.921238
O O19 0.153911 0.000000 0.872323
O O20 0.237576 0.500000 0.046930
O O21 0.250000 0.750000 0.000000
#
# Coordination Sequence:
#
# PCOD8081672 Si02
#       8
#     8   8   8   8   8   8   8   8
#     4   9  18  35  55  72  95 129 165 198 238 288
#     4  10  18  30  50  73  99 132 167 199 235 290
#     4   8  15  29  49  71  94 124 162 195 229 285
#     4   8  17  32  48  69  99 133 164 199 248 300
#     4   9  18  32  50  74 102 128 156 198 247 285
#     4   9  17  33  53  70  93 128 170 210 250 293
#     4   8  16  32  52  70  92 127 163 192 230 288
#     4  11  22  35  52  75 100 126 162 205 248 292
#
# _framework density 18.331526
#
# number of rings (size 3 to 8) (size 9 to 14) (size 15 to 20)
#    0.000    3.000    0.000    3.375    0.000    3.000 
#    0.000    8.125    0.000    2.250    0.000    0.000 
#    0.000    0.000    0.000    0.000    0.000    0.000 
#
# Total GULP energy -396622.559552 kJ/mol
# GULP energy per Si atom -12394.454986 kJ/mol
# Density = 1.828980 g / cm^3
# Si number density = 18.331526 Si / 1000 Ang^3
#
#
#
# Elastic Constant Matrix: (Units=GPa)
#
#
# Indices 1 2 3 4 5 6 
#
# 1 111.1941 26.7588 53.6579 0.0000 22.1833 0.0000
# 2 26.7588 27.0906 29.1693 0.0000 1.7891 0.0000
# 3 53.6579 29.1693 112.2481 0.0000 24.2811 0.0000
# 4 0.0000 0.0000 0.0000 22.0595 0.0000 3.3438
# 5 22.1833 1.7891 24.2811 0.0000 16.5897 0.0000
# 6 0.0000 0.0000 0.0000 3.3438 0.0000 29.5918
#
#
#
# Elastic Compliance Matrix: (Units=1/GPa)
#
#
# Indices 1 2 3 4 5 6 
#
# 1 0.016865 -0.016221 0.000956 0.000000 -0.022200 0.000000
# 2 -0.016221 0.072074 -0.020465 0.000000 0.043871 0.000000
# 3 0.000956 -0.020465 0.019856 0.000000 -0.028132 0.000000
# 4 0.000000 0.000000 0.000000 0.046122 0.000000 -0.005212
# 5 -0.022200 0.043871 -0.028132 0.000000 0.126408 0.000000
# 6 0.000000 0.000000 0.000000 -0.005212 0.000000 0.034382
#
#
# Mechanical properties :
#
#
# Convention : Reuss Voigt Hill
#
# Bulk Modulus (GPa) = 26.78598 52.18941 39.48770
# Shear Modulus (GPa) = 12.51216 23.04466 17.77841
#
# Velocity S-wave (km/s) = 2.61540 3.54942 3.11758
# Velocity P-wave (km/s) = 4.87484 6.73271 5.87765
#
# Compressibility (1/GPa) = 0.03733296
#
# Stress axis : x y z
#
# Youngs Moduli (GPa) = 59.29570 13.87466 50.36370
#
# Poissons Ratio (x) = 0.22506 -0.04814
# Poissons Ratio (y) = 0.96184 1.03071
# Poissons Ratio (z) = -0.05668 0.28395
#
# Static dielectric constant tensor:
#      x y z
#    x 3.563620 0.000000 0.005280 
#    y 0.000000 2.918160 0.000000 
#    z 0.005280 0.000000 3.200650 
# 
# 
# High freq. dielectric constant tensor:
#      x y z
#    x 1.720520 0.000000 0.002070 
#    y 0.000000 1.667610 0.000000 
#    z 0.002070 0.000000 1.715860 
# 
# From -- ./inp_files/359836.got.cif
#   From: 2010.06.25/outbox.cif.g09.slc.cpg/sg12_180_cif.got.tgz:359836.got - 2010.06.28 00:19:55.
