data_PCOD8081656
_publ_section_title
;
Structure prediction by ZEFSAII (Michael W. Deem and Ramdas Pophale) SiO2 
 PCOD8081656
Probable space group: C 2/M
;
_chemical_formula_sum "Si O2"
_cell_formula_units_Z 56
_cell_length_a 20.086668
_cell_length_b 9.450422
_cell_length_c 30.604919
_cell_angle_alpha 90.000000
_cell_angle_beta 149.390337
_cell_angle_gamma 90.000000
_cell_volume 2958.198288
_symmetry_space_group_name_H-M "C 2/M"
_symmetry_group_IT_number 12
_symmetry_cell_setting 'monoclinic'
loop_
_space_group_symop_operation_xyz
x,y,z
-x,y,-z
-x,-y,-z
x,-y,z
1/2+x,1/2+y,z
1/2-x,1/2+y,-z
1/2-x,1/2-y,-z
1/2+x,1/2-y,z
loop_
_atom_site_type_symbol
_atom_site_label
_atom_site_fract_x
_atom_site_fract_y
_atom_site_fract_z
Si Si1 0.463739 0.166630 0.729551
Si Si2 0.037216 0.334652 0.928704
Si Si3 0.148957 0.156931 0.122257
Si Si4 0.754213 0.339039 0.086392
Si Si5 0.826709 0.663585 0.738531
Si Si6 0.877265 0.332409 0.586194
Si Si7 0.362262 0.839515 0.312654
O O1 0.603339 0.229132 0.824024
O O2 0.353506 0.204078 0.703302
O O3 0.418948 0.226580 0.657483
O O4 0.485158 0.000000 0.737136
O O5 0.061753 0.500000 0.948913
O O6 0.952449 0.276960 0.921243
O O7 0.958634 0.299859 0.839922
O O8 0.177295 0.254953 0.007014
O O9 0.170205 0.166818 0.083006
O O10 0.286139 0.180893 0.224173
O O11 0.093778 0.000000 0.103107
O O12 0.766505 0.500000 0.075657
O O13 0.792223 0.500000 0.724593
O O14 0.699869 0.746693 0.683810
O O15 0.850052 0.500000 0.572609
O O16 0.750000 0.250000 0.500000
O O17 0.988949 0.295672 0.613706
O O18 0.355322 0.000000 0.325275
#
# Coordination Sequence:
#
# PCOD8081656 Si02
#       7
#     8   8   8   8   8   8   8
#     4   9  18  36  58  77 101 138 180 217 253 304
#     4  10  20  30  42  70 108 140 170 213 263 301
#     4   9  16  29  49  71  95 131 180 219 249 297
#     4  10  18  30  50  72  96 134 183 221 250 294
#     4   9  19  35  54  75 105 144 180 211 252 306
#     4  10  20  37  61  86 107 130 166 215 265 312
#     4   9  17  33  56  79 104 135 172 214 259 306
#
# _framework density 18.930440999999998
#
# number of rings (size 3 to 8) (size 9 to 14) (size 15 to 20)
#    0.000    2.571    1.429    0.857    0.000    4.000 
#    0.000    2.857    0.000    4.286    0.000    0.000 
#    0.000    0.000    0.000    0.000    0.000    0.000 
#
# Total GULP energy -347132.086519 kJ/mol
# GULP energy per Si atom -12397.574519 kJ/mol
# Density = 1.888735 g / cm^3
# Si number density = 18.930441 Si / 1000 Ang^3
#
#
#
# Elastic Constant Matrix: (Units=GPa)
#
#
# Indices 1 2 3 4 5 6 
#
# 1 97.5413 44.3379 54.5722 0.0000 2.9392 0.0000
# 2 44.3379 68.1930 47.7778 0.0000 9.9689 -0.0001
# 3 54.5722 47.7778 105.2802 -0.0001 26.0858 0.0000
# 4 0.0000 0.0000 -0.0001 31.1679 0.0000 6.1524
# 5 2.9392 9.9689 26.0858 0.0000 16.5320 0.0000
# 6 0.0000 -0.0001 0.0000 6.1524 0.0000 21.8573
#
#
#
# Elastic Compliance Matrix: (Units=1/GPa)
#
#
# Indices 1 2 3 4 5 6 
#
# 1 0.019449 -0.007418 -0.011439 0.000000 0.019065 0.000000
# 2 -0.007418 0.024492 -0.006464 0.000000 -0.003250 0.000000
# 3 -0.011439 -0.006464 0.027735 0.000000 -0.037831 0.000000
# 4 0.000000 0.000000 0.000000 0.033972 0.000000 -0.009562
# 5 0.019065 -0.003250 -0.037831 0.000000 0.118753 0.000000
# 6 0.000000 0.000000 0.000000 -0.009562 0.000000 0.048443
#
#
# Mechanical properties :
#
#
# Convention : Reuss Voigt Hill
#
# Bulk Modulus (GPa) = 47.54332 62.71003 55.12667
# Shear Modulus (GPa) = 15.12872 22.19987 18.66430
#
# Velocity S-wave (km/s) = 2.83003 3.42820 3.14338
# Velocity P-wave (km/s) = 5.98732 6.99060 6.50832
#
# Compressibility (1/GPa) = 0.02103345
#
# Stress axis : x y z
#
# Youngs Moduli (GPa) = 51.41545 40.83035 36.05564
#
# Poissons Ratio (x) = 0.30289 0.41243
# Poissons Ratio (y) = 0.38142 0.23307
# Poissons Ratio (z) = 0.58813 0.26393
#
# Static dielectric constant tensor:
#      x y z
#    x 3.392870 0.000000 0.020830 
#    y 0.000000 3.305790 0.000000 
#    z 0.020830 0.000000 3.416500 
# 
# 
# High freq. dielectric constant tensor:
#      x y z
#    x 1.732690 0.000000 0.006240 
#    y 0.000000 1.710750 0.000000 
#    z 0.006240 0.000000 1.724950 
# 
# From -- ./inp_files/281698.got.cif
#   From: 2010.06.25/outbox.cif.g09.slc.cpg/sg12_141_cif.got.tgz:281698.got - 2010.06.28 00:19:55.
