data_PCOD8081003
_publ_section_title
;
Structure prediction by ZEFSAII (Michael W. Deem and Ramdas Pophale) SiO2 
 PCOD8081003
Probable space group: C 2/M
;
_chemical_formula_sum "Si O2"
_cell_formula_units_Z 56
_cell_length_a 19.015730
_cell_length_b 8.761342
_cell_length_c 23.207258
_cell_angle_alpha 90.000000
_cell_angle_beta 127.475004
_cell_angle_gamma 90.000000
_cell_volume 3068.452733
_symmetry_space_group_name_H-M "C 2/M"
_symmetry_group_IT_number 12
_symmetry_cell_setting 'monoclinic'
loop_
_space_group_symop_operation_xyz
x,y,z
-x,y,-z
-x,-y,-z
x,-y,z
1/2+x,1/2+y,z
1/2-x,1/2+y,-z
1/2-x,1/2-y,-z
1/2+x,1/2-y,z
loop_
_atom_site_type_symbol
_atom_site_label
_atom_site_fract_x
_atom_site_fract_y
_atom_site_fract_z
Si Si1 0.672686 0.680882 0.999328
Si Si2 0.169494 0.823716 0.125655
Si Si3 0.131905 0.677743 0.286012
Si Si4 0.094274 0.322876 0.561045
Si Si5 0.757628 0.819192 0.566267
Si Si6 0.519974 0.680557 0.138336
Si Si7 0.223120 0.675316 0.716845
O O1 0.683404 0.500000 0.004844
O O2 0.578841 0.731873 0.926440
O O3 0.750000 0.750000 0.000000
O O4 0.678500 0.751444 0.067112
O O5 0.087037 0.757875 0.121825
O O6 0.262551 0.799664 0.207442
O O7 0.149078 0.000000 0.104771
O O8 0.118300 0.500000 0.290202
O O9 0.153438 0.757722 0.357987
O O10 0.043641 0.745826 0.212115
O O11 0.212743 0.708416 0.283229
O O12 0.083541 0.500000 0.542085
O O13 0.171683 0.259240 0.558606
O O14 0.123298 0.295657 0.642947
O O15 0.000000 0.241235 0.500000
O O16 0.750000 0.750000 0.500000
O O17 0.762453 0.000000 0.565362
O O18 0.529348 0.500000 0.148672
O O19 0.250903 0.500000 0.714720
#
# Coordination Sequence:
#
# PCOD8081003 Si02
#       7
#     8   8   8   8   8   8   8
#     4  10  20  33  49  70  99 131 159 195 245 298
#     4   8  14  28  51  73  89 117 166 207 234 278
#     4  10  18  29  48  73  98 123 157 202 247 289
#     4   8  14  26  46  71  96 123 158 198 236 276
#     4  10  19  32  50  72 101 133 164 200 241 286
#     4   9  17  32  53  72  91 121 163 205 242 284
#     4   8  14  27  48  70  92 121 158 201 243 282
#
# _framework density 18.250239000000001
#
# number of rings (size 3 to 8) (size 9 to 14) (size 15 to 20)
#    0.000    3.000    0.000    3.857    0.000    2.286 
#    0.000    4.286    0.000   18.429    0.000    0.000 
#    0.000    0.000    0.000    0.000    0.000    0.000 
#
# Total GULP energy -346888.475031 kJ/mol
# GULP energy per Si atom -12388.874108 kJ/mol
# Density = 1.820870 g / cm^3
# Si number density = 18.250239 Si / 1000 Ang^3
#
#
#
# Elastic Constant Matrix: (Units=GPa)
#
#
# Indices 1 2 3 4 5 6 
#
# 1 81.4150 19.6142 80.7723 0.0000 7.3816 0.0000
# 2 19.6142 50.2528 44.8820 0.0000 -2.0151 0.0000
# 3 80.7723 44.8820 215.8041 0.0000 7.4328 0.0000
# 4 0.0000 0.0000 0.0000 23.1865 0.0000 -2.0889
# 5 7.3816 -2.0151 7.4328 0.0000 29.7505 0.0000
# 6 0.0000 0.0000 0.0000 -2.0889 0.0000 17.6342
#
#
#
# Elastic Compliance Matrix: (Units=1/GPa)
#
#
# Indices 1 2 3 4 5 6 
#
# 1 0.019926 -0.001659 -0.006999 0.000000 -0.003308 0.000000
# 2 -0.001659 0.024836 -0.004657 0.000000 0.003257 0.000000
# 3 -0.006999 -0.004657 0.008244 0.000000 -0.000638 0.000000
# 4 0.000000 0.000000 0.000000 0.043594 0.000000 0.005164
# 5 -0.003308 0.003257 -0.000638 0.000000 0.034814 0.000000
# 6 0.000000 0.000000 0.000000 0.005164 0.000000 0.057320
#
#
# Mechanical properties :
#
#
# Convention : Reuss Voigt Hill
#
# Bulk Modulus (GPa) = 37.91157 70.88989 54.40073
# Shear Modulus (GPa) = 22.30592 27.59446 24.95019
#
# Velocity S-wave (km/s) = 3.49983 3.89267 3.70146
# Velocity P-wave (km/s) = 6.09508 7.68970 6.93835
#
# Compressibility (1/GPa) = 0.02637717
#
# Stress axis : x y z
#
# Youngs Moduli (GPa) = 50.18512 40.26333 121.30076
#
# Poissons Ratio (x) = 0.06680 0.84900
# Poissons Ratio (y) = 0.08326 0.56486
# Poissons Ratio (z) = 0.35125 0.18749
#
# Static dielectric constant tensor:
#      x y z
#    x 3.137010 0.000000 0.113020 
#    y 0.000000 2.999120 0.000000 
#    z 0.113020 0.000000 3.984750 
# 
# 
# High freq. dielectric constant tensor:
#      x y z
#    x 1.659150 0.000000 0.007590 
#    y 0.000000 1.672580 0.000000 
#    z 0.007590 0.000000 1.738520 
# 
# From -- ./inp_files/313774.got.cif
#   From: 2010.06.25/outbox.cif.g09.slc.cpg/sg12_157_cif.got.tgz:313774.got - 2010.06.28 00:19:55.
