data_PCOD8081773
_publ_section_title
;
Structure prediction by ZEFSAII (Michael W. Deem and Ramdas Pophale) SiO2 
 PCOD8081773
Probable space group: C 2/M
;
_chemical_formula_sum "Si O2"
_cell_formula_units_Z 56
_cell_length_a 9.268283
_cell_length_b 24.189033
_cell_length_c 13.921450
_cell_angle_alpha 90.000000
_cell_angle_beta 69.018736
_cell_angle_gamma 90.000000
_cell_volume 2914.127110
_symmetry_space_group_name_H-M "C 2/M"
_symmetry_group_IT_number 12
_symmetry_cell_setting 'monoclinic'
loop_
_space_group_symop_operation_xyz
x,y,z
-x,y,-z
-x,-y,-z
x,-y,z
1/2+x,1/2+y,z
1/2-x,1/2+y,-z
1/2-x,1/2-y,-z
1/2+x,1/2-y,z
loop_
_atom_site_type_symbol
_atom_site_label
_atom_site_fract_x
_atom_site_fract_y
_atom_site_fract_z
Si Si1 0.458198 0.216389 0.121466
Si Si2 0.172890 0.838113 0.285745
Si Si3 0.665276 0.123768 0.142981
Si Si4 0.339826 0.236661 0.573414
Si Si5 0.816741 0.439876 0.040162
Si Si6 0.146852 0.436659 0.754395
Si Si7 0.880569 0.171865 0.238965
O O1 0.296826 0.185568 0.179240
O O2 0.592046 0.184787 0.149256
O O3 0.454264 0.278648 0.159530
O O4 0.500000 0.214392 0.000000
O O5 0.128660 0.792418 0.374468
O O6 0.248700 0.890864 0.325984
O O7 0.017864 0.856111 0.266493
O O8 0.534663 0.079044 0.205190
O O9 0.802142 0.126410 0.188246
O O10 0.742076 0.105013 0.023130
O O11 0.500000 0.210007 0.500000
O O12 0.250000 0.250000 0.500000
O O13 0.252376 0.192211 0.658125
O O14 0.756452 0.500000 0.021170
O O15 0.770441 0.428528 0.160849
O O16 0.000000 0.438653 0.000000
O O17 0.164763 0.500000 0.713246
#
# Coordination Sequence:
#
# PCOD8081773 Si02
#       7
#     8   8   8   8   8   8   8
#     4  10  20  33  49  71 112 158 187 213 260 331
#     4  10  21  36  54  83 112 141 186 224 278 331
#     4  10  18  30  51  73 105 143 189 226 266 318
#     4  11  22  39  63  85 111 143 182 229 279 333
#     4   8  14  28  50  74  97 136 191 232 261 306
#     4   9  18  34  56  77 105 145 191 233 272 325
#     4  11  23  34  49  84 115 142 180 229 276 336
#
# _framework density 19.216732
#
# number of rings (size 3 to 8) (size 9 to 14) (size 15 to 20)
#    0.000    2.143    1.429    5.143    4.000    3.429 
#    0.000    1.429    0.000    2.143    0.000    1.000 
#    0.000    0.000    0.000    0.000    0.000    0.000 
#
# Total GULP energy -346998.070732 kJ/mol
# GULP energy per Si atom -12392.788240 kJ/mol
# Density = 1.917299 g / cm^3
# Si number density = 19.216732 Si / 1000 Ang^3
#
#
#
# Elastic Constant Matrix: (Units=GPa)
#
#
# Indices 1 2 3 4 5 6 
#
# 1 89.1964 13.0210 13.3105 0.0000 13.8839 0.0000
# 2 13.0210 74.0325 -0.4112 0.0000 -0.7818 0.0000
# 3 13.3105 -0.4112 58.4602 0.0000 0.1918 0.0000
# 4 0.0000 0.0000 0.0000 13.0972 0.0000 2.4344
# 5 13.8839 -0.7818 0.1918 0.0000 28.3241 0.0000
# 6 0.0000 0.0000 0.0000 2.4344 0.0000 11.7560
#
#
#
# Elastic Compliance Matrix: (Units=1/GPa)
#
#
# Indices 1 2 3 4 5 6 
#
# 1 0.012997 -0.002370 -0.002955 0.000000 -0.006416 0.000000
# 2 -0.002370 0.013944 0.000633 0.000000 0.001542 0.000000
# 3 -0.002955 0.000633 0.017778 0.000000 0.001345 0.000000
# 4 0.000000 0.000000 0.000000 0.079408 0.000000 -0.016444
# 5 -0.006416 0.001542 0.001345 0.000000 0.038484 0.000000
# 6 0.000000 0.000000 0.000000 -0.016444 0.000000 0.088468
#
#
# Mechanical properties :
#
#
# Convention : Reuss Voigt Hill
#
# Bulk Modulus (GPa) = 28.30049 30.39219 29.34634
# Shear Modulus (GPa) = 18.36595 23.68672 21.02634
#
# Velocity S-wave (km/s) = 3.09484 3.51466 3.31141
# Velocity P-wave (km/s) = 5.24687 5.68509 5.47037
#
# Compressibility (1/GPa) = 0.03533508
#
# Stress axis : x y z
#
# Youngs Moduli (GPa) = 76.94174 71.71427 56.24781
#
# Poissons Ratio (x) = 0.16997 0.16620
# Poissons Ratio (y) = 0.18236 -0.03559
# Poissons Ratio (z) = 0.22735 -0.04537
#
# Static dielectric constant tensor:
#      x y z
#    x 3.415250 0.000000 0.027450 
#    y 0.000000 3.643400 0.000000 
#    z 0.027450 0.000000 3.431960 
# 
# 
# High freq. dielectric constant tensor:
#      x y z
#    x 1.736760 0.000000 -0.000380 
#    y 0.000000 1.734440 0.000000 
#    z -0.000380 0.000000 1.722580 
# 
# From -- ./inp_files/199305.got.cif
#   From: 2010.06.25/outbox.cif.g09.slc.cpg/sg12_100_cif.got.tgz:199305.got - 2010.06.28 00:19:55.
