data_PCOD8081257
_publ_section_title
;
Structure prediction by ZEFSAII (Michael W. Deem and Ramdas Pophale) SiO2 
 PCOD8081257
Probable space group: C 2/M
;
_chemical_formula_sum "Si O2"
_cell_formula_units_Z 64
_cell_length_a 25.293504
_cell_length_b 8.943667
_cell_length_c 17.700949
_cell_angle_alpha 90.000000
_cell_angle_beta 85.549174
_cell_angle_gamma 90.000000
_cell_volume 3992.174263
_symmetry_space_group_name_H-M "C 2/M"
_symmetry_group_IT_number 12
_symmetry_cell_setting 'monoclinic'
loop_
_space_group_symop_operation_xyz
x,y,z
-x,y,-z
-x,-y,-z
x,-y,z
1/2+x,1/2+y,z
1/2-x,1/2+y,-z
1/2-x,1/2-y,-z
1/2+x,1/2-y,z
loop_
_atom_site_type_symbol
_atom_site_label
_atom_site_fract_x
_atom_site_fract_y
_atom_site_fract_z
Si Si1 0.456809 0.678320 0.319730
Si Si2 0.348634 0.825997 0.598603
Si Si3 0.430400 0.178399 0.712675
Si Si4 0.557265 0.334900 0.844422
Si Si5 0.765191 0.824319 0.420193
Si Si6 0.368785 0.821920 0.426852
Si Si7 0.931371 0.833134 0.865221
Si Si8 0.936745 0.667038 0.011284
O O1 0.460812 0.500000 0.328330
O O2 0.514959 0.747641 0.319347
O O3 0.429908 0.720808 0.241926
O O4 0.422471 0.751610 0.389285
O O5 0.386128 0.759391 0.659409
O O6 0.286617 0.795986 0.626930
O O7 0.363676 0.763582 0.513796
O O8 0.359871 0.000000 0.592987
O O9 0.412155 0.231902 0.797590
O O10 0.436203 0.000000 0.712486
O O11 0.580799 0.500000 0.855097
O O12 0.494369 0.339487 0.859430
O O13 0.582572 0.228422 0.905177
O O14 0.750000 0.750000 0.500000
O O15 0.818522 0.743187 0.384477
O O16 0.776075 0.000000 0.429035
O O17 0.369802 0.000000 0.419239
O O18 0.911189 0.762978 0.946325
O O19 0.907807 0.000000 0.859853
O O20 0.915026 0.500000 0.005746
O O21 0.000000 0.671480 0.000000
#
# Coordination Sequence:
#
# PCOD8081257 Si02
#       8
#     8   8   8   8   8   8   8   8
#     4  10  20  32  43  61  89 120 149 179 218 260
#     4   8  17  31  47  65  86 113 144 179 222 264
#     4  10  18  30  45  61  85 118 151 181 213 255
#     4   8  15  26  38  52  77 110 140 172 212 253
#     4   9  16  30  49  68  87 108 138 179 225 267
#     4  10  19  32  48  66  86 113 148 184 222 261
#     4   9  16  26  38  55  81 111 141 174 213 253
#     4   9  15  22  36  57  77 102 140 177 208 247
#
# _framework density 16.031365000000001
#
# number of rings (size 3 to 8) (size 9 to 14) (size 15 to 20)
#    0.000    2.875    0.000    3.750    0.000    5.500 
#    0.000   10.000    0.000    0.000    0.000    0.000 
#    0.000    1.000    0.000    3.000    0.000    5.125 
#
# Total GULP energy -396544.281735 kJ/mol
# GULP energy per Si atom -12392.008804 kJ/mol
# Density = 1.599488 g / cm^3
# Si number density = 16.031365 Si / 1000 Ang^3
#
#
#
# Elastic Constant Matrix: (Units=GPa)
#
#
# Indices 1 2 3 4 5 6 
#
# 1 62.1504 33.4149 37.4524 0.0000 17.2714 0.0000
# 2 33.4149 93.9838 38.0257 0.0000 11.1405 0.0000
# 3 37.4524 38.0257 85.6498 0.0000 19.8184 0.0000
# 4 0.0000 0.0000 0.0000 26.4843 0.0000 -2.1986
# 5 17.2714 11.1405 19.8184 0.0000 8.2517 0.0000
# 6 0.0000 0.0000 0.0000 -2.1986 0.0000 17.1823
#
#
#
# Elastic Compliance Matrix: (Units=1/GPa)
#
#
# Indices 1 2 3 4 5 6 
#
# 1 0.041863 -0.006251 0.006284 0.000000 -0.094274 0.000000
# 2 -0.006251 0.014160 -0.004855 0.000000 0.005629 0.000000
# 3 0.006284 -0.004855 0.028384 0.000000 -0.074768 0.000000
# 4 0.000000 0.000000 0.000000 0.038164 0.000000 0.004883
# 5 -0.094274 0.005629 -0.074768 0.000000 0.490483 0.000000
# 6 0.000000 0.000000 0.000000 0.004883 0.000000 0.058824
#
#
# Mechanical properties :
#
#
# Convention : Reuss Voigt Hill
#
# Bulk Modulus (GPa) = 13.37606 51.06334 32.21970
# Shear Modulus (GPa) = 7.07771 19.24305 13.16038
#
# Velocity S-wave (km/s) = 2.10345 3.46835 2.86827
# Velocity P-wave (km/s) = 3.77639 6.92535 5.57771
#
# Compressibility (1/GPa) = 0.07476043
#
# Stress axis : x y z
#
# Youngs Moduli (GPa) = 23.88763 70.62125 35.23146
#
# Poissons Ratio (x) = 0.44148 -0.22139
# Poissons Ratio (y) = 0.14933 0.17107
# Poissons Ratio (z) = -0.15011 0.34290
#
# Static dielectric constant tensor:
#      x y z
#    x 2.913520 0.000000 0.151240 
#    y 0.000000 3.164070 0.000000 
#    z 0.151240 0.000000 3.206470 
# 
# 
# High freq. dielectric constant tensor:
#      x y z
#    x 1.566920 0.000000 0.008810 
#    y 0.000000 1.625430 0.000000 
#    z 0.008810 0.000000 1.608170 
# 
# From -- ./inp_files/287617.got.cif
#   From: 2010.06.25/outbox.cif.g09.slc.cpg/sg12_144_cif.got.tgz:287617.got - 2010.06.28 00:19:55.
