data_PCOD8081196
_publ_section_title
;
Structure prediction by ZEFSAII (Michael W. Deem and Ramdas Pophale) SiO2 
 PCOD8081196
Probable space group: C 2/M
;
_chemical_formula_sum "Si O2"
_cell_formula_units_Z 64
_cell_length_a 12.339645
_cell_length_b 13.681470
_cell_length_c 18.622186
_cell_angle_alpha 90.000000
_cell_angle_beta 116.285820
_cell_angle_gamma 90.000000
_cell_volume 2818.791240
_symmetry_space_group_name_H-M "C 2/M"
_symmetry_group_IT_number 12
_symmetry_cell_setting 'monoclinic'
loop_
_space_group_symop_operation_xyz
x,y,z
-x,y,-z
-x,-y,-z
x,-y,z
1/2+x,1/2+y,z
1/2-x,1/2+y,-z
1/2-x,1/2-y,-z
1/2+x,1/2-y,z
loop_
_atom_site_type_symbol
_atom_site_label
_atom_site_fract_x
_atom_site_fract_y
_atom_site_fract_z
Si Si1 0.405148 0.107754 0.044188
Si Si2 0.773952 0.389968 0.451586
Si Si3 0.635101 0.686261 0.543961
Si Si4 0.820362 0.115587 0.290850
Si Si5 0.942261 0.888640 0.717809
Si Si6 0.960834 0.804169 0.119889
Si Si7 0.703173 0.807840 0.121675
Si Si8 0.350986 0.391110 0.953863
O O1 0.489678 0.191463 0.105278
O O2 0.273777 0.120234 0.040336
O O3 0.457917 0.000000 0.074373
O O4 0.389350 0.125298 0.953228
O O5 0.830711 0.500000 0.466110
O O6 0.707176 0.376140 0.507056
O O7 0.871093 0.303174 0.473222
O O8 0.684025 0.375584 0.358622
O O9 0.500000 0.645018 0.500000
O O10 0.700253 0.666301 0.638632
O O11 0.715744 0.150730 0.205617
O O12 0.951088 0.152567 0.301499
O O13 0.813980 0.000000 0.298548
O O14 0.937123 0.835182 0.793328
O O15 0.973439 0.000000 0.744085
O O16 0.832131 0.812374 0.120820
O O17 0.956504 0.872575 0.045906
O O18 0.651923 0.694885 0.108282
O O19 0.363252 0.500000 0.924429
#
# Coordination Sequence:
#
# PCOD8081196 Si02
#       8
#     8   8   8   8   8   8   8   8
#     4   8  12  19  32  53  90 137 176 214 264 317
#     4  10  22  39  60  86 115 148 184 225 277 337
#     4  11  22  38  61  87 114 145 183 229 279 335
#     4  10  18  29  51  79 106 137 179 231 278 321
#     4   9  16  28  49  77 105 135 177 227 272 318
#     4   8  13  20  35  61  95 132 175 221 265 312
#     4   8  14  22  34  62  97 132 175 223 268 316
#     4   8  12  19  32  54  91 135 174 216 266 317
#
# _framework density 22.704768000000001
#
# number of rings (size 3 to 8) (size 9 to 14) (size 15 to 20)
#    0.000    3.000    1.250    2.625    0.000    3.750 
#    0.000    0.625    0.000    4.500    0.000    3.500 
#    0.000   14.000    0.000    0.000    0.000    1.500 
#
# Total GULP energy -396811.257064 kJ/mol
# GULP energy per Si atom -12400.351783 kJ/mol
# Density = 2.265309 g / cm^3
# Si number density = 22.704768 Si / 1000 Ang^3
#
#
#
# Elastic Constant Matrix: (Units=GPa)
#
#
# Indices 1 2 3 4 5 6 
#
# 1 37.7681 9.7234 20.7433 0.0000 -8.8379 0.0000
# 2 9.7234 134.8836 42.5781 0.0000 -13.6507 0.0000
# 3 20.7433 42.5781 136.2203 0.0000 -21.4168 0.0000
# 4 0.0000 0.0000 0.0000 36.3116 0.0000 0.1529
# 5 -8.8379 -13.6507 -21.4168 0.0000 27.4613 0.0000
# 6 0.0000 0.0000 0.0000 0.1529 0.0000 23.6329
#
#
#
# Elastic Compliance Matrix: (Units=1/GPa)
#
#
# Indices 1 2 3 4 5 6 
#
# 1 0.030033 -0.000409 -0.003371 0.000000 0.006833 0.000000
# 2 -0.000409 0.008369 -0.002189 0.000000 0.002322 0.000000
# 3 -0.003371 -0.002189 0.009342 0.000000 0.005113 0.000000
# 4 0.000000 0.000000 0.000000 0.027540 0.000000 -0.000178
# 5 0.006833 0.002322 0.005113 0.000000 0.043756 0.000000
# 6 0.000000 0.000000 0.000000 -0.000178 0.000000 0.042315
#
#
# Mechanical properties :
#
#
# Convention : Reuss Voigt Hill
#
# Bulk Modulus (GPa) = 27.92780 50.55129 39.23955
# Shear Modulus (GPa) = 26.99357 33.20298 30.09827
#
# Velocity S-wave (km/s) = 3.45178 3.82826 3.64488
# Velocity P-wave (km/s) = 5.31163 6.46944 5.91892
#
# Compressibility (1/GPa) = 0.03580661
#
# Stress axis : x y z
#
# Youngs Moduli (GPa) = 33.29644 119.48689 107.03917
#
# Poissons Ratio (x) = 0.04891 0.36084
# Poissons Ratio (y) = 0.01363 0.23426
# Poissons Ratio (z) = 0.11225 0.26151
#
# Static dielectric constant tensor:
#      x y z
#    x 4.283920 0.000000 -0.115390 
#    y 0.000000 4.199020 0.000000 
#    z -0.115390 0.000000 4.054700 
# 
# 
# High freq. dielectric constant tensor:
#      x y z
#    x 1.920370 0.000000 -0.010190 
#    y 0.000000 1.898340 0.000000 
#    z -0.010190 0.000000 1.881510 
# 
# From -- ./inp_files/270334.got.cif
#   From: 2010.06.25/outbox.cif.g09.slc.cpg/sg12_136_cif.got.tgz:270334.got - 2010.06.28 00:19:55.
