data_PCOD8081851
_publ_section_title
;
Structure prediction by ZEFSAII (Michael W. Deem and Ramdas Pophale) SiO2 
 PCOD8081851
Probable space group: C 2/M
;
_chemical_formula_sum "Si O2"
_cell_formula_units_Z 64
_cell_length_a 25.392363
_cell_length_b 9.001213
_cell_length_c 14.877732
_cell_angle_alpha 90.000000
_cell_angle_beta 100.579101
_cell_angle_gamma 90.000000
_cell_volume 3342.685041
_symmetry_space_group_name_H-M "C 2/M"
_symmetry_group_IT_number 12
_symmetry_cell_setting 'monoclinic'
loop_
_space_group_symop_operation_xyz
x,y,z
-x,y,-z
-x,-y,-z
x,-y,z
1/2+x,1/2+y,z
1/2-x,1/2+y,-z
1/2-x,1/2-y,-z
1/2+x,1/2-y,z
loop_
_atom_site_type_symbol
_atom_site_label
_atom_site_fract_x
_atom_site_fract_y
_atom_site_fract_z
Si Si1 0.857157 0.673551 0.475435
Si Si2 0.616714 0.676587 0.829311
Si Si3 0.003662 0.163928 0.752242
Si Si4 0.606462 0.825611 0.318161
Si Si5 0.305404 0.676477 0.989968
Si Si6 0.306192 0.674768 0.305918
Si Si7 0.308785 0.826220 0.806652
Si Si8 0.048723 0.164114 0.570959
O O1 0.845725 0.500000 0.477170
O O2 0.870985 0.737836 0.579420
O O3 0.807927 0.750613 0.406437
O O4 0.905855 0.713288 0.424907
O O5 0.615177 0.500000 0.825949
O O6 0.554692 0.734267 0.822742
O O7 0.646537 0.730270 0.746786
O O8 0.649869 0.731879 0.925741
O O9 0.030947 0.145084 0.665667
O O10 0.950942 0.263588 0.731051
O O11 0.987200 0.000000 0.783741
O O12 0.649301 0.781981 0.256863
O O13 0.598799 0.000000 0.326069
O O14 0.298634 0.500000 0.989490
O O15 0.324152 0.731206 0.898429
O O16 0.250000 0.750000 0.000000
O O17 0.310203 0.500000 0.322862
O O18 0.250064 0.719524 0.244180
O O19 0.311499 0.000000 0.831180
O O20 0.000000 0.229843 0.500000
O O21 0.066854 0.000000 0.540294
#
# Coordination Sequence:
#
# PCOD8081851 Si02
#       8
#     8   8   8   8   8   8   8   8
#     4  11  22  33  50  82 119 150 186 236 289 336
#     4   9  18  34  57  87 116 142 178 229 286 337
#     4  10  19  34  57  81 109 147 193 233 272 331
#     4  10  23  40  55  77 116 158 192 230 284 338
#     4  11  21  37  63  93 119 144 182 234 289 343
#     4  10  19  36  59  81 110 150 189 230 282 338
#     4  10  22  42  62  80 110 154 194 232 283 342
#     4  10  18  30  51  78 106 144 194 236 272 328
#
# _framework density 19.146284999999999
#
# number of rings (size 3 to 8) (size 9 to 14) (size 15 to 20)
#    0.000    1.875    3.750    0.750    0.000    2.750 
#    0.000    1.875    0.000    3.750    0.000    0.000 
#    0.000    0.000    0.000    0.000    0.000    0.000 
#
# Total GULP energy -396517.245729 kJ/mol
# GULP energy per Si atom -12391.163929 kJ/mol
# Density = 1.910271 g / cm^3
# Si number density = 19.146285 Si / 1000 Ang^3
#
#
#
# Elastic Constant Matrix: (Units=GPa)
#
#
# Indices 1 2 3 4 5 6 
#
# 1 91.2545 25.8246 61.7193 0.0000 9.2461 0.0000
# 2 25.8246 44.3865 39.4371 0.0000 2.5872 0.0000
# 3 61.7193 39.4371 126.8143 0.0000 24.0798 0.0000
# 4 0.0000 0.0000 0.0000 30.1654 0.0000 2.1953
# 5 9.2461 2.5872 24.0798 0.0000 34.1839 0.0000
# 6 0.0000 0.0000 0.0000 2.1953 0.0000 28.0332
#
#
#
# Elastic Compliance Matrix: (Units=1/GPa)
#
#
# Indices 1 2 3 4 5 6 
#
# 1 0.016730 -0.003324 -0.007269 0.000000 0.000847 0.000000
# 2 -0.003324 0.032598 -0.009491 0.000000 0.005118 0.000000
# 3 -0.007269 -0.009491 0.016006 0.000000 -0.008591 0.000000
# 4 0.000000 0.000000 0.000000 0.033341 0.000000 -0.002611
# 5 0.000847 0.005118 -0.008591 0.000000 0.034688 0.000000
# 6 0.000000 0.000000 0.000000 -0.002611 0.000000 0.035876
#
#
# Mechanical properties :
#
#
# Convention : Reuss Voigt Hill
#
# Bulk Modulus (GPa) = 39.73871 57.37970 48.55920
# Shear Modulus (GPa) = 22.95706 27.50811 25.23258
#
# Velocity S-wave (km/s) = 3.46646 3.79454 3.63421
# Velocity P-wave (km/s) = 6.06813 7.01657 6.55951
#
# Compressibility (1/GPa) = 0.02516438
#
# Stress axis : x y z
#
# Youngs Moduli (GPa) = 59.77338 30.67659 62.47527
#
# Poissons Ratio (x) = 0.10198 0.45415
# Poissons Ratio (y) = 0.19870 0.59298
# Poissons Ratio (z) = 0.43451 0.29116
#
# Static dielectric constant tensor:
#      x y z
#    x 3.539230 0.000000 0.261530 
#    y 0.000000 3.313300 0.000000 
#    z 0.261530 0.000000 3.744820 
# 
# 
# High freq. dielectric constant tensor:
#      x y z
#    x 1.741820 0.000000 0.023090 
#    y 0.000000 1.719380 0.000000 
#    z 0.023090 0.000000 1.749290 
# 
# From -- ./inp_files/244113.got.cif
#   From: 2010.06.25/outbox.cif.g09.slc.cpg/sg12_123_cif.got.tgz:244113.got - 2010.06.28 00:19:55.
