data_PCOD8081641
_publ_section_title
;
Structure prediction by ZEFSAII (Michael W. Deem and Ramdas Pophale) SiO2 
 PCOD8081641
Probable space group: C 2/M
;
_chemical_formula_sum "Si O2"
_cell_formula_units_Z 64
_cell_length_a 24.782488
_cell_length_b 9.279826
_cell_length_c 20.046336
_cell_angle_alpha 90.000000
_cell_angle_beta 130.385502
_cell_angle_gamma 90.000000
_cell_volume 3511.599672
_symmetry_space_group_name_H-M "C 2/M"
_symmetry_group_IT_number 12
_symmetry_cell_setting 'monoclinic'
loop_
_space_group_symop_operation_xyz
x,y,z
-x,y,-z
-x,-y,-z
x,-y,z
1/2+x,1/2+y,z
1/2-x,1/2+y,-z
1/2-x,1/2-y,-z
1/2+x,1/2-y,z
loop_
_atom_site_type_symbol
_atom_site_label
_atom_site_fract_x
_atom_site_fract_y
_atom_site_fract_z
Si Si1 0.311954 0.667061 0.586449
Si Si2 0.311958 0.330192 0.738341
Si Si3 0.676089 0.668128 0.872299
Si Si4 0.329468 0.670853 0.361557
Si Si5 0.585485 0.668082 0.444655
Si Si6 0.070434 0.829534 0.677311
Si Si7 0.920473 0.829590 0.937261
Si Si8 0.182385 0.168812 0.029184
O O1 0.291317 0.500000 0.567672
O O2 0.250000 0.750000 0.500000
O O3 0.324647 0.719296 0.672200
O O4 0.384725 0.697540 0.605309
O O5 0.298353 0.500000 0.732876
O O6 0.244125 0.248616 0.713160
O O7 0.379889 0.284659 0.836854
O O8 0.691953 0.500000 0.874534
O O9 0.608879 0.720630 0.775817
O O10 0.744012 0.751372 0.898600
O O11 0.657475 0.703552 0.933996
O O12 0.316399 0.500000 0.350230
O O13 0.360082 0.729212 0.456508
O O14 0.385283 0.721443 0.350845
O O15 0.578061 0.500000 0.454106
O O16 0.507954 0.740948 0.388096
O O17 0.062833 0.000000 0.671157
O O18 0.877120 0.772720 0.967193
O O19 0.926487 0.000000 0.947385
O O20 0.000000 0.762644 0.000000
O O21 0.195700 0.000000 0.050814
#
# Coordination Sequence:
#
# PCOD8081641 Si02
#       8
#     8   8   8   8   8   8   8   8
#     4  10  19  32  50  71  95 123 158 198 237 278
#     4  10  20  32  50  74  97 125 161 199 237 281
#     4   9  17  29  47  71  94 120 154 195 237 279
#     4  10  18  30  50  71  94 126 159 193 237 285
#     4   9  17  29  46  69  94 122 155 194 237 277
#     4   9  17  28  45  71  97 119 155 200 236 275
#     4   9  18  32  49  71  98 127 160 198 239 282
#     4   9  17  30  49  69  92 123 156 192 236 283
#
# _framework density 18.225311999999999
#
# number of rings (size 3 to 8) (size 9 to 14) (size 15 to 20)
#    0.000    2.625    1.250    1.125    0.000    2.500 
#    0.000    5.000    0.000    5.250    0.000    3.500 
#    0.000    0.000    0.000    0.000    0.000    0.000 
#
# Total GULP energy -396724.710836 kJ/mol
# GULP energy per Si atom -12397.647214 kJ/mol
# Density = 1.818383 g / cm^3
# Si number density = 18.225312 Si / 1000 Ang^3
#
#
#
# Elastic Constant Matrix: (Units=GPa)
#
#
# Indices 1 2 3 4 5 6 
#
# 1 135.8256 26.5277 78.7966 0.0000 5.1367 0.0000
# 2 26.5277 20.8411 23.6865 0.0000 3.6349 0.0000
# 3 78.7966 23.6865 137.9879 0.0000 8.9918 0.0000
# 4 0.0000 0.0000 0.0000 19.1803 0.0000 2.9903
# 5 5.1367 3.6349 8.9918 0.0000 32.7676 0.0000
# 6 0.0000 0.0000 0.0000 2.9903 0.0000 19.2331
#
#
#
# Elastic Compliance Matrix: (Units=1/GPa)
#
#
# Indices 1 2 3 4 5 6 
#
# 1 0.012396 -0.009686 -0.005457 0.000000 0.000629 0.000000
# 2 -0.009686 0.067667 -0.005798 0.000000 -0.004397 0.000000
# 3 -0.005457 -0.005798 0.011466 0.000000 -0.001648 0.000000
# 4 0.000000 0.000000 0.000000 0.053432 0.000000 -0.008307
# 5 0.000629 -0.004397 -0.001648 0.000000 0.031359 0.000000
# 6 0.000000 0.000000 0.000000 -0.008307 0.000000 0.053285
#
#
# Mechanical properties :
#
#
# Convention : Reuss Voigt Hill
#
# Bulk Modulus (GPa) = 20.14204 61.40844 40.77524
# Shear Modulus (GPa) = 17.35889 25.27912 21.31901
#
# Velocity S-wave (km/s) = 3.08954 3.72833 3.42387
# Velocity P-wave (km/s) = 4.87880 7.23195 6.16862
#
# Compressibility (1/GPa) = 0.04964740
#
# Stress axis : x y z
#
# Youngs Moduli (GPa) = 80.67041 14.77817 87.21605
#
# Poissons Ratio (x) = 0.14314 0.47593
# Poissons Ratio (y) = 0.78138 0.50567
# Poissons Ratio (z) = 0.44022 0.08568
#
# Static dielectric constant tensor:
#      x y z
#    x 3.605450 0.000000 -0.005230 
#    y 0.000000 2.945420 0.000000 
#    z -0.005230 0.000000 3.611340 
# 
# 
# High freq. dielectric constant tensor:
#      x y z
#    x 1.715980 0.000000 -0.007380 
#    y 0.000000 1.655590 0.000000 
#    z -0.007380 0.000000 1.716180 
# 
# From -- ./inp_files/324228.got.cif
#   From: 2010.06.25/outbox.cif.g09.slc.cpg/sg12_163_cif.got.tgz:324228.got - 2010.06.28 00:19:55.
