data_PCOD8081112
_publ_section_title
;
Structure prediction by ZEFSAII (Michael W. Deem and Ramdas Pophale) SiO2 
 PCOD8081112
Probable space group: C 2/M
;
_chemical_formula_sum "Si O2"
_cell_formula_units_Z 64
_cell_length_a 26.373247
_cell_length_b 16.399233
_cell_length_c 19.153791
_cell_angle_alpha 90.000000
_cell_angle_beta 154.701116
_cell_angle_gamma 90.000000
_cell_volume 3540.101274
_symmetry_space_group_name_H-M "C 2/M"
_symmetry_group_IT_number 12
_symmetry_cell_setting 'monoclinic'
loop_
_space_group_symop_operation_xyz
x,y,z
-x,y,-z
-x,-y,-z
x,-y,z
1/2+x,1/2+y,z
1/2-x,1/2+y,-z
1/2-x,1/2-y,-z
1/2+x,1/2-y,z
loop_
_atom_site_type_symbol
_atom_site_label
_atom_site_fract_x
_atom_site_fract_y
_atom_site_fract_z
Si Si1 0.292003 0.275195 0.362757
Si Si2 0.179822 0.408234 0.409376
Si Si3 0.181537 0.405614 0.960920
Si Si4 0.038922 0.326185 0.350272
Si Si5 0.439201 0.175359 0.856676
Si Si6 0.876249 0.173985 0.107679
Si Si7 0.333041 0.217500 0.934864
Si Si8 0.605421 0.591762 0.411920
O O1 0.377800 0.195451 0.479570
O O2 0.169047 0.265820 0.253093
O O3 0.268116 0.286195 0.250668
O O4 0.363462 0.352541 0.482468
O O5 0.164980 0.500000 0.419978
O O6 0.133658 0.342211 0.406796
O O7 0.105718 0.399810 0.245492
O O8 0.315527 0.387692 0.558093
O O9 0.219454 0.500000 0.014070
O O10 0.277760 0.351797 0.040336
O O11 0.171331 0.366312 0.025479
O O12 0.053962 0.401601 0.760621
O O13 0.952824 0.251287 0.226671
O O14 0.500000 0.134744 0.000000
O O15 0.536343 0.228187 0.935815
O O16 0.969633 0.100408 0.216966
O O17 0.812215 0.201099 0.955802
O O18 0.628742 0.500000 0.465905
#
# Coordination Sequence:
#
# PCOD8081112 Si02
#       8
#     8   8   8   8   8   8   8   8
#     4   9  20  32  52  81 112 141 168 214 262 321
#     4  10  18  29  49  78 108 143 175 211 264 315
#     4  11  22  37  57  79 104 137 181 225 265 309
#     4  10  19  33  54  77 108 138 179 218 258 312
#     4   9  17  29  48  79 113 139 169 206 260 320
#     4  10  20  35  56  74 102 141 185 224 249 307
#     4  10  19  34  54  80 107 139 177 214 265 314
#     4   9  19  33  51  77 109 141 175 214 260 313
#
# _framework density 18.078579000000001
#
# number of rings (size 3 to 8) (size 9 to 14) (size 15 to 20)
#    0.000    2.250    2.500    2.250    1.750    2.250 
#    0.000    8.125    0.000    7.500    0.000    1.750 
#    0.000    0.000    0.000    0.000    0.000    0.000 
#
# Total GULP energy -396420.552974 kJ/mol
# GULP energy per Si atom -12388.142280 kJ/mol
# Density = 1.803743 g / cm^3
# Si number density = 18.078579 Si / 1000 Ang^3
#
#
#
# Elastic Constant Matrix: (Units=GPa)
#
#
# Indices 1 2 3 4 5 6 
#
# 1 88.4824 38.2760 47.6677 0.0000 1.9683 0.0000
# 2 38.2760 55.2259 41.1731 0.0000 -12.4859 0.0000
# 3 47.6677 41.1731 89.6193 0.0000 -4.2612 0.0000
# 4 0.0000 0.0000 0.0000 21.4564 0.0000 4.8416
# 5 1.9683 -12.4859 -4.2612 0.0000 23.3118 0.0000
# 6 0.0000 0.0000 0.0000 4.8416 0.0000 22.2228
#
#
#
# Elastic Compliance Matrix: (Units=1/GPa)
#
#
# Indices 1 2 3 4 5 6 
#
# 1 0.019335 -0.011232 -0.005536 0.000000 -0.008660 0.000000
# 2 -0.011232 0.038257 -0.010675 0.000000 0.019487 0.000000
# 3 -0.005536 -0.010675 0.018922 0.000000 -0.001792 0.000000
# 4 0.000000 0.000000 0.000000 0.049016 0.000000 -0.010679
# 5 -0.008660 0.019487 -0.001792 0.000000 0.053738 0.000000
# 6 0.000000 0.000000 0.000000 -0.010679 0.000000 0.047325
#
#
# Mechanical properties :
#
#
# Convention : Reuss Voigt Hill
#
# Bulk Modulus (GPa) = 46.23597 54.17344 50.20471
# Shear Modulus (GPa) = 17.31971 20.47893 18.89932
#
# Velocity S-wave (km/s) = 3.09855 3.36932 3.23677
# Velocity P-wave (km/s) = 6.19935 6.72064 6.46525
#
# Compressibility (1/GPa) = 0.02162818
#
# Stress axis : x y z
#
# Youngs Moduli (GPa) = 51.71895 26.13929 52.84807
#
# Poissons Ratio (x) = 0.29358 0.29257
# Poissons Ratio (y) = 0.58088 0.56417
# Poissons Ratio (z) = 0.28632 0.27905
#
# Static dielectric constant tensor:
#      x y z
#    x 3.320630 0.000000 0.169540 
#    y 0.000000 3.244830 0.000000 
#    z 0.169540 0.000000 3.704160 
# 
# 
# High freq. dielectric constant tensor:
#      x y z
#    x 1.689580 0.000000 0.021120 
#    y 0.000000 1.674800 0.000000 
#    z 0.021120 0.000000 1.701800 
# 
# From -- ./inp_files/290134.got.cif
#   From: 2010.06.25/outbox.cif.g09.slc.cpg/sg12_146_cif.got.tgz:290134.got - 2010.06.28 00:19:55.
