data_PCOD8081224
_publ_section_title
;
Structure prediction by ZEFSAII (Michael W. Deem and Ramdas Pophale) SiO2 
 PCOD8081224
Probable space group: C 2/M
;
_chemical_formula_sum "Si O2"
_cell_formula_units_Z 60
_cell_length_a 24.105166
_cell_length_b 20.639254
_cell_length_c 15.662551
_cell_angle_alpha 90.000000
_cell_angle_beta 25.234124
_cell_angle_gamma 90.000000
_cell_volume 3322.005918
_symmetry_space_group_name_H-M "C 2/M"
_symmetry_group_IT_number 12
_symmetry_cell_setting 'monoclinic'
loop_
_space_group_symop_operation_xyz
x,y,z
-x,y,-z
-x,-y,-z
x,-y,z
1/2+x,1/2+y,z
1/2-x,1/2+y,-z
1/2-x,1/2-y,-z
1/2+x,1/2-y,z
loop_
_atom_site_type_symbol
_atom_site_label
_atom_site_fract_x
_atom_site_fract_y
_atom_site_fract_z
Si Si1 0.886084 0.425378 0.896220
Si Si2 0.620074 0.576979 0.525166
Si Si3 0.000000 0.237911 0.500000
Si Si4 0.407138 0.385243 0.699290
Si Si5 0.081651 0.076228 0.766207
Si Si6 0.690906 0.576377 0.788224
Si Si7 0.396215 0.076724 0.075359
Si Si8 0.048370 0.362032 0.521742
O O1 0.925312 0.500000 0.825585
O O2 0.957051 0.380830 0.728258
O O3 0.731087 0.419430 0.100400
O O4 0.930969 0.404001 0.929274
O O5 0.604928 0.500000 0.539580
O O6 0.488567 0.610311 0.673629
O O7 0.635161 0.600895 0.601654
O O8 0.750023 0.602466 0.296953
O O9 0.889311 0.190300 0.694701
O O10 0.947953 0.283745 0.495499
O O11 0.500000 0.421623 0.500000
O O12 0.183296 0.095351 0.698612
O O13 0.065223 0.000000 0.790082
O O14 0.937834 0.103159 0.985926
O O15 0.713239 0.500000 0.769539
O O16 0.806789 0.615234 0.667558
O O17 0.394965 0.000000 0.087164
O O18 0.500000 0.105491 0.000000
O O19 0.000000 0.394462 0.500000
#
# Coordination Sequence:
#
# PCOD8081224 Si02
#       8
#     8   8   4   8   8   8   8   8
#     4  11  22  34  56  88 114 142 177 227 295 337
#     4  10  18  29  52  82 108 134 175 231 289 332
#     4   8  22  42  54  76 102 152 200 226 268 314
#     4  10  20  38  56  76 105 145 182 238 264 321
#     4   8  17  30  50  80 108 146 179 216 277 339
#     4   9  17  33  52  75 113 145 182 225 273 334
#     4   9  18  30  45  74 113 144 171 206 269 351
#     4  10  23  38  52  80 111 153 185 229 269 330
#
# _framework density 18.061377
#
# number of rings (size 3 to 8) (size 9 to 14) (size 15 to 20)
#    0.800    1.733    1.333    1.600    3.733    2.133 
#    0.000    0.000    0.000    0.800   13.867    0.000 
#    0.000    0.000    0.000    0.000    0.000    0.000 
#
# Total GULP energy -371687.826017 kJ/mol
# GULP energy per Si atom -12389.594201 kJ/mol
# Density = 1.802027 g / cm^3
# Si number density = 18.061377 Si / 1000 Ang^3
#
#
#
# Elastic Constant Matrix: (Units=GPa)
#
#
# Indices 1 2 3 4 5 6 
#
# 1 130.3753 27.4924 43.7949 0.0049 2.6528 -0.0034
# 2 27.4924 51.3124 16.5438 0.0274 6.1512 -0.0224
# 3 43.7949 16.5438 62.5308 0.0254 2.8236 -0.0204
# 4 0.0049 0.0274 0.0254 72.9138 0.0048 -35.5802
# 5 2.6528 6.1512 2.8236 0.0048 37.4378 -0.0029
# 6 -0.0034 -0.0224 -0.0204 -35.5802 -0.0029 45.7111
#
#
#
# Elastic Compliance Matrix: (Units=1/GPa)
#
#
# Indices 1 2 3 4 5 6 
#
# 1 0.010607 -0.003633 -0.006483 0.000002 0.000334 -0.000003
# 2 -0.003633 0.022912 -0.003370 -0.000004 -0.003253 0.000006
# 3 -0.006483 -0.003370 0.021452 -0.000003 -0.000605 0.000005
# 4 0.000002 -0.000004 -0.000003 0.022114 -0.000001 0.017213
# 5 0.000334 -0.003253 -0.000605 -0.000001 0.027267 -0.000001
# 6 -0.000003 0.000006 0.000005 0.017213 -0.000001 0.035275
#
#
# Mechanical properties :
#
#
# Convention : Reuss Voigt Hill
#
# Bulk Modulus (GPa) = 35.71714 46.65341 41.18528
# Shear Modulus (GPa) = 28.42006 41.63837 35.02921
#
# Velocity S-wave (km/s) = 3.97107 4.80665 4.40870
# Velocity P-wave (km/s) = 6.39095 7.52939 6.98341
#
# Compressibility (1/GPa) = 0.02799776
#
# Stress axis : x y z
#
# Youngs Moduli (GPa) = 94.27598 43.64599 46.61671
#
# Poissons Ratio (x) = 0.15857 0.30221
# Poissons Ratio (y) = 0.34251 0.15711
# Poissons Ratio (z) = 0.61118 0.14710
#
# Static dielectric constant tensor:
#      x y z
#    x 3.713730 0.000000 0.196760 
#    y 0.000000 2.856250 0.000000 
#    z 0.196760 0.000000 3.349220 
# 
# 
# High freq. dielectric constant tensor:
#      x y z
#    x 1.714650 0.000000 0.002940 
#    y 0.000000 1.642790 0.000000 
#    z 0.002940 0.000000 1.696690 
# 
# From -- ./inp_files/235629.got.cif
#   From: 2010.06.25/outbox.cif.g09.slc.cpg/sg12_118_cif.got.tgz:235629.got - 2010.06.28 00:19:55.
