data_PCOD8081660
_publ_section_title
;
Structure prediction by ZEFSAII (Michael W. Deem and Ramdas Pophale) SiO2 
 PCOD8081660
Probable space group: C 2/M
;
_chemical_formula_sum "Si O2"
_cell_formula_units_Z 44
_cell_length_a 14.461258
_cell_length_b 28.960719
_cell_length_c 11.257299
_cell_angle_alpha 90.000000
_cell_angle_beta 147.972879
_cell_angle_gamma 90.000000
_cell_volume 2500.277062
_symmetry_space_group_name_H-M "C 2/M"
_symmetry_group_IT_number 12
_symmetry_cell_setting 'monoclinic'
loop_
_space_group_symop_operation_xyz
x,y,z
-x,y,-z
-x,-y,-z
x,-y,z
1/2+x,1/2+y,z
1/2-x,1/2+y,-z
1/2-x,1/2-y,-z
1/2+x,1/2-y,z
loop_
_atom_site_type_symbol
_atom_site_label
_atom_site_fract_x
_atom_site_fract_y
_atom_site_fract_z
Si Si1 0.476685 0.551399 0.334659
Si Si2 0.000000 0.738458 0.500000
Si Si3 0.134236 0.790684 0.421745
Si Si4 0.764381 0.799237 0.956631
Si Si5 0.714770 0.116412 0.345158
Si Si6 0.170769 0.383410 0.022787
O O1 0.500000 0.547765 0.500000
O O2 0.472123 0.500000 0.273891
O O3 0.640182 0.579186 0.457978
O O4 0.295568 0.576909 0.104912
O O5 0.933507 0.774209 0.525144
O O6 0.847869 0.703764 0.287063
O O7 0.250000 0.750000 0.500000
O O8 0.255960 0.835054 0.559664
O O9 0.971461 0.805693 0.159713
O O10 0.686797 0.838060 0.959509
O O11 0.750000 0.750000 0.000000
O O12 0.728101 0.127308 0.219630
O O13 0.527841 0.097990 0.187333
#
# Coordination Sequence:
#
# PCOD8081660 Si02
#       6
#     8   4   8   8   8   8
#     4   9  18  31  48  72 103 136 175 219 261 311
#     4  10  22  34  50  72 106 140 174 222 258 300
#     4  11  21  33  51  75 105 140 180 213 257 316
#     4  10  19  33  49  70 102 135 171 211 253 305
#     4  10  18  30  50  73 102 139 173 209 261 315
#     4  10  19  31  50  73 103 139 173 210 261 317
#
# _framework density 17.598050000000001
#
# number of rings (size 3 to 8) (size 9 to 14) (size 15 to 20)
#    0.000    2.000    1.818    4.364    1.273    2.909 
#    0.000    3.636    0.000    0.000    0.000    0.636 
#    0.000    4.727    0.000    0.182    0.000    0.000 
#
# Total GULP energy -272653.024077 kJ/mol
# GULP energy per Si atom -12393.319276 kJ/mol
# Density = 1.755800 g / cm^3
# Si number density = 17.598050 Si / 1000 Ang^3
#
#
#
# Elastic Constant Matrix: (Units=GPa)
#
#
# Indices 1 2 3 4 5 6 
#
# 1 43.1110 32.7702 41.4919 0.0000 23.0934 0.0000
# 2 32.7702 132.4062 51.2752 0.0000 18.7802 0.0000
# 3 41.4919 51.2752 132.1298 0.0000 23.7183 0.0000
# 4 0.0000 0.0000 0.0000 22.1332 0.0000 4.9189
# 5 23.0934 18.7802 23.7183 0.0000 32.9712 0.0000
# 6 0.0000 0.0000 0.0000 4.9189 0.0000 23.1720
#
#
#
# Elastic Compliance Matrix: (Units=1/GPa)
#
#
# Indices 1 2 3 4 5 6 
#
# 1 0.049122 -0.005146 -0.008932 0.000000 -0.025049 0.000000
# 2 -0.005146 0.009687 -0.002067 0.000000 -0.000427 0.000000
# 3 -0.008932 -0.002067 0.011300 0.000000 -0.000696 0.000000
# 4 0.000000 0.000000 0.000000 0.047418 0.000000 -0.010066
# 5 -0.025049 -0.000427 -0.000696 0.000000 0.048618 0.000000
# 6 0.000000 0.000000 0.000000 -0.010066 0.000000 0.045292
#
#
# Mechanical properties :
#
#
# Convention : Reuss Voigt Hill
#
# Bulk Modulus (GPa) = 26.44080 62.08017 44.26049
# Shear Modulus (GPa) = 19.50585 27.79591 23.65088
#
# Velocity S-wave (km/s) = 3.33289 3.97859 3.66997
# Velocity P-wave (km/s) = 5.46519 7.51391 6.56990
#
# Compressibility (1/GPa) = 0.03782034
#
# Stress axis : x y z
#
# Youngs Moduli (GPa) = 20.35737 103.23174 88.49485
#
# Poissons Ratio (x) = 0.53119 0.79045
# Poissons Ratio (y) = 0.10475 0.18289
# Poissons Ratio (z) = 0.18183 0.21335
#
# Static dielectric constant tensor:
#      x y z
#    x 2.933620 0.000000 -0.013680 
#    y 0.000000 3.171750 0.000000 
#    z -0.013680 0.000000 4.032590 
# 
# 
# High freq. dielectric constant tensor:
#      x y z
#    x 1.643990 0.000000 0.033550 
#    y 0.000000 1.670320 0.000000 
#    z 0.033550 0.000000 1.688420 
# 
# From -- ./inp_files/149546.got.cif
#   From: 2010.06.25/outbox.cif.g09.slc.cpg/sg12_75_cif.got.tgz:149546.got - 2010.06.28 00:19:55.
