data_PCOD8081150
_publ_section_title
;
Structure prediction by ZEFSAII (Michael W. Deem and Ramdas Pophale) SiO2 
 PCOD8081150
Probable space group: C 2/M
;
_chemical_formula_sum "Si O2"
_cell_formula_units_Z 56
_cell_length_a 18.705405
_cell_length_b 9.121830
_cell_length_c 23.081866
_cell_angle_alpha 90.000000
_cell_angle_beta 128.163617
_cell_angle_gamma 90.000000
_cell_volume 3096.566041
_symmetry_space_group_name_H-M "C 2/M"
_symmetry_group_IT_number 12
_symmetry_cell_setting 'monoclinic'
loop_
_space_group_symop_operation_xyz
x,y,z
-x,y,-z
-x,-y,-z
x,-y,z
1/2+x,1/2+y,z
1/2-x,1/2+y,-z
1/2-x,1/2-y,-z
1/2+x,1/2-y,z
loop_
_atom_site_type_symbol
_atom_site_label
_atom_site_fract_x
_atom_site_fract_y
_atom_site_fract_z
Si Si1 0.422767 0.326563 0.631939
Si Si2 0.554946 0.661997 0.793465
Si Si3 0.378932 0.335421 0.785351
Si Si4 0.721309 0.174043 0.360042
Si Si5 0.160430 0.669648 0.934945
Si Si6 0.079982 0.826635 0.500419
Si Si7 0.010957 0.329675 0.071122
O O1 0.400903 0.500000 0.625434
O O2 0.519573 0.291955 0.711859
O O3 0.341327 0.238688 0.620864
O O4 0.430709 0.268753 0.570469
O O5 0.599213 0.500000 0.814410
O O6 0.466578 0.661699 0.789034
O O7 0.629563 0.773442 0.856009
O O8 0.343445 0.500000 0.779578
O O9 0.301556 0.241655 0.714268
O O10 0.405292 0.259312 0.859172
O O11 0.823836 0.221426 0.425338
O O12 0.707895 0.000000 0.350874
O O13 0.182396 0.500000 0.940062
O O14 0.082783 0.703117 0.942871
O O15 0.250000 0.750000 0.000000
O O16 0.000000 0.758300 0.500000
O O17 0.071207 0.000000 0.495032
O O18 0.036487 0.500000 0.087255
O O19 0.000000 0.275697 0.000000
#
# Coordination Sequence:
#
# PCOD8081150 Si02
#       7
#     8   8   8   8   8   8   8
#     4   9  17  31  52  74  95 122 160 204 243 285
#     4   8  15  28  46  68  93 122 157 196 237 279
#     4   9  17  30  49  72  99 128 159 199 243 287
#     4  10  18  29  50  75  97 124 161 204 242 282
#     4  10  19  31  49  71  97 127 158 196 238 283
#     4   9  18  32  49  71  99 130 162 196 239 290
#     4   9  18  33  52  74  99 127 162 202 241 283
#
# _framework density 18.084548999999999
#
# number of rings (size 3 to 8) (size 9 to 14) (size 15 to 20)
#    0.000    2.857    0.000    2.571    0.000    4.286 
#    0.000    2.143    0.000    9.000    0.000    0.000 
#    0.000    0.000    0.000    0.000    0.000    0.000 
#
# Total GULP energy -347135.000708 kJ/mol
# GULP energy per Si atom -12397.678597 kJ/mol
# Density = 1.804339 g / cm^3
# Si number density = 18.084549 Si / 1000 Ang^3
#
#
#
# Elastic Constant Matrix: (Units=GPa)
#
#
# Indices 1 2 3 4 5 6 
#
# 1 64.9218 39.6383 68.4774 0.0000 -4.3580 0.0000
# 2 39.6383 91.2593 78.2895 0.0000 3.1384 0.0000
# 3 68.4774 78.2895 196.6752 0.0000 -8.7871 0.0000
# 4 0.0000 0.0000 0.0000 30.7677 0.0000 1.1645
# 5 -4.3580 3.1384 -8.7871 0.0000 27.5631 0.0000
# 6 0.0000 0.0000 0.0000 1.1645 0.0000 17.6102
#
#
#
# Elastic Compliance Matrix: (Units=1/GPa)
#
#
# Indices 1 2 3 4 5 6 
#
# 1 0.026137 -0.005675 -0.006723 0.000000 0.002635 0.000000
# 2 -0.005675 0.018334 -0.005534 0.000000 -0.004749 0.000000
# 3 -0.006723 -0.005534 0.009748 0.000000 0.002675 0.000000
# 4 0.000000 0.000000 0.000000 0.032583 0.000000 -0.002155
# 5 0.002635 -0.004749 0.002675 0.000000 0.038091 0.000000
# 6 0.000000 0.000000 0.000000 -0.002155 0.000000 0.056928
#
#
# Mechanical properties :
#
#
# Convention : Reuss Voigt Hill
#
# Bulk Modulus (GPa) = 54.48762 80.62962 67.55862
# Shear Modulus (GPa) = 22.34110 26.28495 24.31302
#
# Velocity S-wave (km/s) = 3.51860 3.81655 3.67060
# Velocity P-wave (km/s) = 6.83390 8.00643 7.44329
#
# Compressibility (1/GPa) = 0.01835279
#
# Stress axis : x y z
#
# Youngs Moduli (GPa) = 38.26065 54.54374 102.58624
#
# Poissons Ratio (x) = 0.30955 0.68971
# Poissons Ratio (y) = 0.21714 0.56774
# Poissons Ratio (z) = 0.25723 0.30186
#
# Static dielectric constant tensor:
#      x y z
#    x 3.119990 0.000000 -0.177820 
#    y 0.000000 3.329380 0.000000 
#    z -0.177820 0.000000 3.753020 
# 
# 
# High freq. dielectric constant tensor:
#      x y z
#    x 1.659490 0.000000 -0.005670 
#    y 0.000000 1.691870 0.000000 
#    z -0.005670 0.000000 1.721060 
# 
# From -- ./inp_files/342607.got.cif
#   From: 2010.06.25/outbox.cif.g09.slc.cpg/sg12_172_cif.got.tgz:342607.got - 2010.06.28 00:19:55.
