data_PCOD8081914
_publ_section_title
;
Structure prediction by ZEFSAII (Michael W. Deem and Ramdas Pophale) SiO2 
 PCOD8081914
Probable space group: C 2/M
;
_chemical_formula_sum "Si O2"
_cell_formula_units_Z 56
_cell_length_a 23.630824
_cell_length_b 9.253591
_cell_length_c 14.100168
_cell_angle_alpha 90.000000
_cell_angle_beta 71.251621
_cell_angle_gamma 90.000000
_cell_volume 2919.682043
_symmetry_space_group_name_H-M "C 2/M"
_symmetry_group_IT_number 12
_symmetry_cell_setting 'monoclinic'
loop_
_space_group_symop_operation_xyz
x,y,z
-x,y,-z
-x,-y,-z
x,-y,z
1/2+x,1/2+y,z
1/2-x,1/2+y,-z
1/2-x,1/2-y,-z
1/2+x,1/2-y,z
loop_
_atom_site_type_symbol
_atom_site_label
_atom_site_fract_x
_atom_site_fract_y
_atom_site_fract_z
Si Si1 0.091104 0.669265 0.178677
Si Si2 0.432339 0.340028 0.504908
Si Si3 0.766836 0.171509 0.391935
Si Si4 0.656066 0.833133 0.322635
Si Si5 0.468417 0.840425 0.319647
Si Si6 0.632032 0.838728 0.768477
Si Si7 0.567134 0.827621 0.984817
O O1 0.079784 0.500000 0.172834
O O2 0.150568 0.699599 0.211302
O O3 0.033082 0.731386 0.265478
O O4 0.092881 0.734328 0.071443
O O5 0.500000 0.343530 0.500000
O O6 0.406069 0.500000 0.504411
O O7 0.395032 0.260666 0.603862
O O8 0.427251 0.256623 0.409116
O O9 0.750000 0.250000 0.500000
O O10 0.719242 0.208120 0.334518
O O11 0.828068 0.231440 0.315891
O O12 0.771332 0.000000 0.408636
O O13 0.641659 0.000000 0.350021
O O14 0.433835 0.851659 0.239780
O O15 0.475439 0.000000 0.362084
O O16 0.617168 0.776077 0.881216
O O17 0.661524 0.000000 0.755488
O O18 0.564999 0.000000 0.983592
O O19 0.500000 0.767071 0.000000
#
# Coordination Sequence:
#
# PCOD8081914 Si02
#       7
#     8   8   8   8   8   8   8
#     4   9  16  29  52  80 108 136 172 222 268 308
#     4  11  22  32  46  75 111 141 170 214 277 337
#     4  11  24  41  59  79 107 146 192 233 271 324
#     4  10  21  37  56  76 102 143 189 227 266 319
#     4  10  18  30  52  79 106 139 178 218 263 321
#     4  10  20  34  57  87 113 141 182 227 274 324
#     4   9  15  28  53  87 117 139 174 225 272 319
#
# _framework density 19.180171000000001
#
# number of rings (size 3 to 8) (size 9 to 14) (size 15 to 20)
#    0.000    2.000    2.857    1.714    0.000    5.714 
#    0.000    0.714    0.000    2.143    0.000    0.000 
#    0.000    0.000    0.000    0.000    0.000    0.000 
#
# Total GULP energy -346941.991844 kJ/mol
# GULP energy per Si atom -12390.785423 kJ/mol
# Density = 1.913652 g / cm^3
# Si number density = 19.180171 Si / 1000 Ang^3
#
#
#
# Elastic Constant Matrix: (Units=GPa)
#
#
# Indices 1 2 3 4 5 6 
#
# 1 93.6637 25.0174 42.5777 0.0000 15.9415 0.0000
# 2 25.0174 53.5114 36.4306 0.0000 4.3437 0.0000
# 3 42.5777 36.4306 130.9582 0.0000 13.8938 0.0000
# 4 0.0000 0.0000 0.0000 12.1321 0.0000 -5.1648
# 5 15.9415 4.3437 13.8938 0.0000 32.3558 0.0000
# 6 0.0000 0.0000 0.0000 -5.1648 0.0000 15.6102
#
#
#
# Elastic Compliance Matrix: (Units=1/GPa)
#
#
# Indices 1 2 3 4 5 6 
#
# 1 0.013947 -0.004179 -0.002831 0.000000 -0.005095 0.000000
# 2 -0.004179 0.024310 -0.005528 0.000000 0.001169 0.000000
# 3 -0.002831 -0.005528 0.010339 0.000000 -0.002302 0.000000
# 4 0.000000 0.000000 0.000000 0.095939 0.000000 0.031743
# 5 -0.005095 0.001169 -0.002302 0.000000 0.034248 0.000000
# 6 0.000000 0.000000 0.000000 0.031743 0.000000 0.074563
#
#
# Mechanical properties :
#
#
# Convention : Reuss Voigt Hill
#
# Bulk Modulus (GPa) = 42.51989 54.02053 48.27021
# Shear Modulus (GPa) = 17.46649 23.62681 20.54665
#
# Velocity S-wave (km/s) = 3.02098 3.51356 3.27654
# Velocity P-wave (km/s) = 5.86389 6.68476 6.28774
#
# Compressibility (1/GPa) = 0.02351841
#
# Stress axis : x y z
#
# Youngs Moduli (GPa) = 71.70020 41.13540 96.72465
#
# Poissons Ratio (x) = 0.17192 0.27386
# Poissons Ratio (y) = 0.29965 0.53469
# Poissons Ratio (z) = 0.20301 0.22739
#
# Static dielectric constant tensor:
#      x y z
#    x 3.602510 0.000000 0.269100 
#    y 0.000000 3.303250 0.000000 
#    z 0.269100 0.000000 3.681480 
# 
# 
# High freq. dielectric constant tensor:
#      x y z
#    x 1.741370 0.000000 0.019760 
#    y 0.000000 1.709560 0.000000 
#    z 0.019760 0.000000 1.745780 
# 
# From -- ./inp_files/243663.got.cif
#   From: 2010.06.25/outbox.cif.g09.slc.cpg/sg12_122_cif.got.tgz:243663.got - 2010.06.28 00:19:55.
