data_PCOD8081099
_publ_section_title
;
Structure prediction by ZEFSAII (Michael W. Deem and Ramdas Pophale) SiO2 
 PCOD8081099
Probable space group: C 2/M
;
_chemical_formula_sum "Si O2"
_cell_formula_units_Z 56
_cell_length_a 28.490294
_cell_length_b 13.711364
_cell_length_c 13.171483
_cell_angle_alpha 90.000000
_cell_angle_beta 37.324679
_cell_angle_gamma 90.000000
_cell_volume 3119.766026
_symmetry_space_group_name_H-M "C 2/M"
_symmetry_group_IT_number 12
_symmetry_cell_setting 'monoclinic'
loop_
_space_group_symop_operation_xyz
x,y,z
-x,y,-z
-x,-y,-z
x,-y,z
1/2+x,1/2+y,z
1/2-x,1/2+y,-z
1/2-x,1/2-y,-z
1/2+x,1/2-y,z
loop_
_atom_site_type_symbol
_atom_site_label
_atom_site_fract_x
_atom_site_fract_y
_atom_site_fract_z
Si Si1 0.163953 0.232871 0.018126
Si Si2 0.012720 0.888416 0.276533
Si Si3 0.242048 0.389614 0.002991
Si Si4 0.057692 0.885382 0.817587
Si Si5 0.646350 0.608992 0.371263
Si Si6 0.255679 0.770539 0.318925
Si Si7 0.266161 0.385588 0.456021
O O1 0.081895 0.184519 0.181931
O O2 0.233944 0.160690 0.932419
O O3 0.171129 0.332826 0.070842
O O4 0.173684 0.254699 0.881609
O O5 0.972935 0.856935 0.239998
O O6 0.946397 0.876337 0.476570
O O7 0.044136 0.000000 0.218186
O O8 0.215047 0.500000 0.068633
O O9 0.318585 0.382934 0.801065
O O10 0.145157 0.848775 0.683177
O O11 0.059285 0.000000 0.829839
O O12 0.000000 0.837890 0.000000
O O13 0.663081 0.500000 0.387711
O O14 0.682123 0.689212 0.384118
O O15 0.234058 0.667931 0.410295
O O16 0.279811 0.848873 0.364574
O O17 0.255315 0.500000 0.460000
#
# Coordination Sequence:
#
# PCOD8081099 Si02
#       7
#     8   8   8   8   8   8   8
#     4  10  20  32  49  78 102 129 168 206 248 297
#     4  10  18  29  49  76 105 130 156 203 258 301
#     4   9  19  35  53  73 101 133 166 204 249 299
#     4   9  16  26  42  68 101 130 154 191 247 298
#     4   9  17  32  53  76 103 133 163 202 255 304
#     4  10  19  31  49  72 102 138 169 202 240 293
#     4  10  19  31  48  72 101 135 172 202 241 295
#
# _framework density 17.950064000000001
#
# number of rings (size 3 to 8) (size 9 to 14) (size 15 to 20)
#    0.000    2.429    1.429    1.714    0.000    3.429 
#    0.000    2.143    0.000    0.857    0.000   10.000 
#    0.000    0.000    0.000    0.000    0.000    0.000 
#
# Total GULP energy -347071.301382 kJ/mol
# GULP energy per Si atom -12395.403621 kJ/mol
# Density = 1.790921 g / cm^3
# Si number density = 17.950064 Si / 1000 Ang^3
#
#
#
# Elastic Constant Matrix: (Units=GPa)
#
#
# Indices 1 2 3 4 5 6 
#
# 1 54.3073 33.0056 18.9280 0.0000 -0.9668 0.0000
# 2 33.0056 110.6668 21.3868 0.0000 -8.8185 0.0000
# 3 18.9280 21.3868 64.8044 0.0000 -8.5385 0.0000
# 4 0.0000 0.0000 0.0000 24.7484 0.0000 -4.3367
# 5 -0.9668 -8.8185 -8.5385 0.0000 19.5024 0.0000
# 6 0.0000 0.0000 0.0000 -4.3367 0.0000 23.5794
#
#
#
# Elastic Compliance Matrix: (Units=1/GPa)
#
#
# Indices 1 2 3 4 5 6 
#
# 1 0.024188 -0.006486 -0.005468 0.000000 -0.004128 0.000000
# 2 -0.006486 0.011577 -0.001357 0.000000 0.004319 0.000000
# 3 -0.005468 -0.001357 0.018422 0.000000 0.007181 0.000000
# 4 0.000000 0.000000 0.000000 0.041752 0.000000 0.007679
# 5 -0.004128 0.004319 0.007181 0.000000 0.056168 0.000000
# 6 0.000000 0.000000 0.000000 0.007679 0.000000 0.043822
#
#
# Mechanical properties :
#
#
# Convention : Reuss Voigt Hill
#
# Bulk Modulus (GPa) = 36.27853 41.82437 39.05145
# Shear Modulus (GPa) = 21.57583 23.99657 22.78620
#
# Velocity S-wave (km/s) = 3.47074 3.66026 3.56676
# Velocity P-wave (km/s) = 6.02628 6.41984 6.22617
#
# Compressibility (1/GPa) = 0.02756451
#
# Stress axis : x y z
#
# Youngs Moduli (GPa) = 41.34270 86.37803 54.28233
#
# Poissons Ratio (x) = 0.56026 0.29682
# Poissons Ratio (y) = 0.26815 0.07367
# Poissons Ratio (z) = 0.22607 0.11723
#
# Static dielectric constant tensor:
#      x y z
#    x 3.232630 0.000000 0.165100 
#    y 0.000000 3.303380 0.000000 
#    z 0.165100 0.000000 3.430170 
# 
# 
# High freq. dielectric constant tensor:
#      x y z
#    x 1.686320 0.000000 0.022060 
#    y 0.000000 1.680310 0.000000 
#    z 0.022060 0.000000 1.682310 
# 
# From -- ./inp_files/224361.got.cif
#   From: 2010.06.25/outbox.cif.g09.slc.cpg/sg12_113_cif.got.tgz:224361.got - 2010.06.28 00:19:55.
