data_PCOD8081947
_publ_section_title
;
Structure prediction by ZEFSAII (Michael W. Deem and Ramdas Pophale) SiO2 
 PCOD8081947
Probable space group: C 2/M
;
_chemical_formula_sum "Si O2"
_cell_formula_units_Z 64
_cell_length_a 23.447029
_cell_length_b 13.893183
_cell_length_c 18.686298
_cell_angle_alpha 90.000000
_cell_angle_beta 144.694762
_cell_angle_gamma 90.000000
_cell_volume 3517.950827
_symmetry_space_group_name_H-M "C 2/M"
_symmetry_group_IT_number 12
_symmetry_cell_setting 'monoclinic'
loop_
_space_group_symop_operation_xyz
x,y,z
-x,y,-z
-x,-y,-z
x,-y,z
1/2+x,1/2+y,z
1/2-x,1/2+y,-z
1/2-x,1/2-y,-z
1/2+x,1/2-y,z
loop_
_atom_site_type_symbol
_atom_site_label
_atom_site_fract_x
_atom_site_fract_y
_atom_site_fract_z
Si Si1 0.778789 0.610226 0.280901
Si Si2 0.106276 0.213365 0.574373
Si Si3 0.976182 0.790668 0.170589
Si Si4 0.187877 0.111305 0.786319
Si Si5 0.522407 0.387396 0.359378
Si Si6 0.271051 0.388799 0.929995
Si Si7 0.359938 0.111755 0.069222
Si Si8 0.569917 0.609120 0.137713
O O1 0.814838 0.500000 0.319149
O O2 0.863350 0.675079 0.404198
O O3 0.763214 0.646050 0.183305
O O4 0.681207 0.624558 0.227340
O O5 0.187396 0.164864 0.709523
O O6 0.103224 0.157920 0.495882
O O7 0.000000 0.204599 0.500000
O O8 0.958920 0.675438 0.160714
O O9 0.036177 0.833203 0.298692
O O10 0.043113 0.813726 0.170678
O O11 0.868196 0.836001 0.055586
O O12 0.088317 0.131926 0.727752
O O13 0.198440 0.000000 0.779513
O O14 0.279126 0.146588 0.928111
O O15 0.544723 0.500000 0.373532
O O16 0.300772 0.500000 0.957225
O O17 0.182707 0.370120 0.895053
O O18 0.387771 0.000000 0.086924
O O19 0.552867 0.500000 0.148402
O O20 0.500000 0.630402 0.000000
#
# Coordination Sequence:
#
# PCOD8081947 Si02
#       8
#     8   8   8   8   8   8   8   8
#     4  10  21  36  55  80 112 143 179 225 269 323
#     4  10  21  34  52  75 106 145 186 221 265 317
#     4  12  20  31  56  80 109 142 178 222 276 326
#     4   9  17  31  49  73 107 141 173 218 269 317
#     4  10  20  33  51  77 105 137 182 228 265 310
#     4  10  18  30  52  83 114 138 169 223 284 332
#     4  10  21  32  49  81 117 145 174 217 277 339
#     4  10  20  35  56  84 111 137 176 226 275 320
#
# _framework density 18.192409999999999
#
# number of rings (size 3 to 8) (size 9 to 14) (size 15 to 20)
#    0.000    1.875    2.500    2.625    3.500    1.750 
#    0.000    1.250    0.000    1.875    0.000    0.000 
#    0.000    0.000    0.000    0.000    0.000    0.000 
#
# Total GULP energy -396843.577534 kJ/mol
# GULP energy per Si atom -12401.361798 kJ/mol
# Density = 1.815100 g / cm^3
# Si number density = 18.192410 Si / 1000 Ang^3
#
#
#
# Elastic Constant Matrix: (Units=GPa)
#
#
# Indices 1 2 3 4 5 6 
#
# 1 83.9675 43.7761 37.6519 0.0000 -26.2469 0.0000
# 2 43.7761 79.2891 53.7632 0.0000 -22.2138 0.0000
# 3 37.6519 53.7632 69.9472 0.0000 -25.1632 0.0000
# 4 0.0000 0.0000 0.0000 24.4550 0.0000 -6.7709
# 5 -26.2469 -22.2138 -25.1632 0.0000 12.5074 0.0000
# 6 0.0000 0.0000 0.0000 -6.7709 0.0000 19.5194
#
#
#
# Elastic Compliance Matrix: (Units=1/GPa)
#
#
# Indices 1 2 3 4 5 6 
#
# 1 0.060642 -0.007287 0.050979 0.000000 0.216879 0.000000
# 2 -0.007287 0.028984 -0.019323 0.000000 -0.002689 0.000000
# 3 0.050979 -0.019323 0.100807 0.000000 0.275473 0.000000
# 4 0.000000 0.000000 0.000000 0.045236 0.000000 0.015691
# 5 0.216879 -0.002689 0.275473 0.000000 1.084515 0.000000
# 6 0.000000 0.000000 0.000000 0.015691 0.000000 0.056674
#
#
# Mechanical properties :
#
#
# Convention : Reuss Voigt Hill
#
# Bulk Modulus (GPa) = 4.18108 55.95401 30.06754
# Shear Modulus (GPa) = 3.55154 17.83055 10.69105
#
# Velocity S-wave (km/s) = 1.39873 3.13407 2.42681
# Velocity P-wave (km/s) = 2.21627 6.62722 4.94125
#
# Compressibility (1/GPa) = 0.23917292
#
# Stress axis : x y z
#
# Youngs Moduli (GPa) = 16.49031 34.50207 9.91992
#
# Poissons Ratio (x) = 0.25140 -0.50571
# Poissons Ratio (y) = 0.12016 0.19168
# Poissons Ratio (z) = -0.84067 0.66667
#
# Static dielectric constant tensor:
#      x y z
#    x 2.522700 0.000000 -0.130380 
#    y 0.000000 3.481350 0.000000 
#    z -0.130380 0.000000 3.247950 
# 
# 
# High freq. dielectric constant tensor:
#      x y z
#    x 1.679290 0.000000 -0.026180 
#    y 0.000000 1.714830 0.000000 
#    z -0.026180 0.000000 1.686020 
# 
# From -- ./inp_files/290160.got.cif
#   From: 2010.06.25/outbox.cif.g09.slc.cpg/sg12_146_cif.got.tgz:290160.got - 2010.06.28 00:19:55.
