data_PCOD8081014
_publ_section_title
;
Structure prediction by ZEFSAII (Michael W. Deem and Ramdas Pophale) SiO2 
 PCOD8081014
Probable space group: C 2/M
;
_chemical_formula_sum "Si O2"
_cell_formula_units_Z 48
_cell_length_a 27.990368
_cell_length_b 9.110773
_cell_length_c 11.254939
_cell_angle_alpha 90.000000
_cell_angle_beta 102.627743
_cell_angle_gamma 90.000000
_cell_volume 2800.739386
_symmetry_space_group_name_H-M "C 2/M"
_symmetry_group_IT_number 12
_symmetry_cell_setting 'monoclinic'
loop_
_space_group_symop_operation_xyz
x,y,z
-x,y,-z
-x,-y,-z
x,-y,z
1/2+x,1/2+y,z
1/2-x,1/2+y,-z
1/2-x,1/2-y,-z
1/2+x,1/2-y,z
loop_
_atom_site_type_symbol
_atom_site_label
_atom_site_fract_x
_atom_site_fract_y
_atom_site_fract_z
Si Si1 0.424220 0.668088 0.399642
Si Si2 0.241765 0.167197 0.114703
Si Si3 0.863607 0.827278 0.973995
Si Si4 0.952858 0.327949 0.897504
Si Si5 0.153624 0.671617 0.784876
Si Si6 0.524954 0.668811 0.328828
O O1 0.407931 0.500000 0.376654
O O2 0.379142 0.771884 0.341312
O O3 0.469638 0.701795 0.338110
O O4 0.438517 0.701379 0.542793
O O5 0.289164 0.200781 0.223554
O O6 0.242847 0.000000 0.077313
O O7 0.250000 0.250000 0.000000
O O8 0.186683 0.204157 0.130188
O O9 0.860470 0.757105 0.102847
O O10 0.873569 0.000000 0.994312
O O11 0.906748 0.756563 0.923732
O O12 0.942183 0.500000 0.895160
O O13 0.961321 0.278835 0.767751
O O14 0.000000 0.285322 0.000000
O O15 0.143571 0.500000 0.800622
O O16 0.530069 0.500000 0.290018
#
# Coordination Sequence:
#
# PCOD8081014 Si02
#       6
#     8   8   8   8   8   8
#     4   9  18  33  52  73  96 124 161 199 234 278
#     4   8  16  29  45  68  96 125 157 194 236 280
#     4  10  19  32  50  70  96 131 165 196 233 280
#     4  11  23  35  48  71 101 128 156 194 240 287
#     4  10  18  29  48  75 103 126 154 196 243 285
#     4   9  19  35  52  70  95 128 163 197 232 277
#
# _framework density 17.138331000000001
#
# number of rings (size 3 to 8) (size 9 to 14) (size 15 to 20)
#    0.000    2.500    0.000    3.500    0.000    6.667 
#    0.000    1.667    0.000    1.000    0.000    0.000 
#    0.000    0.000    0.000    0.000    0.000    0.000 
#
# Total GULP energy -297402.875800 kJ/mol
# GULP energy per Si atom -12391.786492 kJ/mol
# Density = 1.709932 g / cm^3
# Si number density = 17.138331 Si / 1000 Ang^3
#
#
#
# Elastic Constant Matrix: (Units=GPa)
#
#
# Indices 1 2 3 4 5 6 
#
# 1 139.2109 71.5205 57.8016 0.0000 20.6389 0.0000
# 2 71.5205 85.2580 43.7830 0.0000 8.1847 0.0000
# 3 57.8016 43.7830 76.4021 0.0000 7.9783 0.0000
# 4 0.0000 0.0000 0.0000 27.6599 0.0000 6.8758
# 5 20.6389 8.1847 7.9783 0.0000 26.1942 0.0000
# 6 0.0000 0.0000 0.0000 6.8758 0.0000 17.1929
#
#
#
# Elastic Compliance Matrix: (Units=1/GPa)
#
#
# Indices 1 2 3 4 5 6 
#
# 1 0.015393 -0.009371 -0.005489 0.000000 -0.007529 0.000000
# 2 -0.009371 0.022469 -0.006015 0.000000 0.002195 0.000000
# 3 -0.005489 -0.006015 0.020699 0.000000 -0.000100 0.000000
# 4 0.000000 0.000000 0.000000 0.040144 0.000000 -0.016055
# 5 -0.007529 0.002195 -0.000100 0.000000 0.043453 0.000000
# 6 0.000000 0.000000 0.000000 -0.016055 0.000000 0.064584
#
#
# Mechanical properties :
#
#
# Convention : Reuss Voigt Hill
#
# Bulk Modulus (GPa) = 59.49083 71.89793 65.69438
# Shear Modulus (GPa) = 19.67751 22.72713 21.20232
#
# Velocity S-wave (km/s) = 3.39212 3.64552 3.52110
# Velocity P-wave (km/s) = 7.08022 7.73061 7.41255
#
# Compressibility (1/GPa) = 0.01680931
#
# Stress axis : x y z
#
# Youngs Moduli (GPa) = 64.96358 44.50613 48.31130
#
# Poissons Ratio (x) = 0.41708 0.26519
# Poissons Ratio (y) = 0.60879 0.29061
# Poissons Ratio (z) = 0.35660 0.26772
#
# Static dielectric constant tensor:
#      x y z
#    x 3.802110 0.000000 0.338700 
#    y 0.000000 3.244880 0.000000 
#    z 0.338700 0.000000 2.951190 
# 
# 
# High freq. dielectric constant tensor:
#      x y z
#    x 1.673210 0.000000 0.020380 
#    y 0.000000 1.672140 0.000000 
#    z 0.020380 0.000000 1.629070 
# 
# From -- ./inp_files/172285.got.cif
#   From: 2010.06.25/outbox.cif.g09.slc.cpg/sg12_87_cif.got.tgz:172285.got - 2010.06.28 00:19:55.
