data_PCOD8081562
_publ_section_title
;
Structure prediction by ZEFSAII (Michael W. Deem and Ramdas Pophale) SiO2 
 PCOD8081562
Probable space group: C 2/M
;
_chemical_formula_sum "Si O2"
_cell_formula_units_Z 48
_cell_length_a 8.583353
_cell_length_b 18.330094
_cell_length_c 17.918939
_cell_angle_alpha 90.000000
_cell_angle_beta 61.379283
_cell_angle_gamma 90.000000
_cell_volume 2474.767467
_symmetry_space_group_name_H-M "C 2/M"
_symmetry_group_IT_number 12
_symmetry_cell_setting 'monoclinic'
loop_
_space_group_symop_operation_xyz
x,y,z
-x,y,-z
-x,-y,-z
x,-y,z
1/2+x,1/2+y,z
1/2-x,1/2+y,-z
1/2-x,1/2-y,-z
1/2+x,1/2-y,z
loop_
_atom_site_type_symbol
_atom_site_label
_atom_site_fract_x
_atom_site_fract_y
_atom_site_fract_z
Si Si1 0.022041 0.918060 0.663217
Si Si2 0.685150 0.330722 0.500000
Si Si3 0.988047 0.330758 0.827189
Si Si4 0.357574 0.669242 0.827189
Si Si5 0.348476 0.918060 0.336783
Si Si6 0.184652 0.168761 1.000000
O O1 0.166189 0.872932 0.582776
O O2 0.994732 0.879952 0.749341
O O3 0.839008 0.920039 0.660992
O O4 0.093400 0.000000 0.659428
O O5 0.500000 0.327708 0.500000
O O6 0.750000 0.250000 0.500000
O O7 0.831741 0.372932 0.417224
O O8 0.167494 0.326853 0.832505
O O9 0.006585 0.379952 0.749341
O O10 0.936356 0.250000 0.813643
O O11 0.835507 0.368304 0.913694
O O12 0.337105 0.631696 0.913694
O O13 0.412257 0.000000 0.340571
O O14 0.250000 0.250000 0.000000
O O15 0.000000 0.167928 0.000000
#
# Coordination Sequence:
#
# PCOD8081562 Si02
#       6
#     8   8   8   8   8   8
#     4   9  18  32  51  75 101 132 169 205 242 288
#     4  10  19  33  55  79 103 130 164 206 246 290
#     4  10  18  30  50  74 100 129 165 208 249 292
#     4  10  18  30  50  74 100 129 165 208 249 292
#     4   9  18  32  51  75 101 132 169 205 242 288
#     4  10  18  30  49  72  99 129 165 207 249 294
#
# _framework density 19.395759999999999
#
# number of rings (size 3 to 8) (size 9 to 14) (size 15 to 20)
#    0.000    2.333    0.000    6.000    0.000    2.000 
#    0.000    2.500    0.000   15.000    0.000    0.000 
#    0.000    0.000    0.000    0.000    0.000    0.000 
#
# Total GULP energy -297548.210042 kJ/mol
# GULP energy per Si atom -12397.842085 kJ/mol
# Density = 1.935161 g / cm^3
# Si number density = 19.395760 Si / 1000 Ang^3
#
#
#
# Elastic Constant Matrix: (Units=GPa)
#
#
# Indices 1 2 3 4 5 6 
#
# 1 67.3189 21.8940 41.5510 0.0000 -0.0001 0.0000
# 2 21.8940 137.0658 100.1600 0.0000 -0.0003 0.0000
# 3 41.5510 100.1600 234.5195 0.0000 -0.0002 0.0000
# 4 0.0000 0.0000 0.0000 16.0890 0.0000 0.0000
# 5 -0.0001 -0.0003 -0.0002 0.0000 21.2219 0.0000
# 6 0.0000 0.0000 0.0000 0.0000 0.0000 20.6692
#
#
#
# Elastic Compliance Matrix: (Units=1/GPa)
#
#
# Indices 1 2 3 4 5 6 
#
# 1 0.016730 -0.000736 -0.002650 0.000000 0.000000 0.000000
# 2 -0.000736 0.010638 -0.004413 0.000000 0.000000 0.000000
# 3 -0.002650 -0.004413 0.006618 0.000000 0.000000 0.000000
# 4 0.000000 0.000000 0.000000 0.062154 0.000000 0.000000
# 5 0.000000 0.000000 0.000000 0.000000 0.047121 0.000000
# 6 0.000000 0.000000 0.000000 0.000000 0.000000 0.048381
#
#
# Mechanical properties :
#
#
# Convention : Reuss Voigt Hill
#
# Bulk Modulus (GPa) = 54.38198 85.12378 69.75288
# Shear Modulus (GPa) = 23.43355 29.94930 26.69143
#
# Velocity S-wave (km/s) = 3.47966 3.93379 3.71367
# Velocity P-wave (km/s) = 6.65154 8.03841 7.37763
#
# Compressibility (1/GPa) = 0.01838844
#
# Stress axis : x y z
#
# Youngs Moduli (GPa) = 59.77458 94.00182 151.09794
#
# Poissons Ratio (x) = 0.06919 0.40037
# Poissons Ratio (y) = 0.04399 0.66679
# Poissons Ratio (z) = 0.15839 0.41483
#
# Static dielectric constant tensor:
#      x y z
#    x 3.243610 0.000000 0.000000 
#    y 0.000000 3.448640 0.000000 
#    z 0.000000 0.000000 4.367790 
# 
# 
# High freq. dielectric constant tensor:
#      x y z
#    x 1.728210 0.000000 0.000000 
#    y 0.000000 1.732460 0.000000 
#    z 0.000000 0.000000 1.784170 
# 
# From -- ./inp_files/256460.got.cif
#   From: 2010.06.25/outbox.cif.g09.slc.cpg/sg12_129_cif.got.tgz:256460.got - 2010.06.28 00:19:55.
