data_PCOD8081076
_publ_section_title
;
Structure prediction by ZEFSAII (Michael W. Deem and Ramdas Pophale) SiO2 
 PCOD8081076
Probable space group: C 2/M
;
_chemical_formula_sum "Si O2"
_cell_formula_units_Z 64
_cell_length_a 29.375632
_cell_length_b 8.894795
_cell_length_c 15.598054
_cell_angle_alpha 90.000000
_cell_angle_beta 62.201118
_cell_angle_gamma 90.000000
_cell_volume 3605.252149
_symmetry_space_group_name_H-M "C 2/M"
_symmetry_group_IT_number 12
_symmetry_cell_setting 'monoclinic'
loop_
_space_group_symop_operation_xyz
x,y,z
-x,y,-z
-x,-y,-z
x,-y,z
1/2+x,1/2+y,z
1/2-x,1/2+y,-z
1/2-x,1/2-y,-z
1/2+x,1/2-y,z
loop_
_atom_site_type_symbol
_atom_site_label
_atom_site_fract_x
_atom_site_fract_y
_atom_site_fract_z
Si Si1 0.683801 0.322953 0.724813
Si Si2 0.210740 0.175835 0.340856
Si Si3 0.458938 0.321446 0.715428
Si Si4 0.347685 0.325681 0.436612
Si Si5 0.078097 0.178559 0.895644
Si Si6 0.440379 0.174769 0.436037
Si Si7 0.617888 0.824587 0.337950
Si Si8 0.478068 0.678537 0.889018
O O1 0.691420 0.500000 0.731294
O O2 0.732096 0.237500 0.722320
O O3 0.678926 0.282014 0.628991
O O4 0.633666 0.260190 0.818554
O O5 0.192287 0.214747 0.453275
O O6 0.174214 0.256283 0.304041
O O7 0.209541 0.000000 0.323622
O O8 0.456698 0.500000 0.714283
O O9 0.506879 0.265140 0.617590
O O10 0.406426 0.255041 0.723362
O O11 0.464138 0.258191 0.807746
O O12 0.363804 0.500000 0.424416
O O13 0.399817 0.230427 0.400555
O O14 0.034125 0.239170 0.869193
O O15 0.078467 0.000000 0.889633
O O16 0.064831 0.231617 0.004101
O O17 0.418254 0.209112 0.549172
O O18 0.451706 0.000000 0.412196
O O19 0.623536 0.000000 0.315048
O O20 0.479560 0.500000 0.884832
#
# Coordination Sequence:
#
# PCOD8081076 Si02
#       8
#     8   8   8   8   8   8   8   8
#     4  10  18  29  49  74  98 127 162 197 235 283
#     4  10  20  33  48  68  97 130 162 199 240 280
#     4  11  20  30  49  74  98 125 159 198 239 285
#     4   9  18  31  47  70  99 129 162 197 234 279
#     4   8  14  27  48  73 100 127 155 189 230 278
#     4  10  20  32  47  69  98 130 162 196 235 281
#     4  10  21  36  50  66  93 128 165 202 238 279
#     4   8  15  28  47  73 101 126 154 190 232 279
#
# _framework density 17.751878999999999
#
# number of rings (size 3 to 8) (size 9 to 14) (size 15 to 20)
#    0.000    2.500    0.000    3.750    0.000    6.000 
#    0.000    0.000    0.000    2.250    0.000    5.250 
#    0.000    0.000    0.000    0.000    0.000    0.000 
#
# Total GULP energy -396823.261913 kJ/mol
# GULP energy per Si atom -12400.726935 kJ/mol
# Density = 1.771148 g / cm^3
# Si number density = 17.751879 Si / 1000 Ang^3
#
#
#
# Elastic Constant Matrix: (Units=GPa)
#
#
# Indices 1 2 3 4 5 6 
#
# 1 150.6498 47.2448 66.2643 0.0000 -2.4909 0.0000
# 2 47.2448 56.1397 27.7499 0.0000 1.7050 0.0000
# 3 66.2643 27.7499 76.9164 0.0000 -4.2152 0.0000
# 4 0.0000 0.0000 0.0000 10.5305 0.0000 -2.4086
# 5 -2.4909 1.7050 -4.2152 0.0000 28.6814 0.0000
# 6 0.0000 0.0000 0.0000 -2.4086 0.0000 33.9606
#
#
#
# Elastic Compliance Matrix: (Units=1/GPa)
#
#
# Indices 1 2 3 4 5 6 
#
# 1 0.012233 -0.006204 -0.008289 0.000000 0.000213 0.000000
# 2 -0.006204 0.024998 -0.003816 0.000000 -0.002586 0.000000
# 3 -0.008289 -0.003816 0.021666 0.000000 0.002691 0.000000
# 4 0.000000 0.000000 0.000000 0.096528 0.000000 0.006846
# 5 0.000213 -0.002586 0.002691 0.000000 0.035433 0.000000
# 6 0.000000 0.000000 0.000000 0.006846 0.000000 0.029931
#
#
# Mechanical properties :
#
#
# Convention : Reuss Voigt Hill
#
# Bulk Modulus (GPa) = 44.88284 62.91378 53.89831
# Shear Modulus (GPa) = 18.87970 24.13097 21.50534
#
# Velocity S-wave (km/s) = 3.26472 3.69093 3.48435
# Velocity P-wave (km/s) = 6.28884 7.32677 6.82756
#
# Compressibility (1/GPa) = 0.02228023
#
# Stress axis : x y z
#
# Youngs Moduli (GPa) = 81.74625 40.00249 46.15472
#
# Poissons Ratio (x) = 0.24818 0.38257
# Poissons Ratio (y) = 0.50716 0.17612
# Poissons Ratio (z) = 0.67759 0.15264
#
# Static dielectric constant tensor:
#      x y z
#    x 3.375910 0.000000 0.023050 
#    y 0.000000 3.063530 0.000000 
#    z 0.023050 0.000000 3.340300 
# 
# 
# High freq. dielectric constant tensor:
#      x y z
#    x 1.690180 0.000000 0.000240 
#    y 0.000000 1.667670 0.000000 
#    z 0.000240 0.000000 1.666190 
# 
# From -- ./inp_files/243827.got.cif
#   From: 2010.06.25/outbox.cif.g09.slc.cpg/sg12_122_cif.got.tgz:243827.got - 2010.06.28 00:19:55.
