data_PCOD8081590
_publ_section_title
;
Structure prediction by ZEFSAII (Michael W. Deem and Ramdas Pophale) SiO2 
 PCOD8081590
Probable space group: C 2/M
;
_chemical_formula_sum "Si O2"
_cell_formula_units_Z 64
_cell_length_a 23.697111
_cell_length_b 12.959869
_cell_length_c 26.190664
_cell_angle_alpha 90.000000
_cell_angle_beta 27.937423
_cell_angle_gamma 90.000000
_cell_volume 3768.413589
_symmetry_space_group_name_H-M "C 2/M"
_symmetry_group_IT_number 12
_symmetry_cell_setting 'monoclinic'
loop_
_space_group_symop_operation_xyz
x,y,z
-x,y,-z
-x,-y,-z
x,-y,z
1/2+x,1/2+y,z
1/2-x,1/2+y,-z
1/2-x,1/2-y,-z
1/2+x,1/2-y,z
loop_
_atom_site_type_symbol
_atom_site_label
_atom_site_fract_x
_atom_site_fract_y
_atom_site_fract_z
Si Si1 0.772487 0.380007 0.374380
Si Si2 0.956447 0.882113 0.378709
Si Si3 0.806152 0.380494 0.231823
Si Si4 0.475440 0.758516 0.270286
Si Si5 0.687367 0.881150 0.155000
Si Si6 0.077872 0.616818 0.024336
Si Si7 0.639609 0.716773 0.054923
Si Si8 0.708572 0.299680 0.211910
O O1 0.805659 0.500000 0.350689
O O2 0.637815 0.356284 0.501192
O O3 0.781332 0.341638 0.309070
O O4 0.864683 0.321690 0.337015
O O5 0.924848 0.814511 0.354681
O O6 0.089157 0.860936 0.292981
O O7 0.945530 0.000000 0.370306
O O8 0.766615 0.500000 0.256479
O O9 0.727611 0.306279 0.257648
O O10 0.946215 0.365861 0.105475
O O11 0.575433 0.837491 0.212245
O O12 0.533679 0.685264 0.179131
O O13 0.700930 0.817646 0.197236
O O14 0.665763 0.000000 0.186230
O O15 0.812866 0.870765 0.022362
O O16 0.092094 0.500000 0.031859
O O17 0.091238 0.684135 0.063958
O O18 0.178264 0.641599 0.902602
O O19 0.750000 0.750000 0.000000
#
# Coordination Sequence:
#
# PCOD8081590 Si02
#       8
#     8   8   8   8   8   8   8   8
#     4  10  20  33  51  76 103 132 169 208 250 297
#     4  10  21  34  49  73 104 136 168 207 252 298
#     4  10  19  31  52  77 100 132 166 206 252 298
#     4  10  18  33  52  74  99 133 171 208 247 295
#     4   9  19  33  51  74 101 133 168 206 250 297
#     4  10  18  30  49  74 102 129 162 204 249 300
#     4   9  18  28  45  74 101 127 158 199 247 294
#     4  10  20  33  50  74 103 132 168 204 251 301
#
# _framework density 16.983274999999999
#
# number of rings (size 3 to 8) (size 9 to 14) (size 15 to 20)
#    0.000    2.250    1.250    3.000    0.000    4.000 
#    0.000    1.875    0.000    6.750    0.000    3.500 
#    0.000    0.000    0.000    0.000    0.000    0.000 
#
# Total GULP energy -396680.450879 kJ/mol
# GULP energy per Si atom -12396.264090 kJ/mol
# Density = 1.694462 g / cm^3
# Si number density = 16.983275 Si / 1000 Ang^3
#
#
#
# Elastic Constant Matrix: (Units=GPa)
#
#
# Indices 1 2 3 4 5 6 
#
# 1 117.4547 49.2684 37.0171 -0.0004 13.4903 0.0002
# 2 49.2684 79.1604 34.5196 -0.0005 5.5556 0.0002
# 3 37.0171 34.5196 99.4184 -0.0015 18.6970 0.0007
# 4 -0.0004 -0.0005 -0.0015 19.6766 0.0010 -1.0679
# 5 13.4903 5.5556 18.6970 0.0010 8.0389 -0.0005
# 6 0.0002 0.0002 0.0007 -1.0679 -0.0005 19.9586
#
#
#
# Elastic Compliance Matrix: (Units=1/GPa)
#
#
# Indices 1 2 3 4 5 6 
#
# 1 0.013708 -0.007729 0.001602 0.000001 -0.021388 -0.000001
# 2 -0.007729 0.019288 -0.006668 -0.000001 0.015150 0.000000
# 3 0.001602 -0.006668 0.020292 0.000004 -0.045276 -0.000002
# 4 0.000001 -0.000001 0.000004 0.050970 -0.000016 0.002727
# 5 -0.021388 0.015150 -0.045276 -0.000016 0.255119 0.000007
# 6 -0.000001 0.000000 -0.000002 0.002727 0.000007 0.050250
#
#
# Mechanical properties :
#
#
# Convention : Reuss Voigt Hill
#
# Bulk Modulus (GPa) = 36.10550 59.73822 47.92186
# Shear Modulus (GPa) = 11.24990 21.21673 16.23331
#
# Velocity S-wave (km/s) = 2.57653 3.53834 3.09502
# Velocity P-wave (km/s) = 5.49153 7.20723 6.40707
#
# Compressibility (1/GPa) = 0.02769661
#
# Stress axis : x y z
#
# Youngs Moduli (GPa) = 72.95242 51.84676 49.28046
#
# Poissons Ratio (x) = 0.40072 -0.07895
# Poissons Ratio (y) = 0.56385 0.32862
# Poissons Ratio (z) = -0.11687 0.34573
#
# Static dielectric constant tensor:
#      x y z
#    x 3.187450 0.000000 0.085710 
#    y 0.000000 2.953090 0.000000 
#    z 0.085710 0.000000 3.463960 
# 
# 
# High freq. dielectric constant tensor:
#      x y z
#    x 1.655610 0.000000 0.002600 
#    y 0.000000 1.625120 0.000000 
#    z 0.002600 0.000000 1.664690 
# 
# From -- ./inp_files/367807.got.cif
#   From: 2010.06.25/outbox.cif.g09.slc.cpg/sg12_184_cif.got.tgz:367807.got - 2010.06.28 00:19:55.
