data_PCOD8081567
_publ_section_title
;
Structure prediction by ZEFSAII (Michael W. Deem and Ramdas Pophale) SiO2 
 PCOD8081567
Probable space group: C 2/M
;
_chemical_formula_sum "Si O2"
_cell_formula_units_Z 64
_cell_length_a 19.972241
_cell_length_b 19.846061
_cell_length_c 13.930953
_cell_angle_alpha 90.000000
_cell_angle_beta 44.206838
_cell_angle_gamma 90.000000
_cell_volume 3850.089982
_symmetry_space_group_name_H-M "C 2/M"
_symmetry_group_IT_number 12
_symmetry_cell_setting 'monoclinic'
loop_
_space_group_symop_operation_xyz
x,y,z
-x,y,-z
-x,-y,-z
x,-y,z
1/2+x,1/2+y,z
1/2-x,1/2+y,-z
1/2-x,1/2-y,-z
1/2+x,1/2-y,z
loop_
_atom_site_type_symbol
_atom_site_label
_atom_site_fract_x
_atom_site_fract_y
_atom_site_fract_z
Si Si1 0.353732 0.175784 0.848348
Si Si2 0.918387 0.076336 0.846227
Si Si3 0.217547 0.422098 0.412884
Si Si4 0.735385 0.423664 0.846228
Si Si5 0.102292 0.822914 0.444569
Si Si6 0.453140 0.177087 0.444567
Si Si7 0.369569 0.577902 0.412884
Si Si8 0.797921 0.824216 0.848347
O O1 0.315620 0.124864 0.806970
O O2 0.468799 0.174538 0.722181
O O3 0.320634 0.250001 0.858737
O O4 0.308686 0.156394 0.000001
O O5 0.877409 0.124861 0.806969
O O6 0.030848 0.089414 0.745875
O O7 0.898858 0.000000 0.831734
O O8 0.867676 0.091222 1.000000
O O9 0.188684 0.500000 0.455087
O O10 0.276724 0.410589 0.254124
O O11 0.121129 0.379509 0.509614
O O12 0.284298 0.397458 0.431403
O O13 0.769408 0.500000 0.831737
O O14 0.097661 0.750001 0.500004
O O15 0.130744 0.879511 0.490384
O O16 0.190979 0.825459 0.277820
O O17 0.000000 0.838722 0.500000
O O18 0.500000 0.161279 0.500000
O O19 0.356230 0.500000 0.455083
#
# Coordination Sequence:
#
# PCOD8081567 Si02
#       8
#     8   8   8   8   8   8   8   8
#     4  10  18  30  49  73 101 129 158 199 247 292
#     4   9  17  29  46  70  99 129 162 199 245 299
#     4  10  21  34  49  72 101 134 169 204 246 293
#     4   9  17  29  46  70  99 129 162 199 245 299
#     4  11  19  33  52  77 101 127 166 205 245 293
#     4  11  19  33  52  77 101 127 166 205 245 293
#     4  10  21  34  49  72 101 134 169 204 246 293
#     4  10  18  30  49  73 101 129 158 199 247 292
#
# _framework density 16.622987999999999
#
# number of rings (size 3 to 8) (size 9 to 14) (size 15 to 20)
#    0.000    2.000    5.000    0.000    0.000    2.500 
#    0.000    2.500    0.000    0.750    0.000    1.750 
#    0.000    0.000    0.000    0.000    0.000    0.000 
#
# Total GULP energy -396632.654962 kJ/mol
# GULP energy per Si atom -12394.770468 kJ/mol
# Density = 1.658515 g / cm^3
# Si number density = 16.622988 Si / 1000 Ang^3
#
#
#
# Elastic Constant Matrix: (Units=GPa)
#
#
# Indices 1 2 3 4 5 6 
#
# 1 65.2098 51.4806 47.0670 0.0000 -0.4775 0.0000
# 2 51.4806 80.9711 40.0328 0.0000 0.8210 0.0000
# 3 47.0670 40.0328 128.5612 0.0000 -4.0908 0.0000
# 4 0.0000 0.0000 0.0000 27.8055 0.0000 -0.4492
# 5 -0.4775 0.8210 -4.0908 0.0000 12.6320 0.0000
# 6 0.0000 0.0000 0.0000 -0.4492 0.0000 21.5711
#
#
#
# Elastic Compliance Matrix: (Units=1/GPa)
#
#
# Indices 1 2 3 4 5 6 
#
# 1 0.035483 -0.019083 -0.007039 0.000000 0.000302 0.000000
# 2 -0.019083 0.024935 -0.000862 0.000000 -0.002621 0.000000
# 3 -0.007039 -0.000862 0.010727 0.000000 0.003264 0.000000
# 4 0.000000 0.000000 0.000000 0.035976 0.000000 0.000749
# 5 0.000302 -0.002621 0.003264 0.000000 0.080403 0.000000
# 6 0.000000 0.000000 0.000000 0.000749 0.000000 0.046374
#
#
# Mechanical properties :
#
#
# Convention : Reuss Voigt Hill
#
# Bulk Modulus (GPa) = 58.20934 61.32254 59.76594
# Shear Modulus (GPa) = 17.03051 21.47916 19.25484
#
# Velocity S-wave (km/s) = 3.20428 3.59853 3.40711
# Velocity P-wave (km/s) = 6.98450 7.36452 7.17703
#
# Compressibility (1/GPa) = 0.01717937
#
# Stress axis : x y z
#
# Youngs Moduli (GPa) = 28.18277 40.10381 93.21852
#
# Poissons Ratio (x) = 0.76529 0.65613
# Poissons Ratio (y) = 0.53780 0.08033
# Poissons Ratio (z) = 0.19837 0.03456
#
# Static dielectric constant tensor:
#      x y z
#    x 2.789670 0.000000 -0.065260 
#    y 0.000000 3.242100 0.000000 
#    z -0.065260 0.000000 3.695260 
# 
# 
# High freq. dielectric constant tensor:
#      x y z
#    x 1.592740 0.000000 -0.004610 
#    y 0.000000 1.650630 0.000000 
#    z -0.004610 0.000000 1.656720 
# 
# From -- ./inp_files/159539.got.cif
#   From: 2010.06.25/outbox.cif.g09.slc.cpg/sg12_80_cif.got.tgz:159539.got - 2010.06.28 00:19:55.
