data_PCOD8081162
_publ_section_title
;
Structure prediction by ZEFSAII (Michael W. Deem and Ramdas Pophale) SiO2 
 PCOD8081162
Probable space group: C 2/M
;
_chemical_formula_sum "Si O2"
_cell_formula_units_Z 64
_cell_length_a 23.738285
_cell_length_b 9.337320
_cell_length_c 16.577526
_cell_angle_alpha 90.000000
_cell_angle_beta 94.320335
_cell_angle_gamma 90.000000
_cell_volume 3664.000112
_symmetry_space_group_name_H-M "C 2/M"
_symmetry_group_IT_number 12
_symmetry_cell_setting 'monoclinic'
loop_
_space_group_symop_operation_xyz
x,y,z
-x,y,-z
-x,-y,-z
x,-y,z
1/2+x,1/2+y,z
1/2-x,1/2+y,-z
1/2-x,1/2-y,-z
1/2+x,1/2-y,z
loop_
_atom_site_type_symbol
_atom_site_label
_atom_site_fract_x
_atom_site_fract_y
_atom_site_fract_z
Si Si1 0.159430 0.165141 0.617601
Si Si2 0.455756 0.664751 0.660726
Si Si3 0.137492 0.834720 0.215113
Si Si4 0.287313 0.165989 0.661986
Si Si5 0.120613 0.667346 0.461061
Si Si6 0.427176 0.335258 0.254079
Si Si7 0.923072 0.333589 0.921276
Si Si8 0.950090 0.665663 0.103036
O O1 0.223964 0.213028 0.634846
O O2 0.129812 0.263947 0.548817
O O3 0.128539 0.189330 0.699198
O O4 0.155109 0.000000 0.589209
O O5 0.455674 0.500000 0.632047
O O6 0.416392 0.687146 0.733807
O O7 0.434546 0.761747 0.584727
O O8 0.518146 0.719036 0.690505
O O9 0.191856 0.759623 0.260407
O O10 0.124102 0.760674 0.128337
O O11 0.151935 0.000000 0.201991
O O12 0.324554 0.199262 0.587318
O O13 0.291231 0.000000 0.687106
O O14 0.109175 0.500000 0.469951
O O15 0.436426 0.500000 0.232441
O O16 0.418949 0.251464 0.170010
O O17 0.913307 0.500000 0.899922
O O18 0.985049 0.285002 0.898572
O O19 0.917151 0.305364 0.016050
O O20 0.947815 0.500000 0.125433
#
# Coordination Sequence:
#
# PCOD8081162 Si02
#       8
#     8   8   8   8   8   8   8   8
#     4  10  21  36  53  71  96 133 170 204 249 300
#     4   9  18  32  48  70 101 132 161 195 246 300
#     4  10  18  29  50  78 103 129 162 205 250 288
#     4   9  19  35  53  73  97 129 167 208 253 295
#     4  10  20  33  52  75  97 123 164 214 254 290
#     4  10  20  34  51  72 101 135 168 201 242 297
#     4   9  17  30  49  75 105 134 163 195 241 296
#     4   9  18  31  49  74 104 136 164 196 240 291
#
# _framework density 17.467247
#
# number of rings (size 3 to 8) (size 9 to 14) (size 15 to 20)
#    0.000    2.500    1.250    1.875    0.000    3.500 
#    0.000    3.750    0.000    0.750    0.000    0.000 
#    0.000    0.000    0.000    0.000    0.000    0.000 
#
# Total GULP energy -396895.563327 kJ/mol
# GULP energy per Si atom -12402.986354 kJ/mol
# Density = 1.742749 g / cm^3
# Si number density = 17.467247 Si / 1000 Ang^3
#
#
#
# Elastic Constant Matrix: (Units=GPa)
#
#
# Indices 1 2 3 4 5 6 
#
# 1 30.6770 13.9490 16.0572 0.0000 -2.9194 0.0000
# 2 13.9490 76.2795 57.5531 0.0000 5.8146 0.0000
# 3 16.0572 57.5531 103.8647 0.0000 7.3105 0.0000
# 4 0.0000 0.0000 0.0000 36.4428 0.0000 2.0003
# 5 -2.9194 5.8146 7.3105 0.0000 18.4705 0.0000
# 6 0.0000 0.0000 0.0000 2.0003 0.0000 19.5290
#
#
#
# Elastic Compliance Matrix: (Units=1/GPa)
#
#
# Indices 1 2 3 4 5 6 
#
# 1 0.037580 -0.004632 -0.003872 0.000000 0.008930 0.000000
# 2 -0.004632 0.023188 -0.011899 0.000000 -0.003322 0.000000
# 3 -0.003872 -0.011899 0.017075 0.000000 -0.003624 0.000000
# 4 0.000000 0.000000 0.000000 0.027595 0.000000 -0.002826
# 5 0.008930 -0.003322 -0.003624 0.000000 0.058032 0.000000
# 6 0.000000 0.000000 0.000000 -0.002826 0.000000 0.051495
#
#
# Mechanical properties :
#
#
# Convention : Reuss Voigt Hill
#
# Bulk Modulus (GPa) = 26.99917 42.88222 34.94069
# Shear Modulus (GPa) = 18.64865 23.10592 20.87729
#
# Velocity S-wave (km/s) = 3.27101 3.64100 3.46095
# Velocity P-wave (km/s) = 5.45496 6.50224 6.00149
#
# Compressibility (1/GPa) = 0.03703818
#
# Stress axis : x y z
#
# Youngs Moduli (GPa) = 26.60975 43.12667 58.56564
#
# Poissons Ratio (x) = 0.19974 0.22676
# Poissons Ratio (y) = 0.12324 0.69686
# Poissons Ratio (z) = 0.10303 0.51315
#
# Static dielectric constant tensor:
#      x y z
#    x 3.081790 0.000000 0.103380 
#    y 0.000000 3.216320 0.000000 
#    z 0.103380 0.000000 3.143560 
# 
# 
# High freq. dielectric constant tensor:
#      x y z
#    x 1.651010 0.000000 0.012070 
#    y 0.000000 1.675970 0.000000 
#    z 0.012070 0.000000 1.673070 
# 
# From -- ./inp_files/287762.got.cif
#   From: 2010.06.25/outbox.cif.g09.slc.cpg/sg12_144_cif.got.tgz:287762.got - 2010.06.28 00:19:55.
