data_PCOD8081871
_publ_section_title
;
Structure prediction by ZEFSAII (Michael W. Deem and Ramdas Pophale) SiO2 
 PCOD8081871
Probable space group: C 2/M
;
_chemical_formula_sum "Si O2"
_cell_formula_units_Z 64
_cell_length_a 9.152577
_cell_length_b 15.488673
_cell_length_c 20.970759
_cell_angle_alpha 90.000000
_cell_angle_beta 84.345412
_cell_angle_gamma 90.000000
_cell_volume 2958.375562
_symmetry_space_group_name_H-M "C 2/M"
_symmetry_group_IT_number 12
_symmetry_cell_setting 'monoclinic'
loop_
_space_group_symop_operation_xyz
x,y,z
-x,y,-z
-x,-y,-z
x,-y,z
1/2+x,1/2+y,z
1/2-x,1/2+y,-z
1/2-x,1/2-y,-z
1/2+x,1/2-y,z
loop_
_atom_site_type_symbol
_atom_site_label
_atom_site_fract_x
_atom_site_fract_y
_atom_site_fract_z
Si Si1 0.088954 0.904547 0.226942
Si Si2 0.261617 0.155929 0.328012
Si Si3 0.068717 0.401873 0.368623
Si Si4 0.136942 0.397226 0.135456
Si Si5 0.772068 0.165568 0.257482
Si Si6 0.629111 0.742607 0.453080
Si Si7 0.665875 0.602545 0.990831
Si Si8 0.812955 0.397236 0.112361
O O1 0.169583 0.914038 0.292127
O O2 0.199463 0.862760 0.170467
O O3 0.942832 0.849097 0.237888
O O4 0.042395 0.000000 0.206238
O O5 0.424473 0.123023 0.334550
O O6 0.258232 0.237462 0.281629
O O7 0.175732 0.176040 0.396675
O O8 0.056061 0.500000 0.394945
O O9 0.208876 0.396296 0.315856
O O10 0.085971 0.336604 0.427019
O O11 0.139850 0.500000 0.146723
O O12 0.177567 0.348274 0.198239
O O13 0.255165 0.368511 0.077437
O O14 0.976679 0.364124 0.120563
O O15 0.500000 0.700775 0.500000
O O16 0.750000 0.750000 0.500000
O O17 0.662019 0.500000 0.995794
O O18 0.500000 0.639551 0.000000
O O19 0.759866 0.639182 0.046327
O O20 0.815675 0.500000 0.112388
#
# Coordination Sequence:
#
# PCOD8081871 Si02
#       8
#     8   8   8   8   8   8   8   8
#     4  11  22  37  59  88 120 153 200 258 302 348
#     4  11  24  42  65  88 122 163 201 241 300 367
#     4  11  23  41  66  94 123 160 208 253 295 352
#     4  10  18  30  51  79 115 157 205 255 302 364
#     4  11  22  37  58  88 123 159 198 249 310 362
#     4  11  23  44  67  93 126 166 200 242 297 365
#     4   9  16  27  46  75 112 155 202 254 311 363
#     4   9  18  31  49  77 115 156 200 253 310 362
#
# _framework density 21.633495
#
# number of rings (size 3 to 8) (size 9 to 14) (size 15 to 20)
#    0.000    1.625    1.250    4.875    1.750    4.750 
#    0.000    0.000    0.000    2.625    0.000    1.750 
#    0.000    0.000    0.000    0.000    0.000    0.500 
#
# Total GULP energy -396787.593600 kJ/mol
# GULP energy per Si atom -12399.612300 kJ/mol
# Density = 2.158426 g / cm^3
# Si number density = 21.633495 Si / 1000 Ang^3
#
#
#
# Elastic Constant Matrix: (Units=GPa)
#
#
# Indices 1 2 3 4 5 6 
#
# 1 151.2201 5.6736 44.4829 0.0000 -5.5787 0.0000
# 2 5.6736 36.2755 8.6390 0.0000 -3.3531 0.0000
# 3 44.4829 8.6390 119.7642 0.0000 -5.2864 0.0000
# 4 0.0000 0.0000 0.0000 24.8200 0.0000 7.9062
# 5 -5.5787 -3.3531 -5.2864 0.0000 55.0490 0.0000
# 6 0.0000 0.0000 0.0000 7.9062 0.0000 24.1037
#
#
#
# Elastic Compliance Matrix: (Units=1/GPa)
#
#
# Indices 1 2 3 4 5 6 
#
# 1 0.007445 -0.000476 -0.002710 0.000000 0.000465 0.000000
# 2 -0.000476 0.028206 -0.001792 0.000000 0.001498 0.000000
# 3 -0.002710 -0.001792 0.009509 0.000000 0.000529 0.000000
# 4 0.000000 0.000000 0.000000 0.044991 0.000000 -0.014757
# 5 0.000465 0.001498 0.000529 0.000000 0.018355 0.000000
# 6 0.000000 0.000000 0.000000 -0.014757 0.000000 0.046328
#
#
# Mechanical properties :
#
#
# Convention : Reuss Voigt Hill
#
# Bulk Modulus (GPa) = 28.40554 47.20565 37.80559
# Shear Modulus (GPa) = 28.32453 37.35884 32.84169
#
# Velocity S-wave (km/s) = 3.62234 4.16010 3.90050
# Velocity P-wave (km/s) = 5.53660 6.70398 6.14806
#
# Compressibility (1/GPa) = 0.03520441
#
# Stress axis : x y z
#
# Youngs Moduli (GPa) = 134.31472 35.45294 105.16283
#
# Poissons Ratio (x) = 0.01687 0.28504
# Poissons Ratio (y) = 0.06393 0.18842
# Poissons Ratio (z) = 0.36405 0.06352
#
# Static dielectric constant tensor:
#      x y z
#    x 4.053240 0.000000 0.003900 
#    y 0.000000 3.350940 0.000000 
#    z 0.003900 0.000000 4.017040 
# 
# 
# High freq. dielectric constant tensor:
#      x y z
#    x 1.867130 0.000000 -0.000500 
#    y 0.000000 1.819110 0.000000 
#    z -0.000500 0.000000 1.860950 
# 
# From -- ./inp_files/300822.got.cif
#   From: 2010.06.25/outbox.cif.g09.slc.cpg/sg12_151_cif.got.tgz:300822.got - 2010.06.28 00:19:55.
