data_PCOD8081229
_publ_section_title
;
Structure prediction by ZEFSAII (Michael W. Deem and Ramdas Pophale) SiO2 
 PCOD8081229
Probable space group: C 2/M
;
_chemical_formula_sum "Si O2"
_cell_formula_units_Z 52
_cell_length_a 18.645398
_cell_length_b 15.102568
_cell_length_c 22.185598
_cell_angle_alpha 90.000000
_cell_angle_beta 28.307977
_cell_angle_gamma 90.000000
_cell_volume 2962.545491
_symmetry_space_group_name_H-M "C 2/M"
_symmetry_group_IT_number 12
_symmetry_cell_setting 'monoclinic'
loop_
_space_group_symop_operation_xyz
x,y,z
-x,y,-z
-x,-y,-z
x,-y,z
1/2+x,1/2+y,z
1/2-x,1/2+y,-z
1/2-x,1/2-y,-z
1/2+x,1/2-y,z
loop_
_atom_site_type_symbol
_atom_site_label
_atom_site_fract_x
_atom_site_fract_y
_atom_site_fract_z
Si Si1 0.478729 0.725668 0.793625
Si Si2 0.247427 0.677871 0.553295
Si Si3 0.087182 0.500000 0.670345
Si Si4 0.094728 0.500000 0.081135
Si Si5 0.178323 0.813384 0.972101
Si Si6 0.630084 0.135863 0.949201
Si Si7 0.242580 0.500000 0.093329
Si Si8 0.535756 0.602167 0.308631
O O1 0.637351 0.779708 0.685361
O O2 0.440732 0.684843 0.885755
O O3 0.489140 0.645778 0.738458
O O4 0.349217 0.795325 0.868937
O O5 0.250000 0.750000 0.500000
O O6 0.176387 0.586229 0.582496
O O7 0.422847 0.653046 0.439859
O O8 0.060009 0.500000 0.764286
O O9 0.926864 0.500000 0.754348
O O10 0.107862 0.587279 0.029775
O O11 0.234349 0.500000 0.025353
O O12 0.126095 0.741153 0.962095
O O13 0.172892 0.911250 0.946559
O O14 0.500000 0.105388 0.000000
O O15 0.789920 0.110607 0.800209
O O16 0.489726 0.500000 0.339318
#
# Coordination Sequence:
#
# PCOD8081229 Si02
#       8
#     8   8   4   4   8   8   4   8
#     4   9  17  29  47  73 105 127 160 206 266 302
#     4  10  18  30  45  71 109 140 156 197 257 323
#     4  10  18  30  48  77 107 131 155 203 261 310
#     4  10  19  31  56  75 100 132 163 214 265 304
#     4  10  18  30  50  75  98 133 169 210 254 303
#     4  11  22  35  49  72 105 142 174 207 251 303
#     4  10  18  29  53  82 103 121 164 214 272 295
#     4  10  19  28  48  73 101 131 166 203 250 307
#
# _framework density 17.552472999999999
#
# number of rings (size 3 to 8) (size 9 to 14) (size 15 to 20)
#    0.462    1.538    3.077    3.923    1.077    0.000 
#    0.000    0.385    0.000    4.615    0.000    0.000 
#    0.000    1.231    0.000    0.000    0.000    0.000 
#
# Total GULP energy -322091.948334 kJ/mol
# GULP energy per Si atom -12388.151859 kJ/mol
# Density = 1.751252 g / cm^3
# Si number density = 17.552473 Si / 1000 Ang^3
#
#
#
# Elastic Constant Matrix: (Units=GPa)
#
#
# Indices 1 2 3 4 5 6 
#
# 1 23.6401 9.1342 19.3739 -0.0007 -6.6419 0.0005
# 2 9.1342 132.0451 36.9082 0.0084 -2.6516 0.0005
# 3 19.3739 36.9082 130.2708 0.0108 -7.6737 0.0008
# 4 -0.0007 0.0084 0.0108 32.0951 -0.0003 3.9678
# 5 -6.6419 -2.6516 -7.6737 -0.0003 13.7672 -0.0007
# 6 0.0005 0.0005 0.0008 3.9678 -0.0007 10.1441
#
#
#
# Elastic Compliance Matrix: (Units=1/GPa)
#
#
# Indices 1 2 3 4 5 6 
#
# 1 0.054381 -0.001542 -0.006331 0.000004 0.022411 -0.000002
# 2 -0.001542 0.008269 -0.002134 -0.000002 -0.000341 0.000000
# 3 -0.006331 -0.002134 0.009324 -0.000003 0.001732 0.000001
# 4 0.000004 -0.000002 -0.000003 0.032741 0.000000 -0.012806
# 5 0.022411 -0.000341 0.001732 0.000000 0.084348 0.000004
# 6 -0.000002 0.000000 0.000001 -0.012806 0.000004 0.103588
#
#
# Mechanical properties :
#
#
# Convention : Reuss Voigt Hill
#
# Bulk Modulus (GPa) = 19.24474 46.30986 32.77730
# Shear Modulus (GPa) = 15.15217 25.90392 20.52804
#
# Velocity S-wave (km/s) = 2.94130 3.84578 3.42354
# Velocity P-wave (km/s) = 4.74583 6.79419 5.86020
#
# Compressibility (1/GPa) = 0.05196225
#
# Stress axis : x y z
#
# Youngs Moduli (GPa) = 18.38861 120.92805 107.24658
#
# Poissons Ratio (x) = 0.18652 0.67893
# Poissons Ratio (y) = 0.02836 0.22882
# Poissons Ratio (z) = 0.11641 0.25801
#
# Static dielectric constant tensor:
#      x y z
#    x 2.529700 0.000040 0.056580 
#    y 0.000040 3.633620 0.000160 
#    z 0.056580 0.000160 3.815040 
# 
# 
# High freq. dielectric constant tensor:
#      x y z
#    x 1.587440 0.000000 0.008660 
#    y 0.000000 1.704530 0.000000 
#    z 0.008660 0.000000 1.696190 
# 
# From -- ./inp_files/382987.got.cif
#   From: 2010.06.25/outbox.cif.g09.slc.cpg/sg12_192_cif.got.tgz:382987.got - 2010.06.28 00:19:55.
