data_PCOD8081280
_publ_section_title
;
Structure prediction by ZEFSAII (Michael W. Deem and Ramdas Pophale) SiO2 
 PCOD8081280
Probable space group: C 2/M
;
_chemical_formula_sum "Si O2"
_cell_formula_units_Z 56
_cell_length_a 28.839599
_cell_length_b 8.953436
_cell_length_c 28.861558
_cell_angle_alpha 90.000000
_cell_angle_beta 152.260583
_cell_angle_gamma 90.000000
_cell_volume 3468.747878
_symmetry_space_group_name_H-M "C 2/M"
_symmetry_group_IT_number 12
_symmetry_cell_setting 'monoclinic'
loop_
_space_group_symop_operation_xyz
x,y,z
-x,y,-z
-x,-y,-z
x,-y,z
1/2+x,1/2+y,z
1/2-x,1/2+y,-z
1/2-x,1/2-y,-z
1/2+x,1/2-y,z
loop_
_atom_site_type_symbol
_atom_site_label
_atom_site_fract_x
_atom_site_fract_y
_atom_site_fract_z
Si Si1 0.974332 0.825171 0.371493
Si Si2 0.383639 0.676359 0.584368
Si Si3 0.151890 0.332019 0.256741
Si Si4 0.801449 0.324490 0.264183
Si Si5 0.133550 0.832401 0.588502
Si Si6 0.897015 0.677997 0.885886
Si Si7 0.839551 0.322226 0.635627
O O1 0.870237 0.736649 0.283175
O O2 0.033854 0.766727 0.379138
O O3 0.037386 0.790340 0.473587
O O4 0.952642 0.000000 0.347718
O O5 0.388331 0.500000 0.593752
O O6 0.274932 0.729255 0.471466
O O7 0.406950 0.750126 0.654965
O O8 0.111854 0.500000 0.221427
O O9 0.271641 0.327501 0.361366
O O10 0.105862 0.256489 0.169597
O O11 0.121726 0.260492 0.279807
O O12 0.788801 0.500000 0.248331
O O13 0.854284 0.284152 0.359329
O O14 0.692904 0.248772 0.164389
O O15 0.123242 0.000000 0.600476
O O16 0.881977 0.500000 0.872428
O O17 0.000000 0.727468 0.000000
O O18 0.847895 0.500000 0.640901
#
# Coordination Sequence:
#
# PCOD8081280 Si02
#       7
#     8   8   8   8   8   8   8
#     4  10  18  30  46  62  86 125 164 191 218 256
#     4   9  17  27  41  62  88 121 158 190 217 251
#     4   8  13  25  46  68  89 114 148 185 221 264
#     4  11  22  31  42  65  95 121 146 183 232 277
#     4   9  16  29  46  62  85 122 162 190 214 256
#     4   9  18  34  55  73  87 111 151 191 224 269
#     4   9  15  26  42  62  89 121 151 182 222 263
#
# _framework density 16.144152999999999
#
# number of rings (size 3 to 8) (size 9 to 14) (size 15 to 20)
#    0.000    2.714    1.429    2.571    0.000    3.143 
#    0.000    2.857    0.000    0.000    0.000    1.000 
#    0.000    0.000    0.000    0.000    0.000    0.000 
#
# Total GULP energy -347010.043962 kJ/mol
# GULP energy per Si atom -12393.215856 kJ/mol
# Density = 1.610741 g / cm^3
# Si number density = 16.144153 Si / 1000 Ang^3
#
#
#
# Elastic Constant Matrix: (Units=GPa)
#
#
# Indices 1 2 3 4 5 6 
#
# 1 116.8852 35.7852 49.4556 0.0000 7.8380 0.0000
# 2 35.7852 41.8568 26.4477 0.0001 4.7941 0.0001
# 3 49.4556 26.4477 84.9389 0.0000 6.2085 0.0000
# 4 0.0000 0.0001 0.0000 12.5896 0.0000 -1.3168
# 5 7.8380 4.7941 6.2085 0.0000 15.8218 0.0000
# 6 0.0000 0.0001 0.0000 -1.3168 0.0000 23.6296
#
#
#
# Elastic Compliance Matrix: (Units=1/GPa)
#
#
# Indices 1 2 3 4 5 6 
#
# 1 0.013277 -0.007864 -0.005122 0.000000 -0.002184 0.000000
# 2 -0.007864 0.034880 -0.005965 0.000000 -0.004332 0.000000
# 3 -0.005122 -0.005965 0.016776 0.000000 -0.002238 0.000000
# 4 0.000000 0.000000 0.000000 0.079897 0.000000 0.004452
# 5 -0.002184 -0.004332 -0.002238 0.000000 0.066477 0.000000
# 6 0.000000 0.000000 0.000000 0.004452 0.000000 0.042568
#
#
# Mechanical properties :
#
#
# Convention : Reuss Voigt Hill
#
# Bulk Modulus (GPa) = 36.99547 51.89532 44.44539
# Shear Modulus (GPa) = 16.62306 19.20770 17.91538
#
# Velocity S-wave (km/s) = 3.21232 3.45303 3.33485
# Velocity P-wave (km/s) = 6.06004 6.93633 6.51294
#
# Compressibility (1/GPa) = 0.02703034
#
# Stress axis : x y z
#
# Youngs Moduli (GPa) = 75.31960 28.66994 59.60761
#
# Poissons Ratio (x) = 0.22547 0.30531
# Poissons Ratio (y) = 0.59234 0.35556
# Poissons Ratio (z) = 0.38578 0.17102
#
# Static dielectric constant tensor:
#      x y z
#    x 3.278760 0.000000 -0.058710 
#    y 0.000000 2.780790 0.000000 
#    z -0.058710 0.000000 2.827890 
# 
# 
# High freq. dielectric constant tensor:
#      x y z
#    x 1.627190 0.000000 -0.001900 
#    y 0.000000 1.595750 0.000000 
#    z -0.001900 0.000000 1.577970 
# 
# From -- ./inp_files/247890.got.cif
#   From: 2010.06.25/outbox.cif.g09.slc.cpg/sg12_124_cif.got.tgz:247890.got - 2010.06.28 00:19:55.
