data_PCOD8081413
_publ_section_title
;
Structure prediction by ZEFSAII (Michael W. Deem and Ramdas Pophale) SiO2 
 PCOD8081413
Probable space group: C 2/M
;
_chemical_formula_sum "Si O2"
_cell_formula_units_Z 64
_cell_length_a 30.638904
_cell_length_b 9.246016
_cell_length_c 14.240396
_cell_angle_alpha 90.000000
_cell_angle_beta 86.715581
_cell_angle_gamma 90.000000
_cell_volume 4027.504079
_symmetry_space_group_name_H-M "C 2/M"
_symmetry_group_IT_number 12
_symmetry_cell_setting 'monoclinic'
loop_
_space_group_symop_operation_xyz
x,y,z
-x,y,-z
-x,-y,-z
x,-y,z
1/2+x,1/2+y,z
1/2-x,1/2+y,-z
1/2-x,1/2-y,-z
1/2+x,1/2-y,z
loop_
_atom_site_type_symbol
_atom_site_label
_atom_site_fract_x
_atom_site_fract_y
_atom_site_fract_z
Si Si1 0.414799 0.170585 0.717342
Si Si2 0.448896 0.828652 0.112272
Si Si3 0.828048 0.332463 0.625525
Si Si4 0.078647 0.829558 0.708258
Si Si5 0.452283 0.170498 0.904969
Si Si6 0.008110 0.168812 0.391858
Si Si7 0.251529 0.166326 0.403161
Si Si8 0.152016 0.663835 0.592730
O O1 0.366355 0.215119 0.691563
O O2 0.420919 0.223249 0.824558
O O3 0.449706 0.245285 0.646388
O O4 0.422128 0.000000 0.706698
O O5 0.418672 0.746060 0.190482
O O6 0.498648 0.773063 0.119806
O O7 0.443950 0.000000 0.128522
O O8 0.433963 0.780070 0.008923
O O9 0.816043 0.500000 0.638266
O O10 0.784852 0.240309 0.659468
O O11 0.843083 0.298383 0.517710
O O12 0.118823 0.776714 0.640857
O O13 0.033843 0.783851 0.663107
O O14 0.082574 0.000000 0.720324
O O15 0.455916 0.000000 0.907747
O O16 0.000000 0.211812 0.500000
O O17 0.017874 0.000000 0.379500
O O18 0.250000 0.250000 0.500000
O O19 0.301236 0.179107 0.359075
O O20 0.238824 0.000000 0.421159
O O21 0.134323 0.500000 0.606325
#
# Coordination Sequence:
#
# PCOD8081413 Si02
#       8
#     8   8   8   8   8   8   8   8
#     4  10  18  30  48  69  90 117 156 192 220 262
#     4   9  16  30  49  65  86 117 152 190 231 273
#     4   9  18  30  46  70  96 120 151 189 227 269
#     4  11  21  30  43  66  91 119 154 190 229 268
#     4   8  15  28  48  69  86 113 153 192 229 268
#     4  10  21  33  41  57  91 128 157 183 218 266
#     4   9  17  30  48  68  91 119 153 190 228 269
#     4   9  18  31  45  64  90 121 154 184 218 266
#
# _framework density 15.890734999999999
#
# number of rings (size 3 to 8) (size 9 to 14) (size 15 to 20)
#    0.000    2.625    1.250    3.000    0.000    3.750 
#    0.000    1.875    0.000    0.000    0.000    0.875 
#    0.000    0.000    0.000    0.000    0.000    0.000 
#
# Total GULP energy -396665.973988 kJ/mol
# GULP energy per Si atom -12395.811687 kJ/mol
# Density = 1.585457 g / cm^3
# Si number density = 15.890735 Si / 1000 Ang^3
#
#
#
# Elastic Constant Matrix: (Units=GPa)
#
#
# Indices 1 2 3 4 5 6 
#
# 1 84.8130 36.4543 34.4489 0.0000 23.6440 0.0000
# 2 36.4543 56.0488 26.0226 0.0000 5.5864 0.0000
# 3 34.4489 26.0226 78.2907 0.0000 19.8228 0.0000
# 4 0.0000 0.0000 0.0000 16.4198 0.0000 -1.9937
# 5 23.6440 5.5864 19.8228 0.0000 17.0956 0.0000
# 6 0.0000 0.0000 0.0000 -1.9937 0.0000 27.2680
#
#
#
# Elastic Compliance Matrix: (Units=1/GPa)
#
#
# Indices 1 2 3 4 5 6 
#
# 1 0.027275 -0.015127 0.001877 0.000000 -0.034956 0.000000
# 2 -0.015127 0.029524 -0.008510 0.000000 0.021142 0.000000
# 3 0.001877 -0.008510 0.020850 0.000000 -0.023992 0.000000
# 4 0.000000 0.000000 0.000000 0.061447 0.000000 0.004493
# 5 -0.034956 0.021142 -0.023992 0.000000 0.127751 0.000000
# 6 0.000000 0.000000 0.000000 0.004493 0.000000 0.037002
#
#
# Mechanical properties :
#
#
# Convention : Reuss Voigt Hill
#
# Bulk Modulus (GPa) = 29.30022 45.88935 37.59478
# Shear Modulus (GPa) = 13.93741 20.30513 17.12127
#
# Velocity S-wave (km/s) = 2.96476 3.57851 3.28600
# Velocity P-wave (km/s) = 5.49530 6.78344 6.17306
#
# Compressibility (1/GPa) = 0.03412944
#
# Stress axis : x y z
#
# Youngs Moduli (GPa) = 36.66339 33.87024 47.96148
#
# Poissons Ratio (x) = 0.51237 -0.09005
# Poissons Ratio (y) = 0.55462 0.40816
# Poissons Ratio (z) = -0.06883 0.28824
#
# Static dielectric constant tensor:
#      x y z
#    x 3.303880 0.000000 0.270070 
#    y 0.000000 2.961630 0.000000 
#    z 0.270070 0.000000 3.081700 
# 
# 
# High freq. dielectric constant tensor:
#      x y z
#    x 1.600770 0.000000 0.009470 
#    y 0.000000 1.604200 0.000000 
#    z 0.009470 0.000000 1.590100 
# 
# From -- ./inp_files/248309.got.cif
#   From: 2010.06.25/outbox.cif.g09.slc.cpg/sg12_125_cif.got.tgz:248309.got - 2010.06.28 00:19:55.
