data_PCOD8081174
_publ_section_title
;
Structure prediction by ZEFSAII (Michael W. Deem and Ramdas Pophale) SiO2 
 PCOD8081174
Probable space group: C 2/M
;
_chemical_formula_sum "Si O2"
_cell_formula_units_Z 64
_cell_length_a 17.708436
_cell_length_b 21.759087
_cell_length_c 12.337376
_cell_angle_alpha 90.000000
_cell_angle_beta 131.015635
_cell_angle_gamma 90.000000
_cell_volume 3586.910083
_symmetry_space_group_name_H-M "C 2/M"
_symmetry_group_IT_number 12
_symmetry_cell_setting 'monoclinic'
loop_
_space_group_symop_operation_xyz
x,y,z
-x,y,-z
-x,-y,-z
x,-y,z
1/2+x,1/2+y,z
1/2-x,1/2+y,-z
1/2-x,1/2-y,-z
1/2+x,1/2-y,z
loop_
_atom_site_type_symbol
_atom_site_label
_atom_site_fract_x
_atom_site_fract_y
_atom_site_fract_z
Si Si1 0.407919 0.162350 0.487564
Si Si2 0.028157 0.225231 0.314293
Si Si3 0.609684 0.607419 0.486373
Si Si4 0.608370 0.567770 0.722930
Si Si5 0.745520 0.777689 0.818083
Si Si6 0.407591 0.338024 0.842464
Si Si7 0.690548 0.678159 0.902149
Si Si8 0.738465 0.573204 0.407116
O O1 0.500000 0.137426 0.500000
O O2 0.443594 0.205905 0.620778
O O3 0.342145 0.203275 0.344924
O O4 0.345136 0.105930 0.481020
O O5 0.077225 0.178549 0.447615
O O6 0.071830 0.205036 0.240379
O O7 0.909530 0.220036 0.191905
O O8 0.641292 0.595392 0.638843
O O9 0.510747 0.566936 0.367760
O O10 0.701241 0.587912 0.494341
O O11 0.651355 0.500000 0.774024
O O12 0.663715 0.606802 0.867345
O O13 0.851613 0.791337 0.867221
O O14 0.746027 0.705014 0.847483
O O15 0.740231 0.814741 0.927379
O O16 0.344572 0.398761 0.752157
O O17 0.500000 0.362938 0.000000
O O18 0.749306 0.500000 0.399591
#
# Coordination Sequence:
#
# PCOD8081174 Si02
#       8
#     8   8   8   8   8   8   8   8
#     4  11  22  36  57  81 106 142 189 235 276 316
#     4  10  19  33  56  80 107 139 177 222 279 326
#     4   9  18  31  52  80 111 140 175 222 275 326
#     4  10  18  29  50  79 111 145 178 214 270 334
#     4  10  20  34  53  76 109 140 177 225 273 327
#     4  10  20  35  54  82 113 137 176 227 280 337
#     4  10  19  32  52  76 106 145 174 216 277 323
#     4  10  22  37  53  76 111 150 190 225 268 325
#
# _framework density 17.842655000000001
#
# number of rings (size 3 to 8) (size 9 to 14) (size 15 to 20)
#    0.000    2.000    2.500    2.250    1.750    6.000 
#    0.000    2.500    0.000    0.000    0.000    0.000 
#    0.000    3.000    0.000    0.000    0.000    0.000 
#
# Total GULP energy -396515.886305 kJ/mol
# GULP energy per Si atom -12391.121447 kJ/mol
# Density = 1.780204 g / cm^3
# Si number density = 17.842655 Si / 1000 Ang^3
#
#
#
# Elastic Constant Matrix: (Units=GPa)
#
#
# Indices 1 2 3 4 5 6 
#
# 1 91.3461 46.3302 11.7310 0.0000 -2.9913 0.0000
# 2 46.3302 92.1751 30.6294 0.0000 -2.8235 0.0000
# 3 11.7310 30.6294 60.4990 0.0000 -0.0751 0.0000
# 4 0.0000 0.0000 0.0000 12.9196 0.0000 1.0473
# 5 -2.9913 -2.8235 -0.0751 0.0000 20.1472 0.0000
# 6 0.0000 0.0000 0.0000 1.0473 0.0000 25.2773
#
#
#
# Elastic Compliance Matrix: (Units=1/GPa)
#
#
# Indices 1 2 3 4 5 6 
#
# 1 0.014776 -0.007744 0.001057 0.000000 0.001112 0.000000
# 2 -0.007744 0.017168 -0.007189 0.000000 0.001229 0.000000
# 3 0.001057 -0.007189 0.019963 0.000000 -0.000776 0.000000
# 4 0.000000 0.000000 0.000000 0.077663 0.000000 -0.003218
# 5 0.001112 0.001229 -0.000776 0.000000 0.049969 0.000000
# 6 0.000000 0.000000 0.000000 -0.003218 0.000000 0.039695
#
#
# Mechanical properties :
#
#
# Convention : Reuss Voigt Hill
#
# Bulk Modulus (GPa) = 41.39929 46.82238 44.11084
# Shear Modulus (GPa) = 19.60512 22.02412 20.81462
#
# Velocity S-wave (km/s) = 3.31838 3.51715 3.41921
# Velocity P-wave (km/s) = 6.15914 6.54160 6.35325
#
# Compressibility (1/GPa) = 0.02415500
#
# Stress axis : x y z
#
# Youngs Moduli (GPa) = 67.67852 58.24910 50.09340
#
# Poissons Ratio (x) = 0.45108 -0.05294
# Poissons Ratio (y) = 0.52410 0.36010
# Poissons Ratio (z) = -0.07153 0.41873
#
# Static dielectric constant tensor:
#      x y z
#    x 3.538900 0.000000 -0.088980 
#    y 0.000000 3.228480 0.000000 
#    z -0.088980 0.000000 3.293190 
# 
# 
# High freq. dielectric constant tensor:
#      x y z
#    x 1.694730 0.000000 -0.013560 
#    y 0.000000 1.671660 0.000000 
#    z -0.013560 0.000000 1.680380 
# 
# From -- ./inp_files/160316.got.cif
#   From: 2010.06.25/outbox.cif.g09.slc.cpg/sg12_81_cif.got.tgz:160316.got - 2010.06.28 00:19:55.
