data_PCOD8081818
_publ_section_title
;
Structure prediction by ZEFSAII (Michael W. Deem and Ramdas Pophale) SiO2 
 PCOD8081818
Probable space group: C 2/M
;
_chemical_formula_sum "Si O2"
_cell_formula_units_Z 56
_cell_length_a 29.300553
_cell_length_b 9.300675
_cell_length_c 15.221295
_cell_angle_alpha 90.000000
_cell_angle_beta 45.883469
_cell_angle_gamma 90.000000
_cell_volume 2977.976441
_symmetry_space_group_name_H-M "C 2/M"
_symmetry_group_IT_number 12
_symmetry_cell_setting 'monoclinic'
loop_
_space_group_symop_operation_xyz
x,y,z
-x,y,-z
-x,-y,-z
x,-y,z
1/2+x,1/2+y,z
1/2-x,1/2+y,-z
1/2-x,1/2-y,-z
1/2+x,1/2-y,z
loop_
_atom_site_type_symbol
_atom_site_label
_atom_site_fract_x
_atom_site_fract_y
_atom_site_fract_z
Si Si1 0.599214 0.829611 0.341477
Si Si2 0.409853 0.834505 0.327351
Si Si3 0.926266 0.668583 0.112301
Si Si4 0.769861 0.335677 0.557982
Si Si5 0.318382 0.669083 0.165587
Si Si6 0.983391 0.671382 0.388215
Si Si7 0.237633 0.670244 0.106921
O O1 0.566963 0.767269 0.472921
O O2 0.554995 0.782199 0.317730
O O3 0.670282 0.770952 0.233975
O O4 0.601068 0.000000 0.345353
O O5 0.407434 0.765124 0.233406
O O6 0.345165 0.815476 0.469097
O O7 0.465037 0.767753 0.316020
O O8 0.425910 0.000000 0.287591
O O9 0.911386 0.500000 0.123402
O O10 0.884493 0.748974 0.094586
O O11 0.000000 0.702646 0.000000
O O12 0.752103 0.500000 0.563949
O O13 0.750000 0.250000 0.500000
O O14 0.734228 0.280036 0.692676
O O15 0.330734 0.500000 0.155837
O O16 0.292120 0.710137 0.104439
O O17 0.977032 0.500000 0.396075
O O18 0.235190 0.500000 0.093433
O O19 0.250000 0.750000 0.000000
#
# Coordination Sequence:
#
# PCOD8081818 Si02
#       7
#     8   8   8   8   8   8   8
#     4   8  14  26  45  71 100 126 160 208 256 302
#     4   9  16  27  44  69 100 130 162 204 252 302
#     4  10  21  35  51  74 104 137 174 215 260 310
#     4  10  18  30  51  76 102 134 169 212 259 306
#     4  10  21  36  54  76 104 138 176 218 265 315
#     4   8  13  23  44  72  98 125 159 206 260 299
#     4  10  21  36  53  76 104 137 177 216 258 308
#
# _framework density 18.804715999999999
#
# number of rings (size 3 to 8) (size 9 to 14) (size 15 to 20)
#    0.000    2.714    1.429    1.714    0.000    5.429 
#    0.000    2.857    0.000    0.000    0.000    2.000 
#    0.000    0.000    0.000    0.000    0.000    0.000 
#
# Total GULP energy -347007.951143 kJ/mol
# GULP energy per Si atom -12393.141112 kJ/mol
# Density = 1.876192 g / cm^3
# Si number density = 18.804716 Si / 1000 Ang^3
#
#
#
# Elastic Constant Matrix: (Units=GPa)
#
#
# Indices 1 2 3 4 5 6 
#
# 1 174.0999 40.8213 56.0730 0.0000 4.1581 0.0000
# 2 40.8213 27.1348 26.6665 -0.0002 0.3009 0.0001
# 3 56.0730 26.6665 86.7114 0.0000 -2.5694 0.0000
# 4 0.0000 -0.0002 0.0000 18.2861 0.0000 3.8359
# 5 4.1581 0.3009 -2.5694 0.0000 31.5295 0.0000
# 6 0.0000 0.0001 0.0000 3.8359 0.0000 21.7575
#
#
#
# Elastic Compliance Matrix: (Units=1/GPa)
#
#
# Indices 1 2 3 4 5 6 
#
# 1 0.009272 -0.011470 -0.002508 0.000000 -0.001318 0.000000
# 2 -0.011470 0.067110 -0.013227 0.000001 -0.000206 0.000000
# 3 -0.002508 -0.013227 0.017277 0.000000 0.001865 0.000000
# 4 0.000000 0.000001 0.000000 0.056786 0.000000 -0.010011
# 5 -0.001318 -0.000206 0.001865 0.000000 0.032044 0.000000
# 6 0.000000 0.000000 0.000000 -0.010011 0.000000 0.047726
#
#
# Mechanical properties :
#
#
# Convention : Reuss Voigt Hill
#
# Bulk Modulus (GPa) = 25.47819 59.45196 42.46507
# Shear Modulus (GPa) = 16.79493 25.27365 21.03429
#
# Velocity S-wave (km/s) = 2.99176 3.67005 3.34812
# Velocity P-wave (km/s) = 5.05098 7.04578 6.13007
#
# Compressibility (1/GPa) = 0.03924926
#
# Stress axis : x y z
#
# Youngs Moduli (GPa) = 107.84692 14.90098 57.87996
#
# Poissons Ratio (x) = 0.17092 0.14515
# Poissons Ratio (y) = 1.23703 0.76558
# Poissons Ratio (z) = 0.27045 0.19710
#
# Static dielectric constant tensor:
#      x y z
#    x 3.876150 0.000000 -0.104610 
#    y 0.000000 2.919360 0.000000 
#    z -0.104610 0.000000 3.637480 
# 
# 
# High freq. dielectric constant tensor:
#      x y z
#    x 1.749920 0.000000 -0.000170 
#    y 0.000000 1.667410 0.000000 
#    z -0.000170 0.000000 1.726380 
# 
# From -- ./inp_files/250540.got.cif
#   From: 2010.06.25/outbox.cif.g09.slc.cpg/sg12_126_cif.got.tgz:250540.got - 2010.06.28 00:19:55.
