data_PCOD8081226
_publ_section_title
;
Structure prediction by ZEFSAII (Michael W. Deem and Ramdas Pophale) SiO2 
 PCOD8081226
Probable space group: C 2/M
;
_chemical_formula_sum "Si O2"
_cell_formula_units_Z 56
_cell_length_a 11.677709
_cell_length_b 26.049543
_cell_length_c 14.994738
_cell_angle_alpha 90.000000
_cell_angle_beta 39.631529
_cell_angle_gamma 90.000000
_cell_volume 2909.469212
_symmetry_space_group_name_H-M "C 2/M"
_symmetry_group_IT_number 12
_symmetry_cell_setting 'monoclinic'
loop_
_space_group_symop_operation_xyz
x,y,z
-x,y,-z
-x,-y,-z
x,-y,z
1/2+x,1/2+y,z
1/2-x,1/2+y,-z
1/2-x,1/2-y,-z
1/2+x,1/2-y,z
loop_
_atom_site_type_symbol
_atom_site_label
_atom_site_fract_x
_atom_site_fract_y
_atom_site_fract_z
Si Si1 0.654325 0.105196 0.612740
Si Si2 0.286099 0.843603 0.838234
Si Si3 0.925146 0.059374 0.327294
Si Si4 0.828497 0.944027 0.664390
Si Si5 0.990354 0.246183 0.262457
Si Si6 0.483675 0.352989 0.153741
Si Si7 0.643653 0.297425 0.482587
O O1 0.443889 0.115146 0.725348
O O2 0.736254 0.062919 0.496112
O O3 0.685358 0.092345 0.699714
O O4 0.765215 0.155932 0.519159
O O5 0.356219 0.789500 0.836430
O O6 0.182627 0.834715 0.807483
O O7 0.153500 0.867862 0.991027
O O8 0.924498 0.096264 0.242483
O O9 0.097164 0.076543 0.285127
O O10 0.943950 0.000000 0.286082
O O11 0.000000 0.950343 0.500000
O O12 0.738156 0.000000 0.732060
O O13 0.044378 0.193927 0.180865
O O14 0.800591 0.266485 0.336276
O O15 0.959703 0.238507 0.386222
O O16 0.500000 0.320089 0.500000
#
# Coordination Sequence:
#
# PCOD8081226 Si02
#       7
#     8   8   8   8   8   8   8
#     4  10  18  34  56  87 114 145 184 237 281 337
#     4  10  24  39  57  81 116 154 198 229 288 346
#     4  10  20  37  62  89 113 149 194 236 289 338
#     4   8  15  30  56  85 113 141 178 232 286 333
#     4  10  20  35  56  82 110 152 189 232 282 343
#     4  11  22  42  58  79 117 160 189 242 281 339
#     4  10  18  29  52  88 115 137 178 233 287 338
#
# _framework density 19.247496999999999
#
# number of rings (size 3 to 8) (size 9 to 14) (size 15 to 20)
#    0.000    2.143    1.429    3.857    0.000    0.571 
#    0.000    5.714    0.000    1.714    0.000    0.000 
#    0.000    0.000    0.000    0.000    0.000    0.000 
#
# Total GULP energy -347041.645920 kJ/mol
# GULP energy per Si atom -12394.344497 kJ/mol
# Density = 1.920369 g / cm^3
# Si number density = 19.247497 Si / 1000 Ang^3
#
#
#
# Elastic Constant Matrix: (Units=GPa)
#
#
# Indices 1 2 3 4 5 6 
#
# 1 95.8012 36.3687 45.9149 0.0000 -7.5581 0.0000
# 2 36.3687 85.9628 33.9384 0.0000 4.2545 0.0000
# 3 45.9149 33.9384 77.1520 0.0000 -6.4752 0.0000
# 4 0.0000 0.0000 0.0000 15.4559 0.0000 2.9865
# 5 -7.5581 4.2545 -6.4752 0.0000 23.2288 0.0000
# 6 0.0000 0.0000 0.0000 2.9865 0.0000 29.0087
#
#
#
# Elastic Compliance Matrix: (Units=1/GPa)
#
#
# Indices 1 2 3 4 5 6 
#
# 1 0.015747 -0.003966 -0.007306 0.000000 0.003813 0.000000
# 2 -0.003966 0.015532 -0.004934 0.000000 -0.005511 0.000000
# 3 -0.007306 -0.004934 0.019820 0.000000 0.004051 0.000000
# 4 0.000000 0.000000 0.000000 0.066013 0.000000 -0.006796
# 5 0.003813 -0.005511 0.004051 0.000000 0.046429 0.000000
# 6 0.000000 0.000000 0.000000 -0.006796 0.000000 0.035172
#
#
# Mechanical properties :
#
#
# Convention : Reuss Voigt Hill
#
# Bulk Modulus (GPa) = 53.51992 54.59555 54.05774
# Shear Modulus (GPa) = 21.06544 23.05162 22.05853
#
# Velocity S-wave (km/s) = 3.31184 3.46445 3.38900
# Velocity P-wave (km/s) = 6.51850 6.66557 6.59245
#
# Compressibility (1/GPa) = 0.01868463
#
# Stress axis : x y z
#
# Youngs Moduli (GPa) = 63.50609 64.38422 50.45337
#
# Poissons Ratio (x) = 0.25535 0.36863
# Poissons Ratio (y) = 0.25187 0.24896
# Poissons Ratio (z) = 0.46400 0.31770
#
# Static dielectric constant tensor:
#      x y z
#    x 3.561970 0.000000 -0.015130 
#    y 0.000000 3.515350 0.000000 
#    z -0.015130 0.000000 3.253800 
# 
# 
# High freq. dielectric constant tensor:
#      x y z
#    x 1.742390 0.000000 -0.000650 
#    y 0.000000 1.747770 0.000000 
#    z -0.000650 0.000000 1.719410 
# 
# From -- ./inp_files/209083.got.cif
#   From: 2010.06.25/outbox.cif.g09.slc.cpg/sg12_105_cif.got.tgz:209083.got - 2010.06.28 00:19:55.
