data_PCOD8081765
_publ_section_title
;
Structure prediction by ZEFSAII (Michael W. Deem and Ramdas Pophale) SiO2 
 PCOD8081765
Probable space group: C 2/M
;
_chemical_formula_sum "Si O2"
_cell_formula_units_Z 56
_cell_length_a 13.806545
_cell_length_b 20.985923
_cell_length_c 14.393509
_cell_angle_alpha 90.000000
_cell_angle_beta 138.144179
_cell_angle_gamma 90.000000
_cell_volume 2782.747801
_symmetry_space_group_name_H-M "C 2/M"
_symmetry_group_IT_number 12
_symmetry_cell_setting 'monoclinic'
loop_
_space_group_symop_operation_xyz
x,y,z
-x,y,-z
-x,-y,-z
x,-y,z
1/2+x,1/2+y,z
1/2-x,1/2+y,-z
1/2-x,1/2-y,-z
1/2+x,1/2-y,z
loop_
_atom_site_type_symbol
_atom_site_label
_atom_site_fract_x
_atom_site_fract_y
_atom_site_fract_z
Si Si1 0.202903 0.341134 0.417158
Si Si2 0.025061 0.074296 0.411479
Si Si3 0.678447 0.425200 0.888334
Si Si4 0.852190 0.271455 0.432974
Si Si5 0.056151 0.574546 0.807364
Si Si6 0.142782 0.605545 0.661941
Si Si7 0.955590 0.071561 0.871902
O O1 0.349174 0.381019 0.541477
O O2 0.130753 0.315165 0.461211
O O3 0.233719 0.282290 0.369137
O O4 0.091757 0.386850 0.284722
O O5 0.000000 0.089823 0.500000
O O6 0.869912 0.090932 0.251571
O O7 0.066501 0.000000 0.423672
O O8 0.690731 0.500000 0.911278
O O9 0.546784 0.395183 0.855105
O O10 0.833890 0.398751 0.034285
O O11 0.814261 0.320000 0.322212
O O12 0.000000 0.238468 0.500000
O O13 0.020986 0.500000 0.793796
O O14 0.124539 0.587781 0.755825
O O15 0.284483 0.568826 0.726741
O O16 0.000000 0.586279 0.500000
O O17 0.014975 0.000000 0.920557
O O18 0.000000 0.106643 0.000000
#
# Coordination Sequence:
#
# PCOD8081765 Si02
#       7
#     8   8   8   8   8   8   8
#     4  11  21  38  62  86 118 160 207 262 299 361
#     4  10  21  39  63  92 118 155 210 259 308 367
#     4   9  19  34  54  84 126 161 190 239 312 385
#     4  10  21  38  58  86 118 161 216 249 302 349
#     4  11  21  35  57  93 131 156 187 251 322 372
#     4  11  20  34  52  86 122 160 202 246 292 358
#     4  10  18  30  50  82 124 165 191 228 304 379
#
# _framework density 20.123992999999999
#
# number of rings (size 3 to 8) (size 9 to 14) (size 15 to 20)
#    0.000    1.714    4.286    2.143    0.000    1.143 
#    0.000    0.714    0.000   16.286    0.000    0.000 
#    0.000    0.000    0.000    0.000    0.000    0.000 
#
# Total GULP energy -346868.642470 kJ/mol
# GULP energy per Si atom -12388.165802 kJ/mol
# Density = 2.007819 g / cm^3
# Si number density = 20.123993 Si / 1000 Ang^3
#
#
#
# Elastic Constant Matrix: (Units=GPa)
#
#
# Indices 1 2 3 4 5 6 
#
# 1 81.0003 29.7238 43.6610 0.0000 4.5215 0.0000
# 2 29.7238 72.6259 39.9574 0.0000 5.7017 0.0000
# 3 43.6610 39.9574 158.6325 0.0000 8.9336 0.0000
# 4 0.0000 0.0000 0.0000 5.2241 0.0000 5.0341
# 5 4.5215 5.7017 8.9336 0.0000 31.0855 0.0000
# 6 0.0000 0.0000 0.0000 5.0341 0.0000 34.2671
#
#
#
# Elastic Compliance Matrix: (Units=1/GPa)
#
#
# Indices 1 2 3 4 5 6 
#
# 1 0.015787 -0.004696 -0.003132 0.000000 -0.000535 0.000000
# 2 -0.004696 0.017481 -0.003018 0.000000 -0.001656 0.000000
# 3 -0.003132 -0.003018 0.007999 0.000000 -0.001290 0.000000
# 4 0.000000 0.000000 0.000000 0.222989 0.000000 -0.032759
# 5 -0.000535 -0.001656 -0.001290 0.000000 0.032921 0.000000
# 6 0.000000 0.000000 0.000000 -0.032759 0.000000 0.033995
#
#
# Mechanical properties :
#
#
# Convention : Reuss Voigt Hill
#
# Bulk Modulus (GPa) = 51.08377 59.88255 55.48316
# Shear Modulus (GPa) = 13.91252 27.37644 20.64448
#
# Velocity S-wave (km/s) = 2.63219 3.69235 3.20639
# Velocity P-wave (km/s) = 5.88876 6.92815 6.42949
#
# Compressibility (1/GPa) = 0.01957569
#
# Stress axis : x y z
#
# Youngs Moduli (GPa) = 63.34318 57.20378 125.02087
#
# Poissons Ratio (x) = 0.26863 0.39158
# Poissons Ratio (y) = 0.29746 0.37726
# Poissons Ratio (z) = 0.19840 0.17262
#
# Static dielectric constant tensor:
#      x y z
#    x 3.697880 0.000000 0.058400 
#    y 0.000000 3.496320 0.000000 
#    z 0.058400 0.000000 3.714770 
# 
# 
# High freq. dielectric constant tensor:
#      x y z
#    x 1.787530 0.000000 0.004410 
#    y 0.000000 1.756900 0.000000 
#    z 0.004410 0.000000 1.777430 
# 
# From -- ./inp_files/217737.got.cif
#   From: 2010.06.25/outbox.cif.g09.slc.cpg/sg12_109_cif.got.tgz:217737.got - 2010.06.28 00:19:55.
