data_PCOD8081130
_publ_section_title
;
Structure prediction by ZEFSAII (Michael W. Deem and Ramdas Pophale) SiO2 
 PCOD8081130
Probable space group: C 2/M
;
_chemical_formula_sum "Si O2"
_cell_formula_units_Z 48
_cell_length_a 13.282027
_cell_length_b 14.168987
_cell_length_c 13.566597
_cell_angle_alpha 90.000000
_cell_angle_beta 71.921070
_cell_angle_gamma 90.000000
_cell_volume 2427.088218
_symmetry_space_group_name_H-M "C 2/M"
_symmetry_group_IT_number 12
_symmetry_cell_setting 'monoclinic'
loop_
_space_group_symop_operation_xyz
x,y,z
-x,y,-z
-x,-y,-z
x,-y,z
1/2+x,1/2+y,z
1/2-x,1/2+y,-z
1/2-x,1/2-y,-z
1/2+x,1/2-y,z
loop_
_atom_site_type_symbol
_atom_site_label
_atom_site_fract_x
_atom_site_fract_y
_atom_site_fract_z
Si Si1 0.866811 0.393778 0.188690
Si Si2 0.588793 0.252553 0.544774
Si Si3 0.386105 0.396086 0.086298
Si Si4 0.751356 0.607846 0.426612
Si Si5 0.481821 0.721488 0.214876
Si Si6 0.689228 0.388683 0.093280
O O1 0.910740 0.500000 0.165975
O O2 0.783350 0.384653 0.302904
O O3 0.970318 0.328859 0.176663
O O4 0.801474 0.364885 0.110063
O O5 0.500000 0.212265 0.500000
O O6 0.637498 0.344451 0.476495
O O7 0.668307 0.165137 0.528856
O O8 0.543805 0.284875 0.663071
O O9 0.358718 0.500000 0.133178
O O10 0.387963 0.331192 0.182338
O O11 0.500000 0.392579 0.000000
O O12 0.301432 0.366061 0.027066
O O13 0.747910 0.500000 0.463426
O O14 0.597201 0.677294 0.165937
O O15 0.659470 0.500000 0.118100
#
# Coordination Sequence:
#
# PCOD8081130 Si02
#       6
#     8   8   8   8   8   8
#     4   9  18  32  49  69  94 125 157 186 224 277
#     4  10  20  32  48  71  94 120 158 195 228 272
#     4   8  15  28  46  70  96 119 148 189 233 274
#     4   9  19  34  48  67  97 125 151 190 234 273
#     4  10  18  29  50  71  93 122 155 193 231 269
#     4   9  17  31  51  72  94 121 153 189 230 277
#
# _framework density 19.776782999999998
#
# number of rings (size 3 to 8) (size 9 to 14) (size 15 to 20)
#    0.000    2.833    0.000    2.500    0.000    2.667 
#    0.000    0.000    0.000    6.500    0.000    0.000 
#    0.000    0.000    0.000    0.000    0.000    0.000 
#
# Total GULP energy -297451.510309 kJ/mol
# GULP energy per Si atom -12393.812930 kJ/mol
# Density = 1.973177 g / cm^3
# Si number density = 19.776783 Si / 1000 Ang^3
#
#
#
# Elastic Constant Matrix: (Units=GPa)
#
#
# Indices 1 2 3 4 5 6 
#
# 1 55.6371 19.0408 13.9882 0.0000 19.1080 0.0000
# 2 19.0408 87.0084 14.3693 0.0000 10.5855 0.0000
# 3 13.9882 14.3693 54.9940 0.0000 31.1415 0.0000
# 4 0.0000 0.0000 0.0000 25.4570 0.0000 3.2373
# 5 19.1080 10.5855 31.1415 0.0000 25.0354 0.0000
# 6 0.0000 0.0000 0.0000 3.2373 0.0000 22.1694
#
#
#
# Elastic Compliance Matrix: (Units=1/GPa)
#
#
# Indices 1 2 3 4 5 6 
#
# 1 0.029839 -0.004229 0.018264 0.000000 -0.043704 0.000000
# 2 -0.004229 0.012729 -0.003485 0.000000 0.002181 0.000000
# 3 0.018264 -0.003485 0.072756 0.000000 -0.102967 0.000000
# 4 0.000000 0.000000 0.000000 0.040025 0.000000 -0.005845
# 5 -0.043704 0.002181 -0.102967 0.000000 0.200458 0.000000
# 6 0.000000 0.000000 0.000000 -0.005845 0.000000 0.045961
#
#
# Mechanical properties :
#
#
# Convention : Reuss Voigt Hill
#
# Bulk Modulus (GPa) = 7.33019 32.49289 19.91154
# Shear Modulus (GPa) = 11.73316 24.54847 18.14081
#
# Velocity S-wave (km/s) = 2.43838 3.52700 3.03195
# Velocity P-wave (km/s) = 3.41205 5.74907 4.72725
#
# Compressibility (1/GPa) = 0.13642218
#
# Stress axis : x y z
#
# Youngs Moduli (GPa) = 33.51329 78.56165 13.74458
#
# Poissons Ratio (x) = 0.33224 -0.25102
# Poissons Ratio (y) = 0.14173 0.04790
# Poissons Ratio (z) = -0.61207 0.27381
#
# Static dielectric constant tensor:
#      x y z
#    x 3.377380 0.000000 0.385220 
#    y 0.000000 3.778000 0.000000 
#    z 0.385220 0.000000 3.612910 
# 
# 
# High freq. dielectric constant tensor:
#      x y z
#    x 1.747710 0.000000 0.030710 
#    y 0.000000 1.777730 0.000000 
#    z 0.030710 0.000000 1.763490 
# 
# From -- ./inp_files/142877.got.cif
#   From: 2010.06.25/outbox.cif.g09.slc.cpg/sg12_72_cif.got.tgz:142877.got - 2010.06.28 00:19:55.
