data_PCOD8081408
_publ_section_title
;
Structure prediction by ZEFSAII (Michael W. Deem and Ramdas Pophale) SiO2 
 PCOD8081408
Probable space group: C 2/M
;
_chemical_formula_sum "Si O2"
_cell_formula_units_Z 64
_cell_length_a 28.535541
_cell_length_b 9.155262
_cell_length_c 16.825317
_cell_angle_alpha 90.000000
_cell_angle_beta 63.983805
_cell_angle_gamma 90.000000
_cell_volume 3950.212297
_symmetry_space_group_name_H-M "C 2/M"
_symmetry_group_IT_number 12
_symmetry_cell_setting 'monoclinic'
loop_
_space_group_symop_operation_xyz
x,y,z
-x,y,-z
-x,-y,-z
x,-y,z
1/2+x,1/2+y,z
1/2-x,1/2+y,-z
1/2-x,1/2-y,-z
1/2+x,1/2-y,z
loop_
_atom_site_type_symbol
_atom_site_label
_atom_site_fract_x
_atom_site_fract_y
_atom_site_fract_z
Si Si1 0.048099 0.672705 0.910273
Si Si2 0.924659 0.827272 0.602981
Si Si3 0.241887 0.173776 0.921519
Si Si4 0.629206 0.666252 0.946591
Si Si5 0.918846 0.162663 0.850019
Si Si6 0.020009 0.328696 0.754859
Si Si7 0.533858 0.327541 0.592153
Si Si8 0.334960 0.668245 0.782567
O O1 0.051125 0.500000 0.914956
O O2 0.103411 0.737419 0.896784
O O3 0.040995 0.723936 0.824629
O O4 0.000000 0.731451 0.000000
O O5 0.927301 0.779800 0.508507
O O6 0.871623 0.770579 0.683824
O O7 0.975675 0.772417 0.612536
O O8 0.925954 0.000000 0.608564
O O9 0.186800 0.222319 0.925210
O O10 0.284538 0.229177 0.826252
O O11 0.245099 0.000000 0.931146
O O12 0.250000 0.250000 0.000000
O O13 0.631619 0.500000 0.915216
O O14 0.592018 0.683557 0.049737
O O15 0.865062 0.182993 0.843381
O O16 0.959864 0.282408 0.791251
O O17 0.941348 0.000000 0.815697
O O18 0.025008 0.500000 0.740938
O O19 0.052122 0.251930 0.659567
O O20 0.536062 0.500000 0.603717
O O21 0.318327 0.500000 0.780065
#
# Coordination Sequence:
#
# PCOD8081408 Si02
#       8
#     8   8   8   8   8   8   8   8
#     4  10  21  35  48  67  96 128 160 196 242 290
#     4   8  15  28  49  71  95 126 162 197 232 282
#     4  11  22  35  49  71  99 129 164 201 239 283
#     4  10  21  35  49  68  94 125 166 205 233 271
#     4  10  18  30  48  68  95 129 164 199 231 275
#     4  11  21  31  45  70 100 129 161 198 240 286
#     4   9  16  30  49  69  94 129 163 195 235 281
#     4  10  18  32  50  72  98 129 165 199 235 281
#
# _framework density 16.201661000000001
#
# number of rings (size 3 to 8) (size 9 to 14) (size 15 to 20)
#    0.000    2.125    3.750    1.500    0.000    2.750 
#    0.000    1.875    0.000    0.000    0.000    0.875 
#    0.000    0.000    0.000    0.000    0.000    0.000 
#
# Total GULP energy -396705.837274 kJ/mol
# GULP energy per Si atom -12397.057415 kJ/mol
# Density = 1.616479 g / cm^3
# Si number density = 16.201661 Si / 1000 Ang^3
#
#
#
# Elastic Constant Matrix: (Units=GPa)
#
#
# Indices 1 2 3 4 5 6 
#
# 1 79.7129 32.9573 49.7447 0.0000 1.7950 0.0000
# 2 32.9573 44.6244 38.9201 0.0000 4.7316 0.0000
# 3 49.7447 38.9201 118.6244 0.0000 7.9814 0.0000
# 4 0.0000 0.0000 0.0000 24.6183 0.0000 0.1050
# 5 1.7950 4.7316 7.9814 0.0000 25.4663 0.0000
# 6 0.0000 0.0000 0.0000 0.1050 0.0000 26.0574
#
#
#
# Elastic Compliance Matrix: (Units=1/GPa)
#
#
# Indices 1 2 3 4 5 6 
#
# 1 0.020048 -0.010613 -0.005070 0.000000 0.002148 0.000000
# 2 -0.010613 0.037188 -0.007494 0.000000 -0.003813 0.000000
# 3 -0.005070 -0.007494 0.013175 0.000000 -0.002379 0.000000
# 4 0.000000 0.000000 0.000000 0.040621 0.000000 -0.000164
# 5 0.002148 -0.003813 -0.002379 0.000000 0.040570 0.000000
# 6 0.000000 0.000000 0.000000 -0.000164 0.000000 0.038378
#
#
# Mechanical properties :
#
#
# Convention : Reuss Voigt Hill
#
# Bulk Modulus (GPa) = 41.56683 54.02288 47.79485
# Shear Modulus (GPa) = 20.46232 23.31771 21.89001
#
# Velocity S-wave (km/s) = 3.55769 3.79782 3.67971
# Velocity P-wave (km/s) = 6.52594 7.25587 6.90056
#
# Compressibility (1/GPa) = 0.02405764
#
# Stress axis : x y z
#
# Youngs Moduli (GPa) = 49.87995 26.89061 75.90232
#
# Poissons Ratio (x) = 0.28538 0.38480
# Poissons Ratio (y) = 0.52936 0.56883
# Poissons Ratio (z) = 0.25287 0.20152
#
# Static dielectric constant tensor:
#      x y z
#    x 2.899150 0.000000 -0.033840 
#    y 0.000000 2.914130 0.000000 
#    z -0.033840 0.000000 3.340060 
# 
# 
# High freq. dielectric constant tensor:
#      x y z
#    x 1.592250 0.000000 0.002020 
#    y 0.000000 1.610330 0.000000 
#    z 0.002020 0.000000 1.624260 
# 
# From -- ./inp_files/294566.got.cif
#   From: 2010.06.25/outbox.cif.g09.slc.cpg/sg12_148_cif.got.tgz:294566.got - 2010.06.28 00:19:55.
