data_PCOD8081437
_publ_section_title
;
Structure prediction by ZEFSAII (Michael W. Deem and Ramdas Pophale) SiO2 
 PCOD8081437
Probable space group: C 2/M
;
_chemical_formula_sum "Si O2"
_cell_formula_units_Z 56
_cell_length_a 20.795751
_cell_length_b 9.434493
_cell_length_c 22.533893
_cell_angle_alpha 90.000000
_cell_angle_beta 132.126800
_cell_angle_gamma 90.000000
_cell_volume 3278.955555
_symmetry_space_group_name_H-M "C 2/M"
_symmetry_group_IT_number 12
_symmetry_cell_setting 'monoclinic'
loop_
_space_group_symop_operation_xyz
x,y,z
-x,y,-z
-x,-y,-z
x,-y,z
1/2+x,1/2+y,z
1/2-x,1/2+y,-z
1/2-x,1/2-y,-z
1/2+x,1/2-y,z
loop_
_atom_site_type_symbol
_atom_site_label
_atom_site_fract_x
_atom_site_fract_y
_atom_site_fract_z
Si Si1 0.444702 0.664674 0.258038
Si Si2 0.688438 0.835770 0.005257
Si Si3 0.755711 0.167841 0.172488
Si Si4 0.376503 0.337593 0.582164
Si Si5 0.258576 0.835129 0.594699
Si Si6 0.012949 0.664926 0.833461
Si Si7 0.673290 0.832590 0.240229
O O1 0.436727 0.500000 0.235401
O O2 0.355115 0.721192 0.230465
O O3 0.520173 0.688829 0.353882
O O4 0.465784 0.749634 0.212145
O O5 0.588111 0.809577 0.928181
O O6 0.714123 0.000000 0.014598
O O7 0.750000 0.750000 0.000000
O O8 0.703670 0.782670 0.081889
O O9 0.710369 0.236411 0.202564
O O10 0.754101 0.000000 0.177396
O O11 0.355142 0.500000 0.584560
O O12 0.334580 0.243883 0.607279
O O13 0.335463 0.298892 0.492269
O O14 0.262029 0.789241 0.665764
O O15 0.280655 0.000000 0.602648
O O16 0.004918 0.500000 0.811251
O O17 0.923753 0.723103 0.806719
O O18 0.669743 0.000000 0.230323
#
# Coordination Sequence:
#
# PCOD8081437 Si02
#       7
#     8   8   8   8   8   8   8
#     4  10  18  30  48  70  95 124 156 190 231 280
#     4  10  19  31  49  72  95 120 155 195 233 273
#     4   9  18  31  47  68  96 128 154 186 236 283
#     4   9  17  27  44  71  95 118 154 193 229 272
#     4   9  16  28  46  68  94 122 152 191 232 270
#     4  10  19  30  49  73  93 119 158 198 229 268
#     4   9  17  30  47  69  97 125 155 190 232 278
#
# _framework density 17.078609
#
# number of rings (size 3 to 8) (size 9 to 14) (size 15 to 20)
#    0.000    2.571    2.857    0.000    0.000    0.571 
#    0.000    3.571    0.000    7.714    0.000    2.000 
#    0.000    5.714    0.000    0.000    0.000    0.000 
#
# Total GULP energy -347069.469312 kJ/mol
# GULP energy per Si atom -12395.338190 kJ/mol
# Density = 1.703974 g / cm^3
# Si number density = 17.078609 Si / 1000 Ang^3
#
#
#
# Elastic Constant Matrix: (Units=GPa)
#
#
# Indices 1 2 3 4 5 6 
#
# 1 141.5598 27.1217 82.4429 0.0000 -5.6074 0.0000
# 2 27.1217 27.2205 27.6019 0.0000 -1.5547 0.0000
# 3 82.4429 27.6019 146.9619 0.0000 0.6302 0.0000
# 4 0.0000 0.0000 0.0000 18.2007 0.0000 -0.3865
# 5 -5.6074 -1.5547 0.6302 0.0000 31.6608 0.0000
# 6 0.0000 0.0000 0.0000 -0.3865 0.0000 17.9047
#
#
#
# Elastic Compliance Matrix: (Units=1/GPa)
#
#
# Indices 1 2 3 4 5 6 
#
# 1 0.011319 -0.005839 -0.005261 0.000000 0.001823 0.000000
# 2 -0.005839 0.048575 -0.005854 0.000000 0.001468 0.000000
# 3 -0.005261 -0.005854 0.010861 0.000000 -0.001435 0.000000
# 4 0.000000 0.000000 0.000000 0.054968 0.000000 0.001187
# 5 0.001823 0.001468 -0.001435 0.000000 0.032008 0.000000
# 6 0.000000 0.000000 0.000000 0.001187 0.000000 0.055877
#
#
# Mechanical properties :
#
#
# Convention : Reuss Voigt Hill
#
# Bulk Modulus (GPa) = 27.13899 65.56392 46.35145
# Shear Modulus (GPa) = 19.24568 25.45827 22.35197
#
# Velocity S-wave (km/s) = 3.36056 3.86509 3.62162
# Velocity P-wave (km/s) = 5.56623 7.64142 6.68484
#
# Compressibility (1/GPa) = 0.03684736
#
# Stress axis : x y z
#
# Youngs Moduli (GPa) = 88.34731 20.58683 92.07003
#
# Poissons Ratio (x) = 0.12021 0.48437
# Poissons Ratio (y) = 0.51588 0.53895
# Poissons Ratio (z) = 0.46478 0.12051
#
# Static dielectric constant tensor:
#      x y z
#    x 3.306360 0.000000 0.094990 
#    y 0.000000 2.958540 0.000000 
#    z 0.094990 0.000000 3.671390 
# 
# 
# High freq. dielectric constant tensor:
#      x y z
#    x 1.640710 0.000000 0.011200 
#    y 0.000000 1.625860 0.000000 
#    z 0.011200 0.000000 1.680060 
# 
# From -- ./inp_files/276110.got.cif
#   From: 2010.06.25/outbox.cif.g09.slc.cpg/sg12_139_cif.got.tgz:276110.got - 2010.06.28 00:19:55.
