data_PCOD8081356
_publ_section_title
;
Structure prediction by ZEFSAII (Michael W. Deem and Ramdas Pophale) SiO2 
 PCOD8081356
Probable space group: C 2/M
;
_chemical_formula_sum "Si O2"
_cell_formula_units_Z 64
_cell_length_a 13.769454
_cell_length_b 23.316158
_cell_length_c 12.365823
_cell_angle_alpha 90.000000
_cell_angle_beta 77.845319
_cell_angle_gamma 90.000000
_cell_volume 3881.059133
_symmetry_space_group_name_H-M "C 2/M"
_symmetry_group_IT_number 12
_symmetry_cell_setting 'monoclinic'
loop_
_space_group_symop_operation_xyz
x,y,z
-x,y,-z
-x,-y,-z
x,-y,z
1/2+x,1/2+y,z
1/2-x,1/2+y,-z
1/2-x,1/2-y,-z
1/2+x,1/2-y,z
loop_
_atom_site_type_symbol
_atom_site_label
_atom_site_fract_x
_atom_site_fract_y
_atom_site_fract_z
Si Si1 0.813672 0.681346 0.088138
Si Si2 0.115842 0.564496 0.989392
Si Si3 0.226868 0.673844 0.298884
Si Si4 0.406953 0.251077 0.253046
Si Si5 0.553929 0.938050 0.600721
Si Si6 0.358163 0.936046 0.766431
Si Si7 0.105431 0.678958 0.533397
Si Si8 0.126448 0.255108 0.136120
O O1 0.820651 0.612194 0.089628
O O2 0.861245 0.702443 0.187884
O O3 0.698521 0.700259 0.106035
O O4 0.875142 0.707661 0.973107
O O5 0.140064 0.500000 0.941336
O O6 0.150514 0.571147 0.104081
O O7 0.000000 0.577620 0.000000
O O8 0.341801 0.691094 0.259411
O O9 0.216056 0.606015 0.280700
O O10 0.190299 0.692898 0.426299
O O11 0.159384 0.704802 0.226113
O O12 0.400316 0.228630 0.376900
O O13 0.516937 0.267919 0.189107
O O14 0.500000 0.944858 0.500000
O O15 0.472306 0.923093 0.710649
O O16 0.629340 0.883985 0.580563
O O17 0.605969 0.000000 0.615485
O O18 0.328203 0.000000 0.736371
O O19 0.000000 0.674259 0.500000
#
# Coordination Sequence:
#
# PCOD8081356 Si02
#       8
#     8   8   8   8   8   8   8   8
#     4  10  21  32  52  72  99 126 168 199 241 295
#     4  10  20  31  48  73 101 131 160 196 245 295
#     4  11  20  33  50  74  98 130 166 201 249 292
#     4  11  22  33  50  71 100 132 168 205 241 291
#     4   9  16  26  44  67  91 125 155 184 237 293
#     4  10  18  30  47  69  99 129 158 197 244 293
#     4  11  19  31  49  68 104 134 161 202 247 289
#     4  10  19  35  50  72  95 131 161 205 246 282
#
# _framework density 16.490342999999999
#
# number of rings (size 3 to 8) (size 9 to 14) (size 15 to 20)
#    0.000    1.750    5.000    1.500    1.750    0.000 
#    0.000    0.000    0.000    0.750    0.000    1.750 
#    0.000    0.500    0.000    0.625    0.000    0.000 
#
# Total GULP energy -396687.843107 kJ/mol
# GULP energy per Si atom -12396.495097 kJ/mol
# Density = 1.645281 g / cm^3
# Si number density = 16.490343 Si / 1000 Ang^3
#
#
#
# Elastic Constant Matrix: (Units=GPa)
#
#
# Indices 1 2 3 4 5 6 
#
# 1 75.5128 34.2274 25.9837 0.0000 -12.8430 0.0000
# 2 34.2274 93.2793 30.2053 0.0000 -5.9029 0.0000
# 3 25.9837 30.2053 74.6409 0.0000 -7.5467 0.0000
# 4 0.0000 0.0000 0.0000 21.2876 0.0000 -2.8261
# 5 -12.8430 -5.9029 -7.5467 0.0000 21.6537 0.0000
# 6 0.0000 0.0000 0.0000 -2.8261 0.0000 18.9599
#
#
#
# Elastic Compliance Matrix: (Units=1/GPa)
#
#
# Indices 1 2 3 4 5 6 
#
# 1 0.018084 -0.005004 -0.003445 0.000000 0.008161 0.000000
# 2 -0.005004 0.013781 -0.003892 0.000000 -0.000568 0.000000
# 3 -0.003445 -0.003892 0.016437 0.000000 0.002624 0.000000
# 4 0.000000 0.000000 0.000000 0.047924 0.000000 0.007143
# 5 0.008161 -0.000568 0.002624 0.000000 0.051782 0.000000
# 6 0.000000 0.000000 0.000000 0.007143 0.000000 0.053808
#
#
# Mechanical properties :
#
#
# Convention : Reuss Voigt Hill
#
# Bulk Modulus (GPa) = 42.33733 47.14065 44.73899
# Shear Modulus (GPa) = 21.33356 22.58134 21.95745
#
# Velocity S-wave (km/s) = 3.60071 3.70451 3.65298
# Velocity P-wave (km/s) = 6.55870 6.85177 6.70684
#
# Compressibility (1/GPa) = 0.02361982
#
# Stress axis : x y z
#
# Youngs Moduli (GPa) = 55.29630 72.56369 60.83699
#
# Poissons Ratio (x) = 0.36308 0.20961
# Poissons Ratio (y) = 0.27668 0.23680
# Poissons Ratio (z) = 0.19052 0.28244
#
# Static dielectric constant tensor:
#      x y z
#    x 2.832580 0.000000 -0.013680 
#    y 0.000000 3.354380 0.000000 
#    z -0.013680 0.000000 3.315610 
# 
# 
# High freq. dielectric constant tensor:
#      x y z
#    x 1.588670 0.000000 0.003840 
#    y 0.000000 1.633820 0.000000 
#    z 0.003840 0.000000 1.650670 
# 
# From -- ./inp_files/135338.got.cif
#   From: 2010.06.25/outbox.cif.g09.slc.cpg/sg12_68_cif.got.tgz:135338.got - 2010.06.28 00:19:55.
