data_PCOD8081365
_publ_section_title
;
Structure prediction by ZEFSAII (Michael W. Deem and Ramdas Pophale) SiO2 
 PCOD8081365
Probable space group: C 2/M
;
_chemical_formula_sum "Si O2"
_cell_formula_units_Z 48
_cell_length_a 14.223258
_cell_length_b 17.676874
_cell_length_c 11.206173
_cell_angle_alpha 90.000000
_cell_angle_beta 96.381802
_cell_angle_gamma 90.000000
_cell_volume 2800.027520
_symmetry_space_group_name_H-M "C 2/M"
_symmetry_group_IT_number 12
_symmetry_cell_setting 'monoclinic'
loop_
_space_group_symop_operation_xyz
x,y,z
-x,y,-z
-x,-y,-z
x,-y,z
1/2+x,1/2+y,z
1/2-x,1/2+y,-z
1/2-x,1/2-y,-z
1/2+x,1/2-y,z
loop_
_atom_site_type_symbol
_atom_site_label
_atom_site_fract_x
_atom_site_fract_y
_atom_site_fract_z
Si Si1 0.922480 0.280730 0.827359
Si Si2 0.932519 0.414079 0.665419
Si Si3 0.624470 0.256183 0.909299
Si Si4 0.778808 0.164174 0.789463
Si Si5 0.361290 0.913976 0.401017
Si Si6 0.612135 0.414932 0.998561
O O1 0.900183 0.363696 0.772508
O O2 0.895417 0.276590 0.962070
O O3 0.859129 0.219473 0.747852
O O4 0.031830 0.260550 0.817378
O O5 0.903919 0.500000 0.690710
O O6 0.880735 0.385341 0.537981
O O7 0.044925 0.407474 0.665078
O O8 0.714086 0.213189 0.869909
O O9 0.643631 0.347265 0.913711
O O10 0.721696 0.134375 0.668773
O O11 0.830163 0.096500 0.869562
O O12 0.327033 0.000000 0.400738
O O13 0.634696 0.500000 0.953401
O O14 0.500000 0.405168 0.000000
#
# Coordination Sequence:
#
# PCOD8081365 Si02
#       6
#     8   8   8   8   8   8
#     4  10  18  32  50  72 100 131 165 199 245 294
#     4   9  18  34  51  71 102 131 162 206 252 291
#     4  10  19  34  48  73 103 132 162 202 245 290
#     4  11  19  32  53  74 100 130 168 202 243 294
#     4   9  18  32  52  75  97 128 167 209 248 287
#     4  10  18  30  47  70  99 128 160 197 239 286
#
# _framework density 17.142689000000001
#
# number of rings (size 3 to 8) (size 9 to 14) (size 15 to 20)
#    0.000    2.167    5.000    3.500    0.000    0.667 
#    0.000    5.833    0.000    0.000    0.000    0.000 
#    0.000    4.000    0.000    0.000    0.000    0.000 
#
# Total GULP energy -297437.670792 kJ/mol
# GULP energy per Si atom -12393.236283 kJ/mol
# Density = 1.710367 g / cm^3
# Si number density = 17.142689 Si / 1000 Ang^3
#
#
#
# Elastic Constant Matrix: (Units=GPa)
#
#
# Indices 1 2 3 4 5 6 
#
# 1 82.4966 36.3461 27.6253 0.0000 25.6643 0.0000
# 2 36.3461 118.8469 49.8359 0.0000 7.8790 0.0000
# 3 27.6253 49.8359 50.1249 0.0000 15.8967 0.0000
# 4 0.0000 0.0000 0.0000 26.5502 0.0000 9.8256
# 5 25.6643 7.8790 15.8967 0.0000 27.8465 0.0000
# 6 0.0000 0.0000 0.0000 9.8256 0.0000 18.1763
#
#
#
# Elastic Compliance Matrix: (Units=1/GPa)
#
#
# Indices 1 2 3 4 5 6 
#
# 1 0.019428 -0.004308 -0.001383 0.000000 -0.015898 0.000000
# 2 -0.004308 0.015983 -0.016291 0.000000 0.008748 0.000000
# 3 -0.001383 -0.016291 0.042790 0.000000 -0.018544 0.000000
# 4 0.000000 0.000000 0.000000 0.047084 0.000000 -0.025452
# 5 -0.015898 0.008748 -0.018544 0.000000 0.058674 0.000000
# 6 0.000000 0.000000 0.000000 -0.025452 0.000000 0.068776
#
#
# Mechanical properties :
#
#
# Convention : Reuss Voigt Hill
#
# Bulk Modulus (GPa) = 29.20685 53.23145 41.21915
# Shear Modulus (GPa) = 16.22793 23.69200 19.95996
#
# Velocity S-wave (km/s) = 3.08009 3.72162 3.41595
# Velocity P-wave (km/s) = 5.45195 7.04178 6.29724
#
# Compressibility (1/GPa) = 0.03423854
#
# Stress axis : x y z
#
# Youngs Moduli (GPa) = 51.47109 62.56654 23.36978
#
# Poissons Ratio (x) = 0.26953 0.03231
# Poissons Ratio (y) = 0.22173 0.38072
# Poissons Ratio (z) = 0.07117 1.01927
#
# Static dielectric constant tensor:
#      x y z
#    x 3.374370 0.000000 0.332700 
#    y 0.000000 3.312620 0.000000 
#    z 0.332700 0.000000 2.887300 
# 
# 
# High freq. dielectric constant tensor:
#      x y z
#    x 1.666510 0.000000 0.032180 
#    y 0.000000 1.665200 0.000000 
#    z 0.032180 0.000000 1.626090 
# 
# From -- ./inp_files/144330.got.cif
#   From: 2010.06.25/outbox.cif.g09.slc.cpg/sg12_73_cif.got.tgz:144330.got - 2010.06.28 00:19:55.
