data_PCOD8081826
_publ_section_title
;
Structure prediction by ZEFSAII (Michael W. Deem and Ramdas Pophale) SiO2 
 PCOD8081826
Probable space group: C 2/M
;
_chemical_formula_sum "Si O2"
_cell_formula_units_Z 64
_cell_length_a 18.384295
_cell_length_b 9.137641
_cell_length_c 28.325667
_cell_angle_alpha 90.000000
_cell_angle_beta 133.129236
_cell_angle_gamma 90.000000
_cell_volume 3472.746867
_symmetry_space_group_name_H-M "C 2/M"
_symmetry_group_IT_number 12
_symmetry_cell_setting 'monoclinic'
loop_
_space_group_symop_operation_xyz
x,y,z
-x,y,-z
-x,-y,-z
x,-y,z
1/2+x,1/2+y,z
1/2-x,1/2+y,-z
1/2-x,1/2-y,-z
1/2+x,1/2-y,z
loop_
_atom_site_type_symbol
_atom_site_label
_atom_site_fract_x
_atom_site_fract_y
_atom_site_fract_z
Si Si1 0.787286 0.670248 0.866001
Si Si2 0.097808 0.661398 0.511653
Si Si3 0.412483 0.829205 0.247891
Si Si4 0.208242 0.173548 0.635895
Si Si5 0.905861 0.165229 0.992376
Si Si6 0.072131 0.673527 0.242854
Si Si7 0.526824 0.170106 0.118428
Si Si8 0.049406 0.329940 0.628593
O O1 0.772728 0.500000 0.870039
O O2 0.687257 0.737312 0.801128
O O3 0.871114 0.698389 0.864063
O O4 0.815371 0.748268 0.927724
O O5 0.147003 0.500000 0.530837
O O6 0.176697 0.772964 0.569468
O O7 0.000000 0.656412 0.500000
O O8 0.058163 0.712446 0.442339
O O9 0.491907 0.770733 0.245142
O O10 0.459140 0.798958 0.319835
O O11 0.387928 0.000000 0.229576
O O12 0.319133 0.233190 0.695021
O O13 0.138111 0.235461 0.645806
O O14 0.201870 0.000000 0.634196
O O15 0.935203 0.242521 0.054429
O O16 0.871045 0.000000 0.987277
O O17 0.000000 0.169162 0.000000
O O18 0.076444 0.500000 0.243966
O O19 0.040826 0.731692 0.177412
O O20 0.498078 0.000000 0.104951
O O21 0.072877 0.500000 0.628215
#
# Coordination Sequence:
#
# PCOD8081826 Si02
#       8
#     8   8   8   8   8   8   8   8
#     4  10  19  32  52  77 102 127 158 199 246 290
#     4   8  15  29  47  70  99 127 158 197 242 290
#     4  10  20  35  52  69  95 132 169 201 236 285
#     4  10  18  30  51  76  99 125 161 203 244 288
#     4   9  17  30  50  77 103 125 157 200 240 284
#     4   9  19  34  50  70  98 131 164 199 242 289
#     4   9  17  32  53  74  98 128 159 196 244 291
#     4   9  18  32  51  73  97 128 163 199 242 290
#
# _framework density 18.429214999999999
#
# number of rings (size 3 to 8) (size 9 to 14) (size 15 to 20)
#    0.000    2.750    0.000    2.625    0.000    5.750 
#    0.000    4.375    0.000    0.000    0.000    0.000 
#    0.000    0.000    0.000    0.000    0.000    0.000 
#
# Total GULP energy -396748.877647 kJ/mol
# GULP energy per Si atom -12398.402426 kJ/mol
# Density = 1.838727 g / cm^3
# Si number density = 18.429215 Si / 1000 Ang^3
#
#
#
# Elastic Constant Matrix: (Units=GPa)
#
#
# Indices 1 2 3 4 5 6 
#
# 1 52.6173 32.7065 49.3697 0.0000 -15.6785 0.0000
# 2 32.7065 80.5204 59.6209 0.0000 -7.5285 0.0000
# 3 49.3697 59.6209 175.9766 0.0000 -20.8948 0.0000
# 4 0.0000 0.0000 0.0000 32.9737 0.0000 2.5768
# 5 -15.6785 -7.5285 -20.8948 0.0000 11.0283 0.0000
# 6 0.0000 0.0000 0.0000 2.5768 0.0000 14.5422
#
#
#
# Elastic Compliance Matrix: (Units=1/GPa)
#
#
# Indices 1 2 3 4 5 6 
#
# 1 0.042505 -0.010901 -0.002503 0.000000 0.048243 0.000000
# 2 -0.010901 0.019380 -0.004873 0.000000 -0.011501 0.000000
# 3 -0.002503 -0.004873 0.009314 0.000000 0.010761 0.000000
# 4 0.000000 0.000000 0.000000 0.030753 0.000000 -0.005449
# 5 0.048243 -0.011501 0.010761 0.000000 0.171797 0.000000
# 6 0.000000 0.000000 0.000000 -0.005449 0.000000 0.069731
#
#
# Mechanical properties :
#
#
# Convention : Reuss Voigt Hill
#
# Bulk Modulus (GPa) = 28.86524 65.83427 47.34975
# Shear Modulus (GPa) = 12.76870 22.86999 17.81935
#
# Velocity S-wave (km/s) = 2.63506 3.52655 3.11289
# Velocity P-wave (km/s) = 4.99548 7.23757 6.21841
#
# Compressibility (1/GPa) = 0.03464374
#
# Stress axis : x y z
#
# Youngs Moduli (GPa) = 23.52674 51.59904 107.36997
#
# Poissons Ratio (x) = 0.56248 0.26876
# Poissons Ratio (y) = 0.25646 0.52325
# Poissons Ratio (z) = 0.05889 0.25146
#
# Static dielectric constant tensor:
#      x y z
#    x 3.091690 0.000000 -0.093020 
#    y 0.000000 3.308690 0.000000 
#    z -0.093020 0.000000 3.879080 
# 
# 
# High freq. dielectric constant tensor:
#      x y z
#    x 1.674960 0.000000 -0.002640 
#    y 0.000000 1.703550 0.000000 
#    z -0.002640 0.000000 1.737170 
# 
# From -- ./inp_files/365241.got.cif
#   From: 2010.06.25/outbox.cif.g09.slc.cpg/sg12_183_cif.got.tgz:365241.got - 2010.06.28 00:19:55.
