data_PCOD8081175
_publ_section_title
;
Structure prediction by ZEFSAII (Michael W. Deem and Ramdas Pophale) SiO2 
 PCOD8081175
Probable space group: C 2/M
;
_chemical_formula_sum "Si O2"
_cell_formula_units_Z 64
_cell_length_a 24.042572
_cell_length_b 8.612431
_cell_length_c 19.850458
_cell_angle_alpha 90.000000
_cell_angle_beta 57.840733
_cell_angle_gamma 90.000000
_cell_volume 3479.693592
_symmetry_space_group_name_H-M "C 2/M"
_symmetry_group_IT_number 12
_symmetry_cell_setting 'monoclinic'
loop_
_space_group_symop_operation_xyz
x,y,z
-x,y,-z
-x,-y,-z
x,-y,z
1/2+x,1/2+y,z
1/2-x,1/2+y,-z
1/2-x,1/2-y,-z
1/2+x,1/2-y,z
loop_
_atom_site_type_symbol
_atom_site_label
_atom_site_fract_x
_atom_site_fract_y
_atom_site_fract_z
Si Si1 0.452874 0.819289 0.229413
Si Si2 0.792037 0.817317 0.850916
Si Si3 0.645088 0.183059 0.965749
Si Si4 0.128087 0.181308 0.835180
Si Si5 0.790780 0.678078 0.573034
Si Si6 0.734429 0.319224 0.279095
Si Si7 0.337580 0.820425 0.401460
Si Si8 0.591024 0.683464 0.133223
O O1 0.429280 0.723844 0.179723
O O2 0.407884 0.783909 0.323532
O O3 0.525343 0.764217 0.202396
O O4 0.451911 0.000000 0.211528
O O5 0.720665 0.757304 0.921086
O O6 0.803046 0.770625 0.765417
O O7 0.849595 0.745920 0.859704
O O8 0.793372 0.000000 0.858462
O O9 0.615731 0.224275 0.911832
O O10 0.639276 0.000000 0.981715
O O11 0.603211 0.273873 0.047952
O O12 0.197440 0.227074 0.757405
O O13 0.126167 0.000000 0.852530
O O14 0.795951 0.500000 0.590521
O O15 0.809842 0.777558 0.627245
O O16 0.716538 0.713723 0.598555
O O17 0.840426 0.718090 0.479664
O O18 0.752133 0.500000 0.265865
O O19 0.316959 0.000000 0.403985
O O20 0.584288 0.500000 0.145876
#
# Coordination Sequence:
#
# PCOD8081175 Si02
#       8
#     8   8   8   8   8   8   8   8
#     4  11  22  37  54  74 106 146 178 210 259 321
#     4   8  18  35  56  78 104 136 174 218 264 308
#     4  10  20  37  58  80 105 136 171 215 268 320
#     4  11  21  34  53  80 107 137 174 217 261 308
#     4  10  18  29  50  81 108 134 173 216 260 310
#     4  10  18  32  53  79 109 141 171 211 265 317
#     4   9  19  33  50  73 107 143 173 211 260 314
#     4  11  22  37  55  78 104 136 178 223 261 305
#
# _framework density 18.392424999999999
#
# number of rings (size 3 to 8) (size 9 to 14) (size 15 to 20)
#    0.000    2.000    1.250    4.125    0.000    1.500 
#    0.000    9.375    0.000    0.750    0.000    5.250 
#    0.000    0.000    0.000    0.000    0.000    0.000 
#
# Total GULP energy -396821.231477 kJ/mol
# GULP energy per Si atom -12400.663484 kJ/mol
# Density = 1.835056 g / cm^3
# Si number density = 18.392425 Si / 1000 Ang^3
#
#
#
# Elastic Constant Matrix: (Units=GPa)
#
#
# Indices 1 2 3 4 5 6 
#
# 1 59.1960 17.4290 42.1069 0.0003 -4.3482 -0.0003
# 2 17.4290 51.3405 22.1966 0.0010 -0.5870 -0.0001
# 3 42.1069 22.1966 124.1462 0.0002 4.5525 -0.0001
# 4 0.0003 0.0010 0.0002 29.8197 -0.0001 1.6793
# 5 -4.3482 -0.5870 4.5525 -0.0001 24.4906 0.0001
# 6 -0.0003 -0.0001 -0.0001 1.6793 0.0001 22.3352
#
#
#
# Elastic Compliance Matrix: (Units=1/GPa)
#
#
# Indices 1 2 3 4 5 6 
#
# 1 0.024065 -0.004865 -0.007496 0.000000 0.005549 0.000000
# 2 -0.004865 0.022129 -0.002310 -0.000001 0.000096 0.000000
# 3 -0.007496 -0.002310 0.011137 0.000000 -0.003456 0.000000
# 4 0.000000 -0.000001 0.000000 0.033677 0.000000 -0.002532
# 5 0.005549 0.000096 -0.003456 0.000000 0.042462 0.000000
# 6 0.000000 0.000000 0.000000 -0.002532 0.000000 0.044963
#
#
# Mechanical properties :
#
#
# Convention : Reuss Voigt Hill
#
# Bulk Modulus (GPa) = 35.72797 44.23863 39.98330
# Shear Modulus (GPa) = 23.03026 25.52577 24.27802
#
# Velocity S-wave (km/s) = 3.54243 3.72942 3.63712
# Velocity P-wave (km/s) = 6.01658 6.53066 6.27889
#
# Compressibility (1/GPa) = 0.02798928
#
# Stress axis : x y z
#
# Youngs Moduli (GPa) = 41.55411 45.18902 89.78988
#
# Poissons Ratio (x) = 0.21986 0.67304
# Poissons Ratio (y) = 0.20218 0.20741
# Poissons Ratio (z) = 0.31148 0.10438
#
# Static dielectric constant tensor:
#      x y z
#    x 3.355280 0.000000 0.171960 
#    y 0.000000 3.311210 0.000000 
#    z 0.171960 0.000000 3.535120 
# 
# 
# High freq. dielectric constant tensor:
#      x y z
#    x 1.686040 0.000000 0.019950 
#    y 0.000000 1.713290 0.000000 
#    z 0.019950 0.000000 1.716360 
# 
# From -- ./inp_files/324077.got.cif
#   From: 2010.06.25/outbox.cif.g09.slc.cpg/sg12_163_cif.got.tgz:324077.got - 2010.06.28 00:19:55.
