data_PCOD8081374
_publ_section_title
;
Structure prediction by ZEFSAII (Michael W. Deem and Ramdas Pophale) SiO2 
 PCOD8081374
Probable space group: C 2/M
;
_chemical_formula_sum "Si O2"
_cell_formula_units_Z 64
_cell_length_a 25.060310
_cell_length_b 8.855640
_cell_length_c 19.265032
_cell_angle_alpha 90.000000
_cell_angle_beta 62.315072
_cell_angle_gamma 90.000000
_cell_volume 3785.929114
_symmetry_space_group_name_H-M "C 2/M"
_symmetry_group_IT_number 12
_symmetry_cell_setting 'monoclinic'
loop_
_space_group_symop_operation_xyz
x,y,z
-x,y,-z
-x,-y,-z
x,-y,z
1/2+x,1/2+y,z
1/2-x,1/2+y,-z
1/2-x,1/2-y,-z
1/2+x,1/2-y,z
loop_
_atom_site_type_symbol
_atom_site_label
_atom_site_fract_x
_atom_site_fract_y
_atom_site_fract_z
Si Si1 0.112984 0.676461 0.908423
Si Si2 0.960126 0.820853 0.166146
Si Si3 0.299199 0.321925 0.920634
Si Si4 0.357560 0.676229 0.328243
Si Si5 0.808385 0.176829 0.497922
Si Si6 0.770024 0.321761 0.649933
Si Si7 0.750414 0.823814 0.801089
Si Si8 0.912479 0.677613 0.917569
O O1 0.100647 0.500000 0.902620
O O2 0.066225 0.774226 0.892456
O O3 0.180541 0.723629 0.847691
O O4 0.102377 0.719372 0.994434
O O5 0.915446 0.757888 0.253409
O O6 0.022595 0.738891 0.142689
O O7 0.969290 0.000000 0.162989
O O8 0.297238 0.500000 0.933017
O O9 0.283735 0.277576 0.851318
O O10 0.364939 0.258313 0.896516
O O11 0.250000 0.250000 0.000000
O O12 0.355498 0.500000 0.314268
O O13 0.361662 0.708132 0.409076
O O14 0.295722 0.742313 0.333037
O O15 0.750000 0.250000 0.500000
O O16 0.819834 0.252977 0.566180
O O17 0.798193 0.000000 0.514206
O O18 0.774909 0.500000 0.643007
O O19 0.783366 0.266166 0.719514
O O20 0.756534 0.000000 0.782440
O O21 0.909106 0.500000 0.907050
#
# Coordination Sequence:
#
# PCOD8081374 Si02
#       8
#     8   8   8   8   8   8   8   8
#     4  10  20  35  51  71 102 137 170 210 257 303
#     4  11  21  34  51  76 104 136 175 214 252 304
#     4  11  22  38  57  77 100 132 173 218 263 308
#     4   8  16  29  45  68 101 133 165 202 245 296
#     4   9  16  28  45  68  99 136 168 204 249 302
#     4  10  18  30  47  73 103 133 168 209 251 302
#     4  10  20  34  52  75 101 134 171 208 256 307
#     4  11  23  39  53  72 101 137 177 219 259 304
#
# _framework density 16.904700999999999
#
# number of rings (size 3 to 8) (size 9 to 14) (size 15 to 20)
#    0.000    2.000    2.500    3.000    0.000    3.500 
#    0.000    1.875    0.000    0.000    0.000    0.875 
#    0.000    7.000    0.000    0.000    0.000    0.000 
#
# Total GULP energy -396745.614317 kJ/mol
# GULP energy per Si atom -12398.300447 kJ/mol
# Density = 1.686622 g / cm^3
# Si number density = 16.904701 Si / 1000 Ang^3
#
#
#
# Elastic Constant Matrix: (Units=GPa)
#
#
# Indices 1 2 3 4 5 6 
#
# 1 92.4598 32.8618 43.2487 0.0000 10.4014 -0.0001
# 2 32.8618 64.9198 47.0232 -0.0001 15.2099 -0.0006
# 3 43.2487 47.0232 114.3630 0.0000 22.4957 -0.0001
# 4 0.0000 -0.0001 0.0000 28.7868 0.0000 2.1005
# 5 10.4014 15.2099 22.4957 0.0000 15.8567 0.0001
# 6 -0.0001 -0.0006 -0.0001 2.1005 0.0001 25.7692
#
#
#
# Elastic Compliance Matrix: (Units=1/GPa)
#
#
# Indices 1 2 3 4 5 6 
#
# 1 0.014062 -0.004665 -0.003420 0.000000 0.000102 0.000000
# 2 -0.004665 0.025089 -0.006131 0.000000 -0.012308 0.000001
# 3 -0.003420 -0.006131 0.015203 0.000000 -0.013444 0.000000
# 4 0.000000 0.000000 0.000000 0.034946 0.000000 -0.002848
# 5 0.000102 -0.012308 -0.013444 0.000000 0.093876 -0.000001
# 6 0.000000 0.000001 0.000000 -0.002848 -0.000001 0.039038
#
#
# Mechanical properties :
#
#
# Convention : Reuss Voigt Hill
#
# Bulk Modulus (GPa) = 38.57633 57.55666 48.06649
# Shear Modulus (GPa) = 19.28375 23.98980 21.63678
#
# Velocity S-wave (km/s) = 3.38114 3.77121 3.58149
# Velocity P-wave (km/s) = 6.17351 7.28590 6.75265
#
# Compressibility (1/GPa) = 0.02592263
#
# Stress axis : x y z
#
# Youngs Moduli (GPa) = 71.11587 39.85761 65.77782
#
# Poissons Ratio (x) = 0.18593 0.22494
# Poissons Ratio (y) = 0.33174 0.40328
# Poissons Ratio (z) = 0.24320 0.24437
#
# Static dielectric constant tensor:
#      x y z
#    x 13.256270 0.000260 1.709090 
#    y 0.000260 3.183150 0.000040 
#    z 1.709090 0.000040 3.843070 
# 
# 
# High freq. dielectric constant tensor:
#      x y z
#    x 1.613400 0.000000 0.009750 
#    y 0.000000 1.655160 0.000000 
#    z 0.009750 0.000000 1.662310 
# 
# From -- ./inp_files/323668.got.cif
#   From: 2010.06.25/outbox.cif.g09.slc.cpg/sg12_162_cif.got.tgz:323668.got - 2010.06.28 00:19:55.
