data_PCOD8081243
_publ_section_title
;
Structure prediction by ZEFSAII (Michael W. Deem and Ramdas Pophale) SiO2 
 PCOD8081243
Probable space group: C 2/M
;
_chemical_formula_sum "Si O2"
_cell_formula_units_Z 56
_cell_length_a 18.411614
_cell_length_b 19.347966
_cell_length_c 9.278504
_cell_angle_alpha 90.000000
_cell_angle_beta 91.512960
_cell_angle_gamma 90.000000
_cell_volume 3304.103974
_symmetry_space_group_name_H-M "C 2/M"
_symmetry_group_IT_number 12
_symmetry_cell_setting 'monoclinic'
loop_
_space_group_symop_operation_xyz
x,y,z
-x,y,-z
-x,-y,-z
x,-y,z
1/2+x,1/2+y,z
1/2-x,1/2+y,-z
1/2-x,1/2-y,-z
1/2+x,1/2-y,z
loop_
_atom_site_type_symbol
_atom_site_label
_atom_site_fract_x
_atom_site_fract_y
_atom_site_fract_z
Si Si1 0.403288 0.922522 0.249897
Si Si2 0.763222 0.420478 0.054052
Si Si3 0.063533 0.778534 0.404883
Si Si4 0.975805 0.681375 0.843029
Si Si5 0.314590 0.162467 0.800237
Si Si6 0.199655 0.818201 0.267896
Si Si7 0.667918 0.838123 0.519522
O O1 0.343545 0.915456 0.122295
O O2 0.470905 0.876383 0.213374
O O3 0.369234 0.902308 0.402261
O O4 0.432004 0.000000 0.264816
O O5 0.737981 0.500000 0.035044
O O6 0.707832 0.381216 0.157469
O O7 0.761435 0.381559 0.899826
O O8 0.023496 0.745868 0.264894
O O9 0.124121 0.832622 0.350728
O O10 0.106675 0.720557 0.497925
O O11 0.000000 0.812824 0.500000
O O12 0.897114 0.645933 0.849228
O O13 0.000000 0.709147 0.000000
O O14 0.302519 0.245082 0.816806
O O15 0.301640 0.138491 0.634577
O O16 0.265404 0.810258 0.383050
#
# Coordination Sequence:
#
# PCOD8081243 Si02
#       7
#     8   8   8   8   8   8   8
#     4  10  19  30  45  64 100 144 169 193 239 290
#     4  10  20  33  48  70 100 137 169 202 242 294
#     4  10  18  31  51  73  96 123 162 210 257 286
#     4  10  18  30  43  67 101 131 161 202 236 287
#     4  10  19  30  51  72  96 128 171 208 244 289
#     4   9  19  34  52  73  98 129 164 208 253 293
#     4   9  18  33  48  71  98 128 166 210 245 288
#
# _framework density 16.948619000000001
#
# number of rings (size 3 to 8) (size 9 to 14) (size 15 to 20)
#    0.000    2.571    2.857    2.143    0.000    1.429 
#    0.000    5.000    0.000    0.429    0.000    0.000 
#    0.000   22.857    0.000    0.000    0.000    2.286 
#
# Total GULP energy -347054.258205 kJ/mol
# GULP energy per Si atom -12394.794936 kJ/mol
# Density = 1.691004 g / cm^3
# Si number density = 16.948619 Si / 1000 Ang^3
#
#
#
# Elastic Constant Matrix: (Units=GPa)
#
#
# Indices 1 2 3 4 5 6 
#
# 1 84.7066 38.2546 45.6321 0.0000 -10.4851 0.0000
# 2 38.2546 72.9144 46.4529 0.0000 -6.8466 0.0000
# 3 45.6321 46.4529 105.8707 0.0000 -18.2846 0.0000
# 4 0.0000 0.0000 0.0000 13.9809 0.0000 -2.5943
# 5 -10.4851 -6.8466 -18.2846 0.0000 20.2819 0.0000
# 6 0.0000 0.0000 0.0000 -2.5943 0.0000 8.9716
#
#
#
# Elastic Compliance Matrix: (Units=1/GPa)
#
#
# Indices 1 2 3 4 5 6 
#
# 1 0.017188 -0.006033 -0.004238 0.000000 0.003028 0.000000
# 2 -0.006033 0.021183 -0.007104 0.000000 -0.002372 0.000000
# 3 -0.004238 -0.007104 0.016104 0.000000 0.009929 0.000000
# 4 0.000000 0.000000 0.000000 0.075582 0.000000 0.021856
# 5 0.003028 -0.002372 0.009929 0.000000 0.059021 0.000000
# 6 0.000000 0.000000 0.000000 0.021856 0.000000 0.117783
#
#
# Mechanical properties :
#
#
# Convention : Reuss Voigt Hill
#
# Bulk Modulus (GPa) = 50.69797 58.24122 54.46959
# Shear Modulus (GPa) = 14.36015 17.52370 15.94192
#
# Velocity S-wave (km/s) = 2.91396 3.21897 3.07025
# Velocity P-wave (km/s) = 6.42645 6.94649 6.69152
#
# Compressibility (1/GPa) = 0.01972466
#
# Stress axis : x y z
#
# Youngs Moduli (GPa) = 58.17955 47.20750 62.09669
#
# Poissons Ratio (x) = 0.28482 0.26317
# Poissons Ratio (y) = 0.35102 0.44112
# Poissons Ratio (z) = 0.24657 0.33535
#
# Static dielectric constant tensor:
#      x y z
#    x 3.177640 0.000000 -0.071550 
#    y 0.000000 2.914690 0.000000 
#    z -0.071550 0.000000 3.350460 
# 
# 
# High freq. dielectric constant tensor:
#      x y z
#    x 1.645330 0.000000 -0.006870 
#    y 0.000000 1.613820 0.000000 
#    z -0.006870 0.000000 1.668420 
# 
# From -- ./inp_files/76882.got.cif
#   From: 2010.06.25/outbox.cif.g09.slc.cpg/sg12_39_cif.got.tgz:76882.got - 2010.06.28 00:19:55.
