data_PCOD8081633
_publ_section_title
;
Structure prediction by ZEFSAII (Michael W. Deem and Ramdas Pophale) SiO2 
 PCOD8081633
Probable space group: C 2/M
;
_chemical_formula_sum "Si O2"
_cell_formula_units_Z 48
_cell_length_a 20.907600
_cell_length_b 9.348515
_cell_length_c 15.085253
_cell_angle_alpha 90.000000
_cell_angle_beta 109.893007
_cell_angle_gamma 90.000000
_cell_volume 2772.551020
_symmetry_space_group_name_H-M "C 2/M"
_symmetry_group_IT_number 12
_symmetry_cell_setting 'monoclinic'
loop_
_space_group_symop_operation_xyz
x,y,z
-x,y,-z
-x,-y,-z
x,-y,z
1/2+x,1/2+y,z
1/2-x,1/2+y,-z
1/2-x,1/2-y,-z
1/2+x,1/2-y,z
loop_
_atom_site_type_symbol
_atom_site_label
_atom_site_fract_x
_atom_site_fract_y
_atom_site_fract_z
Si Si1 0.346849 0.330278 0.397860
Si Si2 0.902867 0.830404 0.613853
Si Si3 0.785051 0.163939 0.894526
Si Si4 0.207998 0.166620 0.300317
Si Si5 0.657925 0.666585 0.897142
Si Si6 0.447085 0.331141 0.291295
O O1 0.335811 0.500000 0.387858
O O2 0.376858 0.280737 0.505986
O O3 0.275226 0.255032 0.351048
O O4 0.399278 0.274863 0.348089
O O5 0.851592 0.773434 0.664950
O O6 0.977690 0.762980 0.666458
O O7 0.907049 0.000000 0.621063
O O8 0.817011 0.190474 0.812854
O O9 0.717819 0.256792 0.872572
O O10 0.762706 0.000000 0.895794
O O11 0.840192 0.204888 0.997040
O O12 0.223066 0.000000 0.326285
O O13 0.669968 0.500000 0.886122
O O14 0.586146 0.712520 0.819328
O O15 0.453774 0.500000 0.304191
#
# Coordination Sequence:
#
# PCOD8081633 Si02
#       6
#     8   8   8   8   8   8
#     4  10  18  30  50  70  87 117 160 194 218 255
#     4   9  18  30  45  67  95 122 149 186 229 268
#     4   9  17  28  44  67  93 117 144 181 226 270
#     4  10  19  31  46  67  96 124 147 180 230 276
#     4   9  16  28  47  69  88 112 150 189 220 258
#     4   9  16  28  47  70  91 114 152 194 224 257
#
# _framework density 17.312576
#
# number of rings (size 3 to 8) (size 9 to 14) (size 15 to 20)
#    0.000    2.667    1.667    1.000    0.000    2.000 
#    0.000    0.833    0.000   10.000    0.000    0.000 
#    0.000    6.667    0.000    0.000    0.000    0.000 
#
# Total GULP energy -297488.290031 kJ/mol
# GULP energy per Si atom -12395.345418 kJ/mol
# Density = 1.727317 g / cm^3
# Si number density = 17.312576 Si / 1000 Ang^3
#
#
#
# Elastic Constant Matrix: (Units=GPa)
#
#
# Indices 1 2 3 4 5 6 
#
# 1 146.3265 23.7093 90.9226 0.0000 4.1701 0.0000
# 2 23.7093 21.9485 26.7756 0.0000 1.2564 0.0000
# 3 90.9226 26.7756 158.5288 0.0000 8.5524 0.0000
# 4 0.0000 0.0000 0.0000 17.2440 0.0000 2.2555
# 5 4.1701 1.2564 8.5524 0.0000 15.1426 0.0000
# 6 0.0000 0.0000 0.0000 2.2555 0.0000 18.3297
#
#
#
# Elastic Compliance Matrix: (Units=1/GPa)
#
#
# Indices 1 2 3 4 5 6 
#
# 1 0.011093 -0.005312 -0.005491 0.000000 0.000487 0.000000
# 2 -0.005312 0.059937 -0.007104 0.000000 0.000502 0.000000
# 3 -0.005491 -0.007104 0.010875 0.000000 -0.004041 0.000000
# 4 0.000000 0.000000 0.000000 0.058940 0.000000 -0.007253
# 5 0.000487 0.000502 -0.004041 0.000000 0.068145 0.000000
# 6 0.000000 0.000000 0.000000 -0.007253 0.000000 0.055449
#
#
# Mechanical properties :
#
#
# Convention : Reuss Voigt Hill
#
# Bulk Modulus (GPa) = 21.69622 67.73544 44.71583
# Shear Modulus (GPa) = 15.84202 22.50302 19.17252
#
# Velocity S-wave (km/s) = 3.02827 3.60920 3.33142
# Velocity P-wave (km/s) = 4.97861 7.52186 6.37828
#
# Compressibility (1/GPa) = 0.04609097
#
# Stress axis : x y z
#
# Youngs Moduli (GPa) = 90.14708 16.68426 91.95069
#
# Poissons Ratio (x) = 0.08862 0.50494
# Poissons Ratio (y) = 0.47883 0.65322
# Poissons Ratio (z) = 0.49503 0.11852
#
# Static dielectric constant tensor:
#      x y z
#    x 3.310030 0.000000 -0.007480 
#    y 0.000000 2.905490 0.000000 
#    z -0.007480 0.000000 3.686310 
# 
# 
# High freq. dielectric constant tensor:
#      x y z
#    x 1.652190 0.000000 0.000090 
#    y 0.000000 1.628770 0.000000 
#    z 0.000090 0.000000 1.691850 
# 
# From -- ./inp_files/153657.got.cif
#   From: 2010.06.25/outbox.cif.g09.slc.cpg/sg12_77_cif.got.tgz:153657.got - 2010.06.28 00:19:55.
