data_PCOD8081896
_publ_section_title
;
Structure prediction by ZEFSAII (Michael W. Deem and Ramdas Pophale) SiO2 
 PCOD8081896
Probable space group: C 2/M
;
_chemical_formula_sum "Si O2"
_cell_formula_units_Z 48
_cell_length_a 9.127934
_cell_length_b 16.417705
_cell_length_c 16.728458
_cell_angle_alpha 90.000000
_cell_angle_beta 94.826778
_cell_angle_gamma 90.000000
_cell_volume 2498.031718
_symmetry_space_group_name_H-M "C 2/M"
_symmetry_group_IT_number 12
_symmetry_cell_setting 'monoclinic'
loop_
_space_group_symop_operation_xyz
x,y,z
-x,y,-z
-x,-y,-z
x,-y,z
1/2+x,1/2+y,z
1/2-x,1/2+y,-z
1/2-x,1/2-y,-z
1/2+x,1/2-y,z
loop_
_atom_site_type_symbol
_atom_site_label
_atom_site_fract_x
_atom_site_fract_y
_atom_site_fract_z
Si Si1 0.928943 0.595598 0.913528
Si Si2 0.176934 0.165180 0.816508
Si Si3 0.059257 0.096568 0.585286
Si Si4 0.083982 0.092530 0.260065
Si Si5 0.887517 0.653893 0.228329
Si Si6 0.156750 0.406231 0.319596
O O1 0.893632 0.500000 0.910188
O O2 0.043878 0.618285 0.849422
O O3 0.776345 0.647725 0.899463
O O4 0.000000 0.622495 0.000000
O O5 0.005047 0.140186 0.814851
O O6 0.183963 0.258307 0.789098
O O7 0.245927 0.103630 0.755073
O O8 0.961956 0.130146 0.655290
O O9 0.233809 0.118923 0.602703
O O10 0.000000 0.135866 0.500000
O O11 0.041442 0.000000 0.581439
O O12 0.256505 0.097493 0.252902
O O13 0.033846 0.000000 0.254136
O O14 0.012591 0.651551 0.304145
O O15 0.105034 0.500000 0.324613
#
# Coordination Sequence:
#
# PCOD8081896 Si02
#       6
#     8   8   8   8   8   8
#     4  10  21  38  56  72  98 136 169 198 244 306
#     4  10  19  33  52  74 101 133 165 200 247 303
#     4   8  15  29  50  75 101 132 169 206 247 295
#     4  10  18  30  52  76  98 127 168 213 245 283
#     4  11  20  32  51  77 103 126 164 213 250 286
#     4   9  17  32  53  72  98 137 173 202 242 303
#
# _framework density 19.215129000000001
#
# number of rings (size 3 to 8) (size 9 to 14) (size 15 to 20)
#    0.000    2.333    0.000    7.000    0.000    0.667 
#    0.000    1.667    0.000   23.000    0.000    0.000 
#    0.000    0.000    0.000    0.000    0.000    0.167 
#
# Total GULP energy -297365.514923 kJ/mol
# GULP energy per Si atom -12390.229788 kJ/mol
# Density = 1.917139 g / cm^3
# Si number density = 19.215129 Si / 1000 Ang^3
#
#
#
# Elastic Constant Matrix: (Units=GPa)
#
#
# Indices 1 2 3 4 5 6 
#
# 1 142.4212 26.2659 66.6425 0.0000 29.3022 0.0000
# 2 26.2659 67.6339 25.5510 0.0000 17.3459 0.0000
# 3 66.6425 25.5510 101.1779 0.0000 34.5385 0.0000
# 4 0.0000 0.0000 0.0000 10.9834 0.0000 5.3822
# 5 29.3022 17.3459 34.5385 0.0000 38.8659 0.0000
# 6 0.0000 0.0000 0.0000 5.3822 0.0000 29.0219
#
#
#
# Elastic Compliance Matrix: (Units=1/GPa)
#
#
# Indices 1 2 3 4 5 6 
#
# 1 0.010415 -0.001310 -0.005811 0.000000 -0.002103 0.000000
# 2 -0.001310 0.017278 -0.001730 0.000000 -0.005186 0.000000
# 3 -0.005811 -0.001730 0.017784 0.000000 -0.010650 0.000000
# 4 0.000000 0.000000 0.000000 0.100148 0.000000 -0.018573
# 5 -0.002103 -0.005186 -0.010650 0.000000 0.039094 0.000000
# 6 0.000000 0.000000 0.000000 -0.018573 0.000000 0.037901
#
#
# Mechanical properties :
#
#
# Convention : Reuss Voigt Hill
#
# Bulk Modulus (GPa) = 36.00468 60.90576 48.45522
# Shear Modulus (GPa) = 20.03365 28.62582 24.32974
#
# Velocity S-wave (km/s) = 3.23243 3.86392 3.56220
# Velocity P-wave (km/s) = 5.71925 7.18833 6.49546
#
# Compressibility (1/GPa) = 0.02777417
#
# Stress axis : x y z
#
# Youngs Moduli (GPa) = 96.01574 57.87752 56.23115
#
# Poissons Ratio (x) = 0.07581 0.32677
# Poissons Ratio (y) = 0.12577 0.09729
# Poissons Ratio (z) = 0.55796 0.10014
#
# Static dielectric constant tensor:
#      x y z
#    x 3.832880 0.000000 0.521940 
#    y 0.000000 3.271200 0.000000 
#    z 0.521940 0.000000 3.573840 
# 
# 
# High freq. dielectric constant tensor:
#      x y z
#    x 1.758510 0.000000 0.031460 
#    y 0.000000 1.735990 0.000000 
#    z 0.031460 0.000000 1.712210 
# 
# From -- ./inp_files/196005.got.cif
#   From: 2010.06.25/outbox.cif.g09.slc.cpg/sg12_99_cif.got.tgz:196005.got - 2010.06.28 00:19:55.
