data_PCOD8081993
_publ_section_title
;
Structure prediction by ZEFSAII (Michael W. Deem and Ramdas Pophale) SiO2 
 PCOD8081993
Probable space group: C 2/M
;
_chemical_formula_sum "Si O2"
_cell_formula_units_Z 56
_cell_length_a 25.401009
_cell_length_b 9.142868
_cell_length_c 13.656798
_cell_angle_alpha 90.000000
_cell_angle_beta 104.055387
_cell_angle_gamma 90.000000
_cell_volume 3076.674360
_symmetry_space_group_name_H-M "C 2/M"
_symmetry_group_IT_number 12
_symmetry_cell_setting 'monoclinic'
loop_
_space_group_symop_operation_xyz
x,y,z
-x,y,-z
-x,-y,-z
x,-y,z
1/2+x,1/2+y,z
1/2-x,1/2+y,-z
1/2-x,1/2-y,-z
1/2+x,1/2-y,z
loop_
_atom_site_type_symbol
_atom_site_label
_atom_site_fract_x
_atom_site_fract_y
_atom_site_fract_z
Si Si1 0.408946 0.826413 0.485865
Si Si2 0.635239 0.169015 0.227224
Si Si3 0.033808 0.672212 0.299264
Si Si4 0.804023 0.332892 0.546699
Si Si5 0.687549 0.330790 0.870390
Si Si6 0.913949 0.327294 0.268238
Si Si7 0.295325 0.331057 0.893788
O O1 0.452504 0.765866 0.585293
O O2 0.349926 0.772930 0.494179
O O3 0.419026 0.767034 0.381463
O O4 0.412744 0.000000 0.484861
O O5 0.576143 0.229900 0.236154
O O6 0.678214 0.189384 0.333564
O O7 0.654982 0.264997 0.145162
O O8 0.631625 0.000000 0.192558
O O9 0.044027 0.500000 0.309931
O O10 0.971818 0.709000 0.242776
O O11 0.792690 0.500000 0.518252
O O12 0.750000 0.250000 0.500000
O O13 0.689055 0.500000 0.840609
O O14 0.632354 0.258676 0.808810
O O15 0.739272 0.252555 0.844163
O O16 0.688853 0.309498 0.986801
O O17 0.901248 0.500000 0.258835
O O18 0.287043 0.500000 0.862731
#
# Coordination Sequence:
#
# PCOD8081993 Si02
#       7
#     8   8   8   8   8   8   8
#     4   8  15  28  47  73 104 137 172 209 246 288
#     4   9  18  33  53  75 103 139 171 209 261 303
#     4   8  15  30  51  77 108 139 173 210 249 296
#     4   9  18  30  44  69 104 137 169 207 250 299
#     4  10  22  38  54  76 105 132 162 213 271 315
#     4  10  18  30  54  82 104 134 177 216 248 296
#     4  10  21  38  58  76  97 131 174 214 259 316
#
# _framework density 18.201471000000002
#
# number of rings (size 3 to 8) (size 9 to 14) (size 15 to 20)
#    0.000    2.857    0.000    3.000    2.000    4.000 
#    0.000    1.429    0.000    7.714    0.000    0.000 
#    0.000    0.000    0.000    0.000    0.000    0.000 
#
# Total GULP energy -347072.394127 kJ/mol
# GULP energy per Si atom -12395.442647 kJ/mol
# Density = 1.816004 g / cm^3
# Si number density = 18.201471 Si / 1000 Ang^3
#
#
#
# Elastic Constant Matrix: (Units=GPa)
#
#
# Indices 1 2 3 4 5 6 
#
# 1 132.0909 53.7630 57.2782 0.0000 5.5992 0.0000
# 2 53.7630 72.7127 39.5267 0.0000 1.9939 0.0000
# 3 57.2782 39.5267 51.7803 0.0000 2.8521 0.0000
# 4 0.0000 0.0000 0.0000 25.3878 0.0000 2.8569
# 5 5.5992 1.9939 2.8521 0.0000 31.5520 0.0000
# 6 0.0000 0.0000 0.0000 2.8569 0.0000 25.9607
#
#
#
# Elastic Compliance Matrix: (Units=1/GPa)
#
#
# Indices 1 2 3 4 5 6 
#
# 1 0.015114 -0.003572 -0.013926 0.000000 -0.001198 0.000000
# 2 -0.003572 0.024352 -0.014661 0.000000 0.000420 0.000000
# 3 -0.013926 -0.014661 0.045950 0.000000 -0.000756 0.000000
# 4 0.000000 0.000000 0.000000 0.039883 0.000000 -0.004389
# 5 -0.001198 0.000420 -0.000756 0.000000 0.031948 0.000000
# 6 0.000000 0.000000 0.000000 -0.004389 0.000000 0.039003
#
#
# Mechanical properties :
#
#
# Convention : Reuss Voigt Hill
#
# Bulk Modulus (GPa) = 47.39794 61.96885 54.68340
# Shear Modulus (GPa) = 18.68458 23.64785 21.16622
#
# Velocity S-wave (km/s) = 3.20745 3.60839 3.41381
# Velocity P-wave (km/s) = 6.30985 7.17500 6.75629
#
# Compressibility (1/GPa) = 0.02109796
#
# Stress axis : x y z
#
# Youngs Moduli (GPa) = 66.16474 41.06410 21.76277
#
# Poissons Ratio (x) = 0.14668 0.30306
# Poissons Ratio (y) = 0.23634 0.31907
# Poissons Ratio (z) = 0.92140 0.60205
#
# Static dielectric constant tensor:
#      x y z
#    x 3.514670 0.000000 -0.160390 
#    y 0.000000 3.063810 0.000000 
#    z -0.160390 0.000000 3.288820 
# 
# 
# High freq. dielectric constant tensor:
#      x y z
#    x 1.719370 0.000000 -0.003710 
#    y 0.000000 1.670730 0.000000 
#    z -0.003710 0.000000 1.692960 
# 
# From -- ./inp_files/243271.got.cif
#   From: 2010.06.25/outbox.cif.g09.slc.cpg/sg12_122_cif.got.tgz:243271.got - 2010.06.28 00:19:55.
