data_PCOD8081573
_publ_section_title
;
Structure prediction by ZEFSAII (Michael W. Deem and Ramdas Pophale) SiO2 
 PCOD8081573
Probable space group: C 2/M
;
_chemical_formula_sum "Si O2"
_cell_formula_units_Z 64
_cell_length_a 20.181186
_cell_length_b 8.980793
_cell_length_c 20.421377
_cell_angle_alpha 90.000000
_cell_angle_beta 78.535274
_cell_angle_gamma 90.000000
_cell_volume 3627.382996
_symmetry_space_group_name_H-M "C 2/M"
_symmetry_group_IT_number 12
_symmetry_cell_setting 'monoclinic'
loop_
_space_group_symop_operation_xyz
x,y,z
-x,y,-z
-x,-y,-z
x,-y,z
1/2+x,1/2+y,z
1/2-x,1/2+y,-z
1/2-x,1/2-y,-z
1/2+x,1/2-y,z
loop_
_atom_site_type_symbol
_atom_site_label
_atom_site_fract_x
_atom_site_fract_y
_atom_site_fract_z
Si Si1 0.633604 0.676544 0.320306
Si Si2 0.745750 0.675474 0.070557
Si Si3 0.407847 0.674306 0.334217
Si Si4 0.613526 0.324397 0.176950
Si Si5 0.716771 0.823873 0.690105
Si Si6 0.523158 0.175234 0.801896
Si Si7 0.158530 0.673887 0.837830
Si Si8 0.491331 0.674637 0.573777
O O1 0.627988 0.500000 0.317482
O O2 0.627139 0.737057 0.247512
O O3 0.705621 0.722215 0.337702
O O4 0.574233 0.744851 0.377043
O O5 0.751213 0.500000 0.059823
O O6 0.675857 0.720282 0.118957
O O7 0.807701 0.739731 0.102948
O O8 0.750000 0.750000 0.000000
O O9 0.405761 0.500000 0.318974
O O10 0.332078 0.741100 0.351931
O O11 0.453716 0.752204 0.270576
O O12 0.441283 0.706817 0.397955
O O13 0.601040 0.500000 0.179532
O O14 0.547334 0.244369 0.160657
O O15 0.696377 0.764456 0.766097
O O16 0.705128 0.000000 0.685666
O O17 0.578602 0.209499 0.847959
O O18 0.516234 0.000000 0.791883
O O19 0.173383 0.500000 0.836336
O O20 0.500000 0.746841 0.500000
O O21 0.478190 0.500000 0.569161
#
# Coordination Sequence:
#
# PCOD8081573 Si02
#       8
#     8   8   8   8   8   8   8   8
#     4   9  15  28  51  74  96 129 173 209 242 290
#     4  10  20  35  54  74 101 134 169 207 250 301
#     4  10  18  30  49  73 103 132 163 208 257 297
#     4  10  18  32  54  77 100 131 171 212 250 291
#     4   9  16  29  51  74  96 126 169 210 246 295
#     4  10  19  31  52  78 102 128 166 211 252 297
#     4   8  15  30  50  70  94 129 167 200 238 295
#     4   9  17  29  48  74 101 133 174 210 242 295
#
# _framework density 17.643574000000001
#
# number of rings (size 3 to 8) (size 9 to 14) (size 15 to 20)
#    0.000    2.625    2.500    1.500    0.000    0.500 
#    0.000    5.000    0.000    5.250    0.000    0.000 
#    0.000    0.000    0.000    0.000    0.000    0.000 
#
# Total GULP energy -396659.008446 kJ/mol
# GULP energy per Si atom -12395.594014 kJ/mol
# Density = 1.760342 g / cm^3
# Si number density = 17.643574 Si / 1000 Ang^3
#
#
#
# Elastic Constant Matrix: (Units=GPa)
#
#
# Indices 1 2 3 4 5 6 
#
# 1 165.8641 45.3322 78.8622 0.0000 6.4007 0.0000
# 2 45.3322 40.4401 31.1282 0.0000 3.2773 0.0000
# 3 78.8622 31.1282 124.4643 0.0000 5.2409 0.0000
# 4 0.0000 0.0000 0.0000 16.4965 0.0000 2.1343
# 5 6.4007 3.2773 5.2409 0.0000 25.4701 0.0000
# 6 0.0000 0.0000 0.0000 2.1343 0.0000 29.2827
#
#
#
# Elastic Compliance Matrix: (Units=1/GPa)
#
#
# Indices 1 2 3 4 5 6 
#
# 1 0.010447 -0.008155 -0.004553 0.000000 -0.000639 0.000000
# 2 -0.008155 0.037132 -0.004040 0.000000 -0.001897 0.000000
# 3 -0.004553 -0.004040 0.011963 0.000000 -0.000798 0.000000
# 4 0.000000 0.000000 0.000000 0.061196 0.000000 -0.004460
# 5 -0.000639 -0.001897 -0.000798 0.000000 0.039831 0.000000
# 6 0.000000 0.000000 0.000000 -0.004460 0.000000 0.034475
#
#
# Mechanical properties :
#
#
# Convention : Reuss Voigt Hill
#
# Bulk Modulus (GPa) = 38.39125 71.26817 54.82971
# Shear Modulus (GPa) = 21.07727 25.94628 23.51177
#
# Velocity S-wave (km/s) = 3.46007 3.83897 3.65444
# Velocity P-wave (km/s) = 6.14568 7.75443 6.99645
#
# Compressibility (1/GPa) = 0.02604760
#
# Stress axis : x y z
#
# Youngs Moduli (GPa) = 95.71864 26.93068 83.58846
#
# Poissons Ratio (x) = 0.21961 0.38059
# Poissons Ratio (y) = 0.78054 0.33770
# Poissons Ratio (z) = 0.43583 0.10880
#
# Static dielectric constant tensor:
#      x y z
#    x 3.615950 0.000000 0.077680 
#    y 0.000000 2.954110 0.000000 
#    z 0.077680 0.000000 3.212730 
# 
# 
# High freq. dielectric constant tensor:
#      x y z
#    x 1.701640 0.000000 0.007630 
#    y 0.000000 1.645430 0.000000 
#    z 0.007630 0.000000 1.655530 
# 
# From -- ./inp_files/319132.got.cif
#   From: 2010.06.25/outbox.cif.g09.slc.cpg/sg12_160_cif.got.tgz:319132.got - 2010.06.28 00:19:55.
