data_PCOD8081044
_publ_section_title
;
Structure prediction by ZEFSAII (Michael W. Deem and Ramdas Pophale) SiO2 
 PCOD8081044
Probable space group: C 2/M
;
_chemical_formula_sum "Si O2"
_cell_formula_units_Z 52
_cell_length_a 18.956253
_cell_length_b 23.005654
_cell_length_c 7.488029
_cell_angle_alpha 90.000000
_cell_angle_beta 73.379779
_cell_angle_gamma 90.000000
_cell_volume 3129.108300
_symmetry_space_group_name_H-M "C 2/M"
_symmetry_group_IT_number 12
_symmetry_cell_setting 'monoclinic'
loop_
_space_group_symop_operation_xyz
x,y,z
-x,y,-z
-x,-y,-z
x,-y,z
1/2+x,1/2+y,z
1/2-x,1/2+y,-z
1/2-x,1/2-y,-z
1/2+x,1/2-y,z
loop_
_atom_site_type_symbol
_atom_site_label
_atom_site_fract_x
_atom_site_fract_y
_atom_site_fract_z
Si Si1 0.000000 0.889332 0.500000
Si Si2 0.412295 0.435166 0.062977
Si Si3 0.854946 0.935385 0.502335
Si Si4 0.845529 0.820324 0.970424
Si Si5 0.270704 0.326090 0.667689
Si Si6 0.997751 0.200586 0.802116
Si Si7 0.350806 0.746015 0.321191
O O1 0.926255 0.927223 0.581988
O O2 0.020968 0.849941 0.652861
O O3 0.389449 0.500000 0.012757
O O4 0.381209 0.424925 0.282979
O O5 0.500000 0.430532 0.000000
O O6 0.374809 0.386766 0.963206
O O7 0.788535 0.891906 0.599433
O O8 0.823846 0.000000 0.553804
O O9 0.779829 0.817937 0.875014
O O10 0.912751 0.780523 0.836481
O O11 0.821865 0.794894 0.179009
O O12 0.325293 0.282189 0.525141
O O13 0.186346 0.309458 0.678187
O O14 0.059667 0.251579 0.742399
O O15 0.000000 0.173333 0.000000
#
# Coordination Sequence:
#
# PCOD8081044 Si02
#       7
#     4   8   8   8   8   8   8
#     4  12  17  32  44  68  94 126 159 196 216 266
#     4  10  20  31  44  66  96 127 162 201 230 261
#     4  11  21  32  46  67  96 130 164 197 231 271
#     4  11  18  32  50  66  88 124 163 196 230 275
#     4  11  21  32  47  66  94 124 161 192 236 277
#     4  10  18  29  49  66  90 119 160 194 231 267
#     4  10  20  33  46  66  91 125 155 199 237 279
#
# _framework density 16.618151000000001
#
# number of rings (size 3 to 8) (size 9 to 14) (size 15 to 20)
#    0.000    1.385    4.615    3.923    0.000    0.615 
#    0.000    0.000    0.000    0.462    0.000    0.000 
#    0.000    5.538    0.000   13.308    0.000    1.077 
#
# Total GULP energy -322119.821187 kJ/mol
# GULP energy per Si atom -12389.223892 kJ/mol
# Density = 1.658033 g / cm^3
# Si number density = 16.618151 Si / 1000 Ang^3
#
#
#
# Elastic Constant Matrix: (Units=GPa)
#
#
# Indices 1 2 3 4 5 6 
#
# 1 59.4618 41.2360 11.8406 0.0000 -1.4024 0.0000
# 2 41.2360 80.3552 19.3140 0.0000 -3.4861 0.0000
# 3 11.8406 19.3140 55.6434 0.0000 5.0662 0.0000
# 4 0.0000 0.0000 0.0000 7.4814 0.0000 -5.7807
# 5 -1.4024 -3.4861 5.0662 0.0000 19.6694 0.0000
# 6 0.0000 0.0000 0.0000 -5.7807 0.0000 25.2402
#
#
#
# Elastic Compliance Matrix: (Units=1/GPa)
#
#
# Indices 1 2 3 4 5 6 
#
# 1 0.026160 -0.013203 -0.000963 0.000000 -0.000227 0.000000
# 2 -0.013203 0.020510 -0.004664 0.000000 0.003895 0.000000
# 3 -0.000963 -0.004664 0.020354 0.000000 -0.006138 0.000000
# 4 0.000000 0.000000 0.000000 0.162406 0.000000 0.037195
# 5 -0.000227 0.003895 -0.006138 0.000000 0.053096 0.000000
# 6 0.000000 0.000000 0.000000 0.037195 0.000000 0.048138
#
#
# Mechanical properties :
#
#
# Convention : Reuss Voigt Hill
#
# Bulk Modulus (GPa) = 34.05570 37.80463 35.93016
# Shear Modulus (GPa) = 13.22358 18.68285 15.95321
#
# Velocity S-wave (km/s) = 2.82393 3.35661 3.10173
# Velocity P-wave (km/s) = 5.58304 6.14986 5.87329
#
# Compressibility (1/GPa) = 0.02936366
#
# Stress axis : x y z
#
# Youngs Moduli (GPa) = 38.22631 48.75637 49.12937
#
# Poissons Ratio (x) = 0.64372 0.04733
# Poissons Ratio (y) = 0.50470 0.22915
# Poissons Ratio (z) = 0.03682 0.22741
#
# Static dielectric constant tensor:
#      x y z
#    x 3.053980 0.000000 0.049220 
#    y 0.000000 3.063250 0.000000 
#    z 0.049220 0.000000 3.348910 
# 
# 
# High freq. dielectric constant tensor:
#      x y z
#    x 1.605900 0.000000 0.016310 
#    y 0.000000 1.603850 0.000000 
#    z 0.016310 0.000000 1.659500 
# 
# From -- ./inp_files/88723.got.cif
#   From: 2010.06.25/outbox.cif.g09.slc.cpg/sg12_45_cif.got.tgz:88723.got - 2010.06.28 00:19:55.
