data_PCOD8081185
_publ_section_title
;
Structure prediction by ZEFSAII (Michael W. Deem and Ramdas Pophale) SiO2 
 PCOD8081185
Probable space group: C 2/M
;
_chemical_formula_sum "Si O2"
_cell_formula_units_Z 60
_cell_length_a 22.727723
_cell_length_b 25.864582
_cell_length_c 14.218969
_cell_angle_alpha 90.000000
_cell_angle_beta 159.739720
_cell_angle_gamma 90.000000
_cell_volume 2894.434043
_symmetry_space_group_name_H-M "C 2/M"
_symmetry_group_IT_number 12
_symmetry_cell_setting 'monoclinic'
loop_
_space_group_symop_operation_xyz
x,y,z
-x,y,-z
-x,-y,-z
x,-y,z
1/2+x,1/2+y,z
1/2-x,1/2+y,-z
1/2-x,1/2-y,-z
1/2+x,1/2-y,z
loop_
_atom_site_type_symbol
_atom_site_label
_atom_site_fract_x
_atom_site_fract_y
_atom_site_fract_z
Si Si1 0.310805 0.441439 0.807863
Si Si2 0.318321 0.881416 0.216245
Si Si3 0.832212 0.704925 0.684786
Si Si4 0.315861 0.061644 0.015027
Si Si5 0.970758 0.845258 0.654969
Si Si6 0.000000 0.124645 0.500000
Si Si7 0.131651 0.396596 0.374896
Si Si8 0.136520 0.943662 0.412894
O O1 0.254395 0.500000 0.695365
O O2 0.195596 0.423508 0.722162
O O3 0.280314 0.401802 0.675979
O O4 0.507880 0.440615 0.131410
O O5 0.500000 0.851835 0.500000
O O6 0.323706 0.913823 0.129262
O O7 0.161532 0.839946 0.986091
O O8 0.750000 0.750000 0.500000
O O9 0.674327 0.689170 0.515214
O O10 0.888033 0.661962 0.692182
O O11 0.000000 0.719583 0.000000
O O12 0.465499 0.080335 0.171753
O O13 0.309674 0.000000 0.011954
O O14 0.154549 0.085591 0.723507
O O15 0.990507 0.835616 0.573678
O O16 0.920495 0.905480 0.590651
O O17 0.179953 0.429584 0.354457
O O18 0.140007 0.000000 0.464700
#
# Coordination Sequence:
#
# PCOD8081185 Si02
#       8
#     8   8   8   8   8   4   8   8
#     4  10  18  29  50  83 127 173 214 253 296 353
#     4  10  19  32  52  87 131 176 213 255 289 346
#     4  11  26  49  74  97 119 153 201 268 337 397
#     4  11  21  32  52  85 126 176 218 251 293 354
#     4   9  21  39  63  90 124 165 208 254 311 366
#     4  10  21  38  58  82 124 168 212 248 287 364
#     4  11  21  34  57  86 118 155 202 254 319 372
#     4   9  18  31  49  83 128 170 212 258 301 350
#
# _framework density 20.72944
#
# number of rings (size 3 to 8) (size 9 to 14) (size 15 to 20)
#    0.000    1.867    1.333    3.000    0.000    8.533 
#    0.000    0.000    0.000   15.200    1.733    0.000 
#    0.000    0.000    0.000    0.000    0.000    0.000 
#
# Total GULP energy -371649.107926 kJ/mol
# GULP energy per Si atom -12388.303598 kJ/mol
# Density = 2.068226 g / cm^3
# Si number density = 20.729440 Si / 1000 Ang^3
#
#
#
# Elastic Constant Matrix: (Units=GPa)
#
#
# Indices 1 2 3 4 5 6 
#
# 1 82.0080 13.0644 43.3137 0.0000 5.4497 0.0000
# 2 13.0644 61.0426 45.7979 0.0000 -7.3338 0.0000
# 3 43.3137 45.7979 84.3476 0.0000 11.8795 0.0000
# 4 0.0000 0.0000 0.0000 20.5327 0.0000 -1.6614
# 5 5.4497 -7.3338 11.8795 0.0000 40.9694 0.0000
# 6 0.0000 0.0000 0.0000 -1.6614 0.0000 18.2519
#
#
#
# Elastic Compliance Matrix: (Units=1/GPa)
#
#
# Indices 1 2 3 4 5 6 
#
# 1 0.017821 0.006074 -0.012791 0.000000 0.002426 0.000000
# 2 0.006074 0.033977 -0.023260 0.000000 0.012019 0.000000
# 3 -0.012791 -0.023260 0.032737 0.000000 -0.011955 0.000000
# 4 0.000000 0.000000 0.000000 0.049064 0.000000 0.004466
# 5 0.002426 0.012019 -0.011955 0.000000 0.029704 0.000000
# 6 0.000000 0.000000 0.000000 0.004466 0.000000 0.055195
#
#
# Mechanical properties :
#
#
# Convention : Reuss Voigt Hill
#
# Bulk Modulus (GPa) = 40.68202 47.97226 44.32714
# Shear Modulus (GPa) = 17.44312 24.29894 20.87103
#
# Velocity S-wave (km/s) = 2.90395 3.42745 3.17650
# Velocity P-wave (km/s) = 5.55983 6.23342 5.90624
#
# Compressibility (1/GPa) = 0.02458089
#
# Stress axis : x y z
#
# Youngs Moduli (GPa) = 56.11446 29.43147 30.54646
#
# Poissons Ratio (x) = -0.17876 0.39071
# Poissons Ratio (y) = -0.34082 0.71051
# Poissons Ratio (z) = 0.71774 0.68458
#
# Static dielectric constant tensor:
#      x y z
#    x 3.897020 0.000000 0.121610 
#    y 0.000000 3.362010 0.000000 
#    z 0.121610 0.000000 3.846130 
# 
# 
# High freq. dielectric constant tensor:
#      x y z
#    x 1.832700 0.000000 0.010930 
#    y 0.000000 1.758400 0.000000 
#    z 0.010930 0.000000 1.824740 
# 
# From -- ./inp_files/242362.got.cif
#   From: 2010.06.25/outbox.cif.g09.slc.cpg/sg12_122_cif.got.tgz:242362.got - 2010.06.28 00:19:55.
