data_PCOD8081415
_publ_section_title
;
Structure prediction by ZEFSAII (Michael W. Deem and Ramdas Pophale) SiO2 
 PCOD8081415
Probable space group: C 2/M
;
_chemical_formula_sum "Si O2"
_cell_formula_units_Z 40
_cell_length_a 14.579798
_cell_length_b 9.086615
_cell_length_c 18.068398
_cell_angle_alpha 90.000000
_cell_angle_beta 112.395569
_cell_angle_gamma 90.000000
_cell_volume 2213.174534
_symmetry_space_group_name_H-M "C 2/M"
_symmetry_group_IT_number 12
_symmetry_cell_setting 'monoclinic'
loop_
_space_group_symop_operation_xyz
x,y,z
-x,y,-z
-x,-y,-z
x,-y,z
1/2+x,1/2+y,z
1/2-x,1/2+y,-z
1/2-x,1/2-y,-z
1/2+x,1/2-y,z
loop_
_atom_site_type_symbol
_atom_site_label
_atom_site_fract_x
_atom_site_fract_y
_atom_site_fract_z
Si Si1 0.168915 0.175412 0.300950
Si Si2 0.151053 0.174355 0.999001
Si Si3 0.441832 0.674282 0.877537
Si Si4 0.578073 0.674104 0.424193
Si Si5 0.138855 0.825982 0.601441
O O1 0.102691 0.235584 0.212774
O O2 0.123735 0.240056 0.363257
O O3 0.278480 0.240670 0.326641
O O4 0.174036 0.000000 0.302314
O O5 0.127660 0.226740 0.075769
O O6 0.166198 0.000000 0.999061
O O7 0.250000 0.250000 0.000000
O O8 0.056114 0.226319 0.920894
O O9 0.441770 0.500000 0.878191
O O10 0.578542 0.500000 0.421112
O O11 0.464874 0.726810 0.395809
O O12 0.640931 0.723611 0.515578
O O13 0.154462 0.000000 0.614210
#
# Coordination Sequence:
#
# PCOD8081415 Si02
#       5
#     8   8   8   8   8
#     4  10  18  30  48  69  91 121 156 189 223 269
#     4   9  17  33  53  70  90 121 152 183 224 273
#     4   8  17  32  48  67  95 124 150 179 225 282
#     4   8  16  30  47  64  90 126 158 184 225 277
#     4   9  17  31  47  66  92 123 155 191 229 266
#
# _framework density 18.073585999999999
#
# number of rings (size 3 to 8) (size 9 to 14) (size 15 to 20)
#    0.000    3.200    0.000    3.000    0.000    1.600 
#    0.000    9.000    0.000    0.000    0.000    0.000 
#    0.000    0.000    0.000    0.000    0.000    0.000 
#
# Total GULP energy -247880.325617 kJ/mol
# GULP energy per Si atom -12394.016281 kJ/mol
# Density = 1.803245 g / cm^3
# Si number density = 18.073586 Si / 1000 Ang^3
#
#
#
# Elastic Constant Matrix: (Units=GPa)
#
#
# Indices 1 2 3 4 5 6 
#
# 1 111.1316 23.9593 56.5109 0.0000 16.0768 0.0000
# 2 23.9593 21.8736 23.7888 0.0000 4.8838 0.0000
# 3 56.5109 23.7888 134.1120 0.0000 18.4176 0.0000
# 4 0.0000 0.0000 0.0000 20.2465 0.0000 7.3232
# 5 16.0768 4.8838 18.4176 0.0000 23.9216 0.0000
# 6 0.0000 0.0000 0.0000 7.3232 0.0000 29.3201
#
#
#
# Elastic Compliance Matrix: (Units=1/GPa)
#
#
# Indices 1 2 3 4 5 6 
#
# 1 0.013516 -0.010259 -0.003260 0.000000 -0.004479 0.000000
# 2 -0.010259 0.064826 -0.007051 0.000000 -0.000912 0.000000
# 3 -0.003260 -0.007051 0.010715 0.000000 -0.004619 0.000000
# 4 0.000000 0.000000 0.000000 0.054296 0.000000 -0.013561
# 5 -0.004479 -0.000912 -0.004619 0.000000 0.048556 0.000000
# 6 0.000000 0.000000 0.000000 -0.013561 0.000000 0.037493
#
#
# Mechanical properties :
#
#
# Convention : Reuss Voigt Hill
#
# Bulk Modulus (GPa) = 20.86941 52.84834 36.85888
# Shear Modulus (GPa) = 17.45105 25.55486 21.50295
#
# Velocity S-wave (km/s) = 3.11071 3.76431 3.45301
# Velocity P-wave (km/s) = 4.94712 6.94244 6.02791
#
# Compressibility (1/GPa) = 0.04791702
#
# Stress axis : x y z
#
# Youngs Moduli (GPa) = 73.98660 15.42592 93.32401
#
# Poissons Ratio (x) = 0.15825 0.30428
# Poissons Ratio (y) = 0.75901 0.65802
# Poissons Ratio (z) = 0.24123 0.10877
#
# Static dielectric constant tensor:
#      x y z
#    x 3.491280 0.000000 -0.151090 
#    y 0.000000 2.808570 0.000000 
#    z -0.151090 0.000000 3.769810 
# 
# 
# High freq. dielectric constant tensor:
#      x y z
#    x 1.706230 0.000000 0.003820 
#    y 0.000000 1.651810 0.000000 
#    z 0.003820 0.000000 1.705810 
# 
# From -- ./inp_files/202868.got.cif
#   From: 2010.06.25/outbox.cif.g09.slc.cpg/sg12_102_cif.got.tgz:202868.got - 2010.06.28 00:19:55.
