data_PCOD8081759
_publ_section_title
;
Structure prediction by ZEFSAII (Michael W. Deem and Ramdas Pophale) SiO2 
 PCOD8081759
Probable space group: C 2/M
;
_chemical_formula_sum "Si O2"
_cell_formula_units_Z 60
_cell_length_a 25.887740
_cell_length_b 26.404119
_cell_length_c 14.093103
_cell_angle_alpha 90.000000
_cell_angle_beta 160.339893
_cell_angle_gamma 90.000000
_cell_volume 3241.004521
_symmetry_space_group_name_H-M "C 2/M"
_symmetry_group_IT_number 12
_symmetry_cell_setting 'monoclinic'
loop_
_space_group_symop_operation_xyz
x,y,z
-x,y,-z
-x,-y,-z
x,-y,z
1/2+x,1/2+y,z
1/2-x,1/2+y,-z
1/2-x,1/2-y,-z
1/2+x,1/2-y,z
loop_
_atom_site_type_symbol
_atom_site_label
_atom_site_fract_x
_atom_site_fract_y
_atom_site_fract_z
Si Si1 0.248476 0.057103 0.033548
Si Si2 0.010033 0.296289 0.407910
Si Si3 0.944391 0.441595 0.199834
Si Si4 0.265414 0.846879 0.852899
Si Si5 0.500000 0.620583 0.500000
Si Si6 0.178442 0.229292 0.558109
Si Si7 0.063108 0.187589 0.007625
Si Si8 0.726444 0.115014 0.733869
O O1 0.132423 0.085561 0.766623
O O2 0.195287 0.000000 0.951097
O O3 0.411693 0.060826 0.258375
O O4 0.230113 0.079156 0.105334
O O5 0.000000 0.279159 0.500000
O O6 0.058149 0.248198 0.429020
O O7 0.143548 0.337148 0.635778
O O8 0.855046 0.319909 0.095426
O O9 0.929995 0.500000 0.138886
O O10 0.113733 0.418789 0.472587
O O11 0.827202 0.404235 0.941608
O O12 0.279438 0.816224 0.778591
O O13 0.084021 0.845794 0.565337
O O14 0.298137 0.272808 0.735582
O O15 0.078633 0.211031 0.296274
O O16 0.126408 0.135797 0.068933
O O17 0.000000 0.171156 0.000000
#
# Coordination Sequence:
#
# PCOD8081759 Si02
#       8
#     8   8   8   8   4   8   8   8
#     4  10  18  30  50  79 112 151 189 225 273 334
#     4  10  20  33  52  78 118 155 184 221 273 341
#     4   9  18  33  56  83 116 153 187 224 270 338
#     4  10  20  34  50  79 118 151 197 228 272 327
#     4  10  19  28  44  72 118 156 184 220 267 328
#     4  11  22  39  58  84 112 150 193 238 284 345
#     4  11  24  42  61  81 111 148 195 250 299 337
#     4  10  19  33  54  80 108 141 193 233 277 332
#
# _framework density 18.512778999999998
#
# number of rings (size 3 to 8) (size 9 to 14) (size 15 to 20)
#    0.000    1.867    1.333    4.600    0.933    3.200 
#    0.000    0.000    0.000    1.600    0.000    0.933 
#    0.000    0.000    0.000    0.000    0.000    0.000 
#
# Total GULP energy -371776.966247 kJ/mol
# GULP energy per Si atom -12392.565542 kJ/mol
# Density = 1.847064 g / cm^3
# Si number density = 18.512779 Si / 1000 Ang^3
#
#
#
# Elastic Constant Matrix: (Units=GPa)
#
#
# Indices 1 2 3 4 5 6 
#
# 1 93.1962 49.2634 23.9896 0.0000 -4.6085 0.0000
# 2 49.2634 128.0347 23.7087 0.0000 -7.0580 0.0000
# 3 23.9896 23.7087 63.9169 0.0000 -3.4892 0.0000
# 4 0.0000 0.0000 0.0000 33.5744 0.0000 -4.5366
# 5 -4.6085 -7.0580 -3.4892 0.0000 25.2229 0.0000
# 6 0.0000 0.0000 0.0000 -4.5366 0.0000 21.2012
#
#
#
# Elastic Compliance Matrix: (Units=1/GPa)
#
#
# Indices 1 2 3 4 5 6 
#
# 1 0.014194 -0.004767 -0.003517 0.000000 0.000773 0.000000
# 2 -0.004767 0.010082 -0.001858 0.000000 0.001693 0.000000
# 3 -0.003517 -0.001858 0.017725 0.000000 0.001290 0.000000
# 4 0.000000 0.000000 0.000000 0.030671 0.000000 0.006563
# 5 0.000773 0.001693 0.001290 0.000000 0.040440 0.000000
# 6 0.000000 0.000000 0.000000 0.006563 0.000000 0.048572
#
#
# Mechanical properties :
#
#
# Convention : Reuss Voigt Hill
#
# Bulk Modulus (GPa) = 46.04825 53.23014 49.63920
# Shear Modulus (GPa) = 26.42621 28.54544 27.48582
#
# Velocity S-wave (km/s) = 3.78227 3.93100 3.85735
# Velocity P-wave (km/s) = 6.63339 7.02989 6.83451
#
# Compressibility (1/GPa) = 0.02171635
#
# Stress axis : x y z
#
# Youngs Moduli (GPa) = 70.45473 99.18559 56.41820
#
# Poissons Ratio (x) = 0.47286 0.19840
# Poissons Ratio (y) = 0.33589 0.10483
# Poissons Ratio (z) = 0.24776 0.18429
#
# Static dielectric constant tensor:
#      x y z
#    x 3.104230 0.000000 0.075560 
#    y 0.000000 3.601330 0.000000 
#    z 0.075560 0.000000 3.399290 
# 
# 
# High freq. dielectric constant tensor:
#      x y z
#    x 1.673200 0.000000 0.000930 
#    y 0.000000 1.725250 0.000000 
#    z 0.000930 0.000000 1.721960 
# 
# From -- ./inp_files/247491.got.cif
#   From: 2010.06.25/outbox.cif.g09.slc.cpg/sg12_124_cif.got.tgz:247491.got - 2010.06.28 00:19:55.
