data_PCOD8081090
_publ_section_title
;
Structure prediction by ZEFSAII (Michael W. Deem and Ramdas Pophale) SiO2 
 PCOD8081090
Probable space group: C 2/M
;
_chemical_formula_sum "Si O2"
_cell_formula_units_Z 56
_cell_length_a 21.444206
_cell_length_b 27.334629
_cell_length_c 8.914550
_cell_angle_alpha 90.000000
_cell_angle_beta 32.764628
_cell_angle_gamma 90.000000
_cell_volume 2827.949710
_symmetry_space_group_name_H-M "C 2/M"
_symmetry_group_IT_number 12
_symmetry_cell_setting 'monoclinic'
loop_
_space_group_symop_operation_xyz
x,y,z
-x,y,-z
-x,-y,-z
x,-y,z
1/2+x,1/2+y,z
1/2-x,1/2+y,-z
1/2-x,1/2-y,-z
1/2+x,1/2-y,z
loop_
_atom_site_type_symbol
_atom_site_label
_atom_site_fract_x
_atom_site_fract_y
_atom_site_fract_z
Si Si1 0.975210 0.556607 0.208714
Si Si2 0.752012 0.692526 0.167285
Si Si3 0.607056 0.285141 0.183089
Si Si4 0.491685 0.555659 0.693088
Si Si5 0.387930 0.897271 0.825422
Si Si6 0.766803 0.443864 0.813117
Si Si7 0.463501 0.653108 0.246886
O O1 0.954266 0.500000 0.222541
O O2 0.081114 0.563969 0.108004
O O3 0.857794 0.579749 0.512946
O O4 0.000000 0.582944 0.000000
O O5 0.694004 0.687774 0.120358
O O6 0.654004 0.684377 0.492910
O O7 0.820177 0.743418 0.049966
O O8 0.849752 0.651884 0.984931
O O9 0.500000 0.264162 0.500000
O O10 0.564405 0.323777 0.145373
O O11 0.500000 0.566041 0.500000
O O12 0.535237 0.500000 0.641914
O O13 0.559174 0.596721 0.653041
O O14 0.358099 0.561640 0.006747
O O15 0.500000 0.886428 0.500000
O O16 0.280776 0.917774 0.945868
O O17 0.798417 0.500000 0.780129
O O18 0.500000 0.654681 0.000000
#
# Coordination Sequence:
#
# PCOD8081090 Si02
#       7
#     8   8   8   8   8   8   8
#     4   9  18  31  45  66 100 138 171 207 258 318
#     4  10  20  36  58  79 103 137 180 225 268 314
#     4   9  19  38  61  81 103 137 181 226 272 321
#     4  10  20  36  58  81 107 143 188 230 266 314
#     4  10  18  29  49  75  99 126 170 222 265 309
#     4   9  17  30  49  71  96 131 173 218 264 307
#     4  11  23  37  55  82 116 147 176 219 275 333
#
# _framework density 19.802332
#
# number of rings (size 3 to 8) (size 9 to 14) (size 15 to 20)
#    0.000    2.286    0.000    3.857    0.000    3.714 
#    0.000    1.429    0.000    0.000    0.000    0.000 
#    0.000    0.000    0.000    0.000    0.000    0.000 
#
# Total GULP energy -347070.979129 kJ/mol
# GULP energy per Si atom -12395.392112 kJ/mol
# Density = 1.975726 g / cm^3
# Si number density = 19.802332 Si / 1000 Ang^3
#
#
#
# Elastic Constant Matrix: (Units=GPa)
#
#
# Indices 1 2 3 4 5 6 
#
# 1 50.7137 20.9606 34.3422 -0.0002 18.3499 0.0001
# 2 20.9606 80.0819 42.3409 0.0000 10.9618 0.0000
# 3 34.3422 42.3409 79.3474 -0.0003 18.2391 0.0002
# 4 -0.0002 0.0000 -0.0003 29.0579 0.0002 -4.0483
# 5 18.3499 10.9618 18.2391 0.0002 32.2242 -0.0001
# 6 0.0001 0.0000 0.0002 -4.0483 -0.0001 16.3529
#
#
#
# Elastic Compliance Matrix: (Units=1/GPa)
#
#
# Indices 1 2 3 4 5 6 
#
# 1 0.031380 -0.001189 -0.010268 0.000000 -0.011653 0.000000
# 2 -0.001189 0.017456 -0.008726 0.000000 -0.000322 0.000000
# 3 -0.010268 -0.008726 0.022620 0.000000 -0.003987 0.000000
# 4 0.000000 0.000000 0.000000 0.035643 0.000000 0.008824
# 5 -0.011653 -0.000322 -0.003987 0.000000 0.040035 0.000000
# 6 0.000000 0.000000 0.000000 0.008824 0.000000 0.063336
#
#
# Mechanical properties :
#
#
# Convention : Reuss Voigt Hill
#
# Bulk Modulus (GPa) = 32.16615 45.04781 38.60698
# Shear Modulus (GPa) = 19.14241 23.02696 21.08468
#
# Velocity S-wave (km/s) = 3.11251 3.41374 3.26660
# Velocity P-wave (km/s) = 5.40332 6.19163 5.81086
#
# Compressibility (1/GPa) = 0.03108858
#
# Stress axis : x y z
#
# Youngs Moduli (GPa) = 31.86749 57.28603 44.20863
#
# Poissons Ratio (x) = 0.06813 0.45395
# Poissons Ratio (y) = 0.03790 0.38577
# Poissons Ratio (z) = 0.32723 0.49989
#
# Static dielectric constant tensor:
#      x y z
#    x 3.378390 0.000000 0.015700 
#    y 0.000000 3.480130 0.000000 
#    z 0.015700 0.000000 3.860840 
# 
# 
# High freq. dielectric constant tensor:
#      x y z
#    x 1.742920 0.000000 -0.006420 
#    y 0.000000 1.760750 0.000000 
#    z -0.006420 0.000000 1.780760 
# 
# From -- ./inp_files/91540.got.cif
#   From: 2010.06.25/outbox.cif.g09.slc.cpg/sg12_46_cif.got.tgz:91540.got - 2010.06.28 00:19:55.
