data_PCOD8081709
_publ_section_title
;
Structure prediction by ZEFSAII (Michael W. Deem and Ramdas Pophale) SiO2 
 PCOD8081709
Probable space group: C 2/M
;
_chemical_formula_sum "Si O2"
_cell_formula_units_Z 48
_cell_length_a 33.466910
_cell_length_b 8.506233
_cell_length_c 23.009358
_cell_angle_alpha 90.000000
_cell_angle_beta 156.383251
_cell_angle_gamma 90.000000
_cell_volume 2624.137867
_symmetry_space_group_name_H-M "C 2/M"
_symmetry_group_IT_number 12
_symmetry_cell_setting 'monoclinic'
loop_
_space_group_symop_operation_xyz
x,y,z
-x,y,-z
-x,-y,-z
x,-y,z
1/2+x,1/2+y,z
1/2-x,1/2+y,-z
1/2-x,1/2-y,-z
1/2+x,1/2-y,z
loop_
_atom_site_type_symbol
_atom_site_label
_atom_site_fract_x
_atom_site_fract_y
_atom_site_fract_z
Si Si1 0.818194 0.817923 0.417410
Si Si2 0.773441 0.816416 0.593917
Si Si3 0.179716 0.813565 0.135066
Si Si4 0.846900 0.676736 0.279256
Si Si5 0.021162 0.317507 0.094652
Si Si6 0.012713 0.678207 0.422435
O O1 0.800164 0.772063 0.459863
O O2 0.741005 0.720215 0.275453
O O3 0.934325 0.780957 0.556966
O O4 0.795739 0.000000 0.377374
O O5 0.750000 0.750000 0.500000
O O6 0.888283 0.786737 0.762345
O O7 0.750437 0.000000 0.565537
O O8 0.241494 0.749327 0.160329
O O9 0.162770 0.000000 0.108874
O O10 0.075329 0.723302 0.995447
O O11 0.826147 0.500000 0.231704
O O12 0.915985 0.677507 0.427444
O O13 0.906243 0.754096 0.303134
O O14 0.048623 0.500000 0.138033
O O15 0.000000 0.272683 0.000000
O O16 0.997949 0.500000 0.379917
#
# Coordination Sequence:
#
# PCOD8081709 Si02
#       6
#     8   8   8   8   8   8
#     4  11  20  31  47  73 105 137 174 217 262 312
#     4  12  25  41  59  78 104 139 179 221 267 317
#     4  10  18  30  50  75 102 138 179 217 261 310
#     4   7  12  23  41  66  97 130 169 213 255 304
#     4  11  22  36  55  80 110 140 176 220 265 314
#     4   8  13  25  43  64  94 134 172 209 256 308
#
# _framework density 18.291723000000001
#
# number of rings (size 3 to 8) (size 9 to 14) (size 15 to 20)
#    0.000    2.167    1.667    6.000    0.000    0.667 
#    0.000    7.500    0.000    0.000    0.000    1.167 
#    0.000    0.000    0.000    0.000    0.000    0.000 
#
# Total GULP energy -297359.337602 kJ/mol
# GULP energy per Si atom -12389.972400 kJ/mol
# Density = 1.825009 g / cm^3
# Si number density = 18.291723 Si / 1000 Ang^3
#
#
#
# Elastic Constant Matrix: (Units=GPa)
#
#
# Indices 1 2 3 4 5 6 
#
# 1 144.8558 19.6209 50.5214 0.0000 38.6770 0.0000
# 2 19.6209 53.1302 15.1799 0.0000 6.6263 0.0000
# 3 50.5214 15.1799 48.2609 0.0000 13.2117 0.0000
# 4 0.0000 0.0000 0.0000 18.4715 0.0000 1.6958
# 5 38.6770 6.6263 13.2117 0.0000 32.2394 0.0000
# 6 0.0000 0.0000 0.0000 1.6958 0.0000 23.6344
#
#
#
# Elastic Compliance Matrix: (Units=1/GPa)
#
#
# Indices 1 2 3 4 5 6 
#
# 1 0.014215 -0.000468 -0.011367 0.000000 -0.012299 0.000000
# 2 -0.000468 0.020787 -0.005668 0.000000 -0.001388 0.000000
# 3 -0.011367 -0.005668 0.034186 0.000000 0.000792 0.000000
# 4 0.000000 0.000000 0.000000 0.054497 0.000000 -0.003910
# 5 -0.012299 -0.001388 0.000792 0.000000 0.045734 0.000000
# 6 0.000000 0.000000 0.000000 -0.003910 0.000000 0.042592
#
#
# Mechanical properties :
#
#
# Convention : Reuss Voigt Hill
#
# Bulk Modulus (GPa) = 29.25523 46.32125 37.78824
# Shear Modulus (GPa) = 19.34904 25.59737 22.47321
#
# Velocity S-wave (km/s) = 3.25592 3.74491 3.50894
# Velocity P-wave (km/s) = 5.49209 6.63910 6.09265
#
# Compressibility (1/GPa) = 0.03418192
#
# Stress axis : x y z
#
# Youngs Moduli (GPa) = 70.34737 48.10654 29.25181
#
# Poissons Ratio (x) = 0.02252 0.33250
# Poissons Ratio (y) = 0.03293 0.16581
# Poissons Ratio (z) = 0.79962 0.27268
#
# Static dielectric constant tensor:
#      x y z
#    x 4.018230 0.000000 0.668160 
#    y 0.000000 3.253500 0.000000 
#    z 0.668160 0.000000 3.157280 
# 
# 
# High freq. dielectric constant tensor:
#      x y z
#    x 1.722200 0.000000 0.045580 
#    y 0.000000 1.698250 0.000000 
#    z 0.045580 0.000000 1.656180 
# 
# From -- ./inp_files/329127.got.cif
#   From: 2010.06.25/outbox.cif.g09.slc.cpg/sg12_165_cif.got.tgz:329127.got - 2010.06.28 00:19:55.
