data_PCOD8081334
_publ_section_title
;
Structure prediction by ZEFSAII (Michael W. Deem and Ramdas Pophale) SiO2 
 PCOD8081334
Probable space group: C 2/M
;
_chemical_formula_sum "Si O2"
_cell_formula_units_Z 64
_cell_length_a 27.829734
_cell_length_b 9.026353
_cell_length_c 14.397140
_cell_angle_alpha 90.000000
_cell_angle_beta 94.080111
_cell_angle_gamma 90.000000
_cell_volume 3607.409947
_symmetry_space_group_name_H-M "C 2/M"
_symmetry_group_IT_number 12
_symmetry_cell_setting 'monoclinic'
loop_
_space_group_symop_operation_xyz
x,y,z
-x,y,-z
-x,-y,-z
x,-y,z
1/2+x,1/2+y,z
1/2-x,1/2+y,-z
1/2-x,1/2-y,-z
1/2+x,1/2-y,z
loop_
_atom_site_type_symbol
_atom_site_label
_atom_site_fract_x
_atom_site_fract_y
_atom_site_fract_z
Si Si1 0.300190 0.171340 0.266010
Si Si2 0.155219 0.164349 0.483642
Si Si3 0.505738 0.676569 0.606644
Si Si4 0.913281 0.837745 0.698450
Si Si5 0.744674 0.822425 0.098686
Si Si6 0.840461 0.663588 0.788933
Si Si7 0.268015 0.831404 0.607946
Si Si8 0.101667 0.331322 0.634033
O O1 0.285867 0.255522 0.170360
O O2 0.279227 0.253520 0.354733
O O3 0.358109 0.180436 0.280011
O O4 0.282536 0.000000 0.262032
O O5 0.128197 0.150424 0.383247
O O6 0.209151 0.233650 0.474533
O O7 0.122984 0.269487 0.541716
O O8 0.160686 0.000000 0.528714
O O9 0.500000 0.733268 0.500000
O O10 0.506785 0.500000 0.608132
O O11 0.461151 0.738103 0.662003
O O12 0.554721 0.739278 0.657756
O O13 0.890469 0.751752 0.782841
O O14 0.927357 0.000000 0.736890
O O15 0.692480 0.773601 0.131802
O O16 0.750103 0.000000 0.096325
O O17 0.750000 0.750000 0.000000
O O18 0.857131 0.500000 0.817270
O O19 0.808682 0.664086 0.692098
O O20 0.256618 0.000000 0.574418
O O21 0.086347 0.500000 0.614420
#
# Coordination Sequence:
#
# PCOD8081334 Si02
#       8
#     8   8   8   8   8   8   8   8
#     4  10  21  36  50  69 100 133 166 204 247 300
#     4  10  18  30  47  66  92 130 171 211 255 297
#     4  10  19  34  50  68  95 130 175 221 260 299
#     4   9  17  29  47  69  94 128 169 211 251 292
#     4  10  20  35  57  83 107 132 161 196 244 301
#     4   8  16  29  46  72 102 127 155 196 242 291
#     4   9  17  30  47  68  94 126 168 209 247 294
#     4  11  23  34  46  68  96 130 173 216 256 297
#
# _framework density 17.741261000000002
#
# number of rings (size 3 to 8) (size 9 to 14) (size 15 to 20)
#    0.000    2.375    1.250    2.625    0.000    7.250 
#    0.000    0.000    0.000    0.000    0.000    0.875 
#    0.000    7.000    0.000    0.000    0.000    0.000 
#
# Total GULP energy -396717.325640 kJ/mol
# GULP energy per Si atom -12397.416426 kJ/mol
# Density = 1.770088 g / cm^3
# Si number density = 17.741261 Si / 1000 Ang^3
#
#
#
# Elastic Constant Matrix: (Units=GPa)
#
#
# Indices 1 2 3 4 5 6 
#
# 1 135.1356 44.6300 30.7943 0.0000 -15.2654 0.0000
# 2 44.6300 82.4529 30.3723 0.0000 -6.8144 0.0000
# 3 30.7943 30.3723 65.4469 0.0000 -13.8541 0.0000
# 4 0.0000 0.0000 0.0000 24.4550 0.0000 -4.1425
# 5 -15.2654 -6.8144 -13.8541 0.0000 20.2117 0.0000
# 6 0.0000 0.0000 0.0000 -4.1425 0.0000 29.5281
#
#
#
# Elastic Compliance Matrix: (Units=1/GPa)
#
#
# Indices 1 2 3 4 5 6 
#
# 1 0.009716 -0.004285 -0.001562 0.000000 0.004823 0.000000
# 2 -0.004285 0.016521 -0.006032 0.000000 -0.001801 0.000000
# 3 -0.001562 -0.006032 0.021211 0.000000 0.011326 0.000000
# 4 0.000000 0.000000 0.000000 0.041887 0.000000 0.005876
# 5 0.004823 -0.001801 0.011326 0.000000 0.060275 0.000000
# 6 0.000000 0.000000 0.000000 0.005876 0.000000 0.034690
#
#
# Mechanical properties :
#
#
# Convention : Reuss Voigt Hill
#
# Bulk Modulus (GPa) = 42.21208 54.95873 48.58540
# Shear Modulus (GPa) = 23.15302 26.65486 24.90394
#
# Velocity S-wave (km/s) = 3.61645 3.88031 3.75070
# Velocity P-wave (km/s) = 6.42519 7.14989 6.79721
#
# Compressibility (1/GPa) = 0.02368990
#
# Stress axis : x y z
#
# Youngs Moduli (GPa) = 102.92399 60.53062 47.14465
#
# Poissons Ratio (x) = 0.25938 0.07364
# Poissons Ratio (y) = 0.44103 0.28437
# Poissons Ratio (z) = 0.16078 0.36511
#
# Static dielectric constant tensor:
#      x y z
#    x 3.425830 0.000000 -0.117800 
#    y 0.000000 3.560910 0.000000 
#    z -0.117800 0.000000 2.939020 
# 
# 
# High freq. dielectric constant tensor:
#      x y z
#    x 1.689160 0.000000 -0.006950 
#    y 0.000000 1.697350 0.000000 
#    z -0.006950 0.000000 1.637920 
# 
# From -- ./inp_files/244021.got.cif
#   From: 2010.06.25/outbox.cif.g09.slc.cpg/sg12_123_cif.got.tgz:244021.got - 2010.06.28 00:19:55.
