data_PCOD8081326
_publ_section_title
;
Structure prediction by ZEFSAII (Michael W. Deem and Ramdas Pophale) SiO2 
 PCOD8081326
Probable space group: C 2/M
;
_chemical_formula_sum "Si O2"
_cell_formula_units_Z 64
_cell_length_a 23.400737
_cell_length_b 16.471320
_cell_length_c 16.638578
_cell_angle_alpha 90.000000
_cell_angle_beta 35.689343
_cell_angle_gamma 90.000000
_cell_volume 3741.392250
_symmetry_space_group_name_H-M "C 2/M"
_symmetry_group_IT_number 12
_symmetry_cell_setting 'monoclinic'
loop_
_space_group_symop_operation_xyz
x,y,z
-x,y,-z
-x,-y,-z
x,-y,z
1/2+x,1/2+y,z
1/2-x,1/2+y,-z
1/2-x,1/2-y,-z
1/2+x,1/2-y,z
loop_
_atom_site_type_symbol
_atom_site_label
_atom_site_fract_x
_atom_site_fract_y
_atom_site_fract_z
Si Si1 0.711982 0.593725 0.467437
Si Si2 0.869353 0.680470 0.402331
Si Si3 0.847397 0.906727 0.040155
Si Si4 0.785622 0.774843 0.649649
Si Si5 0.032288 0.591357 0.576954
Si Si6 0.103270 0.174244 0.861747
Si Si7 0.545750 0.660267 0.755943
Si Si8 0.357172 0.840331 0.689013
O O1 0.740583 0.500000 0.430612
O O2 0.791037 0.641654 0.431326
O O3 0.712292 0.629772 0.375473
O O4 0.601515 0.605696 0.626378
O O5 0.815276 0.728554 0.534422
O O6 0.933653 0.610380 0.371320
O O7 0.941157 0.743179 0.274346
O O8 0.875382 0.900387 0.102205
O O9 0.741039 0.864859 0.150591
O O10 0.842119 0.000000 0.019668
O O11 0.930109 0.861691 0.891208
O O12 0.676521 0.747517 0.794386
O O13 0.850170 0.749461 0.654472
O O14 0.991067 0.500000 0.621848
O O15 0.121527 0.598702 0.410655
O O16 0.946909 0.655061 0.649076
O O17 0.101775 0.137425 0.774394
O O18 0.000000 0.215423 0.000000
#
# Coordination Sequence:
#
# PCOD8081326 Si02
#       8
#     8   8   8   8   8   8   8   8
#     4  11  19  28  47  70  95 124 156 193 230 272
#     4  10  18  30  47  64  97 131 155 184 228 277
#     4  10  19  28  43  70  96 122 153 188 239 280
#     4   9  16  31  44  65  92 122 156 186 228 280
#     4  10  18  30  49  75  97 119 158 196 227 267
#     4   9  16  26  43  61  88 126 146 181 226 276
#     4  10  18  31  42  64  97 128 152 187 229 289
#     4   9  18  31  49  68  95 127 146 191 238 279
#
# _framework density 17.105931999999999
#
# number of rings (size 3 to 8) (size 9 to 14) (size 15 to 20)
#    0.000    2.250    2.500    3.000    0.000    2.750 
#    0.000    0.625    0.000    0.375    0.000   16.625 
#    0.000    0.000    0.000    0.000    0.000    0.000 
#
# Total GULP energy -396467.884883 kJ/mol
# GULP energy per Si atom -12389.621403 kJ/mol
# Density = 1.706700 g / cm^3
# Si number density = 17.105932 Si / 1000 Ang^3
#
#
#
# Elastic Constant Matrix: (Units=GPa)
#
#
# Indices 1 2 3 4 5 6 
#
# 1 59.2207 16.7726 22.7911 0.0000 -10.1679 0.0000
# 2 16.7726 80.6178 31.8365 0.0000 -0.3108 0.0000
# 3 22.7911 31.8365 82.8540 0.0000 -17.9543 0.0000
# 4 0.0000 0.0000 0.0000 18.8356 0.0000 0.0501
# 5 -10.1679 -0.3108 -17.9543 0.0000 19.4671 0.0000
# 6 0.0000 0.0000 0.0000 0.0501 0.0000 18.4516
#
#
#
# Elastic Compliance Matrix: (Units=1/GPa)
#
#
# Indices 1 2 3 4 5 6 
#
# 1 0.020161 -0.003143 -0.002583 0.000000 0.008097 0.000000
# 2 -0.003143 0.015734 -0.006852 0.000000 -0.007710 0.000000
# 3 -0.002583 -0.006852 0.018868 0.000000 0.015943 0.000000
# 4 0.000000 0.000000 0.000000 0.053091 0.000000 -0.000144
# 5 0.008097 -0.007710 0.015943 0.000000 0.070179 0.000000
# 6 0.000000 0.000000 0.000000 -0.000144 0.000000 0.054196
#
#
# Mechanical properties :
#
#
# Convention : Reuss Voigt Hill
#
# Bulk Modulus (GPa) = 33.77710 40.61032 37.19371
# Shear Modulus (GPa) = 18.70877 21.43702 20.07289
#
# Velocity S-wave (km/s) = 3.31070 3.54389 3.42928
# Velocity P-wave (km/s) = 5.86541 6.36691 6.12130
#
# Compressibility (1/GPa) = 0.02960585
#
# Stress axis : x y z
#
# Youngs Moduli (GPa) = 49.60157 63.55534 53.00068
#
# Poissons Ratio (x) = 0.19976 0.13692
# Poissons Ratio (y) = 0.15590 0.36316
# Poissons Ratio (z) = 0.12813 0.43548
#
# Static dielectric constant tensor:
#      x y z
#    x 3.139450 0.000000 -0.048110 
#    y 0.000000 3.112170 0.000000 
#    z -0.048110 0.000000 3.299040 
# 
# 
# High freq. dielectric constant tensor:
#      x y z
#    x 1.639320 0.000000 -0.016150 
#    y 0.000000 1.630920 0.000000 
#    z -0.016150 0.000000 1.655200 
# 
# From -- ./inp_files/293700.got.cif
#   From: 2010.06.25/outbox.cif.g09.slc.cpg/sg12_147_cif.got.tgz:293700.got - 2010.06.28 00:19:55.
