data_PCOD8081697
_publ_section_title
;
Structure prediction by ZEFSAII (Michael W. Deem and Ramdas Pophale) SiO2 
 PCOD8081697
Probable space group: C 2/M
;
_chemical_formula_sum "Si O2"
_cell_formula_units_Z 48
_cell_length_a 20.722666
_cell_length_b 8.834776
_cell_length_c 19.442748
_cell_angle_alpha 90.000000
_cell_angle_beta 131.185225
_cell_angle_gamma 90.000000
_cell_volume 2678.885961
_symmetry_space_group_name_H-M "C 2/M"
_symmetry_group_IT_number 12
_symmetry_cell_setting 'monoclinic'
loop_
_space_group_symop_operation_xyz
x,y,z
-x,y,-z
-x,-y,-z
x,-y,z
1/2+x,1/2+y,z
1/2-x,1/2+y,-z
1/2-x,1/2-y,-z
1/2+x,1/2-y,z
loop_
_atom_site_type_symbol
_atom_site_label
_atom_site_fract_x
_atom_site_fract_y
_atom_site_fract_z
Si Si1 0.656626 0.679684 0.429395
Si Si2 0.720896 0.824642 0.049065
Si Si3 0.514678 0.323238 0.435376
Si Si4 0.103674 0.825981 0.768224
Si Si5 0.963738 0.679292 0.044999
Si Si6 0.466300 0.822904 0.761605
O O1 0.663744 0.500000 0.434181
O O2 0.750000 0.750000 0.500000
O O3 0.598220 0.738506 0.452668
O O4 0.612288 0.731647 0.327177
O O5 0.794399 0.797468 0.158178
O O6 0.707417 0.000000 0.024100
O O7 0.750000 0.750000 0.000000
O O8 0.631653 0.752222 0.011764
O O9 0.500000 0.245779 0.500000
O O10 0.529286 0.500000 0.456369
O O11 0.429316 0.288179 0.331473
O O12 0.056694 0.719298 0.790153
O O13 0.080625 0.000000 0.770537
O O14 0.956712 0.500000 0.032783
O O15 0.025927 0.721023 0.152396
O O16 0.000000 0.750891 0.000000
O O17 0.448943 0.000000 0.739594
#
# Coordination Sequence:
#
# PCOD8081697 Si02
#       6
#     8   8   8   8   8   8
#     4  10  20  35  55  78 103 132 169 209 249 299
#     4  10  18  30  50  74  98 129 168 209 250 294
#     4   8  15  30  50  74 100 125 160 207 251 292
#     4   9  17  29  49  75  99 129 165 207 254 299
#     4   9  18  32  48  73 105 133 168 214 255 293
#     4  10  18  31  53  76  99 133 170 207 255 301
#
# _framework density 17.917895000000001
#
# number of rings (size 3 to 8) (size 9 to 14) (size 15 to 20)
#    0.000    2.667    1.667    2.000    0.000    0.000 
#    3.000    0.000    0.000   17.000    0.000    0.000 
#    0.000    0.000    0.000    0.000    0.000    0.000 
#
# Total GULP energy -297476.118172 kJ/mol
# GULP energy per Si atom -12394.838257 kJ/mol
# Density = 1.787711 g / cm^3
# Si number density = 17.917895 Si / 1000 Ang^3
#
#
#
# Elastic Constant Matrix: (Units=GPa)
#
#
# Indices 1 2 3 4 5 6 
#
# 1 136.9802 25.0159 96.8972 0.0000 -2.1755 0.0000
# 2 25.0159 39.5148 34.3441 0.0000 1.4270 0.0000
# 3 96.8972 34.3441 148.4591 0.0000 0.5744 0.0000
# 4 0.0000 0.0000 0.0000 24.8492 0.0000 2.4075
# 5 -2.1755 1.4270 0.5744 0.0000 38.0254 0.0000
# 6 0.0000 0.0000 0.0000 2.4075 0.0000 19.0563
#
#
#
# Elastic Compliance Matrix: (Units=1/GPa)
#
#
# Indices 1 2 3 4 5 6 
#
# 1 0.013636 -0.001162 -0.008635 0.000000 0.000954 0.000000
# 2 -0.001162 0.031819 -0.006598 0.000000 -0.001161 0.000000
# 3 -0.008635 -0.006598 0.013900 0.000000 -0.000456 0.000000
# 4 0.000000 0.000000 0.000000 0.040741 0.000000 -0.005147
# 5 0.000954 -0.001161 -0.000456 0.000000 0.026403 0.000000
# 6 0.000000 0.000000 0.000000 -0.005147 0.000000 0.053126
#
#
# Mechanical properties :
#
#
# Convention : Reuss Voigt Hill
#
# Bulk Modulus (GPa) = 37.64342 70.82984 54.23663
# Shear Modulus (GPa) = 22.59679 27.63263 25.11471
#
# Velocity S-wave (km/s) = 3.55509 3.93132 3.74793
# Velocity P-wave (km/s) = 6.15679 7.76035 7.00461
#
# Compressibility (1/GPa) = 0.02656507
#
# Stress axis : x y z
#
# Youngs Moduli (GPa) = 73.33675 31.42758 71.94387
#
# Poissons Ratio (x) = 0.03652 0.62121
# Poissons Ratio (y) = 0.08523 0.47468
# Poissons Ratio (z) = 0.63324 0.20736
#
# Static dielectric constant tensor:
#      x y z
#    x 3.540190 0.000000 0.084580 
#    y 0.000000 3.065430 0.000000 
#    z 0.084580 0.000000 3.874080 
# 
# 
# High freq. dielectric constant tensor:
#      x y z
#    x 1.678180 0.000000 0.004460 
#    y 0.000000 1.663480 0.000000 
#    z 0.004460 0.000000 1.707430 
# 
# From -- ./inp_files/280547.got.cif
#   From: 2010.06.25/outbox.cif.g09.slc.cpg/sg12_141_cif.got.tgz:280547.got - 2010.06.28 00:19:55.
