data_PCOD8081155
_publ_section_title
;
Structure prediction by ZEFSAII (Michael W. Deem and Ramdas Pophale) SiO2 
 PCOD8081155
Probable space group: C 2/M
;
_chemical_formula_sum "Si O2"
_cell_formula_units_Z 64
_cell_length_a 24.106843
_cell_length_b 9.112389
_cell_length_c 16.747014
_cell_angle_alpha 90.000000
_cell_angle_beta 84.506439
_cell_angle_gamma 90.000000
_cell_volume 3661.935146
_symmetry_space_group_name_H-M "C 2/M"
_symmetry_group_IT_number 12
_symmetry_cell_setting 'monoclinic'
loop_
_space_group_symop_operation_xyz
x,y,z
-x,y,-z
-x,-y,-z
x,-y,z
1/2+x,1/2+y,z
1/2-x,1/2+y,-z
1/2-x,1/2-y,-z
1/2+x,1/2-y,z
loop_
_atom_site_type_symbol
_atom_site_label
_atom_site_fract_x
_atom_site_fract_y
_atom_site_fract_z
Si Si1 0.888826 0.830017 0.039877
Si Si2 0.803315 0.833313 0.184595
Si Si3 0.119752 0.329061 0.708776
Si Si4 0.532927 0.170966 0.850940
Si Si5 0.176767 0.170000 0.573661
Si Si6 0.788868 0.170705 0.604622
Si Si7 0.180252 0.330944 0.245448
Si Si8 0.594825 0.171739 0.123456
O O1 0.830959 0.803168 0.094751
O O2 0.940682 0.759753 0.079730
O O3 0.902371 0.000000 0.026804
O O4 0.881177 0.756617 0.955485
O O5 0.827903 0.720931 0.245273
O O6 0.737384 0.806207 0.188376
O O7 0.816846 0.000000 0.210165
O O8 0.124540 0.500000 0.690506
O O9 0.062787 0.289207 0.762971
O O10 0.122888 0.243788 0.623538
O O11 0.468879 0.215766 0.851080
O O12 0.540758 0.000000 0.869846
O O13 0.173211 0.195796 0.479280
O O14 0.231609 0.242381 0.603620
O O15 0.178906 0.000000 0.595288
O O16 0.822947 0.232194 0.674966
O O17 0.775017 0.000000 0.618406
O O18 0.173710 0.500000 0.272143
O O19 0.129929 0.280282 0.195820
O O20 0.601489 0.000000 0.105514
#
# Coordination Sequence:
#
# PCOD8081155 Si02
#       8
#     8   8   8   8   8   8   8   8
#     4  10  20  33  51  75 100 126 164 214 259 297
#     4   9  18  32  48  70 101 132 161 201 253 300
#     4  10  18  29  50  77 100 127 165 207 249 292
#     4   9  19  35  53  73  99 129 167 214 253 290
#     4  10  19  31  49  75 106 133 159 197 246 294
#     4  10  20  32  49  75 104 133 164 199 239 290
#     4  10  20  34  52  71  99 137 170 202 245 298
#     4  10  21  36  52  71  97 134 173 207 250 297
#
# _framework density 17.477097000000001
#
# number of rings (size 3 to 8) (size 9 to 14) (size 15 to 20)
#    0.000    2.250    1.250    1.875    0.000    5.500 
#    0.000    0.000    0.000    0.750    0.000    5.250 
#    0.000    0.000    0.000    0.000    0.000    0.000 
#
# Total GULP energy -396838.449889 kJ/mol
# GULP energy per Si atom -12401.201559 kJ/mol
# Density = 1.743732 g / cm^3
# Si number density = 17.477097 Si / 1000 Ang^3
#
#
#
# Elastic Constant Matrix: (Units=GPa)
#
#
# Indices 1 2 3 4 5 6 
#
# 1 66.3467 31.5649 49.0676 0.0000 10.5725 0.0000
# 2 31.5649 85.0541 64.7990 0.0000 1.2965 0.0000
# 3 49.0676 64.7990 136.0191 0.0000 0.6330 0.0000
# 4 0.0000 0.0000 0.0000 35.7747 0.0000 -1.3078
# 5 10.5725 1.2965 0.6330 0.0000 20.8093 0.0000
# 6 0.0000 0.0000 0.0000 -1.3078 0.0000 18.8989
#
#
#
# Elastic Compliance Matrix: (Units=1/GPa)
#
#
# Indices 1 2 3 4 5 6 
#
# 1 0.023580 -0.003351 -0.006856 0.000000 -0.011563 0.000000
# 2 -0.003351 0.018948 -0.007821 0.000000 0.000760 0.000000
# 3 -0.006856 -0.007821 0.013535 0.000000 0.003559 0.000000
# 4 0.000000 0.000000 0.000000 0.028024 0.000000 0.001939
# 5 -0.011563 0.000760 0.003559 0.000000 0.053774 0.000000
# 6 0.000000 0.000000 0.000000 0.001939 0.000000 0.053047
#
#
# Mechanical properties :
#
#
# Convention : Reuss Voigt Hill
#
# Bulk Modulus (GPa) = 49.98683 64.25365 57.12024
# Shear Modulus (GPa) = 21.40108 24.56247 22.98177
#
# Velocity S-wave (km/s) = 3.50311 3.75295 3.63018
# Velocity P-wave (km/s) = 6.71013 7.45813 7.09400
#
# Compressibility (1/GPa) = 0.02000527
#
# Stress axis : x y z
#
# Youngs Moduli (GPa) = 42.40967 52.77557 73.88509
#
# Poissons Ratio (x) = 0.17687 0.50653
# Poissons Ratio (y) = 0.14213 0.57788
# Poissons Ratio (z) = 0.29075 0.41278
#
# Static dielectric constant tensor:
#      x y z
#    x 3.085130 0.000000 -0.236200 
#    y 0.000000 3.315410 0.000000 
#    z -0.236200 0.000000 3.441440 
# 
# 
# High freq. dielectric constant tensor:
#      x y z
#    x 1.644760 0.000000 -0.019510 
#    y 0.000000 1.683010 0.000000 
#    z -0.019510 0.000000 1.681790 
# 
# From -- ./inp_files/287556.got.cif
#   From: 2010.06.25/outbox.cif.g09.slc.cpg/sg12_144_cif.got.tgz:287556.got - 2010.06.28 00:19:55.
