data_PCOD8081441
_publ_section_title
;
Structure prediction by ZEFSAII (Michael W. Deem and Ramdas Pophale) SiO2 
 PCOD8081441
Probable space group: C 2/M
;
_chemical_formula_sum "Si O2"
_cell_formula_units_Z 64
_cell_length_a 24.980525
_cell_length_b 9.012365
_cell_length_c 17.471148
_cell_angle_alpha 90.000000
_cell_angle_beta 102.314679
_cell_angle_gamma 90.000000
_cell_volume 3842.840187
_symmetry_space_group_name_H-M "C 2/M"
_symmetry_group_IT_number 12
_symmetry_cell_setting 'monoclinic'
loop_
_space_group_symop_operation_xyz
x,y,z
-x,y,-z
-x,-y,-z
x,-y,z
1/2+x,1/2+y,z
1/2-x,1/2+y,-z
1/2-x,1/2-y,-z
1/2+x,1/2-y,z
loop_
_atom_site_type_symbol
_atom_site_label
_atom_site_fract_x
_atom_site_fract_y
_atom_site_fract_z
Si Si1 0.566977 0.176165 0.913158
Si Si2 0.238926 0.825802 0.076685
Si Si3 0.616575 0.330083 0.070048
Si Si4 0.652442 0.824556 0.813599
Si Si5 0.035426 0.672327 0.339713
Si Si6 0.039531 0.828751 0.183962
Si Si7 0.911352 0.672205 0.350093
Si Si8 0.437142 0.667080 0.504756
O O1 0.613568 0.235722 0.869483
O O2 0.509764 0.246872 0.872926
O O3 0.560817 0.000000 0.908845
O O4 0.582498 0.226141 0.002947
O O5 0.179983 0.779727 0.091673
O O6 0.285288 0.773181 0.151502
O O7 0.244009 0.000000 0.064593
O O8 0.250000 0.750000 0.000000
O O9 0.611127 0.500000 0.040057
O O10 0.593379 0.311786 0.148163
O O11 0.632346 0.764951 0.724957
O O12 0.646362 0.000000 0.810021
O O13 0.049430 0.500000 0.336667
O O14 0.070690 0.738803 0.420415
O O15 0.054027 0.754730 0.268899
O O16 0.971090 0.699299 0.332512
O O17 0.023780 0.000000 0.191844
O O18 0.902706 0.500000 0.366468
O O19 0.901822 0.761315 0.425618
O O20 0.500000 0.670988 0.500000
O O21 0.416651 0.500000 0.512705
#
# Coordination Sequence:
#
# PCOD8081441 Si02
#       8
#     8   8   8   8   8   8   8   8
#     4  11  20  33  51  72  95 127 168 206 244 289
#     4  10  19  34  53  71  93 125 164 207 249 291
#     4  10  22  36  49  69  97 131 167 203 249 295
#     4   9  17  30  49  72  96 123 159 202 245 285
#     4  10  18  30  48  70  96 129 164 195 235 286
#     4  11  22  34  47  68 101 134 164 201 244 293
#     4   9  16  29  46  67  96 125 156 195 238 286
#     4   9  17  28  43  68  99 129 158 188 231 288
#
# _framework density 16.654347999999999
#
# number of rings (size 3 to 8) (size 9 to 14) (size 15 to 20)
#    0.000    2.125    2.500    1.875    0.000    4.500 
#    0.000    0.625    0.000    0.000    0.000    0.875 
#    0.000    0.000    0.000    0.000    0.000    0.000 
#
# Total GULP energy -396819.963047 kJ/mol
# GULP energy per Si atom -12400.623845 kJ/mol
# Density = 1.661644 g / cm^3
# Si number density = 16.654348 Si / 1000 Ang^3
#
#
#
# Elastic Constant Matrix: (Units=GPa)
#
#
# Indices 1 2 3 4 5 6 
#
# 1 74.9304 33.7105 48.3730 0.0000 -5.1176 0.0000
# 2 33.7105 83.2304 57.5935 0.0000 -3.7577 0.0000
# 3 48.3730 57.5935 148.8401 0.0000 6.4349 0.0000
# 4 0.0000 0.0000 0.0000 32.1066 0.0000 -2.4639
# 5 -5.1176 -3.7577 6.4349 0.0000 16.0541 0.0000
# 6 0.0000 0.0000 0.0000 -2.4639 0.0000 13.7393
#
#
#
# Elastic Compliance Matrix: (Units=1/GPa)
#
#
# Indices 1 2 3 4 5 6 
#
# 1 0.018728 -0.003888 -0.004886 0.000000 0.007018 0.000000
# 2 -0.003888 0.017910 -0.005896 0.000000 0.005316 0.000000
# 3 -0.004886 -0.005896 0.010904 0.000000 -0.007308 0.000000
# 4 0.000000 0.000000 0.000000 0.031581 0.000000 0.005663
# 5 0.007018 0.005316 -0.007308 0.000000 0.068700 0.000000
# 6 0.000000 0.000000 0.000000 0.005663 0.000000 0.073800
#
#
# Mechanical properties :
#
#
# Convention : Reuss Voigt Hill
#
# Bulk Modulus (GPa) = 54.93864 65.15054 60.04459
# Shear Modulus (GPa) = 19.45299 23.53492 21.49395
#
# Velocity S-wave (km/s) = 3.42137 3.76325 3.59638
# Velocity P-wave (km/s) = 6.97617 7.62148 7.30595
#
# Compressibility (1/GPa) = 0.01820212
#
# Stress axis : x y z
#
# Youngs Moduli (GPa) = 53.39534 55.83572 91.70886
#
# Poissons Ratio (x) = 0.21707 0.44807
# Poissons Ratio (y) = 0.20759 0.54076
# Poissons Ratio (z) = 0.26088 0.32923
#
# Static dielectric constant tensor:
#      x y z
#    x 3.001140 0.000000 0.121520 
#    y 0.000000 3.141570 0.000000 
#    z 0.121520 0.000000 3.461840 
# 
# 
# High freq. dielectric constant tensor:
#      x y z
#    x 1.604390 0.000000 0.004830 
#    y 0.000000 1.641200 0.000000 
#    z 0.004830 0.000000 1.648160 
# 
# From -- ./inp_files/287744.got.cif
#   From: 2010.06.25/outbox.cif.g09.slc.cpg/sg12_144_cif.got.tgz:287744.got - 2010.06.28 00:19:55.
