data_PCOD8081075
_publ_section_title
;
Structure prediction by ZEFSAII (Michael W. Deem and Ramdas Pophale) SiO2 
 PCOD8081075
Probable space group: C 2/M
;
_chemical_formula_sum "Si O2"
_cell_formula_units_Z 48
_cell_length_a 18.158685
_cell_length_b 9.061213
_cell_length_c 23.913433
_cell_angle_alpha 90.000000
_cell_angle_beta 136.551425
_cell_angle_gamma 90.000000
_cell_volume 2705.912434
_symmetry_space_group_name_H-M "C 2/M"
_symmetry_group_IT_number 12
_symmetry_cell_setting 'monoclinic'
loop_
_space_group_symop_operation_xyz
x,y,z
-x,y,-z
-x,-y,-z
x,-y,z
1/2+x,1/2+y,z
1/2-x,1/2+y,-z
1/2-x,1/2-y,-z
1/2+x,1/2-y,z
loop_
_atom_site_type_symbol
_atom_site_label
_atom_site_fract_x
_atom_site_fract_y
_atom_site_fract_z
Si Si1 0.008134 0.673591 0.672861
Si Si2 0.305919 0.667578 0.080741
Si Si3 0.543408 0.671366 0.582978
Si Si4 0.293416 0.166395 0.737555
Si Si5 0.778699 0.832502 0.186582
Si Si6 0.458459 0.326263 0.753615
O O1 0.988522 0.500000 0.661477
O O2 0.980038 0.740285 0.596508
O O3 0.130876 0.711440 0.753432
O O4 0.935640 0.746089 0.681788
O O5 0.310108 0.500000 0.063805
O O6 0.235843 0.687907 0.099459
O O7 0.426550 0.724810 0.158447
O O8 0.250000 0.750000 0.000000
O O9 0.500000 0.730670 0.500000
O O10 0.516215 0.500000 0.575842
O O11 0.670214 0.700293 0.655552
O O12 0.311129 0.186493 0.814762
O O13 0.367469 0.282270 0.747176
O O14 0.324203 0.000000 0.736376
O O15 0.828055 0.000000 0.219144
O O16 0.455451 0.500000 0.741916
#
# Coordination Sequence:
#
# PCOD8081075 Si02
#       6
#     8   8   8   8   8   8
#     4  10  18  29  49  74  97 125 165 204 236 282
#     4   9  18  32  50  71  95 126 162 200 242 288
#     4   9  18  34  54  74 100 132 161 195 243 292
#     4   9  17  31  52  75  96 123 163 203 238 283
#     4   8  16  32  50  69  97 130 162 196 239 292
#     4  10  20  34  50  70  99 131 162 198 244 292
#
# _framework density 17.738934
#
# number of rings (size 3 to 8) (size 9 to 14) (size 15 to 20)
#    0.000    2.833    0.000    4.000    0.000    6.333 
#    0.000    1.667    0.000    5.000    0.000    0.000 
#    0.000    0.000    0.000    0.000    0.000    0.000 
#
# Total GULP energy -297421.931958 kJ/mol
# GULP energy per Si atom -12392.580498 kJ/mol
# Density = 1.769856 g / cm^3
# Si number density = 17.738934 Si / 1000 Ang^3
#
#
#
# Elastic Constant Matrix: (Units=GPa)
#
#
# Indices 1 2 3 4 5 6 
#
# 1 122.4746 50.5718 48.1890 0.0000 -30.6561 0.0000
# 2 50.5718 80.3561 35.5895 0.0000 -16.2829 0.0000
# 3 48.1890 35.5895 93.3582 0.0000 -35.1390 0.0000
# 4 0.0000 0.0000 0.0000 25.2448 0.0000 -5.9270
# 5 -30.6561 -16.2829 -35.1390 0.0000 29.7842 0.0000
# 6 0.0000 0.0000 0.0000 -5.9270 0.0000 32.9528
#
#
#
# Elastic Compliance Matrix: (Units=1/GPa)
#
#
# Indices 1 2 3 4 5 6 
#
# 1 0.013415 -0.006075 -0.001190 0.000000 0.009083 0.000000
# 2 -0.006075 0.017838 -0.004222 0.000000 -0.001482 0.000000
# 3 -0.001190 -0.004222 0.020875 0.000000 0.021095 0.000000
# 4 0.000000 0.000000 0.000000 0.041359 0.000000 0.007439
# 5 0.009083 -0.001482 0.021095 0.000000 0.067001 0.000000
# 6 0.000000 0.000000 0.000000 0.007439 0.000000 0.031684
#
#
# Mechanical properties :
#
#
# Convention : Reuss Voigt Hill
#
# Bulk Modulus (GPa) = 34.30135 62.76550 48.53343
# Shear Modulus (GPa) = 22.23565 28.38562 25.31064
#
# Velocity S-wave (km/s) = 3.54431 4.00457 3.78145
# Velocity P-wave (km/s) = 6.01068 7.53935 6.81800
#
# Compressibility (1/GPa) = 0.02915337
#
# Stress axis : x y z
#
# Youngs Moduli (GPa) = 74.54239 56.06128 47.90370
#
# Poissons Ratio (x) = 0.34059 0.05700
# Poissons Ratio (y) = 0.45287 0.20225
# Poissons Ratio (z) = 0.08870 0.23669
#
# Static dielectric constant tensor:
#      x y z
#    x 3.406350 0.000000 -0.425250 
#    y 0.000000 3.170390 0.000000 
#    z -0.425250 0.000000 3.189820 
# 
# 
# High freq. dielectric constant tensor:
#      x y z
#    x 1.683850 0.000000 -0.038010 
#    y 0.000000 1.683030 0.000000 
#    z -0.038010 0.000000 1.658510 
# 
# From -- ./inp_files/221512.got.cif
#   From: 2010.06.25/outbox.cif.g09.slc.cpg/sg12_111_cif.got.tgz:221512.got - 2010.06.28 00:19:55.
