data_PCOD8081917
_publ_section_title
;
Structure prediction by ZEFSAII (Michael W. Deem and Ramdas Pophale) SiO2 
 PCOD8081917
Probable space group: C 2/M
;
_chemical_formula_sum "Si O2"
_cell_formula_units_Z 60
_cell_length_a 18.178525
_cell_length_b 13.262337
_cell_length_c 18.182175
_cell_angle_alpha 90.000000
_cell_angle_beta 127.245469
_cell_angle_gamma 90.000000
_cell_volume 3489.512905
_symmetry_space_group_name_H-M "C 2/M"
_symmetry_group_IT_number 12
_symmetry_cell_setting 'monoclinic'
loop_
_space_group_symop_operation_xyz
x,y,z
-x,y,-z
-x,-y,-z
x,-y,z
1/2+x,1/2+y,z
1/2-x,1/2+y,-z
1/2-x,1/2-y,-z
1/2+x,1/2-y,z
loop_
_atom_site_type_symbol
_atom_site_label
_atom_site_fract_x
_atom_site_fract_y
_atom_site_fract_z
Si Si1 0.459933 0.381333 0.610453
Si Si2 0.652190 0.383068 0.807580
Si Si3 0.643702 0.383238 0.969761
Si Si4 0.228107 0.794619 0.154753
Si Si5 0.666250 0.881930 0.651792
Si Si6 0.500000 0.249813 0.500000
Si Si7 0.162957 0.114294 0.335842
Si Si8 0.562792 0.386131 0.129533
O O1 0.447704 0.500000 0.587576
O O2 0.558140 0.360599 0.707647
O O3 0.450244 0.321039 0.529034
O O4 0.377648 0.338298 0.613482
O O5 0.679522 0.500000 0.819306
O O6 0.642398 0.343996 0.885406
O O7 0.734694 0.319843 0.819367
O O8 0.667073 0.500000 0.982558
O O9 0.544711 0.363308 0.949351
O O10 0.722494 0.329150 0.066036
O O11 0.296894 0.866206 0.242926
O O12 0.125551 0.803141 0.126951
O O13 0.572982 0.821002 0.584523
O O14 0.743036 0.837647 0.640494
O O15 0.647545 0.000000 0.628446
O O16 0.079742 0.119875 0.226991
O O17 0.188016 0.000000 0.368774
O O18 0.588543 0.500000 0.117438
#
# Coordination Sequence:
#
# PCOD8081917 Si02
#       8
#     8   8   8   8   8   4   8   8
#     4  10  19  35  54  74  98 126 169 217 249 286
#     4  10  20  34  50  72 103 135 165 202 250 295
#     4  10  18  30  52  80 105 130 162 204 249 293
#     4  11  19  31  49  78 105 130 165 202 245 298
#     4  10  21  35  51  75 104 134 162 200 252 304
#     4  12  22  34  52  76 102 132 168 202 254 300
#     4   8  15  31  53  72  98 130 161 201 250 293
#     4   9  16  28  50  79 105 128 158 204 252 290
#
# _framework density 17.194375999999998
#
# number of rings (size 3 to 8) (size 9 to 14) (size 15 to 20)
#    0.000    2.133    2.667    3.200    0.000    1.600 
#    0.000    0.000    0.000    1.600    0.000    7.467 
#    0.000    0.000    0.000    0.000    0.000    0.000 
#
# Total GULP energy -371811.996369 kJ/mol
# GULP energy per Si atom -12393.733212 kJ/mol
# Density = 1.715524 g / cm^3
# Si number density = 17.194376 Si / 1000 Ang^3
#
#
#
# Elastic Constant Matrix: (Units=GPa)
#
#
# Indices 1 2 3 4 5 6 
#
# 1 59.7679 34.0181 9.3250 0.0000 -1.3643 0.0000
# 2 34.0181 57.7149 16.1252 0.0000 0.0932 0.0000
# 3 9.3250 16.1252 66.2995 0.0000 -2.9065 0.0000
# 4 0.0000 0.0000 0.0000 22.3726 0.0000 0.2232
# 5 -1.3643 0.0932 -2.9065 0.0000 24.4043 0.0000
# 6 0.0000 0.0000 0.0000 0.2232 0.0000 19.3999
#
#
#
# Elastic Compliance Matrix: (Units=1/GPa)
#
#
# Indices 1 2 3 4 5 6 
#
# 1 0.025232 -0.014915 0.000144 0.000000 0.001485 0.000000
# 2 -0.014915 0.027415 -0.004635 0.000000 -0.001491 0.000000
# 3 0.000144 -0.004635 0.016276 0.000000 0.001964 0.000000
# 4 0.000000 0.000000 0.000000 0.044703 0.000000 -0.000514
# 5 0.001485 -0.001491 0.001964 0.000000 0.041299 0.000000
# 6 0.000000 0.000000 0.000000 -0.000514 0.000000 0.051552
#
#
# Mechanical properties :
#
#
# Convention : Reuss Voigt Hill
#
# Bulk Modulus (GPa) = 33.21088 33.63542 33.42315
# Shear Modulus (GPa) = 19.58277 21.52298 20.55288
#
# Velocity S-wave (km/s) = 3.37843 3.54184 3.46110
# Velocity P-wave (km/s) = 5.88007 6.02748 5.95423
#
# Compressibility (1/GPa) = 0.03011061
#
# Stress axis : x y z
#
# Youngs Moduli (GPa) = 39.63257 36.47646 61.43869
#
# Poissons Ratio (x) = 0.54403 -0.00883
# Poissons Ratio (y) = 0.59110 0.28479
# Poissons Ratio (z) = -0.00570 0.16908
#
# Static dielectric constant tensor:
#      x y z
#    x 3.233450 0.000000 -0.102420 
#    y 0.000000 2.929540 0.000000 
#    z -0.102420 0.000000 3.266560 
# 
# 
# High freq. dielectric constant tensor:
#      x y z
#    x 1.656580 0.000000 -0.007450 
#    y 0.000000 1.628840 0.000000 
#    z -0.007450 0.000000 1.673310 
# 
# From -- ./inp_files/277029.got.cif
#   From: 2010.06.25/outbox.cif.g09.slc.cpg/sg12_139_cif.got.tgz:277029.got - 2010.06.28 00:19:55.
