data_PCOD8081511
_publ_section_title
;
Structure prediction by ZEFSAII (Michael W. Deem and Ramdas Pophale) SiO2 
 PCOD8081511
Probable space group: C 2/M
;
_chemical_formula_sum "Si O2"
_cell_formula_units_Z 64
_cell_length_a 29.503749
_cell_length_b 13.703588
_cell_length_c 10.065032
_cell_angle_alpha 90.000000
_cell_angle_beta 108.263377
_cell_angle_gamma 90.000000
_cell_volume 3864.374856
_symmetry_space_group_name_H-M "C 2/M"
_symmetry_group_IT_number 12
_symmetry_cell_setting 'monoclinic'
loop_
_space_group_symop_operation_xyz
x,y,z
-x,y,-z
-x,-y,-z
x,-y,z
1/2+x,1/2+y,z
1/2-x,1/2+y,-z
1/2-x,1/2-y,-z
1/2+x,1/2-y,z
loop_
_atom_site_type_symbol
_atom_site_label
_atom_site_fract_x
_atom_site_fract_y
_atom_site_fract_z
Si Si1 0.643555 0.795380 0.594017
Si Si2 0.275369 0.608720 0.068950
Si Si3 0.958056 0.614352 0.559955
Si Si4 0.638493 0.115976 0.143614
Si Si5 0.036654 0.385651 0.137777
Si Si6 0.323982 0.197506 0.083017
Si Si7 0.697862 0.390451 0.609148
Si Si8 0.707681 0.115054 0.433504
O O1 0.590288 0.824953 0.505319
O O2 0.649863 0.821635 0.753852
O O3 0.651888 0.680066 0.572617
O O4 0.685286 0.849116 0.550616
O O5 0.290406 0.500000 0.035360
O O6 0.313461 0.687457 0.051657
O O7 0.272674 0.613324 0.226108
O O8 0.223865 0.633497 0.962579
O O9 0.945721 0.500000 0.530542
O O10 0.978282 0.637360 0.724896
O O11 0.000000 0.648221 0.500000
O O12 0.589298 0.154623 0.160267
O O13 0.678712 0.156749 0.280303
O O14 0.641000 0.000000 0.129562
O O15 0.641474 0.163978 0.001914
O O16 0.037338 0.500000 0.112413
O O17 0.000000 0.335944 0.000000
O O18 0.679027 0.500000 0.563950
O O19 0.736161 0.356561 0.531053
O O20 0.702275 0.000000 0.426453
#
# Coordination Sequence:
#
# PCOD8081511 Si02
#       8
#     8   8   8   8   8   8   8   8
#     4  11  21  32  49  73 102 127 161 206 246 291
#     4   9  17  32  47  65  98 130 161 201 234 273
#     4  10  21  35  49  71 104 130 151 193 250 294
#     4  10  18  30  49  68  95 131 165 195 229 283
#     4   9  18  32  49  68  90 125 164 191 225 283
#     4  10  20  29  47  73  92 126 169 196 233 279
#     4   9  18  33  52  70  93 132 171 203 240 284
#     4  10  18  31  49  70 100 135 162 192 243 292
#
# _framework density 16.561540000000001
#
# number of rings (size 3 to 8) (size 9 to 14) (size 15 to 20)
#    0.000    2.250    2.500    1.125    1.750    2.000 
#    0.000    0.000    0.000    0.375    0.000    0.000 
#    0.000    1.000    0.000    0.000    0.000    0.000 
#
# Total GULP energy -396681.811617 kJ/mol
# GULP energy per Si atom -12396.306613 kJ/mol
# Density = 1.652385 g / cm^3
# Si number density = 16.561540 Si / 1000 Ang^3
#
#
#
# Elastic Constant Matrix: (Units=GPa)
#
#
# Indices 1 2 3 4 5 6 
#
# 1 82.5756 35.1779 36.1679 0.0000 -8.3686 0.0000
# 2 35.1779 55.2474 23.0065 0.0000 0.5811 0.0000
# 3 36.1679 23.0065 81.5483 0.0000 -9.5397 0.0000
# 4 0.0000 0.0000 0.0000 16.0838 0.0000 -0.1198
# 5 -8.3686 0.5811 -9.5397 0.0000 30.8280 0.0000
# 6 0.0000 0.0000 0.0000 -0.1198 0.0000 19.9729
#
#
#
# Elastic Compliance Matrix: (Units=1/GPa)
#
#
# Indices 1 2 3 4 5 6 
#
# 1 0.019013 -0.009990 -0.005176 0.000000 0.003748 0.000000
# 2 -0.009990 0.025912 -0.003376 0.000000 -0.004245 0.000000
# 3 -0.005176 -0.003376 0.015930 0.000000 0.003588 0.000000
# 4 0.000000 0.000000 0.000000 0.062177 0.000000 0.000373
# 5 0.003748 -0.004245 0.003588 0.000000 0.034646 0.000000
# 6 0.000000 0.000000 0.000000 0.000373 0.000000 0.050070
#
#
# Mechanical properties :
#
#
# Convention : Reuss Voigt Hill
#
# Bulk Modulus (GPa) = 42.06744 45.34178 43.70461
# Shear Modulus (GPa) = 19.78194 21.71154 20.74674
#
# Velocity S-wave (km/s) = 3.45983 3.62465 3.54320
# Velocity P-wave (km/s) = 6.43556 6.70482 6.57157
#
# Compressibility (1/GPa) = 0.02377135
#
# Stress axis : x y z
#
# Youngs Moduli (GPa) = 52.59630 38.59202 62.77322
#
# Poissons Ratio (x) = 0.38554 0.32489
# Poissons Ratio (y) = 0.52545 0.21193
# Poissons Ratio (z) = 0.27221 0.13029
#
# Static dielectric constant tensor:
#      x y z
#    x 3.051230 0.000000 -0.067160 
#    y 0.000000 3.044580 0.000000 
#    z -0.067160 0.000000 3.194330 
# 
# 
# High freq. dielectric constant tensor:
#      x y z
#    x 1.622230 0.000000 -0.009560 
#    y 0.000000 1.610370 0.000000 
#    z -0.009560 0.000000 1.642850 
# 
# From -- ./inp_files/111267.got.cif
#   From: 2010.06.25/outbox.cif.g09.slc.cpg/sg12_56_cif.got.tgz:111267.got - 2010.06.28 00:19:55.
