data_PCOD8081047
_publ_section_title
;
Structure prediction by ZEFSAII (Michael W. Deem and Ramdas Pophale) SiO2 
 PCOD8081047
Probable space group: C 2/M
;
_chemical_formula_sum "Si O2"
_cell_formula_units_Z 64
_cell_length_a 16.582199
_cell_length_b 27.277600
_cell_length_c 9.876292
_cell_angle_alpha 90.000000
_cell_angle_beta 124.324845
_cell_angle_gamma 90.000000
_cell_volume 3689.312151
_symmetry_space_group_name_H-M "C 2/M"
_symmetry_group_IT_number 12
_symmetry_cell_setting 'monoclinic'
loop_
_space_group_symop_operation_xyz
x,y,z
-x,y,-z
-x,-y,-z
x,-y,z
1/2+x,1/2+y,z
1/2-x,1/2+y,-z
1/2-x,1/2-y,-z
1/2+x,1/2-y,z
loop_
_atom_site_type_symbol
_atom_site_label
_atom_site_fract_x
_atom_site_fract_y
_atom_site_fract_z
Si Si1 0.038790 0.798341 0.390738
Si Si2 0.828201 0.814116 0.132602
Si Si3 0.152778 0.445548 0.242964
Si Si4 0.220780 0.853118 0.642417
Si Si5 0.199105 0.708768 0.774112
Si Si6 0.060880 0.553976 0.865455
Si Si7 0.854070 0.298302 0.576392
Si Si8 0.970565 0.641169 0.328349
O O1 0.111500 0.844595 0.480695
O O2 0.093542 0.754525 0.363233
O O3 0.000000 0.778515 0.500000
O O4 0.944812 0.817321 0.218605
O O5 0.785948 0.853929 0.199512
O O6 0.796425 0.765152 0.181973
O O7 0.781647 0.819796 0.939540
O O8 0.199659 0.500000 0.300835
O O9 0.234733 0.405504 0.361109
O O10 0.056965 0.442248 0.244996
O O11 0.113169 0.436427 0.055614
O O12 0.285302 0.808148 0.641018
O O13 0.210561 0.699730 0.623698
O O14 0.093539 0.689831 0.719182
O O15 0.090366 0.500000 0.837965
O O16 0.093554 0.598378 0.800966
O O17 0.933112 0.341901 0.660438
O O18 0.000000 0.619278 0.500000
#
# Coordination Sequence:
#
# PCOD8081047 Si02
#       8
#     8   8   8   8   8   8   8   8
#     4  10  18  33  48  67  99 132 161 198 242 283
#     4  10  20  33  49  67  96 133 169 193 240 295
#     4   9  18  32  48  71  99 125 156 206 259 286
#     4  11  20  30  55  73  89 130 168 203 231 295
#     4  10  19  32  48  66  99 139 158 193 244 288
#     4   9  17  31  48  68 101 130 157 200 245 293
#     4  11  18  32  48  71 100 126 165 198 237 282
#     4  10  18  29  49  69  99 135 159 191 239 296
#
# _framework density 17.347407
#
# number of rings (size 3 to 8) (size 9 to 14) (size 15 to 20)
#    0.000    2.000    5.000    2.250    0.000    0.250 
#    0.000    0.625    0.000    3.375    0.000    0.000 
#    0.000    1.000    0.000    0.000    0.000    1.000 
#
# Total GULP energy -396494.200045 kJ/mol
# GULP energy per Si atom -12390.443751 kJ/mol
# Density = 1.730792 g / cm^3
# Si number density = 17.347407 Si / 1000 Ang^3
#
#
#
# Elastic Constant Matrix: (Units=GPa)
#
#
# Indices 1 2 3 4 5 6 
#
# 1 55.9564 14.5617 18.4143 0.0000 10.8757 0.0000
# 2 14.5617 63.9227 9.2204 0.0000 2.6124 0.0000
# 3 18.4143 9.2204 66.6023 0.0000 11.7059 0.0000
# 4 0.0000 0.0000 0.0000 23.3892 0.0000 0.6055
# 5 10.8757 2.6124 11.7059 0.0000 18.0099 0.0000
# 6 0.0000 0.0000 0.0000 0.6055 0.0000 12.7833
#
#
#
# Elastic Compliance Matrix: (Units=1/GPa)
#
#
# Indices 1 2 3 4 5 6 
#
# 1 0.022183 -0.004089 -0.003745 0.000000 -0.010369 0.000000
# 2 -0.004089 0.016732 -0.001347 0.000000 0.000918 0.000000
# 3 -0.003745 -0.001347 0.017843 0.000000 -0.009141 0.000000
# 4 0.000000 0.000000 0.000000 0.042807 0.000000 -0.002028
# 5 -0.010369 0.000918 -0.009141 0.000000 0.067594 0.000000
# 6 0.000000 0.000000 0.000000 -0.002028 0.000000 0.078323
#
#
# Mechanical properties :
#
#
# Convention : Reuss Voigt Hill
#
# Bulk Modulus (GPa) = 26.04465 30.09716 28.07090
# Shear Modulus (GPa) = 18.07381 20.45549 19.26465
#
# Velocity S-wave (km/s) = 3.23131 3.43763 3.33606
# Velocity P-wave (km/s) = 5.38219 5.75705 5.57278
#
# Compressibility (1/GPa) = 0.03839561
#
# Stress axis : x y z
#
# Youngs Moduli (GPa) = 45.08000 59.76480 56.04487
#
# Poissons Ratio (x) = 0.24440 0.20987
# Poissons Ratio (y) = 0.18435 0.07550
# Poissons Ratio (z) = 0.16881 0.08051
#
# Static dielectric constant tensor:
#      x y z
#    x 3.096400 0.000000 0.134300 
#    y 0.000000 3.084940 0.000000 
#    z 0.134300 0.000000 3.407810 
# 
# 
# High freq. dielectric constant tensor:
#      x y z
#    x 1.650520 0.000000 0.005240 
#    y 0.000000 1.649260 0.000000 
#    z 0.005240 0.000000 1.659350 
# 
# From -- ./inp_files/160641.got.cif
#   From: 2010.06.25/outbox.cif.g09.slc.cpg/sg12_81_cif.got.tgz:160641.got - 2010.06.28 00:19:55.
