data_PCOD8081298
_publ_section_title
;
Structure prediction by ZEFSAII (Michael W. Deem and Ramdas Pophale) SiO2 
 PCOD8081298
Probable space group: C 2/M
;
_chemical_formula_sum "Si O2"
_cell_formula_units_Z 32
_cell_length_a 19.245596
_cell_length_b 13.618463
_cell_length_c 22.201104
_cell_angle_alpha 90.000000
_cell_angle_beta 18.023727
_cell_angle_gamma 90.000000
_cell_volume 1800.402137
_symmetry_space_group_name_H-M "C 2/M"
_symmetry_group_IT_number 12
_symmetry_cell_setting 'monoclinic'
loop_
_space_group_symop_operation_xyz
x,y,z
-x,y,-z
-x,-y,-z
x,-y,z
1/2+x,1/2+y,z
1/2-x,1/2+y,-z
1/2-x,1/2-y,-z
1/2+x,1/2-y,z
loop_
_atom_site_type_symbol
_atom_site_label
_atom_site_fract_x
_atom_site_fract_y
_atom_site_fract_z
Si Si1 0.362782 0.612732 0.389975
Si Si2 0.971630 0.886446 0.163122
Si Si3 0.908645 0.292845 0.752339
Si Si4 0.252982 0.108047 0.768202
O O1 0.408156 0.500000 0.368947
O O2 0.392052 0.636002 0.295469
O O3 0.539491 0.677317 0.282453
O O4 0.109707 0.643190 0.615858
O O5 0.762742 0.861662 0.289686
O O6 0.042239 0.000000 0.095814
O O7 0.184208 0.818778 0.973342
O O8 0.888477 0.314766 0.697381
O O9 0.366945 0.000000 0.681352
O O10 0.000000 0.102235 0.000000
#
# Coordination Sequence:
#
# PCOD8081298 Si02
#       4
#     8   8   8   8
#     4  10  20  30  44  68  91 117 150 178 214 263
#     4   9  17  30  48  69  91 112 142 185 224 260
#     4  10  18  30  46  65  92 120 143 178 223 261
#     4   8  14  26  46  68  87 111 142 179 223 262
#
# _framework density 17.773807999999999
#
# number of rings (size 3 to 8) (size 9 to 14) (size 15 to 20)
#    0.000    2.750    0.000    4.500    0.000    1.000 
#    0.000    3.750    0.000    6.750    0.000    7.000 
#    0.000    0.000    0.000    0.000    0.000    0.000 
#
# Total GULP energy -198350.518352 kJ/mol
# GULP energy per Si atom -12396.907397 kJ/mol
# Density = 1.773335 g / cm^3
# Si number density = 17.773808 Si / 1000 Ang^3
#
#
#
# Elastic Constant Matrix: (Units=GPa)
#
#
# Indices 1 2 3 4 5 6 
#
# 1 96.4685 63.6265 7.9076 -0.1987 -7.7026 -0.0642
# 2 63.6265 124.2191 28.8883 0.1347 -13.4245 0.0805
# 3 7.9076 28.8883 27.0524 -0.0240 -8.9691 0.0551
# 4 -0.1987 0.1347 -0.0240 18.3016 0.0033 -7.0622
# 5 -7.7026 -13.4245 -8.9691 0.0033 23.5837 -0.0403
# 6 -0.0642 0.0805 0.0551 -7.0622 -0.0403 32.5531
#
#
#
# Elastic Compliance Matrix: (Units=1/GPa)
#
#
# Indices 1 2 3 4 5 6 
#
# 1 0.016352 -0.009572 0.006186 0.000299 0.002245 0.000113
# 2 -0.009572 0.016397 -0.014479 -0.000280 0.000700 -0.000095
# 3 0.006186 -0.014479 0.055562 0.000255 0.014909 0.000028
# 4 0.000299 -0.000280 0.000255 0.059638 0.000049 0.012939
# 5 0.002245 0.000700 0.014909 0.000049 0.049204 0.000049
# 6 0.000113 -0.000095 0.000028 0.012939 0.000049 0.033527
#
#
# Mechanical properties :
#
#
# Convention : Reuss Voigt Hill
#
# Bulk Modulus (GPa) = 19.01837 49.84276 34.43056
# Shear Modulus (GPa) = 17.60948 24.70886 21.15917
#
# Velocity S-wave (km/s) = 3.15104 3.73256 3.45406
# Velocity P-wave (km/s) = 4.89512 6.83226 5.94314
#
# Compressibility (1/GPa) = 0.05258074
#
# Stress axis : x y z
#
# Youngs Moduli (GPa) = 61.15275 60.98770 17.99790
#
# Poissons Ratio (x) = 0.58380 -0.11134
# Poissons Ratio (y) = 0.58538 0.26060
# Poissons Ratio (z) = -0.37832 0.88306
#
# Static dielectric constant tensor:
#      x y z
#    x 3.600860 -0.000120 -0.008100 
#    y -0.000120 3.127310 0.000270 
#    z -0.008100 0.000270 3.201940 
# 
# 
# High freq. dielectric constant tensor:
#      x y z
#    x 1.681710 -0.000010 0.001210 
#    y -0.000010 1.654670 0.000020 
#    z 0.001210 0.000020 1.693650 
# 
# From -- ./inp_files/57688.got.cif
#   From: 2010.06.25/outbox.cif.g09.slc.cpg/sg12_29_cif.got.tgz:57688.got - 2010.06.28 00:19:55.
