data_PCOD8081139
_publ_section_title
;
Structure prediction by ZEFSAII (Michael W. Deem and Ramdas Pophale) SiO2 
 PCOD8081139
Probable space group: C 2/M
;
_chemical_formula_sum "Si O2"
_cell_formula_units_Z 56
_cell_length_a 20.794512
_cell_length_b 9.374154
_cell_length_c 17.373012
_cell_angle_alpha 90.000000
_cell_angle_beta 105.343571
_cell_angle_gamma 90.000000
_cell_volume 3265.829724
_symmetry_space_group_name_H-M "C 2/M"
_symmetry_group_IT_number 12
_symmetry_cell_setting 'monoclinic'
loop_
_space_group_symop_operation_xyz
x,y,z
-x,y,-z
-x,-y,-z
x,-y,z
1/2+x,1/2+y,z
1/2-x,1/2+y,-z
1/2-x,1/2-y,-z
1/2+x,1/2-y,z
loop_
_atom_site_type_symbol
_atom_site_label
_atom_site_fract_x
_atom_site_fract_y
_atom_site_fract_z
Si Si1 0.703104 0.166764 0.764284
Si Si2 0.062126 0.667912 0.264397
Si Si3 0.419237 0.829987 0.173565
Si Si4 0.160644 0.665837 0.419992
Si Si5 0.570969 0.831195 0.995497
Si Si6 0.715012 0.163887 0.595423
Si Si7 0.661899 0.831139 0.163948
O O1 0.641976 0.227666 0.795067
O O2 0.683505 0.194095 0.668785
O O3 0.768282 0.252067 0.808665
O O4 0.715973 0.000000 0.783928
O O5 0.056101 0.500000 0.251279
O O6 0.090259 0.709114 0.358297
O O7 0.113123 0.724991 0.215846
O O8 0.988468 0.733546 0.229906
O O9 0.420140 0.000000 0.177217
O O10 0.410682 0.773799 0.083585
O O11 0.173980 0.500000 0.410052
O O12 0.218964 0.744463 0.393134
O O13 0.161250 0.703535 0.511311
O O14 0.629106 0.786496 0.072422
O O15 0.563575 0.000000 0.990443
O O16 0.500000 0.766017 0.000000
O O17 0.736609 0.000000 0.593855
O O18 0.673930 0.000000 0.173713
#
# Coordination Sequence:
#
# PCOD8081139 Si02
#       7
#     8   8   8   8   8   8   8
#     4  10  20  32  45  66  99 130 148 175 231 290
#     4   9  15  26  46  71  90 112 152 196 227 256
#     4   9  17  29  45  67  96 124 149 185 234 277
#     4   9  16  27  46  69  89 113 152 195 224 253
#     4   9  15  26  46  72  93 112 151 200 231 256
#     4   9  17  28  42  65  95 122 147 179 225 277
#     4  10  18  29  50  73  90 114 156 200 226 256
#
# _framework density 17.14725
#
# number of rings (size 3 to 8) (size 9 to 14) (size 15 to 20)
#    0.000    2.714    2.857    0.000    0.000    0.571 
#    0.000    0.714    0.000    6.429    0.000    0.000 
#    0.000    5.714    0.000    0.000    0.000    0.000 
#
# Total GULP energy -347039.408563 kJ/mol
# GULP energy per Si atom -12394.264592 kJ/mol
# Density = 1.710822 g / cm^3
# Si number density = 17.147250 Si / 1000 Ang^3
#
#
#
# Elastic Constant Matrix: (Units=GPa)
#
#
# Indices 1 2 3 4 5 6 
#
# 1 147.5606 26.0043 89.1639 0.0000 3.1550 0.0000
# 2 26.0043 20.1720 26.4147 0.0000 2.2442 0.0000
# 3 89.1639 26.4147 157.4035 0.0000 6.9701 0.0000
# 4 0.0000 0.0000 0.0000 15.2290 0.0000 2.9712
# 5 3.1550 2.2442 6.9701 0.0000 30.0821 0.0000
# 6 0.0000 0.0000 0.0000 2.9712 0.0000 18.5664
#
#
#
# Elastic Compliance Matrix: (Units=1/GPa)
#
#
# Indices 1 2 3 4 5 6 
#
# 1 0.011207 -0.007902 -0.005048 0.000000 0.000584 0.000000
# 2 -0.007902 0.069264 -0.007027 0.000000 -0.002710 0.000000
# 3 -0.005048 -0.007027 0.010453 0.000000 -0.001368 0.000000
# 4 0.000000 0.000000 0.000000 0.067781 0.000000 -0.010847
# 5 0.000584 -0.002710 -0.001368 0.000000 0.033700 0.000000
# 6 0.000000 0.000000 0.000000 -0.010847 0.000000 0.055597
#
#
# Mechanical properties :
#
#
# Convention : Reuss Voigt Hill
#
# Bulk Modulus (GPa) = 19.61994 67.58908 43.60451
# Shear Modulus (GPa) = 16.39632 25.01238 20.70435
#
# Velocity S-wave (km/s) = 3.09561 3.82341 3.47860
# Velocity P-wave (km/s) = 4.92382 7.68074 6.45127
#
# Compressibility (1/GPa) = 0.05096856
#
# Stress axis : x y z
#
# Youngs Moduli (GPa) = 89.22608 14.43757 95.66872
#
# Poissons Ratio (x) = 0.11409 0.48298
# Poissons Ratio (y) = 0.70507 0.67229
# Poissons Ratio (z) = 0.45045 0.10146
#
# Static dielectric constant tensor:
#      x y z
#    x 3.209540 0.000000 0.055780 
#    y 0.000000 2.777110 0.000000 
#    z 0.055780 0.000000 3.635680 
# 
# 
# High freq. dielectric constant tensor:
#      x y z
#    x 1.645580 0.000000 0.008350 
#    y 0.000000 1.610810 0.000000 
#    z 0.008350 0.000000 1.683990 
# 
# From -- ./inp_files/276096.got.cif
#   From: 2010.06.25/outbox.cif.g09.slc.cpg/sg12_139_cif.got.tgz:276096.got - 2010.06.28 00:19:55.
