data_PCOD8081710
_publ_section_title
;
Structure prediction by ZEFSAII (Michael W. Deem and Ramdas Pophale) SiO2 
 PCOD8081710
Probable space group: C 2/M
;
_chemical_formula_sum "Si O2"
_cell_formula_units_Z 64
_cell_length_a 24.601792
_cell_length_b 8.847565
_cell_length_c 16.741175
_cell_angle_alpha 90.000000
_cell_angle_beta 93.346074
_cell_angle_gamma 90.000000
_cell_volume 3637.771576
_symmetry_space_group_name_H-M "C 2/M"
_symmetry_group_IT_number 12
_symmetry_cell_setting 'monoclinic'
loop_
_space_group_symop_operation_xyz
x,y,z
-x,y,-z
-x,-y,-z
x,-y,z
1/2+x,1/2+y,z
1/2-x,1/2+y,-z
1/2-x,1/2-y,-z
1/2+x,1/2-y,z
loop_
_atom_site_type_symbol
_atom_site_label
_atom_site_fract_x
_atom_site_fract_y
_atom_site_fract_z
Si Si1 0.408568 0.179813 0.130110
Si Si2 0.709230 0.325731 0.609933
Si Si3 0.108284 0.676773 0.047323
Si Si4 0.697777 0.177424 0.175699
Si Si5 0.308622 0.178596 0.227615
Si Si6 0.471433 0.820574 0.822797
Si Si7 0.886347 0.825825 0.714484
Si Si8 0.316663 0.672523 0.565462
O O1 0.362468 0.236369 0.186812
O O2 0.466887 0.238780 0.166389
O O3 0.408867 0.000000 0.125602
O O4 0.397072 0.249708 0.041024
O O5 0.707118 0.500000 0.635647
O O6 0.685687 0.226689 0.679910
O O7 0.673060 0.293625 0.527471
O O8 0.771473 0.283888 0.596998
O O9 0.098097 0.500000 0.038606
O O10 0.168106 0.710885 0.088567
O O11 0.061912 0.740871 0.103004
O O12 0.757864 0.245477 0.178470
O O13 0.664250 0.253918 0.243456
O O14 0.700466 0.000000 0.193473
O O15 0.301707 0.000000 0.221524
O O16 0.443278 0.755010 0.740448
O O17 0.468343 0.000000 0.817490
O O18 0.873037 0.804894 0.618975
O O19 0.890976 0.000000 0.738953
O O20 0.295439 0.500000 0.573843
#
# Coordination Sequence:
#
# PCOD8081710 Si02
#       8
#     8   8   8   8   8   8   8   8
#     4   9  18  32  50  71  96 132 170 204 244 291
#     4  10  19  31  49  72  99 129 163 199 237 288
#     4   8  15  29  51  75  95 119 162 213 251 287
#     4  10  19  31  49  73  98 128 165 202 244 292
#     4  11  21  32  47  69 102 137 166 197 242 296
#     4   9  17  31  53  76  96 123 166 210 245 286
#     4  10  18  30  50  75 103 127 152 195 252 300
#     4   9  18  31  49  74 100 127 158 196 244 295
#
# _framework density 17.593188999999999
#
# number of rings (size 3 to 8) (size 9 to 14) (size 15 to 20)
#    0.000    2.500    1.250    2.625    0.000    3.000 
#    0.000    1.250    0.000   14.250    0.000    5.250 
#    0.000    0.000    0.000    0.000    0.000    0.000 
#
# Total GULP energy -396695.258248 kJ/mol
# GULP energy per Si atom -12396.726820 kJ/mol
# Density = 1.755315 g / cm^3
# Si number density = 17.593189 Si / 1000 Ang^3
#
#
#
# Elastic Constant Matrix: (Units=GPa)
#
#
# Indices 1 2 3 4 5 6 
#
# 1 131.0500 27.8130 73.8157 0.0000 13.7988 0.0000
# 2 27.8130 44.4382 24.3244 0.0000 5.6677 0.0000
# 3 73.8157 24.3244 111.7422 0.0000 24.4683 0.0000
# 4 0.0000 0.0000 0.0000 18.9670 0.0000 5.0904
# 5 13.7988 5.6677 24.4683 0.0000 27.0311 0.0000
# 6 0.0000 0.0000 0.0000 5.0904 0.0000 22.3063
#
#
#
# Elastic Compliance Matrix: (Units=1/GPa)
#
#
# Indices 1 2 3 4 5 6 
#
# 1 0.012742 -0.003836 -0.007900 0.000000 0.001451 0.000000
# 2 -0.003836 0.026705 -0.003096 0.000000 -0.000839 0.000000
# 3 -0.007900 -0.003096 0.017232 0.000000 -0.010916 0.000000
# 4 0.000000 0.000000 0.000000 0.056163 0.000000 -0.012817
# 5 0.001451 -0.000839 -0.010916 0.000000 0.046311 0.000000
# 6 0.000000 0.000000 0.000000 -0.012817 0.000000 0.047755
#
#
# Mechanical properties :
#
#
# Convention : Reuss Voigt Hill
#
# Bulk Modulus (GPa) = 37.01420 59.90409 48.45914
# Shear Modulus (GPa) = 20.36031 24.41270 22.38651
#
# Velocity S-wave (km/s) = 3.40558 3.72912 3.57102
# Velocity P-wave (km/s) = 6.04554 7.25709 6.67884
#
# Compressibility (1/GPa) = 0.02701666
#
# Stress axis : x y z
#
# Youngs Moduli (GPa) = 78.48336 37.44564 58.03205
#
# Poissons Ratio (x) = 0.14363 0.45843
# Poissons Ratio (y) = 0.30103 0.17966
# Poissons Ratio (z) = 0.61999 0.11592
#
# Static dielectric constant tensor:
#      x y z
#    x 3.228020 0.000000 0.230060 
#    y 0.000000 3.117710 0.000000 
#    z 0.230060 0.000000 3.497910 
# 
# 
# High freq. dielectric constant tensor:
#      x y z
#    x 1.657990 0.000000 0.025150 
#    y 0.000000 1.665490 0.000000 
#    z 0.025150 0.000000 1.682030 
# 
# From -- ./inp_files/287690.got.cif
#   From: 2010.06.25/outbox.cif.g09.slc.cpg/sg12_144_cif.got.tgz:287690.got - 2010.06.28 00:19:55.
