data_PCOD8081254
_publ_section_title
;
Structure prediction by ZEFSAII (Michael W. Deem and Ramdas Pophale) SiO2 
 PCOD8081254
Probable space group: C 2/M
;
_chemical_formula_sum "Si O2"
_cell_formula_units_Z 44
_cell_length_a 18.459147
_cell_length_b 19.741368
_cell_length_c 23.079504
_cell_angle_alpha 90.000000
_cell_angle_beta 162.788540
_cell_angle_gamma 90.000000
_cell_volume 2488.622415
_symmetry_space_group_name_H-M "C 2/M"
_symmetry_group_IT_number 12
_symmetry_cell_setting 'monoclinic'
loop_
_space_group_symop_operation_xyz
x,y,z
-x,y,-z
-x,-y,-z
x,-y,z
1/2+x,1/2+y,z
1/2-x,1/2+y,-z
1/2-x,1/2-y,-z
1/2+x,1/2-y,z
loop_
_atom_site_type_symbol
_atom_site_label
_atom_site_fract_x
_atom_site_fract_y
_atom_site_fract_z
Si Si1 0.500000 0.218949 0.000000
Si Si2 0.935866 0.815298 0.263406
Si Si3 0.212071 0.423292 0.769746
Si Si4 0.334265 0.674174 0.059304
Si Si5 0.248605 0.310759 0.711395
Si Si6 0.975608 0.342515 0.691908
O O1 0.714353 0.170691 0.138869
O O2 0.600276 0.265140 0.128616
O O3 0.878478 0.852610 0.158319
O O4 0.955403 0.734015 0.273100
O O5 0.184195 0.847390 0.478936
O O6 0.124609 0.500000 0.692779
O O7 0.153497 0.379757 0.668246
O O8 0.062249 0.393526 0.708963
O O9 0.500000 0.419126 0.000000
O O10 0.587614 0.669769 0.218375
O O11 0.250000 0.750000 0.000000
O O12 0.116938 0.635141 0.858937
O O13 0.000000 0.272807 0.500000
#
# Coordination Sequence:
#
# PCOD8081254 Si02
#       6
#     4   8   8   8   8   8
#     4  12  20  34  47  76 105 130 174 210 252 314
#     4  10  20  30  52  70 100 136 165 211 263 302
#     4  11  20  35  54  74 105 144 175 206 246 300
#     4  10  18  30  44  69  97 132 171 200 243 302
#     4  12  21  32  50  70 105 142 172 204 249 300
#     4  10  18  33  49  70 100 137 167 206 254 303
#
# _framework density 17.680465000000002
#
# number of rings (size 3 to 8) (size 9 to 14) (size 15 to 20)
#    0.000    1.273    8.182    1.091    5.091    0.364 
#    0.000    0.000    0.000    0.000    0.000    0.636 
#    0.000    1.455    0.000    0.000    0.000    0.000 
#
# Total GULP energy -272704.189754 kJ/mol
# GULP energy per Si atom -12395.644989 kJ/mol
# Density = 1.764022 g / cm^3
# Si number density = 17.680465 Si / 1000 Ang^3
#
#
#
# Elastic Constant Matrix: (Units=GPa)
#
#
# Indices 1 2 3 4 5 6 
#
# 1 134.5163 23.2857 58.6909 0.0062 20.9067 -0.0121
# 2 23.2857 36.4688 9.7600 -0.0015 7.1289 -0.0341
# 3 58.6909 9.7600 135.5640 -0.0293 21.9658 -0.0716
# 4 0.0062 -0.0015 -0.0293 -3.0026 0.0718 6.3203
# 5 20.9067 7.1289 21.9658 0.0718 27.6472 -0.0483
# 6 -0.0121 -0.0341 -0.0716 6.3203 -0.0483 15.6157
#
#
#
# Elastic Compliance Matrix: (Units=1/GPa)
#
#
# Indices 1 2 3 4 5 6 
#
# 1 0.010429 -0.004970 -0.003543 -0.000052 -0.003790 -0.000010
# 2 -0.004970 0.031364 0.000683 -0.000020 -0.004871 0.000061
# 3 -0.003543 0.000683 0.009705 -0.000092 -0.005207 0.000064
# 4 -0.000052 -0.000020 -0.000092 -0.179823 0.000712 0.072784
# 5 -0.003790 -0.004871 -0.005207 0.000712 0.044427 -0.000188
# 6 -0.000010 0.000061 0.000064 0.072784 -0.000188 0.034579
#
#
# Mechanical properties :
#
#
# Convention : Reuss Voigt Hill
#
# Bulk Modulus (GPa) = 27.90389 54.44693 41.17541
# Shear Modulus (GPa) = -230.29573 22.37289 -103.96142
#
# Velocity S-wave (km/s) = -11.42528 3.56111 -7.67645
# Velocity P-wave (km/s) = 12.57907 6.91162 7.43177
#
# Compressibility (1/GPa) = 0.03583730
#
# Stress axis : x y z
#
# Youngs Moduli (GPa) = 95.88219 31.88401 103.03714
#
# Poissons Ratio (x) = 0.15847 0.36511
# Poissons Ratio (y) = 0.47655 -0.07038
# Poissons Ratio (z) = 0.33975 -0.02178
#
# Static dielectric constant tensor:
#      x y z
#    x 3.595120 -0.000840 -0.238210 
#    y -0.000840 2.812920 0.000170 
#    z -0.238210 0.000170 3.890560 
# 
# 
# High freq. dielectric constant tensor:
#      x y z
#    x 1.690130 -0.000030 -0.000460 
#    y -0.000030 1.604500 -0.000080 
#    z -0.000460 -0.000080 1.708280 
# 
# From -- ./inp_files/76100.got.cif
#   From: 2010.06.25/outbox.cif.g09.slc.cpg/sg12_39_cif.got.tgz:76100.got - 2010.06.28 00:19:55.
