data_PCOD8081601
_publ_section_title
;
Structure prediction by ZEFSAII (Michael W. Deem and Ramdas Pophale) SiO2 
 PCOD8081601
Probable space group: C 2/M
;
_chemical_formula_sum "Si O2"
_cell_formula_units_Z 64
_cell_length_a 30.418960
_cell_length_b 8.791035
_cell_length_c 22.460952
_cell_angle_alpha 90.000000
_cell_angle_beta 31.809888
_cell_angle_gamma 90.000000
_cell_volume 3165.975678
_symmetry_space_group_name_H-M "C 2/M"
_symmetry_group_IT_number 12
_symmetry_cell_setting 'monoclinic'
loop_
_space_group_symop_operation_xyz
x,y,z
-x,y,-z
-x,-y,-z
x,-y,z
1/2+x,1/2+y,z
1/2-x,1/2+y,-z
1/2-x,1/2-y,-z
1/2+x,1/2-y,z
loop_
_atom_site_type_symbol
_atom_site_label
_atom_site_fract_x
_atom_site_fract_y
_atom_site_fract_z
Si Si1 0.137296 0.177425 0.472397
Si Si2 0.227990 0.332518 0.466226
Si Si3 0.986187 0.320261 0.696464
Si Si4 0.100898 0.166069 0.796322
Si Si5 0.190257 0.825279 0.116562
Si Si6 0.676322 0.174211 0.941653
Si Si7 0.016000 0.180105 0.174103
Si Si8 0.801693 0.679577 0.217806
O O1 0.166309 0.215380 0.505638
O O2 0.209900 0.239833 0.344451
O O3 0.048645 0.265035 0.571344
O O4 0.121046 0.000000 0.481754
O O5 0.186276 0.500000 0.523983
O O6 0.250000 0.250000 0.500000
O O7 0.310453 0.357237 0.334550
O O8 0.986358 0.500000 0.699896
O O9 0.895639 0.264070 0.781457
O O10 0.012624 0.255300 0.730958
O O11 0.118315 0.265351 0.835510
O O12 0.038585 0.242566 0.819428
O O13 0.065387 0.000000 0.856128
O O14 0.233502 0.814022 0.131366
O O15 0.173207 0.000000 0.118229
O O16 0.250000 0.750000 0.000000
O O17 0.684450 0.236117 0.865185
O O18 0.644292 0.000000 0.979348
O O19 0.611964 0.278053 0.051947
O O20 0.004397 0.000000 0.193407
O O21 0.799518 0.500000 0.225870
#
# Coordination Sequence:
#
# PCOD8081601 Si02
#       8
#     8   8   8   8   8   8   8   8
#     4  10  20  36  57  81 111 149 193 239 288 344
#     4  10  18  30  49  74 108 149 193 239 289 342
#     4  12  24  38  59  88 120 151 189 239 296 352
#     4   9  20  35  51  77 113 152 192 236 284 337
#     4  11  22  39  63  89 119 150 188 234 291 350
#     4  10  22  40  61  86 115 150 192 239 289 345
#     4  11  22  36  57  86 119 154 195 240 290 344
#     4   9  20  39  61  83 112 154 199 238 281 337
#
# _framework density 20.214936000000002
#
# number of rings (size 3 to 8) (size 9 to 14) (size 15 to 20)
#    0.000    1.750    1.250    3.375    0.000    4.500 
#    0.000    3.125    0.000    3.750    0.000    0.000 
#    0.000    0.000    0.000    0.000    0.000    0.000 
#
# Total GULP energy -396632.168080 kJ/mol
# GULP energy per Si atom -12394.755253 kJ/mol
# Density = 2.016893 g / cm^3
# Si number density = 20.214936 Si / 1000 Ang^3
#
#
#
# Elastic Constant Matrix: (Units=GPa)
#
#
# Indices 1 2 3 4 5 6 
#
# 1 78.7779 19.4670 7.4987 0.0216 -3.2038 -0.0037
# 2 19.4670 84.8286 20.8930 0.0664 1.3962 0.0068
# 3 7.4987 20.8930 66.0693 0.1139 -10.7329 0.0142
# 4 0.0216 0.0664 0.1139 28.5327 -0.0036 -5.7836
# 5 -3.2038 1.3962 -10.7329 -0.0036 32.5624 -0.0042
# 6 -0.0037 0.0068 0.0142 -5.7836 -0.0042 27.2101
#
#
#
# Elastic Compliance Matrix: (Units=1/GPa)
#
#
# Indices 1 2 3 4 5 6 
#
# 1 0.013534 -0.003040 -0.000356 -0.000001 0.001345 0.000003
# 2 -0.003040 0.013590 -0.004327 -0.000013 -0.002308 -0.000005
# 3 -0.000356 -0.004327 0.017506 -0.000063 0.005921 -0.000021
# 4 -0.000001 -0.000013 -0.000063 0.036626 -0.000015 0.007785
# 5 0.001345 -0.002308 0.005921 -0.000015 0.032893 0.000000
# 6 0.000003 -0.000005 -0.000021 0.007785 0.000000 0.038406
#
#
# Mechanical properties :
#
#
# Convention : Reuss Voigt Hill
#
# Bulk Modulus (GPa) = 34.26711 36.15480 35.21095
# Shear Modulus (GPa) = 28.13254 29.78218 28.95736
#
# Velocity S-wave (km/s) = 3.73456 3.84249 3.78891
# Velocity P-wave (km/s) = 5.96524 6.13273 6.04956
#
# Compressibility (1/GPa) = 0.02918250
#
# Stress axis : x y z
#
# Youngs Moduli (GPa) = 73.88917 73.58353 57.12178
#
# Poissons Ratio (x) = 0.22371 0.02035
# Poissons Ratio (y) = 0.22464 0.24719
# Poissons Ratio (z) = 0.02632 0.31843
#
# Static dielectric constant tensor:
#      x y z
#    x 3.731390 -0.000010 -0.123520 
#    y -0.000010 3.788350 0.000090 
#    z -0.123520 0.000090 3.821350 
# 
# 
# High freq. dielectric constant tensor:
#      x y z
#    x 1.779410 0.000000 -0.009180 
#    y 0.000000 1.789660 0.000000 
#    z -0.009180 0.000000 1.789320 
# 
# From -- ./inp_files/353346.got.cif
#   From: 2010.06.25/outbox.cif.g09.slc.cpg/sg12_177_cif.got.tgz:353346.got - 2010.06.28 00:19:55.
