data_PCOD8081272
_publ_section_title
;
Structure prediction by ZEFSAII (Michael W. Deem and Ramdas Pophale) SiO2 
 PCOD8081272
Probable space group: C 2/M
;
_chemical_formula_sum "Si O2"
_cell_formula_units_Z 56
_cell_length_a 5.305458
_cell_length_b 26.405971
_cell_length_c 23.901006
_cell_angle_alpha 90.000000
_cell_angle_beta 57.934093
_cell_angle_gamma 90.000000
_cell_volume 2837.586595
_symmetry_space_group_name_H-M "C 2/M"
_symmetry_group_IT_number 12
_symmetry_cell_setting 'monoclinic'
loop_
_space_group_symop_operation_xyz
x,y,z
-x,y,-z
-x,-y,-z
x,-y,z
1/2+x,1/2+y,z
1/2-x,1/2+y,-z
1/2-x,1/2-y,-z
1/2+x,1/2-y,z
loop_
_atom_site_type_symbol
_atom_site_label
_atom_site_fract_x
_atom_site_fract_y
_atom_site_fract_z
Si Si1 0.058807 0.771231 0.573381
Si Si2 0.551360 0.614926 0.397297
Si Si3 0.549409 0.056697 0.398073
Si Si4 0.181209 0.700327 0.924277
Si Si5 0.690315 0.189520 0.129442
Si Si6 0.423980 0.884799 0.240970
Si Si7 0.077434 0.056729 0.758573
O O1 0.250000 0.750000 0.500000
O O2 0.226973 0.753482 0.610514
O O3 0.047149 0.831155 0.568145
O O4 0.252636 0.582588 0.421745
O O5 0.746371 0.587688 0.422321
O O6 0.737805 0.624023 0.318939
O O7 0.733375 0.054127 0.319848
O O8 0.467173 0.000000 0.427633
O O9 0.296070 0.749530 0.876282
O O10 0.471159 0.668059 0.907721
O O11 0.970611 0.668048 0.907681
O O12 0.000000 0.718403 0.000000
O O13 0.509715 0.169945 0.204982
O O14 0.232098 0.915058 0.217511
O O15 0.728394 0.915065 0.217223
O O16 0.006675 0.000000 0.787975
#
# Coordination Sequence:
#
# PCOD8081272 Si02
#       7
#     8   8   8   8   8   8   8
#     4  10  21  38  56  77  98 137 195 225 248 286
#     4  10  19  33  51  78 109 138 172 219 257 308
#     4   9  17  30  52  79 107 136 168 205 268 327
#     4  10  19  33  50  66  94 129 171 207 243 288
#     4  10  18  30  45  69  97 127 159 202 252 287
#     4  10  19  30  46  74 107 130 160 204 253 305
#     4   9  17  30  47  67 100 140 166 193 239 305
#
# _framework density 19.735081999999998
#
# number of rings (size 3 to 8) (size 9 to 14) (size 15 to 20)
#    0.000    2.286    0.000    4.714    0.000    3.429 
#    5.143    0.000    0.000    0.000    0.000   40.000 
#    0.000   66.286    0.000    0.000    0.000    0.000 
#
# Total GULP energy -347011.001225 kJ/mol
# GULP energy per Si atom -12393.250044 kJ/mol
# Density = 1.969016 g / cm^3
# Si number density = 19.735082 Si / 1000 Ang^3
#
#
#
# Elastic Constant Matrix: (Units=GPa)
#
#
# Indices 1 2 3 4 5 6 
#
# 1 219.2551 56.3177 13.6292 0.0000 -19.9124 0.0000
# 2 56.3177 130.4239 27.3879 0.0000 -11.7366 0.0000
# 3 13.6292 27.3879 28.4500 0.0000 -10.4282 0.0000
# 4 0.0000 0.0000 0.0000 9.0897 0.0000 -2.3859
# 5 -19.9124 -11.7366 -10.4282 0.0000 9.6393 0.0000
# 6 0.0000 0.0000 0.0000 -2.3859 0.0000 28.6222
#
#
#
# Elastic Compliance Matrix: (Units=1/GPa)
#
#
# Indices 1 2 3 4 5 6 
#
# 1 0.006254 -0.002346 0.004889 0.000000 0.015352 0.000000
# 2 -0.002346 0.010536 -0.010096 0.000000 -0.002940 0.000000
# 3 0.004889 -0.010096 0.069139 0.000000 0.072605 0.000000
# 4 0.000000 0.000000 0.000000 0.112476 0.000000 0.009376
# 5 0.015352 -0.002940 0.072605 0.000000 0.210423 0.000000
# 6 0.000000 0.000000 0.000000 0.009376 0.000000 0.035719
#
#
# Mechanical properties :
#
#
# Convention : Reuss Voigt Hill
#
# Bulk Modulus (GPa) = 14.11955 63.64430 38.88193
# Shear Modulus (GPa) = 10.34640 28.18986 19.26813
#
# Velocity S-wave (km/s) = 2.29217 3.78354 3.12803
# Velocity P-wave (km/s) = 3.76503 7.16981 5.72633
#
# Compressibility (1/GPa) = 0.07082378
#
# Stress axis : x y z
#
# Youngs Moduli (GPa) = 159.90506 94.91503 14.46352
#
# Poissons Ratio (x) = 0.22263 -0.07072
# Poissons Ratio (y) = 0.37507 0.14603
# Poissons Ratio (z) = -0.78184 0.95830
#
# Static dielectric constant tensor:
#      x y z
#    x 6.101140 0.000000 -0.319660 
#    y 0.000000 3.424460 0.000000 
#    z -0.319660 0.000000 3.125720 
# 
# 
# High freq. dielectric constant tensor:
#      x y z
#    x 1.811460 0.000000 -0.007130 
#    y 0.000000 1.743660 0.000000 
#    z -0.007130 0.000000 1.720180 
# 
# From -- ./inp_files/355173.got.cif
#   From: 2010.06.25/outbox.cif.g09.slc.cpg/sg12_178_cif.got.tgz:355173.got - 2010.06.28 00:19:55.
