data_PCOD8081506
_publ_section_title
;
Structure prediction by ZEFSAII (Michael W. Deem and Ramdas Pophale) SiO2 
 PCOD8081506
Probable space group: C 2/M
;
_chemical_formula_sum "Si O2"
_cell_formula_units_Z 64
_cell_length_a 26.830914
_cell_length_b 9.868579
_cell_length_c 26.004683
_cell_angle_alpha 90.000000
_cell_angle_beta 147.275682
_cell_angle_gamma 90.000000
_cell_volume 3722.336518
_symmetry_space_group_name_H-M "C 2/M"
_symmetry_group_IT_number 12
_symmetry_cell_setting 'monoclinic'
loop_
_space_group_symop_operation_xyz
x,y,z
-x,y,-z
-x,-y,-z
x,-y,z
1/2+x,1/2+y,z
1/2-x,1/2+y,-z
1/2-x,1/2-y,-z
1/2+x,1/2-y,z
loop_
_atom_site_type_symbol
_atom_site_label
_atom_site_fract_x
_atom_site_fract_y
_atom_site_fract_z
Si Si1 0.488727 0.654955 0.120871
Si Si2 0.964871 0.839940 0.414257
Si Si3 0.445945 0.656526 0.717397
Si Si4 0.924803 0.657551 0.977787
Si Si5 0.199262 0.854324 0.274450
Si Si6 0.758061 0.155948 0.241042
Si Si7 0.423295 0.658061 0.586749
Si Si8 0.254961 0.152204 0.435247
O O1 0.452004 0.500000 0.083585
O O2 0.485119 0.709668 0.177536
O O3 0.592836 0.668198 0.193169
O O4 0.430050 0.754177 0.033956
O O5 0.023751 0.783093 0.417139
O O6 0.000000 0.780494 0.500000
O O7 0.859428 0.798509 0.310202
O O8 0.976289 0.000000 0.425437
O O9 0.431960 0.500000 0.720349
O O10 0.484770 0.675634 0.692860
O O11 0.342413 0.716812 0.631005
O O12 0.941023 0.500000 0.005195
O O13 0.820662 0.685637 0.868946
O O14 0.000000 0.703442 0.000000
O O15 0.237129 0.732495 0.274687
O O16 0.258902 0.855018 0.377404
O O17 0.212124 0.000000 0.257340
O O18 0.758879 0.000000 0.257494
O O19 0.397850 0.500000 0.557272
O O20 0.332225 0.742649 0.519759
O O21 0.272513 0.000000 0.473047
#
# Coordination Sequence:
#
# PCOD8081506 Si02
#       8
#     8   8   8   8   8   8   8   8
#     4   9  17  30  47  67  93 123 151 184 229 278
#     4   9  18  31  47  69  93 120 157 195 227 264
#     4   8  16  30  47  68  93 121 154 192 231 275
#     4  10  19  30  45  70  99 123 149 187 235 284
#     4   9  17  28  43  65  93 123 152 183 224 278
#     4  10  19  31  47  66  94 125 153 191 233 270
#     4  10  18  30  49  68  88 119 161 199 229 269
#     4   9  17  29  44  66  97 123 147 187 237 279
#
# _framework density 17.193501999999999
#
# number of rings (size 3 to 8) (size 9 to 14) (size 15 to 20)
#    0.000    2.750    1.250    2.625    0.000    2.250 
#    0.000    3.125    0.000    3.000    0.000    0.000 
#    0.000    0.000    0.000    0.000    0.000    0.000 
#
# Total GULP energy -396461.276762 kJ/mol
# GULP energy per Si atom -12389.414899 kJ/mol
# Density = 1.715437 g / cm^3
# Si number density = 17.193502 Si / 1000 Ang^3
#
#
#
# Elastic Constant Matrix: (Units=GPa)
#
#
# Indices 1 2 3 4 5 6 
#
# 1 92.1652 26.0728 46.3730 0.0000 -27.6969 0.0000
# 2 26.0728 43.0568 30.5062 0.0000 -9.6441 0.0000
# 3 46.3730 30.5062 91.2111 0.0000 -8.4492 0.0000
# 4 0.0000 0.0000 0.0000 15.7922 0.0000 0.4418
# 5 -27.6969 -9.6441 -8.4492 0.0000 18.8775 0.0000
# 6 0.0000 0.0000 0.0000 0.4418 0.0000 7.8907
#
#
#
# Elastic Compliance Matrix: (Units=1/GPa)
#
#
# Indices 1 2 3 4 5 6 
#
# 1 0.026161 -0.001508 -0.009715 0.000000 0.033265 0.000000
# 2 -0.001508 0.033107 -0.009331 0.000000 0.010525 0.000000
# 3 -0.009715 -0.009331 0.018008 0.000000 -0.010961 0.000000
# 4 0.000000 0.000000 0.000000 0.063422 0.000000 -0.003551
# 5 0.033265 0.010525 -0.010961 0.000000 0.102251 0.000000
# 6 0.000000 0.000000 0.000000 -0.003551 0.000000 0.126930
#
#
# Mechanical properties :
#
#
# Convention : Reuss Voigt Hill
#
# Bulk Modulus (GPa) = 27.64832 48.03746 37.84289
# Shear Modulus (GPa) = 11.81910 16.74416 14.28163
#
# Velocity S-wave (km/s) = 2.62471 3.12407 2.88521
# Velocity P-wave (km/s) = 5.03001 6.40414 5.75821
#
# Compressibility (1/GPa) = 0.03616857
#
# Stress axis : x y z
#
# Youngs Moduli (GPa) = 38.22415 30.20514 55.52950
#
# Poissons Ratio (x) = 0.04554 0.53947
# Poissons Ratio (y) = 0.05763 0.51816
# Poissons Ratio (z) = 0.37135 0.28185
#
# Static dielectric constant tensor:
#      x y z
#    x 3.281690 0.000000 -0.184900 
#    y 0.000000 3.066660 0.000000 
#    z -0.184900 0.000000 3.255900 
# 
# 
# High freq. dielectric constant tensor:
#      x y z
#    x 1.649120 0.000000 -0.022550 
#    y 0.000000 1.641130 0.000000 
#    z -0.022550 0.000000 1.652750 
# 
# From -- ./inp_files/384615.got.cif
#   From: 2010.06.25/outbox.cif.g09.slc.cpg/sg12_193_cif.got.tgz:384615.got - 2010.06.28 00:19:55.
