data_PCOD8081469
_publ_section_title
;
Structure prediction by ZEFSAII (Michael W. Deem and Ramdas Pophale) SiO2 
 PCOD8081469
Probable space group: C 2/M
;
_chemical_formula_sum "Si O2"
_cell_formula_units_Z 48
_cell_length_a 23.854996
_cell_length_b 8.926336
_cell_length_c 23.690799
_cell_angle_alpha 90.000000
_cell_angle_beta 33.289105
_cell_angle_gamma 90.000000
_cell_volume 2768.834099
_symmetry_space_group_name_H-M "C 2/M"
_symmetry_group_IT_number 12
_symmetry_cell_setting 'monoclinic'
loop_
_space_group_symop_operation_xyz
x,y,z
-x,y,-z
-x,-y,-z
x,-y,z
1/2+x,1/2+y,z
1/2-x,1/2+y,-z
1/2-x,1/2-y,-z
1/2+x,1/2-y,z
loop_
_atom_site_type_symbol
_atom_site_label
_atom_site_fract_x
_atom_site_fract_y
_atom_site_fract_z
Si Si1 0.137842 0.167019 0.238610
Si Si2 0.998105 0.323474 0.861748
Si Si3 0.142613 0.822094 0.108905
Si Si4 0.631449 0.166051 0.928808
Si Si5 0.897094 0.323934 0.617129
Si Si6 0.805723 0.324090 0.242156
O O1 0.108384 0.225360 0.201064
O O2 0.259269 0.164436 0.134102
O O3 0.096955 0.272733 0.322742
O O4 0.094597 0.000000 0.286075
O O5 0.973977 0.500000 0.874616
O O6 0.120578 0.295986 0.765904
O O7 0.953321 0.233954 0.846910
O O8 0.945411 0.255246 0.962699
O O9 0.155144 0.000000 0.093389
O O10 0.250000 0.750000 0.000000
O O11 0.638589 0.242774 0.861079
O O12 0.587903 0.000000 0.956178
O O13 0.883572 0.500000 0.627490
O O14 0.803696 0.254520 0.659635
O O15 0.000000 0.271397 0.500000
O O16 0.784222 0.500000 0.250764
#
# Coordination Sequence:
#
# PCOD8081469 Si02
#       6
#     8   8   8   8   8   8
#     4   9  18  33  52  73  99 135 175 208 244 295
#     4  10  18  30  48  72 104 140 172 204 244 294
#     4  11  21  33  49  72 105 143 178 209 243 288
#     4   8  13  26  46  68  97 132 166 199 236 286
#     4  10  21  36  55  78 102 126 158 213 273 308
#     4   9  18  31  50  74 101 134 169 205 249 304
#
# _framework density 17.335818
#
# number of rings (size 3 to 8) (size 9 to 14) (size 15 to 20)
#    0.000    2.500    1.667    2.500    0.000    5.333 
#    0.000    0.000    0.000    4.000    0.000    0.000 
#    0.000    0.000    0.000    0.000    0.000    0.000 
#
# Total GULP energy -297378.203012 kJ/mol
# GULP energy per Si atom -12390.758459 kJ/mol
# Density = 1.729636 g / cm^3
# Si number density = 17.335818 Si / 1000 Ang^3
#
#
#
# Elastic Constant Matrix: (Units=GPa)
#
#
# Indices 1 2 3 4 5 6 
#
# 1 134.5370 41.9672 59.5179 -0.0021 -12.3774 0.0011
# 2 41.9672 56.5774 40.1710 -0.0126 -2.1136 0.0120
# 3 59.5179 40.1710 95.9487 -0.0042 -1.7882 0.0047
# 4 -0.0021 -0.0126 -0.0042 22.0543 0.0015 0.5114
# 5 -12.3774 -2.1136 -1.7882 0.0015 11.0637 -0.0021
# 6 0.0011 0.0120 0.0047 0.5114 -0.0021 27.7157
#
#
#
# Elastic Compliance Matrix: (Units=1/GPa)
#
#
# Indices 1 2 3 4 5 6 
#
# 1 0.012513 -0.004948 -0.005464 -0.000004 0.012171 0.000004
# 2 -0.004948 0.027215 -0.008357 0.000014 -0.001687 -0.000011
# 3 -0.005464 -0.008357 0.017218 -0.000002 -0.004926 0.000001
# 4 -0.000004 0.000014 -0.000002 0.045362 -0.000008 -0.000837
# 5 0.012171 -0.001687 -0.004926 -0.000008 0.102883 0.000009
# 6 0.000004 -0.000011 0.000001 -0.000837 0.000009 0.036096
#
#
# Mechanical properties :
#
#
# Convention : Reuss Voigt Hill
#
# Bulk Modulus (GPa) = 51.51824 63.37505 57.44665
# Shear Modulus (GPa) = 17.52580 21.86055 19.69318
#
# Velocity S-wave (km/s) = 3.18301 3.55492 3.37409
# Velocity P-wave (km/s) = 6.57959 7.31345 6.95621
#
# Compressibility (1/GPa) = 0.01941060
#
# Stress axis : x y z
#
# Youngs Moduli (GPa) = 79.91650 36.74402 58.07797
#
# Poissons Ratio (x) = 0.18180 0.31732
# Poissons Ratio (y) = 0.39541 0.48533
# Poissons Ratio (z) = 0.43663 0.30705
#
# Static dielectric constant tensor:
#      x y z
#    x 3.372790 0.000000 -0.009390 
#    y 0.000000 3.026970 0.000000 
#    z -0.009390 0.000000 3.050850 
# 
# 
# High freq. dielectric constant tensor:
#      x y z
#    x 1.677020 0.000000 -0.005400 
#    y 0.000000 1.647420 0.000000 
#    z -0.005400 0.000000 1.639710 
# 
# From -- ./inp_files/348763.got.cif
#   From: 2010.06.25/outbox.cif.g09.slc.cpg/sg12_175_cif.got.tgz:348763.got - 2010.06.28 00:19:55.
