data_PCOD8081176
_publ_section_title
;
Structure prediction by ZEFSAII (Michael W. Deem and Ramdas Pophale) SiO2 
 PCOD8081176
Probable space group: C 2/M
;
_chemical_formula_sum "Si O2"
_cell_formula_units_Z 64
_cell_length_a 23.516009
_cell_length_b 9.074673
_cell_length_c 29.982608
_cell_angle_alpha 90.000000
_cell_angle_beta 33.681025
_cell_angle_gamma 90.000000
_cell_volume 3548.293201
_symmetry_space_group_name_H-M "C 2/M"
_symmetry_group_IT_number 12
_symmetry_cell_setting 'monoclinic'
loop_
_space_group_symop_operation_xyz
x,y,z
-x,y,-z
-x,-y,-z
x,-y,z
1/2+x,1/2+y,z
1/2-x,1/2+y,-z
1/2-x,1/2-y,-z
1/2+x,1/2-y,z
loop_
_atom_site_type_symbol
_atom_site_label
_atom_site_fract_x
_atom_site_fract_y
_atom_site_fract_z
Si Si1 0.443172 0.825977 0.231005
Si Si2 0.543751 0.326176 0.867887
Si Si3 0.117076 0.829134 0.167733
Si Si4 0.090155 0.170573 0.286732
Si Si5 0.106625 0.672044 0.564609
Si Si6 0.321454 0.168918 0.148957
Si Si7 0.650660 0.831470 0.972711
Si Si8 0.207446 0.328365 0.592112
O O1 0.411799 0.750314 0.205309
O O2 0.554144 0.769244 0.174244
O O3 0.356879 0.779713 0.322916
O O4 0.449156 0.000000 0.220841
O O5 0.547474 0.500000 0.859556
O O6 0.613683 0.279394 0.863585
O O7 0.426904 0.276838 0.951924
O O8 0.090351 0.778293 0.235222
O O9 0.237111 0.802258 0.080292
O O10 0.088864 0.000000 0.179257
O O11 0.201304 0.199554 0.235656
O O12 0.006785 0.262974 0.368813
O O13 0.060858 0.000000 0.308959
O O14 0.102705 0.500000 0.558667
O O15 0.141999 0.714597 0.591324
O O16 0.185155 0.741516 0.477730
O O17 0.350369 0.200969 0.079150
O O18 0.348278 0.000000 0.143621
O O19 0.617171 0.000000 0.003264
O O20 0.233193 0.500000 0.575706
#
# Coordination Sequence:
#
# PCOD8081176 Si02
#       8
#     8   8   8   8   8   8   8   8
#     4  11  22  37  55  74 105 145 180 215 257 314
#     4  12  25  37  52  77 105 139 180 221 267 311
#     4   9  18  33  54  80 107 136 172 215 263 310
#     4   9  17  31  54  81 109 138 169 212 263 313
#     4  10  18  29  50  81 111 138 171 211 257 306
#     4   9  19  37  59  80 103 137 178 218 263 312
#     4   9  19  37  59  80 104 136 174 218 266 315
#     4   9  19  33  49  75 107 141 176 209 253 310
#
# _framework density 18.036840000000002
#
# number of rings (size 3 to 8) (size 9 to 14) (size 15 to 20)
#    0.000    2.250    1.250    3.750    0.000    5.000 
#    0.000    2.500    0.000    0.750    0.000    5.250 
#    0.000    0.000    0.000    0.000    0.000    0.000 
#
# Total GULP energy -396888.799629 kJ/mol
# GULP energy per Si atom -12402.774988 kJ/mol
# Density = 1.799579 g / cm^3
# Si number density = 18.036840 Si / 1000 Ang^3
#
#
#
# Elastic Constant Matrix: (Units=GPa)
#
#
# Indices 1 2 3 4 5 6 
#
# 1 34.0911 22.5611 23.8765 0.0040 6.6961 -0.0074
# 2 22.5611 81.2058 50.2064 0.0067 1.7509 -0.0424
# 3 23.8765 50.2064 114.2360 -0.0023 -1.9763 0.0044
# 4 0.0040 0.0067 -0.0023 30.2196 0.0038 -2.9960
# 5 6.6961 1.7509 -1.9763 0.0038 20.1974 -0.0017
# 6 -0.0074 -0.0424 0.0044 -2.9960 -0.0017 29.0373
#
#
#
# Elastic Compliance Matrix: (Units=1/GPa)
#
#
# Indices 1 2 3 4 5 6 
#
# 1 0.040846 -0.007741 -0.005367 -0.000003 -0.013396 -0.000001
# 2 -0.007741 0.018474 -0.006496 -0.000001 0.000329 0.000026
# 3 -0.005367 -0.006496 0.012792 0.000001 0.003594 -0.000012
# 4 -0.000003 -0.000001 0.000001 0.033433 -0.000005 0.003450
# 5 -0.013396 0.000329 0.003594 -0.000005 0.054276 -0.000001
# 6 -0.000001 0.000026 -0.000012 0.003450 -0.000001 0.034794
#
#
# Mechanical properties :
#
#
# Convention : Reuss Voigt Hill
#
# Bulk Modulus (GPa) = 30.39007 46.98010 38.68508
# Shear Modulus (GPa) = 20.42555 24.75013 22.58784
#
# Velocity S-wave (km/s) = 3.36882 3.70834 3.54265
# Velocity P-wave (km/s) = 5.65839 6.66626 6.18289
#
# Compressibility (1/GPa) = 0.03290549
#
# Stress axis : x y z
#
# Youngs Moduli (GPa) = 24.48207 54.13017 78.17092
#
# Poissons Ratio (x) = 0.41904 0.41953
# Poissons Ratio (y) = 0.18952 0.50776
# Poissons Ratio (z) = 0.13139 0.35161
#
# Static dielectric constant tensor:
#      x y z
#    x 3.111430 0.000000 -0.063380 
#    y 0.000000 3.219150 0.000010 
#    z -0.063380 0.000010 3.398560 
# 
# 
# High freq. dielectric constant tensor:
#      x y z
#    x 1.673060 0.000000 -0.010150 
#    y 0.000000 1.696820 0.000000 
#    z -0.010150 0.000000 1.703500 
# 
# From -- ./inp_files/287749.got.cif
#   From: 2010.06.25/outbox.cif.g09.slc.cpg/sg12_144_cif.got.tgz:287749.got - 2010.06.28 00:19:55.
