data_PCOD8081270
_publ_section_title
;
Structure prediction by ZEFSAII (Michael W. Deem and Ramdas Pophale) SiO2 
 PCOD8081270
Probable space group: C 2/M
;
_chemical_formula_sum "Si O2"
_cell_formula_units_Z 60
_cell_length_a 15.092266
_cell_length_b 22.895494
_cell_length_c 9.909958
_cell_angle_alpha 90.000000
_cell_angle_beta 111.860876
_cell_angle_gamma 90.000000
_cell_volume 3178.093850
_symmetry_space_group_name_H-M "C 2/M"
_symmetry_group_IT_number 12
_symmetry_cell_setting 'monoclinic'
loop_
_space_group_symop_operation_xyz
x,y,z
-x,y,-z
-x,-y,-z
x,-y,z
1/2+x,1/2+y,z
1/2-x,1/2+y,-z
1/2-x,1/2-y,-z
1/2+x,1/2-y,z
loop_
_atom_site_type_symbol
_atom_site_label
_atom_site_fract_x
_atom_site_fract_y
_atom_site_fract_z
Si Si1 0.082060 0.229236 0.824848
Si Si2 0.635929 0.433251 0.234121
Si Si3 0.107593 0.680691 0.060889
Si Si4 0.793989 0.139414 0.239517
Si Si5 0.235289 0.845906 0.470590
Si Si6 0.889449 0.734579 0.647769
Si Si7 0.964285 0.935438 0.342987
Si Si8 0.000000 0.142310 0.000000
O O1 0.164783 0.203664 0.775987
O O2 0.026949 0.181935 0.886835
O O3 0.002221 0.258819 0.681602
O O4 0.127528 0.279270 0.942981
O O5 0.667755 0.500000 0.215004
O O6 0.724400 0.397943 0.353786
O O7 0.548679 0.435396 0.286516
O O8 0.593661 0.398208 0.081953
O O9 0.190174 0.630823 0.108887
O O10 0.125474 0.719115 0.203709
O O11 0.000000 0.653933 0.000000
O O12 0.783645 0.128166 0.392290
O O13 0.871351 0.094495 0.225129
O O14 0.157193 0.797085 0.399482
O O15 0.340809 0.815784 0.526713
O O16 0.000000 0.902759 0.500000
O O17 0.931138 0.000000 0.364180
#
# Coordination Sequence:
#
# PCOD8081270 Si02
#       8
#     8   8   8   8   8   8   8   4
#     4  11  18  31  47  70 101 130 161 200 242 289
#     4  11  21  32  47  68  96 134 169 202 242 300
#     4   9  18  33  47  68  98 131 161 193 238 290
#     4  11  20  28  50  72  93 130 166 192 241 301
#     4  10  18  30  45  69  94 127 164 201 244 289
#     4   9  17  29  47  65  94 131 158 192 246 286
#     4  10  19  31  45  68  99 123 151 198 248 287
#     4  12  19  32  48  64 102 134 165 200 250 292
#
# _framework density 18.879241
#
# number of rings (size 3 to 8) (size 9 to 14) (size 15 to 20)
#    0.000    1.733    6.000    0.600    0.000    0.000 
#    0.000    0.000    0.000    0.400    0.000    2.800 
#    0.000    0.000    0.000   42.667    0.000    0.000 
#
# Total GULP energy -371725.057232 kJ/mol
# GULP energy per Si atom -12390.835241 kJ/mol
# Density = 1.883627 g / cm^3
# Si number density = 18.879241 Si / 1000 Ang^3
#
#
#
# Elastic Constant Matrix: (Units=GPa)
#
#
# Indices 1 2 3 4 5 6 
#
# 1 42.8024 11.0766 15.6766 0.0000 22.8042 0.0000
# 2 11.0766 66.5243 35.2904 0.0000 21.5570 0.0000
# 3 15.6766 35.2904 91.7079 0.0000 31.6307 0.0000
# 4 0.0000 0.0000 0.0000 27.0601 0.0000 3.1937
# 5 22.8042 21.5570 31.6307 0.0000 30.6518 0.0000
# 6 0.0000 0.0000 0.0000 3.1937 0.0000 -9.7576
#
#
#
# Elastic Compliance Matrix: (Units=1/GPa)
#
#
# Indices 1 2 3 4 5 6 
#
# 1 0.040688 0.002708 0.004813 0.000000 -0.037142 0.000000
# 2 0.002708 0.020806 -0.004235 0.000000 -0.012277 0.000000
# 3 0.004813 -0.004235 0.018505 0.000000 -0.019699 0.000000
# 4 0.000000 0.000000 0.000000 0.035580 0.000000 0.011646
# 5 -0.037142 -0.012277 -0.019699 0.000000 0.089220 0.000000
# 6 0.000000 0.000000 0.000000 0.011646 0.000000 -0.098672
#
#
# Mechanical properties :
#
#
# Convention : Reuss Voigt Hill
#
# Bulk Modulus (GPa) = 11.55107 36.12466 23.83787
# Shear Modulus (GPa) = 38.93693 18.85692 28.89692
#
# Velocity S-wave (km/s) = 4.54631 3.16384 3.91656
# Velocity P-wave (km/s) = 5.80434 5.70286 5.75382
#
# Compressibility (1/GPa) = 0.08657207
#
# Stress axis : x y z
#
# Youngs Moduli (GPa) = 24.57720 48.06260 54.03837
#
# Poissons Ratio (x) = -0.13014 -0.26011
# Poissons Ratio (y) = -0.06655 0.22885
# Poissons Ratio (z) = -0.11830 0.20354
#
# Static dielectric constant tensor:
#      x y z
#    x 3.371860 0.000000 0.325910 
#    y 0.000000 3.574700 0.000000 
#    z 0.325910 0.000000 3.867230 
# 
# 
# High freq. dielectric constant tensor:
#      x y z
#    x 1.699310 0.000000 0.011330 
#    y 0.000000 1.699820 0.000000 
#    z 0.011330 0.000000 1.749510 
# 
# From -- ./inp_files/148677.got.cif
#   From: 2010.06.25/outbox.cif.g09.slc.cpg/sg12_75_cif.got.tgz:148677.got - 2010.06.28 00:19:55.
