data_PCOD8081517
_publ_section_title
;
Structure prediction by ZEFSAII (Michael W. Deem and Ramdas Pophale) SiO2 
 PCOD8081517
Probable space group: C 2/M
;
_chemical_formula_sum "Si O2"
_cell_formula_units_Z 64
_cell_length_a 28.736496
_cell_length_b 9.167788
_cell_length_c 16.322334
_cell_angle_alpha 90.000000
_cell_angle_beta 65.393472
_cell_angle_gamma 90.000000
_cell_volume 3909.620926
_symmetry_space_group_name_H-M "C 2/M"
_symmetry_group_IT_number 12
_symmetry_cell_setting 'monoclinic'
loop_
_space_group_symop_operation_xyz
x,y,z
-x,y,-z
-x,-y,-z
x,-y,z
1/2+x,1/2+y,z
1/2-x,1/2+y,-z
1/2-x,1/2-y,-z
1/2+x,1/2-y,z
loop_
_atom_site_type_symbol
_atom_site_label
_atom_site_fract_x
_atom_site_fract_y
_atom_site_fract_z
Si Si1 0.604606 0.328563 0.543119
Si Si2 0.172909 0.170060 0.083829
Si Si3 0.229006 0.167297 0.732638
Si Si4 0.504228 0.827527 0.591538
Si Si5 0.400770 0.164550 0.755138
Si Si6 0.277127 0.829825 0.098134
Si Si7 0.798227 0.829954 0.425337
Si Si8 0.154671 0.662623 0.368614
O O1 0.595800 0.500000 0.552775
O O2 0.551356 0.249620 0.603139
O O3 0.648682 0.276193 0.573452
O O4 0.620888 0.281189 0.440152
O O5 0.119238 0.231342 0.157848
O O6 0.218890 0.202661 0.113723
O O7 0.166727 0.000000 0.071305
O O8 0.183679 0.248882 0.990377
O O9 0.212458 0.272210 0.818179
O O10 0.195522 0.200811 0.676405
O O11 0.286454 0.200926 0.661916
O O12 0.223435 0.000000 0.766133
O O13 0.500000 0.775797 0.500000
O O14 0.454006 0.778677 0.678392
O O15 0.511823 0.000000 0.588987
O O16 0.357383 0.169906 0.717965
O O17 0.406763 0.000000 0.784582
O O18 0.289466 0.000000 0.086257
O O19 0.750000 0.750000 0.500000
O O20 0.789297 0.000000 0.448918
O O21 0.141655 0.500000 0.411927
#
# Coordination Sequence:
#
# PCOD8081517 Si02
#       8
#     8   8   8   8   8   8   8   8
#     4  11  22  33  47  71 102 131 167 214 252 285
#     4  10  20  32  48  71 101 132 161 197 245 296
#     4  10  19  32  50  70  96 133 170 201 243 293
#     4  10  20  35  52  70  95 133 174 205 244 298
#     4  10  19  32  50  71  96 129 170 206 239 289
#     4  10  20  32  48  72 101 130 163 201 241 290
#     4  10  21  34  49  71  99 133 170 207 247 294
#     4  10  18  30  49  69  96 135 169 201 244 293
#
# _framework density 16.369872999999998
#
# number of rings (size 3 to 8) (size 9 to 14) (size 15 to 20)
#    0.000    1.875    3.750    1.125    0.000    3.750 
#    0.000    0.000    0.000    0.000    0.000    0.875 
#    0.000    7.000    0.000    0.000    0.000    0.000 
#
# Total GULP energy -396817.734652 kJ/mol
# GULP energy per Si atom -12400.554208 kJ/mol
# Density = 1.633261 g / cm^3
# Si number density = 16.369873 Si / 1000 Ang^3
#
#
#
# Elastic Constant Matrix: (Units=GPa)
#
#
# Indices 1 2 3 4 5 6 
#
# 1 85.7317 39.3054 39.7247 0.0000 -6.7504 0.0000
# 2 39.3054 70.6331 55.8020 0.0000 -7.6084 0.0000
# 3 39.7247 55.8020 106.0685 0.0000 -10.7234 0.0000
# 4 0.0000 0.0000 0.0000 31.8520 0.0000 -2.4451
# 5 -6.7504 -7.6084 -10.7234 0.0000 22.0114 0.0000
# 6 0.0000 0.0000 0.0000 -2.4451 0.0000 23.6180
#
#
#
# Elastic Compliance Matrix: (Units=1/GPa)
#
#
# Indices 1 2 3 4 5 6 
#
# 1 0.016005 -0.007069 -0.002131 0.000000 0.001427 0.000000
# 2 -0.007069 0.027459 -0.011631 0.000000 0.001657 0.000000
# 3 -0.002131 -0.011631 0.016694 0.000000 0.003459 0.000000
# 4 0.000000 0.000000 0.000000 0.031647 0.000000 0.003276
# 5 0.001427 0.001657 0.003459 0.000000 0.048127 0.000000
# 6 0.000000 0.000000 0.000000 0.003276 0.000000 0.042680
#
#
# Mechanical properties :
#
#
# Convention : Reuss Voigt Hill
#
# Bulk Modulus (GPa) = 54.06427 59.12193 56.59310
# Shear Modulus (GPa) = 21.69778 24.00302 22.85040
#
# Velocity S-wave (km/s) = 3.64465 3.83337 3.74020
# Velocity P-wave (km/s) = 7.12809 7.46912 7.30060
#
# Compressibility (1/GPa) = 0.01849650
#
# Stress axis : x y z
#
# Youngs Moduli (GPa) = 62.48033 36.41851 59.89998
#
# Poissons Ratio (x) = 0.25745 0.12764
# Poissons Ratio (y) = 0.44169 0.69668
# Poissons Ratio (z) = 0.13314 0.42357
#
# Static dielectric constant tensor:
#      x y z
#    x 3.041810 0.000000 0.013060 
#    y 0.000000 3.090120 0.000000 
#    z 0.013060 0.000000 2.981430 
# 
# 
# High freq. dielectric constant tensor:
#      x y z
#    x 1.606010 0.000000 -0.003840 
#    y 0.000000 1.633690 0.000000 
#    z -0.003840 0.000000 1.617600 
# 
# From -- ./inp_files/249101.got.cif
#   From: 2010.06.25/outbox.cif.g09.slc.cpg/sg12_125_cif.got.tgz:249101.got - 2010.06.28 00:19:55.
