data_PCOD8081073
_publ_section_title
;
Structure prediction by ZEFSAII (Michael W. Deem and Ramdas Pophale) SiO2 
 PCOD8081073
Probable space group: C 2/M
;
_chemical_formula_sum "Si O2"
_cell_formula_units_Z 56
_cell_length_a 23.384735
_cell_length_b 9.070520
_cell_length_c 14.603255
_cell_angle_alpha 90.000000
_cell_angle_beta 91.279371
_cell_angle_gamma 90.000000
_cell_volume 3096.749167
_symmetry_space_group_name_H-M "C 2/M"
_symmetry_group_IT_number 12
_symmetry_cell_setting 'monoclinic'
loop_
_space_group_symop_operation_xyz
x,y,z
-x,y,-z
-x,-y,-z
x,-y,z
1/2+x,1/2+y,z
1/2-x,1/2+y,-z
1/2-x,1/2-y,-z
1/2+x,1/2-y,z
loop_
_atom_site_type_symbol
_atom_site_label
_atom_site_fract_x
_atom_site_fract_y
_atom_site_fract_z
Si Si1 0.420242 0.171079 0.847351
Si Si2 0.608083 0.329455 0.971495
Si Si3 0.863047 0.831961 0.289287
Si Si4 0.296187 0.171671 0.777836
Si Si5 0.299472 0.173632 0.130249
Si Si6 0.764217 0.832438 0.408619
Si Si7 0.526577 0.666014 0.795414
O O1 0.363349 0.204238 0.787191
O O2 0.473936 0.221637 0.787706
O O3 0.425973 0.000000 0.871572
O O4 0.421919 0.262299 0.940791
O O5 0.621294 0.500000 0.989065
O O6 0.668321 0.246386 0.955400
O O7 0.564573 0.305133 0.886633
O O8 0.835247 0.712535 0.221814
O O9 0.832148 0.813569 0.386732
O O10 0.931808 0.807633 0.291875
O O11 0.850971 0.000000 0.251890
O O12 0.264141 0.260010 0.858210
O O13 0.274095 0.226491 0.677650
O O14 0.281694 0.000000 0.790254
O O15 0.295858 0.000000 0.114726
O O16 0.750000 0.750000 0.500000
O O17 0.748257 0.000000 0.426988
O O18 0.502186 0.500000 0.794680
#
# Coordination Sequence:
#
# PCOD8081073 Si02
#       7
#     8   8   8   8   8   8   8
#     4  11  22  33  48  70  96 129 169 210 244 278
#     4  10  20  34  50  68  96 134 169 203 248 292
#     4   8  16  32  51  71 100 134 158 187 242 298
#     4   9  20  37  50  66 100 137 159 187 247 308
#     4  10  18  29  49  74  96 122 164 212 244 277
#     4   9  17  32  55  79 100 122 152 192 239 293
#     4   9  18  33  51  69  94 132 170 199 237 288
#
# _framework density 18.083479000000001
#
# number of rings (size 3 to 8) (size 9 to 14) (size 15 to 20)
#    0.000    2.571    0.000    4.286    0.000    8.571 
#    0.000    0.000    0.000    0.857    0.000    6.000 
#    0.000    0.000    0.000    0.000    0.000    0.000 
#
# Total GULP energy -347058.914978 kJ/mol
# GULP energy per Si atom -12394.961249 kJ/mol
# Density = 1.804232 g / cm^3
# Si number density = 18.083479 Si / 1000 Ang^3
#
#
#
# Elastic Constant Matrix: (Units=GPa)
#
#
# Indices 1 2 3 4 5 6 
#
# 1 134.9281 59.1941 45.1280 0.0000 -24.0157 0.0000
# 2 59.1941 96.4442 27.2861 0.0000 -10.4124 0.0000
# 3 45.1280 27.2861 48.7295 0.0000 -21.5467 0.0000
# 4 0.0000 0.0000 0.0000 25.8275 0.0000 -7.0299
# 5 -24.0157 -10.4124 -21.5467 0.0000 23.7286 0.0000
# 6 0.0000 0.0000 0.0000 -7.0299 0.0000 32.3741
#
#
#
# Elastic Compliance Matrix: (Units=1/GPa)
#
#
# Indices 1 2 3 4 5 6 
#
# 1 0.012926 -0.005491 -0.006979 0.000000 0.004336 0.000000
# 2 -0.005491 0.014682 -0.004586 0.000000 -0.003279 0.000000
# 3 -0.006979 -0.004586 0.042673 0.000000 0.029674 0.000000
# 4 0.000000 0.000000 0.000000 0.041151 0.000000 0.008936
# 5 0.004336 -0.003279 0.029674 0.000000 0.072038 0.000000
# 6 0.000000 0.000000 0.000000 0.008936 0.000000 0.032829
#
#
# Mechanical properties :
#
#
# Convention : Reuss Voigt Hill
#
# Bulk Modulus (GPa) = 27.64743 60.36868 44.00805
# Shear Modulus (GPa) = 19.04990 26.28561 22.66776
#
# Velocity S-wave (km/s) = 3.24920 3.81671 3.54433
# Velocity P-wave (km/s) = 5.42203 7.27178 6.41394
#
# Compressibility (1/GPa) = 0.03616973
#
# Stress axis : x y z
#
# Youngs Moduli (GPa) = 77.36182 68.10870 23.43380
#
# Poissons Ratio (x) = 0.37399 0.16354
# Poissons Ratio (y) = 0.42480 0.10747
# Poissons Ratio (z) = 0.53991 0.31235
#
# Static dielectric constant tensor:
#      x y z
#    x 3.567970 0.000000 -0.319120 
#    y 0.000000 3.287180 0.000000 
#    z -0.319120 0.000000 3.054950 
# 
# 
# High freq. dielectric constant tensor:
#      x y z
#    x 1.705110 0.000000 -0.027950 
#    y 0.000000 1.700930 0.000000 
#    z -0.027950 0.000000 1.657330 
# 
# From -- ./inp_files/230958.got.cif
#   From: 2010.06.25/outbox.cif.g09.slc.cpg/sg12_116_cif.got.tgz:230958.got - 2010.06.28 00:19:55.
