data_PCOD8081943
_publ_section_title
;
Structure prediction by ZEFSAII (Michael W. Deem and Ramdas Pophale) SiO2 
 PCOD8081943
Probable space group: C 2/M
;
_chemical_formula_sum "Si O2"
_cell_formula_units_Z 64
_cell_length_a 25.141782
_cell_length_b 8.793238
_cell_length_c 14.924025
_cell_angle_alpha 90.000000
_cell_angle_beta 102.850489
_cell_angle_gamma 90.000000
_cell_volume 3216.731894
_symmetry_space_group_name_H-M "C 2/M"
_symmetry_group_IT_number 12
_symmetry_cell_setting 'monoclinic'
loop_
_space_group_symop_operation_xyz
x,y,z
-x,y,-z
-x,-y,-z
x,-y,z
1/2+x,1/2+y,z
1/2-x,1/2+y,-z
1/2-x,1/2-y,-z
1/2+x,1/2-y,z
loop_
_atom_site_type_symbol
_atom_site_label
_atom_site_fract_x
_atom_site_fract_y
_atom_site_fract_z
Si Si1 0.952008 0.836227 0.919086
Si Si2 0.383203 0.180675 0.680488
Si Si3 0.380221 0.820415 0.183019
Si Si4 0.191966 0.825334 0.492934
Si Si5 0.693084 0.673504 0.698594
Si Si6 0.804470 0.178248 0.790471
Si Si7 0.351171 0.676704 0.991407
Si Si8 0.998179 0.324864 0.773932
O O1 0.905054 0.764166 0.962217
O O2 0.973307 0.707706 0.861162
O O3 0.932597 0.000000 0.867351
O O4 0.000000 0.884551 0.000000
O O5 0.352741 0.236891 0.581073
O O6 0.359652 0.261340 0.762082
O O7 0.447747 0.224589 0.689960
O O8 0.375962 0.000000 0.689030
O O9 0.347808 0.773445 0.258793
O O10 0.441818 0.747037 0.214695
O O11 0.382798 0.000000 0.178572
O O12 0.346112 0.765877 0.082906
O O13 0.250000 0.750000 0.500000
O O14 0.173903 0.812834 0.589108
O O15 0.195086 0.000000 0.462647
O O16 0.691390 0.500000 0.731354
O O17 0.754533 0.733080 0.728352
O O18 0.804375 0.208135 0.898631
O O19 0.798161 0.000000 0.768576
O O20 0.354058 0.500000 0.017386
O O21 0.009979 0.500000 0.766200
#
# Coordination Sequence:
#
# PCOD8081943 Si02
#       8
#     8   8   8   8   8   8   8   8
#     4  10  18  30  52  82 115 154 200 247 295 346
#     4  11  22  37  60  93 128 158 192 246 306 358
#     4  11  24  41  61  85 118 166 212 248 293 355
#     4  11  23  40  66  96 122 151 193 247 308 366
#     4  11  25  44  64  87 118 156 199 249 305 364
#     4  11  22  37  61  91 123 158 199 248 301 358
#     4  10  21  36  56  87 123 160 203 249 299 354
#     4  10  22  37  56  86 123 160 202 248 297 350
#
# _framework density 19.895969000000001
#
# number of rings (size 3 to 8) (size 9 to 14) (size 15 to 20)
#    0.000    1.375    3.750    1.875    0.000    4.750 
#    0.000    0.625    0.000    3.750    0.000    0.000 
#    0.000    0.000    0.000    0.000    0.000    0.000 
#
# Total GULP energy -396540.084073 kJ/mol
# GULP energy per Si atom -12391.877627 kJ/mol
# Density = 1.985068 g / cm^3
# Si number density = 19.895969 Si / 1000 Ang^3
#
#
#
# Elastic Constant Matrix: (Units=GPa)
#
#
# Indices 1 2 3 4 5 6 
#
# 1 59.2217 19.4295 27.9043 0.0000 1.8856 0.0000
# 2 19.4295 56.7145 37.5912 0.0000 11.0087 0.0000
# 3 27.9043 37.5912 105.1435 0.0000 8.8920 0.0000
# 4 0.0000 0.0000 0.0000 33.4943 0.0000 -1.3611
# 5 1.8856 11.0087 8.8920 0.0000 30.7459 0.0000
# 6 0.0000 0.0000 0.0000 -1.3611 0.0000 27.0583
#
#
#
# Elastic Compliance Matrix: (Units=1/GPa)
#
#
# Indices 1 2 3 4 5 6 
#
# 1 0.020168 -0.004684 -0.003808 0.000000 0.001542 0.000000
# 2 -0.004684 0.025342 -0.007251 0.000000 -0.006689 0.000000
# 3 -0.003808 -0.007251 0.013197 0.000000 -0.000987 0.000000
# 4 0.000000 0.000000 0.000000 0.029917 0.000000 0.001505
# 5 0.001542 -0.006689 -0.000987 0.000000 0.035111 0.000000
# 6 0.000000 0.000000 0.000000 0.001505 0.000000 0.037033
#
#
# Mechanical properties :
#
#
# Convention : Reuss Voigt Hill
#
# Bulk Modulus (GPa) = 36.73850 43.43665 40.08758
# Shear Modulus (GPa) = 24.83509 27.33666 26.08588
#
# Velocity S-wave (km/s) = 3.53689 3.71074 3.62486
# Velocity P-wave (km/s) = 5.93168 6.34340 6.14099
#
# Compressibility (1/GPa) = 0.02721940
#
# Stress axis : x y z
#
# Youngs Moduli (GPa) = 49.58412 39.46066 75.77255
#
# Poissons Ratio (x) = 0.18485 0.28854
# Poissons Ratio (y) = 0.23227 0.54945
# Poissons Ratio (z) = 0.18881 0.28614
#
# Static dielectric constant tensor:
#      x y z
#    x 3.947040 0.000000 0.279030 
#    y 0.000000 3.601000 0.000000 
#    z 0.279030 0.000000 3.685910 
# 
# 
# High freq. dielectric constant tensor:
#      x y z
#    x 1.774620 0.000000 0.019000 
#    y 0.000000 1.779000 0.000000 
#    z 0.019000 0.000000 1.771060 
# 
# From -- ./inp_files/244077.got.cif
#   From: 2010.06.25/outbox.cif.g09.slc.cpg/sg12_123_cif.got.tgz:244077.got - 2010.06.28 00:19:55.
