data_PCOD8081839
_publ_section_title
;
Structure prediction by ZEFSAII (Michael W. Deem and Ramdas Pophale) SiO2 
 PCOD8081839
Probable space group: C 2/M
;
_chemical_formula_sum "Si O2"
_cell_formula_units_Z 64
_cell_length_a 21.973675
_cell_length_b 13.757249
_cell_length_c 14.252471
_cell_angle_alpha 90.000000
_cell_angle_beta 117.588441
_cell_angle_gamma 90.000000
_cell_volume 3818.596354
_symmetry_space_group_name_H-M "C 2/M"
_symmetry_group_IT_number 12
_symmetry_cell_setting 'monoclinic'
loop_
_space_group_symop_operation_xyz
x,y,z
-x,y,-z
-x,-y,-z
x,-y,z
1/2+x,1/2+y,z
1/2-x,1/2+y,-z
1/2-x,1/2-y,-z
1/2+x,1/2-y,z
loop_
_atom_site_type_symbol
_atom_site_label
_atom_site_fract_x
_atom_site_fract_y
_atom_site_fract_z
Si Si1 0.914314 0.889004 0.265211
Si Si2 0.433432 0.888466 0.698020
Si Si3 0.816111 0.301258 0.934645
Si Si4 0.650717 0.610891 0.586315
Si Si5 0.466099 0.266493 0.576249
Si Si6 0.804104 0.386641 0.725121
Si Si7 0.303475 0.388286 0.032824
Si Si8 0.040077 0.387099 0.936774
O O1 0.864060 0.864054 0.315742
O O2 0.873144 0.868656 0.140577
O O3 0.982457 0.824230 0.318689
O O4 0.938762 0.000000 0.288335
O O5 0.447178 0.834333 0.610796
O O6 0.361606 0.854789 0.692037
O O7 0.494294 0.867332 0.813592
O O8 0.429735 0.000000 0.667271
O O9 0.812644 0.318970 0.821631
O O10 0.761462 0.370061 0.946952
O O11 0.801622 0.186843 0.944488
O O12 0.890721 0.327015 0.027759
O O13 0.631937 0.500000 0.551142
O O14 0.604375 0.674323 0.484329
O O15 0.730698 0.632058 0.624382
O O16 0.500000 0.246235 0.500000
O O17 0.813018 0.500000 0.761090
O O18 0.300897 0.500000 0.994676
O O19 0.058720 0.500000 0.962649
O O20 0.000000 0.349715 0.000000
#
# Coordination Sequence:
#
# PCOD8081839 Si02
#       8
#     8   8   8   8   8   8   8   8
#     4   9  16  30  51  74 100 125 156 204 252 291
#     4  10  21  34  50  73  99 131 169 208 246 289
#     4  11  19  30  52  74 101 134 165 204 252 296
#     4   9  17  30  52  76  96 120 158 210 255 289
#     4  10  20  33  50  73 102 129 163 201 250 308
#     4  10  18  32  53  75  97 124 167 214 252 287
#     4  10  20  31  48  76 105 133 165 202 246 302
#     4  10  18  30  51  78 102 124 164 215 252 284
#
# _framework density 16.760085
#
# number of rings (size 3 to 8) (size 9 to 14) (size 15 to 20)
#    0.000    2.125    2.500    2.250    0.000    2.250 
#    0.000    0.000    0.000    2.625    0.000    0.000 
#    0.000    0.000    0.000    0.000    0.000    0.000 
#
# Total GULP energy -396835.597780 kJ/mol
# GULP energy per Si atom -12401.112431 kJ/mol
# Density = 1.672194 g / cm^3
# Si number density = 16.760085 Si / 1000 Ang^3
#
#
#
# Elastic Constant Matrix: (Units=GPa)
#
#
# Indices 1 2 3 4 5 6 
#
# 1 96.1198 46.4277 39.5230 0.0000 14.2634 0.0000
# 2 46.4277 87.0151 44.0188 0.0000 -1.7484 0.0000
# 3 39.5230 44.0188 61.7048 0.0000 4.4189 0.0000
# 4 0.0000 0.0000 0.0000 28.4373 0.0000 -4.0659
# 5 14.2634 -1.7484 4.4189 0.0000 22.2184 0.0000
# 6 0.0000 0.0000 0.0000 -4.0659 0.0000 20.0926
#
#
#
# Elastic Compliance Matrix: (Units=1/GPa)
#
#
# Indices 1 2 3 4 5 6 
#
# 1 0.017572 -0.006702 -0.005710 0.000000 -0.010673 0.000000
# 2 -0.006702 0.020899 -0.011202 0.000000 0.008175 0.000000
# 3 -0.005710 -0.011202 0.028055 0.000000 -0.002795 0.000000
# 4 0.000000 0.000000 0.000000 0.036213 0.000000 0.007328
# 5 -0.010673 0.008175 -0.002795 0.000000 0.053058 0.000000
# 6 0.000000 0.000000 0.000000 0.007328 0.000000 0.051253
#
#
# Mechanical properties :
#
#
# Convention : Reuss Voigt Hill
#
# Bulk Modulus (GPa) = 51.81631 56.08653 53.95142
# Shear Modulus (GPa) = 19.17837 21.80767 20.49302
#
# Velocity S-wave (km/s) = 3.38640 3.61108 3.50055
# Velocity P-wave (km/s) = 6.80249 7.13607 6.97128
#
# Compressibility (1/GPa) = 0.01929894
#
# Stress axis : x y z
#
# Youngs Moduli (GPa) = 56.90726 47.84944 35.64425
#
# Poissons Ratio (x) = 0.32067 0.20354
# Poissons Ratio (y) = 0.38137 0.39928
# Poissons Ratio (z) = 0.32496 0.53599
#
# Static dielectric constant tensor:
#      x y z
#    x 3.235290 0.000000 0.188870 
#    y 0.000000 3.000460 0.000000 
#    z 0.188870 0.000000 2.979210 
# 
# 
# High freq. dielectric constant tensor:
#      x y z
#    x 1.650330 0.000000 0.020580 
#    y 0.000000 1.631700 0.000000 
#    z 0.020580 0.000000 1.633370 
# 
# From -- ./inp_files/232520.got.cif
#   From: 2010.06.25/outbox.cif.g09.slc.cpg/sg12_117_cif.got.tgz:232520.got - 2010.06.28 00:19:55.
