data_PCOD8081803
_publ_section_title
;
Structure prediction by ZEFSAII (Michael W. Deem and Ramdas Pophale) SiO2 
 PCOD8081803
Probable space group: C 2/M
;
_chemical_formula_sum "Si O2"
_cell_formula_units_Z 56
_cell_length_a 12.407930
_cell_length_b 30.147092
_cell_length_c 8.317787
_cell_angle_alpha 90.000000
_cell_angle_beta 76.180026
_cell_angle_gamma 90.000000
_cell_volume 3021.305386
_symmetry_space_group_name_H-M "C 2/M"
_symmetry_group_IT_number 12
_symmetry_cell_setting 'monoclinic'
loop_
_space_group_symop_operation_xyz
x,y,z
-x,y,-z
-x,-y,-z
x,-y,z
1/2+x,1/2+y,z
1/2-x,1/2+y,-z
1/2-x,1/2-y,-z
1/2+x,1/2-y,z
loop_
_atom_site_type_symbol
_atom_site_label
_atom_site_fract_x
_atom_site_fract_y
_atom_site_fract_z
Si Si1 0.408663 0.647425 0.138409
Si Si2 0.071923 0.310201 0.218786
Si Si3 0.883569 0.618563 0.260368
Si Si4 0.252814 0.172959 0.083151
Si Si5 0.453840 0.711321 0.689048
Si Si6 0.705033 0.881396 0.358572
Si Si7 0.955232 0.549649 0.696759
O O1 0.471825 0.687811 0.202067
O O2 0.339269 0.617955 0.289225
O O3 0.500000 0.620139 0.000000
O O4 0.317514 0.665041 0.049285
O O5 0.032334 0.263749 0.303822
O O6 0.147911 0.335582 0.322559
O O7 0.961130 0.338363 0.231866
O O8 0.138192 0.301617 0.026149
O O9 0.795451 0.626534 0.148056
O O10 0.815250 0.612907 0.447321
O O11 0.957364 0.573939 0.214028
O O12 0.177707 0.199475 0.240249
O O13 0.500000 0.695398 0.500000
O O14 0.657818 0.922012 0.267973
O O15 0.933428 0.500000 0.768762
O O16 0.000000 0.549206 0.500000
#
# Coordination Sequence:
#
# PCOD8081803 Si02
#       7
#     8   8   8   8   8   8   8
#     4   9  20  35  48  66  96 132 167 204 245 284
#     4  10  20  33  47  68  99 131 162 203 251 292
#     4  10  18  30  51  75  98 128 161 196 240 296
#     4  10  21  33  47  67  98 133 164 199 249 292
#     4  11  21  34  50  69  92 126 177 217 238 274
#     4   9  17  32  51  72  98 128 164 199 241 285
#     4   8  15  29  52  81 106 124 150 194 244 293
#
# _framework density 18.535035000000001
#
# number of rings (size 3 to 8) (size 9 to 14) (size 15 to 20)
#    0.000    2.429    0.000    3.857    0.000    5.714 
#    0.000    5.000    0.000   15.857    0.000    3.000 
#    0.000   19.429    0.000    0.000    0.000    0.000 
#
# Total GULP energy -346869.618780 kJ/mol
# GULP energy per Si atom -12388.200671 kJ/mol
# Density = 1.849285 g / cm^3
# Si number density = 18.535035 Si / 1000 Ang^3
#
#
#
# Elastic Constant Matrix: (Units=GPa)
#
#
# Indices 1 2 3 4 5 6 
#
# 1 78.1761 44.6329 34.4034 0.0000 -8.1740 0.0000
# 2 44.6329 95.3168 14.8912 0.0000 -0.9381 0.0000
# 3 34.4034 14.8912 86.6394 0.0000 -14.4166 0.0000
# 4 0.0000 0.0000 0.0000 9.7791 0.0000 2.1216
# 5 -8.1740 -0.9381 -14.4166 0.0000 41.2972 0.0000
# 6 0.0000 0.0000 0.0000 2.1216 0.0000 10.7246
#
#
#
# Elastic Compliance Matrix: (Units=1/GPa)
#
#
# Indices 1 2 3 4 5 6 
#
# 1 0.020787 -0.008705 -0.006483 0.000000 0.001654 0.000000
# 2 -0.008705 0.014433 0.000790 0.000000 -0.001119 0.000000
# 3 -0.006483 0.000790 0.014619 0.000000 0.003838 0.000000
# 4 0.000000 0.000000 0.000000 0.106844 0.000000 -0.021137
# 5 0.001654 -0.001119 0.003838 0.000000 0.025856 0.000000
# 6 0.000000 0.000000 0.000000 -0.021137 0.000000 0.097425
#
#
# Mechanical properties :
#
#
# Convention : Reuss Voigt Hill
#
# Bulk Modulus (GPa) = 47.52118 49.77639 48.64878
# Shear Modulus (GPa) = 15.83398 23.44050 19.63724
#
# Velocity S-wave (km/s) = 2.92597 3.56006 3.25848
# Velocity P-wave (km/s) = 6.09174 6.61909 6.36088
#
# Compressibility (1/GPa) = 0.02104325
#
# Stress axis : x y z
#
# Youngs Moduli (GPa) = 48.10617 69.28562 68.40215
#
# Poissons Ratio (x) = 0.60311 0.44346
# Poissons Ratio (y) = 0.41875 -0.05401
# Poissons Ratio (z) = 0.31188 -0.05471
#
# Static dielectric constant tensor:
#      x y z
#    x 3.751590 0.000000 -0.404090 
#    y 0.000000 3.254780 0.000000 
#    z -0.404090 0.000000 3.786740 
# 
# 
# High freq. dielectric constant tensor:
#      x y z
#    x 1.716410 0.000000 -0.012330 
#    y 0.000000 1.671040 0.000000 
#    z -0.012330 0.000000 1.733210 
# 
# From -- ./inp_files/54198.got.cif
#   From: 2010.06.25/outbox.cif.g09.slc.cpg/sg12_28_cif.got.tgz:54198.got - 2010.06.28 00:19:55.
