data_PCOD8081795
_publ_section_title
;
Structure prediction by ZEFSAII (Michael W. Deem and Ramdas Pophale) SiO2 
 PCOD8081795
Probable space group: C 2/M
;
_chemical_formula_sum "Si O2"
_cell_formula_units_Z 64
_cell_length_a 30.165480
_cell_length_b 9.399157
_cell_length_c 13.157372
_cell_angle_alpha 90.000000
_cell_angle_beta 60.428780
_cell_angle_gamma 90.000000
_cell_volume 3244.585365
_symmetry_space_group_name_H-M "C 2/M"
_symmetry_group_IT_number 12
_symmetry_cell_setting 'monoclinic'
loop_
_space_group_symop_operation_xyz
x,y,z
-x,y,-z
-x,-y,-z
x,-y,z
1/2+x,1/2+y,z
1/2-x,1/2+y,-z
1/2-x,1/2-y,-z
1/2+x,1/2-y,z
loop_
_atom_site_type_symbol
_atom_site_label
_atom_site_fract_x
_atom_site_fract_y
_atom_site_fract_z
Si Si1 0.339148 0.838583 0.733024
Si Si2 0.913341 0.666292 0.348527
Si Si3 0.603124 0.331960 0.982684
Si Si4 0.678700 0.841327 0.016893
Si Si5 0.008368 0.341477 0.109140
Si Si6 0.746570 0.659504 0.245635
Si Si7 0.845279 0.331469 0.251167
Si Si8 0.555652 0.168300 0.469013
O O1 0.313945 0.818949 0.871811
O O2 0.304610 0.752686 0.691534
O O3 0.399099 0.791711 0.662246
O O4 0.336063 0.000000 0.698828
O O5 0.912394 0.500000 0.367641
O O6 0.859777 0.708929 0.352041
O O7 0.924358 0.735594 0.446284
O O8 0.957868 0.711691 0.221966
O O9 0.602442 0.500000 0.966629
O O10 0.615009 0.252491 0.864125
O O11 0.644177 0.288547 0.020039
O O12 0.550106 0.276657 0.088203
O O13 0.654810 0.000000 0.024553
O O14 0.730953 0.831631 0.894340
O O15 0.024260 0.500000 0.130032
O O16 0.000000 0.346612 0.000000
O O17 0.730229 0.500000 0.290807
O O18 0.787799 0.712704 0.283762
O O19 0.853399 0.500000 0.221717
O O20 0.500000 0.233162 0.500000
O O21 0.548459 0.000000 0.485708
#
# Coordination Sequence:
#
# PCOD8081795 Si02
#       8
#     8   8   8   8   8   8   8   8
#     4  10  20  34  55  80 108 139 179 229 269 312
#     4   9  17  31  54  76 101 139 180 223 263 308
#     4  11  21  30  45  76 113 141 167 216 273 321
#     4   9  19  34  53  77 106 144 182 214 256 320
#     4  10  18  30  51  75 100 138 184 219 256 321
#     4   9  18  32  53  78 108 139 174 220 265 324
#     4   9  17  34  54  76 104 139 179 212 254 321
#     4   9  19  34  53  82 109 133 176 232 274 298
#
# _framework density 19.725172000000001
#
# number of rings (size 3 to 8) (size 9 to 14) (size 15 to 20)
#    0.000    2.500    1.250    2.250    1.750    2.750 
#    0.000    0.625    0.000    1.875    0.000    0.000 
#    0.000    0.000    0.000    0.000    0.000    0.000 
#
# Total GULP energy -396422.253108 kJ/mol
# GULP energy per Si atom -12388.195410 kJ/mol
# Density = 1.968028 g / cm^3
# Si number density = 19.725172 Si / 1000 Ang^3
#
#
#
# Elastic Constant Matrix: (Units=GPa)
#
#
# Indices 1 2 3 4 5 6 
#
# 1 139.3879 35.5045 38.8899 0.0000 -2.5539 0.0000
# 2 35.5045 61.4673 6.4037 0.0000 -6.9642 0.0000
# 3 38.8899 6.4037 47.4125 0.0000 7.3816 0.0000
# 4 0.0000 0.0000 0.0000 6.4149 0.0000 -1.5129
# 5 -2.5539 -6.9642 7.3816 0.0000 26.9177 0.0000
# 6 0.0000 0.0000 0.0000 -1.5129 0.0000 18.0557
#
#
#
# Elastic Compliance Matrix: (Units=1/GPa)
#
#
# Indices 1 2 3 4 5 6 
#
# 1 0.010927 -0.005185 -0.008581 0.000000 0.002048 0.000000
# 2 -0.005185 0.019660 0.000922 0.000000 0.004342 0.000000
# 3 -0.008581 0.000922 0.029348 0.000000 -0.008624 0.000000
# 4 0.000000 0.000000 0.000000 0.159028 0.000000 0.013325
# 5 0.002048 0.004342 -0.008624 0.000000 0.040833 0.000000
# 6 0.000000 0.000000 0.000000 0.013325 0.000000 0.056501
#
#
# Mechanical properties :
#
#
# Convention : Reuss Voigt Hill
#
# Bulk Modulus (GPa) = 29.20067 45.54043 37.37055
# Shear Modulus (GPa) = 14.14824 21.44232 17.79528
#
# Velocity S-wave (km/s) = 2.68109 3.30063 3.00686
# Velocity P-wave (km/s) = 4.94168 6.13703 5.57151
#
# Compressibility (1/GPa) = 0.03424579
#
# Stress axis : x y z
#
# Youngs Moduli (GPa) = 91.51846 50.86518 34.07353
#
# Poissons Ratio (x) = 0.26376 0.29239
# Poissons Ratio (y) = 0.47456 -0.03142
# Poissons Ratio (z) = 0.78534 -0.04690
#
# Static dielectric constant tensor:
#      x y z
#    x 3.760340 0.000000 0.041660 
#    y 0.000000 3.219400 0.000000 
#    z 0.041660 0.000000 3.511270 
# 
# 
# High freq. dielectric constant tensor:
#      x y z
#    x 1.776580 0.000000 0.001210 
#    y 0.000000 1.723230 0.000000 
#    z 0.001210 0.000000 1.747760 
# 
# From -- ./inp_files/249018.got.cif
#   From: 2010.06.25/outbox.cif.g09.slc.cpg/sg12_125_cif.got.tgz:249018.got - 2010.06.28 00:19:55.
