data_PCOD8081347
_publ_section_title
;
Structure prediction by ZEFSAII (Michael W. Deem and Ramdas Pophale) SiO2 
 PCOD8081347
Probable space group: C 2/M
;
_chemical_formula_sum "Si O2"
_cell_formula_units_Z 64
_cell_length_a 25.249861
_cell_length_b 9.008846
_cell_length_c 16.893739
_cell_angle_alpha 90.000000
_cell_angle_beta 88.934157
_cell_angle_gamma 90.000000
_cell_volume 3842.189549
_symmetry_space_group_name_H-M "C 2/M"
_symmetry_group_IT_number 12
_symmetry_cell_setting 'monoclinic'
loop_
_space_group_symop_operation_xyz
x,y,z
-x,y,-z
-x,-y,-z
x,-y,z
1/2+x,1/2+y,z
1/2-x,1/2+y,-z
1/2-x,1/2-y,-z
1/2+x,1/2-y,z
loop_
_atom_site_type_symbol
_atom_site_label
_atom_site_fract_x
_atom_site_fract_y
_atom_site_fract_z
Si Si1 0.562980 0.167401 0.997016
Si Si2 0.401102 0.671422 0.679394
Si Si3 0.562871 0.674336 0.839543
Si Si4 0.296112 0.329939 0.592578
Si Si5 0.903891 0.323834 0.316430
Si Si6 0.994802 0.675763 0.588898
Si Si7 0.810947 0.171605 0.411430
Si Si8 0.059580 0.171814 0.152264
O O1 0.584022 0.236240 0.078602
O O2 0.584161 0.000000 0.988552
O O3 0.500000 0.173572 0.000000
O O4 0.584046 0.262930 0.922554
O O5 0.415910 0.500000 0.664913
O O6 0.341453 0.706655 0.654827
O O7 0.440347 0.768434 0.626556
O O8 0.406139 0.712438 0.771653
O O9 0.573074 0.500000 0.836727
O O10 0.596661 0.752094 0.770211
O O11 0.501264 0.715256 0.828863
O O12 0.276718 0.500000 0.599913
O O13 0.247700 0.221289 0.612898
O O14 0.319149 0.300278 0.504458
O O15 0.903332 0.500000 0.308324
O O16 0.955602 0.265858 0.361662
O O17 0.852433 0.272261 0.364511
O O18 0.993471 0.500000 0.588510
O O19 0.000000 0.738808 0.500000
O O20 0.818995 0.000000 0.388652
O O21 0.063362 0.000000 0.129087
#
# Coordination Sequence:
#
# PCOD8081347 Si02
#       8
#     8   8   8   8   8   8   8   8
#     4   9  17  28  44  66  94 128 163 195 235 284
#     4  10  19  32  50  72  97 128 164 201 242 290
#     4  10  18  30  47  68  97 129 163 200 238 285
#     4   9  19  35  53  72  95 125 164 210 253 290
#     4  11  21  32  48  70  99 131 164 202 245 291
#     4  10  21  33  45  66  98 133 164 196 240 292
#     4  10  20  34  52  72  94 125 167 211 252 291
#     4   9  17  29  45  68  97 128 161 197 237 284
#
# _framework density 16.657169
#
# number of rings (size 3 to 8) (size 9 to 14) (size 15 to 20)
#    0.000    2.250    1.250    2.250    0.000    4.250 
#    0.000    0.000    0.000    0.000    0.000    0.875 
#    0.000    0.000    0.000    0.000    0.000    0.000 
#
# Total GULP energy -396891.725963 kJ/mol
# GULP energy per Si atom -12402.866436 kJ/mol
# Density = 1.661926 g / cm^3
# Si number density = 16.657169 Si / 1000 Ang^3
#
#
#
# Elastic Constant Matrix: (Units=GPa)
#
#
# Indices 1 2 3 4 5 6 
#
# 1 47.6300 22.7132 36.3105 0.0000 8.8772 0.0000
# 2 22.7132 63.8174 41.8549 0.0000 -2.5461 0.0000
# 3 36.3105 41.8549 113.7029 0.0000 10.8160 0.0000
# 4 0.0000 0.0000 0.0000 29.9764 0.0000 -5.0999
# 5 8.8772 -2.5461 10.8160 0.0000 16.2941 0.0000
# 6 0.0000 0.0000 0.0000 -5.0999 0.0000 24.6708
#
#
#
# Elastic Compliance Matrix: (Units=1/GPa)
#
#
# Indices 1 2 3 4 5 6 
#
# 1 0.032129 -0.008216 -0.005816 0.000000 -0.014928 0.000000
# 2 -0.008216 0.024022 -0.007474 0.000000 0.013191 0.000000
# 3 -0.005816 -0.007474 0.014103 0.000000 -0.007361 0.000000
# 4 0.000000 0.000000 0.000000 0.034576 0.000000 0.007147
# 5 -0.014928 0.013191 -0.007361 0.000000 0.076452 0.000000
# 6 0.000000 0.000000 0.000000 0.007147 0.000000 0.042011
#
#
# Mechanical properties :
#
#
# Convention : Reuss Voigt Hill
#
# Bulk Modulus (GPa) = 36.70671 47.43419 42.07045
# Shear Modulus (GPa) = 18.15636 22.47306 20.31471
#
# Velocity S-wave (km/s) = 3.30510 3.67707 3.49603
# Velocity P-wave (km/s) = 6.05387 6.82395 6.45041
#
# Compressibility (1/GPa) = 0.02724298
#
# Stress axis : x y z
#
# Youngs Moduli (GPa) = 31.12439 41.62881 70.90485
#
# Poissons Ratio (x) = 0.34204 0.41237
# Poissons Ratio (y) = 0.25573 0.52991
# Poissons Ratio (z) = 0.18101 0.31112
#
# Static dielectric constant tensor:
#      x y z
#    x 2.824620 0.000000 0.108390 
#    y 0.000000 3.158180 0.000000 
#    z 0.108390 0.000000 3.266630 
# 
# 
# High freq. dielectric constant tensor:
#      x y z
#    x 1.602830 0.000000 0.002900 
#    y 0.000000 1.649680 0.000000 
#    z 0.002900 0.000000 1.647800 
# 
# From -- ./inp_files/238693.got.cif
#   From: 2010.06.25/outbox.cif.g09.slc.cpg/sg12_120_cif.got.tgz:238693.got - 2010.06.28 00:19:55.
