data_PCOD8081050
_publ_section_title
;
Structure prediction by ZEFSAII (Michael W. Deem and Ramdas Pophale) SiO2 
 PCOD8081050
Probable space group: C 2/M
;
_chemical_formula_sum "Si O2"
_cell_formula_units_Z 64
_cell_length_a 31.221453
_cell_length_b 9.040268
_cell_length_c 14.798388
_cell_angle_alpha 90.000000
_cell_angle_beta 118.460116
_cell_angle_gamma 90.000000
_cell_volume 3672.073274
_symmetry_space_group_name_H-M "C 2/M"
_symmetry_group_IT_number 12
_symmetry_cell_setting 'monoclinic'
loop_
_space_group_symop_operation_xyz
x,y,z
-x,y,-z
-x,-y,-z
x,-y,z
1/2+x,1/2+y,z
1/2-x,1/2+y,-z
1/2-x,1/2-y,-z
1/2+x,1/2-y,z
loop_
_atom_site_type_symbol
_atom_site_label
_atom_site_fract_x
_atom_site_fract_y
_atom_site_fract_z
Si Si1 0.120532 0.173328 0.591607
Si Si2 0.534994 0.327080 0.369578
Si Si3 0.070667 0.170464 0.918821
Si Si4 0.693605 0.328076 0.358717
Si Si5 0.392314 0.670230 0.855942
Si Si6 0.574215 0.673054 0.723587
Si Si7 0.804747 0.673572 0.456928
Si Si8 0.469537 0.825102 0.816817
O O1 0.072130 0.209225 0.486339
O O2 0.109868 0.237401 0.681901
O O3 0.166610 0.259430 0.598786
O O4 0.132967 0.000000 0.602487
O O5 0.533898 0.500000 0.344775
O O6 0.481262 0.269185 0.343560
O O7 0.552154 0.240945 0.297582
O O8 0.093666 0.213579 0.843976
O O9 0.023634 0.268535 0.891785
O O10 0.053289 0.000000 0.897112
O O11 0.110401 0.194538 0.038024
O O12 0.690158 0.500000 0.379976
O O13 0.659359 0.285479 0.239813
O O14 0.748273 0.283306 0.386358
O O15 0.675762 0.240393 0.429283
O O16 0.404986 0.500000 0.846022
O O17 0.434912 0.774166 0.862824
O O18 0.573406 0.500000 0.704509
O O19 0.813247 0.500000 0.468195
O O20 0.470134 0.000000 0.811906
#
# Coordination Sequence:
#
# PCOD8081050 Si02
#       8
#     8   8   8   8   8   8   8   8
#     4  10  18  29  49  72  93 121 156 192 230 272
#     4   9  17  30  47  67  93 125 160 193 223 263
#     4   9  18  33  51  68  89 121 160 197 227 261
#     4   9  19  35  52  70  93 121 153 189 229 274
#     4  10  19  32  51  70  88 118 160 197 228 267
#     4   8  15  29  48  69  91 118 156 197 229 259
#     4  10  20  33  49  71  98 123 148 184 232 282
#     4  11  21  30  43  68 101 129 151 183 230 279
#
# _framework density 17.428844999999999
#
# number of rings (size 3 to 8) (size 9 to 14) (size 15 to 20)
#    0.000    2.500    0.000    3.750    0.000    8.000 
#    0.000    2.500    0.000    4.500    0.000    0.000 
#    0.000    0.000    0.000    0.000    0.000    0.375 
#
# Total GULP energy -396729.573253 kJ/mol
# GULP energy per Si atom -12397.799164 kJ/mol
# Density = 1.738918 g / cm^3
# Si number density = 17.428845 Si / 1000 Ang^3
#
#
#
# Elastic Constant Matrix: (Units=GPa)
#
#
# Indices 1 2 3 4 5 6 
#
# 1 103.4408 33.3806 62.0330 0.0000 -22.0939 0.0000
# 2 33.3806 57.7817 38.6534 0.0000 -5.3390 0.0000
# 3 62.0330 38.6534 133.6450 0.0000 -14.1471 0.0000
# 4 0.0000 0.0000 0.0000 11.7903 0.0000 1.3445
# 5 -22.0939 -5.3390 -14.1471 0.0000 23.6500 0.0000
# 6 0.0000 0.0000 0.0000 1.3445 0.0000 21.4788
#
#
#
# Elastic Compliance Matrix: (Units=1/GPa)
#
#
# Indices 1 2 3 4 5 6 
#
# 1 0.016890 -0.005287 -0.005089 0.000000 0.011541 0.000000
# 2 -0.005287 0.023145 -0.004495 0.000000 -0.002402 0.000000
# 3 -0.005089 -0.004495 0.011246 0.000000 0.000958 0.000000
# 4 0.000000 0.000000 0.000000 0.085425 0.000000 -0.005347
# 5 0.011541 -0.002402 0.000958 0.000000 0.053096 0.000000
# 6 0.000000 0.000000 0.000000 -0.005347 0.000000 0.046892
#
#
# Mechanical properties :
#
#
# Convention : Reuss Voigt Hill
#
# Bulk Modulus (GPa) = 46.42333 62.55570 54.48951
# Shear Modulus (GPa) = 18.27372 22.10386 20.18879
#
# Velocity S-wave (km/s) = 3.24153 3.56509 3.40715
# Velocity P-wave (km/s) = 6.37995 7.27437 6.84179
#
# Compressibility (1/GPa) = 0.02154089
#
# Stress axis : x y z
#
# Youngs Moduli (GPa) = 59.20493 43.20506 88.91988
#
# Poissons Ratio (x) = 0.22842 0.45252
# Poissons Ratio (y) = 0.31301 0.39966
# Poissons Ratio (z) = 0.30130 0.19419
#
# Static dielectric constant tensor:
#      x y z
#    x 3.237860 0.000000 -0.165760 
#    y 0.000000 3.058850 0.000000 
#    z -0.165760 0.000000 3.395930 
# 
# 
# High freq. dielectric constant tensor:
#      x y z
#    x 1.655600 0.000000 -0.012530 
#    y 0.000000 1.654740 0.000000 
#    z -0.012530 0.000000 1.672470 
# 
# From -- ./inp_files/249180.got.cif
#   From: 2010.06.25/outbox.cif.g09.slc.cpg/sg12_125_cif.got.tgz:249180.got - 2010.06.28 00:19:55.
