data_PCOD8081402
_publ_section_title
;
Structure prediction by ZEFSAII (Michael W. Deem and Ramdas Pophale) SiO2 
 PCOD8081402
Probable space group: C 2/M
;
_chemical_formula_sum "Si O2"
_cell_formula_units_Z 64
_cell_length_a 25.349436
_cell_length_b 8.971299
_cell_length_c 24.162981
_cell_angle_alpha 90.000000
_cell_angle_beta 134.172086
_cell_angle_gamma 90.000000
_cell_volume 3941.348231
_symmetry_space_group_name_H-M "C 2/M"
_symmetry_group_IT_number 12
_symmetry_cell_setting 'monoclinic'
loop_
_space_group_symop_operation_xyz
x,y,z
-x,y,-z
-x,-y,-z
x,-y,z
1/2+x,1/2+y,z
1/2-x,1/2+y,-z
1/2-x,1/2-y,-z
1/2+x,1/2-y,z
loop_
_atom_site_type_symbol
_atom_site_label
_atom_site_fract_x
_atom_site_fract_y
_atom_site_fract_z
Si Si1 0.474917 0.822970 0.090554
Si Si2 0.162957 0.676926 0.078013
Si Si3 0.717239 0.323292 0.921308
Si Si4 0.803583 0.674410 0.663990
Si Si5 0.864066 0.322077 0.820868
Si Si6 0.914689 0.325868 0.652199
Si Si7 0.065164 0.674515 0.816289
Si Si8 0.191031 0.174397 0.496165
O O1 0.552980 0.761490 0.126406
O O2 0.460408 0.768851 0.142344
O O3 0.475698 0.000000 0.089805
O O4 0.410772 0.758558 0.004468
O O5 0.157649 0.500000 0.074665
O O6 0.233856 0.728255 0.095222
O O7 0.168120 0.739264 0.144578
O O8 0.718587 0.500000 0.930134
O O9 0.635563 0.267372 0.848628
O O10 0.750000 0.250000 0.000000
O O11 0.818993 0.500000 0.679123
O O12 0.814229 0.740894 0.733564
O O13 0.865897 0.737789 0.667676
O O14 0.720659 0.706278 0.580508
O O15 0.864028 0.500000 0.821681
O O16 0.900312 0.500000 0.634171
O O17 0.888713 0.245352 0.576006
O O18 0.000208 0.291666 0.725193
O O19 0.085111 0.500000 0.832394
O O20 0.250000 0.250000 0.500000
O O21 0.188097 0.000000 0.482142
#
# Coordination Sequence:
#
# PCOD8081402 Si02
#       8
#     8   8   8   8   8   8   8   8
#     4   9  14  23  40  63  90 115 142 178 220 262
#     4   9  17  26  39  63  90 114 148 188 223 257
#     4  11  21  33  47  65  89 118 153 190 225 263
#     4   8  13  22  37  60  89 118 141 169 219 267
#     4   9  14  22  39  64  92 117 142 181 225 264
#     4   9  16  27  43  64  90 117 146 181 221 266
#     4  10  18  30  48  68  91 118 149 186 225 268
#     4   9  16  25  39  61  91 122 149 177 213 265
#
# _framework density 16.238097
#
# number of rings (size 3 to 8) (size 9 to 14) (size 15 to 20)
#    0.000    2.750    2.500    1.875    0.000    2.000 
#    0.000    0.000    0.000    0.000    0.000   12.250 
#    0.000    7.000    0.000    0.000    0.000    0.000 
#
# Total GULP energy -396531.198303 kJ/mol
# GULP energy per Si atom -12391.599947 kJ/mol
# Density = 1.620114 g / cm^3
# Si number density = 16.238097 Si / 1000 Ang^3
#
#
#
# Elastic Constant Matrix: (Units=GPa)
#
#
# Indices 1 2 3 4 5 6 
#
# 1 107.3479 24.0646 69.1358 0.0000 -2.6470 0.0000
# 2 24.0646 33.5939 38.1199 0.0000 2.5021 0.0000
# 3 69.1358 38.1199 155.7187 0.0000 1.9229 0.0000
# 4 0.0000 0.0000 0.0000 22.6156 0.0000 5.3309
# 5 -2.6470 2.5021 1.9229 0.0000 17.5568 0.0000
# 6 0.0000 0.0000 0.0000 5.3309 0.0000 15.1275
#
#
#
# Elastic Compliance Matrix: (Units=1/GPa)
#
#
# Indices 1 2 3 4 5 6 
#
# 1 0.013590 -0.004268 -0.005028 0.000000 0.003208 0.000000
# 2 -0.004268 0.042961 -0.008550 0.000000 -0.005830 0.000000
# 3 -0.005028 -0.008550 0.010756 0.000000 -0.000718 0.000000
# 4 0.000000 0.000000 0.000000 0.048223 0.000000 -0.016994
# 5 0.003208 -0.005830 -0.000718 0.000000 0.058351 0.000000
# 6 0.000000 0.000000 0.000000 -0.016994 0.000000 0.072093
#
#
# Mechanical properties :
#
#
# Convention : Reuss Voigt Hill
#
# Bulk Modulus (GPa) = 31.63139 62.14456 46.88798
# Shear Modulus (GPa) = 17.11129 22.08265 19.59697
#
# Velocity S-wave (km/s) = 3.24971 3.69172 3.47775
# Velocity P-wave (km/s) = 5.79680 7.51836 6.71299
#
# Compressibility (1/GPa) = 0.03161417
#
# Stress axis : x y z
#
# Youngs Moduli (GPa) = 73.58429 23.27711 92.96951
#
# Poissons Ratio (x) = 0.09935 0.46749
# Poissons Ratio (y) = 0.31406 0.79488
# Poissons Ratio (z) = 0.37001 0.19902
#
# Static dielectric constant tensor:
#      x y z
#    x 2.956610 0.000000 -0.072650 
#    y 0.000000 2.730660 0.000000 
#    z -0.072650 0.000000 3.592070 
# 
# 
# High freq. dielectric constant tensor:
#      x y z
#    x 1.588090 0.000000 0.002830 
#    y 0.000000 1.581130 0.000000 
#    z 0.002830 0.000000 1.639830 
# 
# From -- ./inp_files/348607.got.cif
#   From: 2010.06.25/outbox.cif.g09.slc.cpg/sg12_175_cif.got.tgz:348607.got - 2010.06.28 00:19:55.
