data_PCOD8081203
_publ_section_title
;
Structure prediction by ZEFSAII (Michael W. Deem and Ramdas Pophale) SiO2 
 PCOD8081203
Probable space group: C 2/M
;
_chemical_formula_sum "Si O2"
_cell_formula_units_Z 64
_cell_length_a 23.451144
_cell_length_b 8.940754
_cell_length_c 29.727124
_cell_angle_alpha 90.000000
_cell_angle_beta 145.765785
_cell_angle_gamma 90.000000
_cell_volume 3506.494694
_symmetry_space_group_name_H-M "C 2/M"
_symmetry_group_IT_number 12
_symmetry_cell_setting 'monoclinic'
loop_
_space_group_symop_operation_xyz
x,y,z
-x,y,-z
-x,-y,-z
x,-y,z
1/2+x,1/2+y,z
1/2-x,1/2+y,-z
1/2-x,1/2-y,-z
1/2+x,1/2-y,z
loop_
_atom_site_type_symbol
_atom_site_label
_atom_site_fract_x
_atom_site_fract_y
_atom_site_fract_z
Si Si1 0.370111 0.174347 0.161310
Si Si2 0.210659 0.173702 0.409762
Si Si3 0.603836 0.674730 0.432414
Si Si4 0.462834 0.328018 0.878903
Si Si5 0.835550 0.325470 0.963819
Si Si6 0.550358 0.670814 0.232466
Si Si7 0.900547 0.325562 0.284332
Si Si8 0.805179 0.674078 0.840270
O O1 0.269772 0.267829 0.084125
O O2 0.457255 0.222214 0.183834
O O3 0.406138 0.212451 0.235162
O O4 0.346097 0.000000 0.139785
O O5 0.314717 0.267045 0.478121
O O6 0.141433 0.218194 0.407112
O O7 0.150038 0.217961 0.325311
O O8 0.239446 0.000000 0.430226
O O9 0.588806 0.500000 0.428869
O O10 0.496645 0.753122 0.371606
O O11 0.460840 0.500000 0.893401
O O12 0.422158 0.311445 0.801725
O O13 0.393296 0.230081 0.865595
O O14 0.576519 0.266749 0.954801
O O15 0.848012 0.500000 0.982666
O O16 0.839948 0.292293 0.913632
O O17 0.520232 0.500000 0.224904
O O18 0.900909 0.500000 0.294276
O O19 0.798639 0.258467 0.239261
O O20 0.787007 0.500000 0.820520
#
# Coordination Sequence:
#
# PCOD8081203 Si02
#       8
#     8   8   8   8   8   8   8   8
#     4  10  20  33  53  80 107 137 175 218 263 309
#     4   9  18  32  50  74 108 143 174 210 253 308
#     4  10  18  29  51  80 109 139 173 212 258 308
#     4  11  23  37  55  78 104 138 180 220 262 311
#     4  10  21  37  57  78 104 137 174 219 269 316
#     4  10  21  37  54  74 107 147 178 210 258 317
#     4  10  19  32  53  81 110 137 171 217 266 311
#     4  10  21  37  57  79 104 136 176 220 267 313
#
# _framework density 18.251846
#
# number of rings (size 3 to 8) (size 9 to 14) (size 15 to 20)
#    0.000    2.000    1.250    2.625    0.000    6.500 
#    0.000    0.000    0.000    0.750    0.000    5.250 
#    0.000    0.000    0.000    0.000    0.000    0.000 
#
# Total GULP energy -396968.421463 kJ/mol
# GULP energy per Si atom -12405.263171 kJ/mol
# Density = 1.821030 g / cm^3
# Si number density = 18.251846 Si / 1000 Ang^3
#
#
#
# Elastic Constant Matrix: (Units=GPa)
#
#
# Indices 1 2 3 4 5 6 
#
# 1 28.0374 18.2975 20.6117 0.0002 -2.0935 -0.0003
# 2 18.2975 72.7346 44.4491 0.0003 2.6081 -0.0008
# 3 20.6117 44.4491 121.3737 0.0000 6.9151 -0.0001
# 4 0.0002 0.0003 0.0000 34.4340 0.0001 9.3237
# 5 -2.0935 2.6081 6.9151 0.0001 21.1867 0.0000
# 6 -0.0003 -0.0008 -0.0001 9.3237 0.0000 27.6405
#
#
#
# Elastic Compliance Matrix: (Units=1/GPa)
#
#
# Indices 1 2 3 4 5 6 
#
# 1 0.045512 -0.008675 -0.004961 0.000000 0.007184 0.000000
# 2 -0.008675 0.019366 -0.005537 0.000000 -0.001434 0.000001
# 3 -0.004961 -0.005537 0.011309 0.000000 -0.003500 0.000000
# 4 0.000000 0.000000 0.000000 0.031960 0.000000 -0.010781
# 5 0.007184 -0.001434 -0.003500 0.000000 0.049228 0.000000
# 6 0.000000 0.000001 0.000000 -0.010781 0.000000 0.039815
#
#
# Mechanical properties :
#
#
# Convention : Reuss Voigt Hill
#
# Bulk Modulus (GPa) = 26.42722 43.20693 34.81707
# Shear Modulus (GPa) = 20.14902 25.90472 23.02687
#
# Velocity S-wave (km/s) = 3.32617 3.77144 3.55578
# Velocity P-wave (km/s) = 5.40942 6.53368 5.99795
#
# Compressibility (1/GPa) = 0.03783977
#
# Stress axis : x y z
#
# Youngs Moduli (GPa) = 21.97234 51.63595 88.42665
#
# Poissons Ratio (x) = 0.44794 0.43870
# Poissons Ratio (y) = 0.19061 0.48966
# Poissons Ratio (z) = 0.10901 0.28593
#
# Static dielectric constant tensor:
#      x y z
#    x 3.070570 0.000000 0.055080 
#    y 0.000000 3.417370 0.000000 
#    z 0.055080 0.000000 3.446870 
# 
# 
# High freq. dielectric constant tensor:
#      x y z
#    x 1.676690 0.000000 0.012970 
#    y 0.000000 1.720070 0.000000 
#    z 0.012970 0.000000 1.711610 
# 
# From -- ./inp_files/238666.got.cif
#   From: 2010.06.25/outbox.cif.g09.slc.cpg/sg12_120_cif.got.tgz:238666.got - 2010.06.28 00:19:55.
