data_PCOD8081156
_publ_section_title
;
Structure prediction by ZEFSAII (Michael W. Deem and Ramdas Pophale) SiO2 
 PCOD8081156
Probable space group: C 2/M
;
_chemical_formula_sum "Si O2"
_cell_formula_units_Z 64
_cell_length_a 24.220565
_cell_length_b 9.060590
_cell_length_c 21.419462
_cell_angle_alpha 90.000000
_cell_angle_beta 50.903950
_cell_angle_gamma 90.000000
_cell_volume 3648.054599
_symmetry_space_group_name_H-M "C 2/M"
_symmetry_group_IT_number 12
_symmetry_cell_setting 'monoclinic'
loop_
_space_group_symop_operation_xyz
x,y,z
-x,y,-z
-x,-y,-z
x,-y,z
1/2+x,1/2+y,z
1/2-x,1/2+y,-z
1/2-x,1/2-y,-z
1/2+x,1/2-y,z
loop_
_atom_site_type_symbol
_atom_site_label
_atom_site_fract_x
_atom_site_fract_y
_atom_site_fract_z
Si Si1 0.266903 0.668788 0.898090
Si Si2 0.140299 0.172395 0.654503
Si Si3 0.457516 0.173439 0.677693
Si Si4 0.324598 0.327998 0.723005
Si Si5 0.774476 0.326418 0.638471
Si Si6 0.638636 0.169819 0.070919
Si Si7 0.881898 0.329392 0.455618
Si Si8 0.981656 0.826596 0.788840
O O1 0.288506 0.500000 0.899142
O O2 0.276696 0.701554 0.818201
O O3 0.315623 0.779002 0.902272
O O4 0.184084 0.695812 0.975339
O O5 0.201411 0.224529 0.657865
O O6 0.151038 0.246011 0.579846
O O7 0.064204 0.216052 0.738937
O O8 0.145367 0.000000 0.638486
O O9 0.399368 0.241507 0.672708
O O10 0.535043 0.207096 0.593456
O O11 0.449725 0.252720 0.749586
O O12 0.444386 0.000000 0.695242
O O13 0.340646 0.500000 0.702016
O O14 0.279373 0.265541 0.698094
O O15 0.774370 0.500000 0.653644
O O16 0.840542 0.282033 0.547309
O O17 0.564816 0.262483 0.120455
O O18 0.618603 0.000000 0.094347
O O19 0.869667 0.500000 0.449917
O O20 0.970651 0.000000 0.791109
#
# Coordination Sequence:
#
# PCOD8081156 Si02
#       8
#     8   8   8   8   8   8   8   8
#     4   9  19  33  48  71 104 133 163 205 247 294
#     4   9  19  34  54  76 100 131 168 210 255 296
#     4  10  19  32  50  74 101 133 167 202 250 304
#     4  11  22  35  51  72 102 137 168 205 248 297
#     4  10  21  37  53  72  99 135 173 209 250 299
#     4  10  18  29  50  77 101 130 165 200 248 303
#     4   9  19  34  54  77 101 127 164 215 259 293
#     4  10  18  30  49  76 106 131 160 206 253 296
#
# _framework density 17.543597999999999
#
# number of rings (size 3 to 8) (size 9 to 14) (size 15 to 20)
#    0.000    2.250    1.250    1.875    0.000    3.500 
#    0.000    2.500    0.000    0.750    0.000    5.250 
#    0.000    0.000    0.000    0.000    0.000    0.000 
#
# Total GULP energy -396825.251851 kJ/mol
# GULP energy per Si atom -12400.789120 kJ/mol
# Density = 1.750367 g / cm^3
# Si number density = 17.543598 Si / 1000 Ang^3
#
#
#
# Elastic Constant Matrix: (Units=GPa)
#
#
# Indices 1 2 3 4 5 6 
#
# 1 86.8190 38.6146 51.7773 0.0002 7.4123 0.0001
# 2 38.6146 74.6315 43.9648 0.0013 2.2945 -0.0003
# 3 51.7773 43.9648 114.1643 0.0005 -3.5532 -0.0003
# 4 0.0002 0.0013 0.0005 27.5955 -0.0005 1.5237
# 5 7.4123 2.2945 -3.5532 -0.0005 19.7005 0.0001
# 6 0.0001 -0.0003 -0.0003 1.5237 0.0001 26.2991
#
#
#
# Elastic Compliance Matrix: (Units=1/GPa)
#
#
# Indices 1 2 3 4 5 6 
#
# 1 0.018478 -0.005506 -0.006493 0.000000 -0.007482 0.000000
# 2 -0.005506 0.019179 -0.004922 -0.000001 -0.001050 0.000000
# 3 -0.006493 -0.004922 0.013771 0.000000 0.005500 0.000000
# 4 0.000000 -0.000001 0.000000 0.036354 0.000001 -0.002106
# 5 -0.007482 -0.001050 0.005500 0.000001 0.054690 0.000000
# 6 0.000000 0.000000 0.000000 -0.002106 0.000000 0.038146
#
#
# Mechanical properties :
#
#
# Convention : Reuss Voigt Hill
#
# Bulk Modulus (GPa) = 56.85895 60.48093 58.66994
# Shear Modulus (GPa) = 22.69409 24.13620 23.41515
#
# Velocity S-wave (km/s) = 3.60054 3.71318 3.65730
# Velocity P-wave (km/s) = 7.05448 7.27551 7.16585
#
# Compressibility (1/GPa) = 0.01758738
#
# Stress axis : x y z
#
# Youngs Moduli (GPa) = 54.11799 52.13922 72.61792
#
# Poissons Ratio (x) = 0.28706 0.47152
# Poissons Ratio (y) = 0.29795 0.35741
# Poissons Ratio (z) = 0.35139 0.25662
#
# Static dielectric constant tensor:
#      x y z
#    x 3.113060 0.000000 -0.296340 
#    y 0.000000 3.303600 0.000000 
#    z -0.296340 0.000000 3.535980 
# 
# 
# High freq. dielectric constant tensor:
#      x y z
#    x 1.650570 0.000000 -0.021750 
#    y 0.000000 1.685940 0.000000 
#    z -0.021750 0.000000 1.683440 
# 
# From -- ./inp_files/324075.got.cif
#   From: 2010.06.25/outbox.cif.g09.slc.cpg/sg12_163_cif.got.tgz:324075.got - 2010.06.28 00:19:55.
