data_PCOD8081745
_publ_section_title
;
Structure prediction by ZEFSAII (Michael W. Deem and Ramdas Pophale) SiO2 
 PCOD8081745
Probable space group: C 2/M
;
_chemical_formula_sum "Si O2"
_cell_formula_units_Z 56
_cell_length_a 18.981155
_cell_length_b 8.914218
_cell_length_c 28.167209
_cell_angle_alpha 90.000000
_cell_angle_beta 39.134472
_cell_angle_gamma 90.000000
_cell_volume 3007.995611
_symmetry_space_group_name_H-M "C 2/M"
_symmetry_group_IT_number 12
_symmetry_cell_setting 'monoclinic'
loop_
_space_group_symop_operation_xyz
x,y,z
-x,y,-z
-x,-y,-z
x,-y,z
1/2+x,1/2+y,z
1/2-x,1/2+y,-z
1/2-x,1/2-y,-z
1/2+x,1/2-y,z
loop_
_atom_site_type_symbol
_atom_site_label
_atom_site_fract_x
_atom_site_fract_y
_atom_site_fract_z
Si Si1 0.653352 0.328880 0.695780
Si Si2 0.131619 0.175478 0.816662
Si Si3 0.598496 0.826431 0.413889
Si Si4 0.908297 0.324628 0.949190
Si Si5 0.200201 0.674537 0.093560
Si Si6 0.137844 0.177064 0.295367
Si Si7 0.468357 0.824449 0.735892
O O1 0.620113 0.500000 0.701779
O O2 0.621625 0.288160 0.766236
O O3 0.785081 0.301946 0.619378
O O4 0.588243 0.219078 0.694652
O O5 0.242596 0.250891 0.779448
O O6 0.024651 0.242428 0.899461
O O7 0.140406 0.000000 0.822237
O O8 0.500000 0.774851 0.500000
O O9 0.592262 0.726402 0.370296
O O10 0.586789 0.000000 0.404605
O O11 0.926237 0.500000 0.946503
O O12 0.870455 0.281203 0.915915
O O13 0.815344 0.267313 0.034868
O O14 0.230556 0.500000 0.076941
O O15 0.128607 0.720322 0.176553
O O16 0.049121 0.232507 0.303004
O O17 0.149103 0.000000 0.288064
O O18 0.467888 0.000000 0.725041
#
# Coordination Sequence:
#
# PCOD8081745 Si02
#       7
#     8   8   8   8   8   8   8
#     4   9  18  32  55  84 109 139 179 222 266 317
#     4  10  19  34  55  78 107 144 186 229 275 326
#     4   9  19  39  64  88 114 144 178 217 265 322
#     4  10  18  30  50  78 107 139 184 233 279 322
#     4   9  19  32  48  74 107 144 182 226 278 326
#     4  11  23  37  56  82 113 144 181 225 272 324
#     4  11  21  36  55  78 111 147 185 225 272 326
#
# _framework density 18.617048
#
# number of rings (size 3 to 8) (size 9 to 14) (size 15 to 20)
#    0.000    2.143    1.429    3.429    0.000    4.286 
#    0.000    1.429    0.000    4.286    0.000    0.000 
#    0.000    0.000    0.000    0.000    0.000    0.000 
#
# Total GULP energy -347312.404102 kJ/mol
# GULP energy per Si atom -12404.014432 kJ/mol
# Density = 1.857467 g / cm^3
# Si number density = 18.617048 Si / 1000 Ang^3
#
#
#
# Elastic Constant Matrix: (Units=GPa)
#
#
# Indices 1 2 3 4 5 6 
#
# 1 84.0488 42.4990 31.8999 0.0000 -5.3108 -0.0002
# 2 42.4990 91.3911 36.8684 -0.0002 -5.3263 0.0000
# 3 31.8999 36.8684 97.1667 0.0000 -17.5649 -0.0001
# 4 0.0000 -0.0002 0.0000 27.6894 0.0000 -4.3121
# 5 -5.3108 -5.3263 -17.5649 0.0000 20.5570 0.0000
# 6 -0.0002 0.0000 -0.0001 -4.3121 0.0000 30.9240
#
#
#
# Elastic Compliance Matrix: (Units=1/GPa)
#
#
# Indices 1 2 3 4 5 6 
#
# 1 0.016223 -0.006372 -0.002897 0.000000 0.000065 0.000000
# 2 -0.006372 0.015439 -0.003951 0.000000 -0.001022 0.000000
# 3 -0.002897 -0.003951 0.014690 0.000000 0.010780 0.000000
# 4 0.000000 0.000000 0.000000 0.036917 0.000000 0.005148
# 5 0.000065 -0.001022 0.010780 0.000000 0.057608 0.000000
# 6 0.000000 0.000000 0.000000 0.005148 0.000000 0.033055
#
#
# Mechanical properties :
#
#
# Convention : Reuss Voigt Hill
#
# Bulk Modulus (GPa) = 50.21576 55.01569 52.61572
# Shear Modulus (GPa) = 24.15338 26.59003 25.37171
#
# Velocity S-wave (km/s) = 3.60582 3.78334 3.69565
# Velocity P-wave (km/s) = 6.66089 6.97856 6.82157
#
# Compressibility (1/GPa) = 0.01991407
#
# Stress axis : x y z
#
# Youngs Moduli (GPa) = 61.63989 64.76936 68.07143
#
# Poissons Ratio (x) = 0.41270 0.19718
# Poissons Ratio (y) = 0.39276 0.26895
# Poissons Ratio (z) = 0.17855 0.25591
#
# Static dielectric constant tensor:
#      x y z
#    x 3.254720 0.000000 -0.140590 
#    y 0.000000 3.370430 0.000000 
#    z -0.140590 0.000000 3.374250 
# 
# 
# High freq. dielectric constant tensor:
#      x y z
#    x 1.708090 0.000000 -0.014600 
#    y 0.000000 1.727300 0.000000 
#    z -0.014600 0.000000 1.712300 
# 
# From -- ./inp_files/342533.got.cif
#   From: 2010.06.25/outbox.cif.g09.slc.cpg/sg12_172_cif.got.tgz:342533.got - 2010.06.28 00:19:55.
