data_PCOD8081555
_publ_section_title
;
Structure prediction by ZEFSAII (Michael W. Deem and Ramdas Pophale) SiO2 
 PCOD8081555
Probable space group: C 2/M
;
_chemical_formula_sum "Si O2"
_cell_formula_units_Z 64
_cell_length_a 30.632902
_cell_length_b 9.251499
_cell_length_c 22.918398
_cell_angle_alpha 90.000000
_cell_angle_beta 31.320504
_cell_angle_gamma 90.000000
_cell_volume 3376.304035
_symmetry_space_group_name_H-M "C 2/M"
_symmetry_group_IT_number 12
_symmetry_cell_setting 'monoclinic'
loop_
_space_group_symop_operation_xyz
x,y,z
-x,y,-z
-x,-y,-z
x,-y,z
1/2+x,1/2+y,z
1/2-x,1/2+y,-z
1/2-x,1/2-y,-z
1/2+x,1/2-y,z
loop_
_atom_site_type_symbol
_atom_site_label
_atom_site_fract_x
_atom_site_fract_y
_atom_site_fract_z
Si Si1 0.323875 0.667912 0.446041
Si Si2 0.125322 0.827724 0.079030
Si Si3 0.381157 0.671477 0.505041
Si Si4 0.759402 0.328460 0.247265
Si Si5 0.565128 0.669371 0.273436
Si Si6 0.465670 0.331376 0.195229
Si Si7 0.587510 0.332993 0.867671
Si Si8 0.768647 0.831117 0.853003
O O1 0.302489 0.500000 0.467806
O O2 0.250000 0.750000 0.500000
O O3 0.333801 0.723104 0.500625
O O4 0.409408 0.704545 0.315132
O O5 0.094647 0.768862 0.177016
O O6 0.058801 0.776482 0.105349
O O7 0.136256 0.000000 0.067553
O O8 0.213294 0.755384 0.962727
O O9 0.387471 0.500000 0.498926
O O10 0.325135 0.726001 0.623255
O O11 0.476015 0.736684 0.396946
O O12 0.769007 0.500000 0.242123
O O13 0.841365 0.256678 0.180931
O O14 0.750407 0.279043 0.190712
O O15 0.551838 0.500000 0.279839
O O16 0.634262 0.703700 0.243691
O O17 0.471260 0.500000 0.176163
O O18 0.426993 0.263499 0.180309
O O19 0.616392 0.500000 0.832644
O O20 0.500000 0.315515 0.000000
O O21 0.749692 0.000000 0.882587
#
# Coordination Sequence:
#
# PCOD8081555 Si02
#       8
#     8   8   8   8   8   8   8   8
#     4  10  18  30  49  72  97 126 163 205 248 296
#     4  10  18  33  57  79 100 132 172 212 257 308
#     4   9  17  32  53  75 101 135 173 209 247 303
#     4  10  21  35  51  75 107 139 171 209 256 304
#     4   9  17  32  55  79 102 132 172 214 256 301
#     4   9  17  30  50  74  97 126 166 208 250 296
#     4  10  20  34  52  74 101 135 176 215 249 297
#     4  10  21  34  50  77 108 135 167 213 260 301
#
# _framework density 18.955639999999999
#
# number of rings (size 3 to 8) (size 9 to 14) (size 15 to 20)
#    0.000    2.375    1.250    1.875    0.000    2.250 
#    0.000    3.750    0.000    2.250    0.000    1.750 
#    0.000    0.000    0.000    0.000    0.000    0.000 
#
# Total GULP energy -396705.240700 kJ/mol
# GULP energy per Si atom -12397.038772 kJ/mol
# Density = 1.891250 g / cm^3
# Si number density = 18.955640 Si / 1000 Ang^3
#
#
#
# Elastic Constant Matrix: (Units=GPa)
#
#
# Indices 1 2 3 4 5 6 
#
# 1 109.3511 19.4725 53.5801 0.0262 -0.3118 -0.0060
# 2 19.4725 23.1487 29.3204 0.0440 -2.9392 -0.0117
# 3 53.5801 29.3204 105.5903 0.0390 -9.9344 0.0120
# 4 0.0262 0.0440 0.0390 16.1671 -0.0129 -1.9929
# 5 -0.3118 -2.9392 -9.9344 -0.0129 33.6985 0.0007
# 6 -0.0060 -0.0117 0.0120 -1.9929 0.0007 22.4965
#
#
#
# Elastic Compliance Matrix: (Units=1/GPa)
#
#
# Indices 1 2 3 4 5 6 
#
# 1 0.012491 -0.003846 -0.005442 0.000002 -0.001824 0.000004
# 2 -0.003846 0.067825 -0.016794 -0.000133 0.000929 0.000031
# 3 -0.005442 -0.016794 0.017231 0.000014 0.003565 -0.000018
# 4 0.000002 -0.000133 0.000014 0.062537 0.000016 0.005540
# 5 -0.001824 0.000929 0.003565 0.000016 0.030790 -0.000001
# 6 0.000004 0.000031 -0.000018 0.005540 -0.000001 0.044942
#
#
# Mechanical properties :
#
#
# Convention : Reuss Voigt Hill
#
# Bulk Modulus (GPa) = 22.03549 49.20401 35.61975
# Shear Modulus (GPa) = 16.49577 23.52023 20.00800
#
# Velocity S-wave (km/s) = 2.95317 3.52633 3.25240
# Velocity P-wave (km/s) = 4.82475 6.52639 5.73899
#
# Compressibility (1/GPa) = 0.04538133
#
# Stress axis : x y z
#
# Youngs Moduli (GPa) = 80.05749 14.74392 58.03527
#
# Poissons Ratio (x) = 0.05671 0.31583
# Poissons Ratio (y) = 0.30791 0.97467
# Poissons Ratio (z) = 0.43567 0.24762
#
# Static dielectric constant tensor:
#      x y z
#    x 3.660770 0.000010 0.086740 
#    y 0.000010 3.036520 0.000000 
#    z 0.086740 0.000000 3.646350 
# 
# 
# High freq. dielectric constant tensor:
#      x y z
#    x 1.752340 0.000000 -0.001420 
#    y 0.000000 1.682090 0.000000 
#    z -0.001420 0.000000 1.748860 
# 
# From -- ./inp_files/351748.got.cif
#   From: 2010.06.25/outbox.cif.g09.slc.cpg/sg12_176_cif.got.tgz:351748.got - 2010.06.28 00:19:55.
