data_PCOD8081628
_publ_section_title
;
Structure prediction by ZEFSAII (Michael W. Deem and Ramdas Pophale) SiO2 
 PCOD8081628
Probable space group: C 2/M
;
_chemical_formula_sum "Si O2"
_cell_formula_units_Z 60
_cell_length_a 25.041827
_cell_length_b 17.679876
_cell_length_c 12.166109
_cell_angle_alpha 90.000000
_cell_angle_beta 144.299854
_cell_angle_gamma 90.000000
_cell_volume 3143.185421
_symmetry_space_group_name_H-M "C 2/M"
_symmetry_group_IT_number 12
_symmetry_cell_setting 'monoclinic'
loop_
_space_group_symop_operation_xyz
x,y,z
-x,y,-z
-x,-y,-z
x,-y,z
1/2+x,1/2+y,z
1/2-x,1/2+y,-z
1/2-x,1/2-y,-z
1/2+x,1/2-y,z
loop_
_atom_site_type_symbol
_atom_site_label
_atom_site_fract_x
_atom_site_fract_y
_atom_site_fract_z
Si Si1 0.182932 0.854295 0.099300
Si Si2 0.309562 0.837088 0.506438
Si Si3 0.307851 0.914758 0.128754
Si Si4 0.500000 0.155302 0.500000
Si Si5 0.305689 0.176267 0.918230
Si Si6 0.296309 0.341436 0.466727
Si Si7 0.009532 0.157338 0.147546
Si Si8 0.004914 0.686073 0.262600
O O1 0.229948 0.865548 0.294845
O O2 0.232972 0.909406 0.099132
O O3 0.192903 0.767237 0.076129
O O4 0.078205 0.882260 0.941869
O O5 0.312857 0.746746 0.513459
O O6 0.283176 0.869269 0.582508
O O7 0.408969 0.866375 0.630122
O O8 0.409365 0.895732 0.341708
O O9 0.308608 0.000000 0.084443
O O10 0.271052 0.856594 0.975443
O O11 0.509071 0.204685 0.402099
O O12 0.238490 0.142383 0.713873
O O13 0.409336 0.144371 0.075355
O O14 0.394498 0.382135 0.655045
O O15 0.008202 0.241283 0.192051
O O16 0.000000 0.158648 0.000000
#
# Coordination Sequence:
#
# PCOD8081628 Si02
#       8
#     8   8   8   4   8   8   8   8
#     4  10  18  33  53  80 106 136 177 223 261 313
#     4   9  15  26  48  76 108 136 168 212 258 324
#     4  11  22  37  56  75 105 144 183 222 267 318
#     4  10  19  36  50  78 106 146 179 216 259 320
#     4   9  20  33  51  79 108 142 172 219 266 318
#     4   9  17  28  47  76 109 139 170 212 269 309
#     4  10  18  30  49  80 113 140 172 220 270 313
#     4   9  18  27  47  77 113 141 169 208 261 314
#
# _framework density 19.088915
#
# number of rings (size 3 to 8) (size 9 to 14) (size 15 to 20)
#    0.000    2.400    2.667    0.600    5.600    0.000 
#    0.000    0.000    0.000    2.800    0.000    1.867 
#    0.000    0.000    0.000    0.000    0.000    0.000 
#
# Total GULP energy -371644.462333 kJ/mol
# GULP energy per Si atom -12388.148744 kJ/mol
# Density = 1.904547 g / cm^3
# Si number density = 19.088915 Si / 1000 Ang^3
#
#
#
# Elastic Constant Matrix: (Units=GPa)
#
#
# Indices 1 2 3 4 5 6 
#
# 1 117.6710 8.7003 52.4160 0.0000 10.7834 0.0000
# 2 8.7003 23.2360 10.3376 0.0000 -7.5571 0.0000
# 3 52.4160 10.3376 129.7914 0.0000 6.6631 0.0000
# 4 0.0000 0.0000 0.0000 6.3567 0.0000 3.1534
# 5 10.7834 -7.5571 6.6631 0.0000 37.4210 0.0000
# 6 0.0000 0.0000 0.0000 3.1534 0.0000 1.4673
#
#
#
# Elastic Compliance Matrix: (Units=1/GPa)
#
#
# Indices 1 2 3 4 5 6 
#
# 1 0.010774 -0.003282 -0.003932 0.000000 -0.003067 0.000000
# 2 -0.003282 0.049430 -0.003202 0.000000 0.011498 0.000000
# 3 -0.003932 -0.003202 0.009610 0.000000 -0.001225 0.000000
# 4 0.000000 0.000000 0.000000 -2.379244 0.000000 5.113207
# 5 -0.003067 0.011498 -0.001225 0.000000 0.030147 0.000000
# 6 0.000000 0.000000 0.000000 5.113207 0.000000-10.307231
#
#
# Mechanical properties :
#
#
# Convention : Reuss Voigt Hill
#
# Bulk Modulus (GPa) = 20.41572 45.95624 33.18598
# Shear Modulus (GPa) = -0.39843 22.33198 10.96678
#
# Velocity S-wave (km/s) = -0.45736 3.42408 2.39949
# Velocity P-wave (km/s) = 3.23100 6.30552 5.00994
#
# Compressibility (1/GPa) = 0.04898187
#
# Stress axis : x y z
#
# Youngs Moduli (GPa) = 92.82018 20.23074 104.05306
#
# Poissons Ratio (x) = 0.06640 0.40913
# Poissons Ratio (y) = 0.30466 0.33315
# Poissons Ratio (z) = 0.36497 0.06477
#
# Static dielectric constant tensor:
#      x y z
#    x 4.046860 0.000000 0.368510 
#    y 0.000000 2.752120 0.000000 
#    z 0.368510 0.000000 3.960370 
# 
# 
# High freq. dielectric constant tensor:
#      x y z
#    x 1.763670 0.000000 0.008780 
#    y 0.000000 1.655470 0.000000 
#    z 0.008780 0.000000 1.757530 
# 
# From -- ./inp_files/177371.got.cif
#   From: 2010.06.25/outbox.cif.g09.slc.cpg/sg12_89_cif.got.tgz:177371.got - 2010.06.28 00:19:55.
