data_PCOD8081537
_publ_section_title
;
Structure prediction by ZEFSAII (Michael W. Deem and Ramdas Pophale) SiO2 
 PCOD8081537
Probable space group: C 2/M
;
_chemical_formula_sum "Si O2"
_cell_formula_units_Z 64
_cell_length_a 24.168931
_cell_length_b 9.318875
_cell_length_c 28.690089
_cell_angle_alpha 90.000000
_cell_angle_beta 32.604234
_cell_angle_gamma 90.000000
_cell_volume 3481.825809
_symmetry_space_group_name_H-M "C 2/M"
_symmetry_group_IT_number 12
_symmetry_cell_setting 'monoclinic'
loop_
_space_group_symop_operation_xyz
x,y,z
-x,y,-z
-x,-y,-z
x,-y,z
1/2+x,1/2+y,z
1/2-x,1/2+y,-z
1/2-x,1/2-y,-z
1/2+x,1/2-y,z
loop_
_atom_site_type_symbol
_atom_site_label
_atom_site_fract_x
_atom_site_fract_y
_atom_site_fract_z
Si Si1 0.234120 0.832162 0.398473
Si Si2 0.696153 0.828463 0.750001
Si Si3 0.320058 0.329363 0.750000
Si Si4 0.265040 0.168042 0.091526
Si Si5 0.948092 0.831958 0.408475
Si Si6 0.603572 0.166280 0.149300
Si Si7 0.968933 0.332161 0.898474
Si Si8 0.902167 0.333720 0.350705
O O1 0.250328 0.768696 0.335177
O O2 0.118725 0.799532 0.497803
O O3 0.317809 0.768833 0.375075
O O4 0.256498 0.000000 0.379631
O O5 0.758201 0.764957 0.750000
O O6 0.579317 0.768697 0.835178
O O7 0.698920 0.000000 0.750000
O O8 0.317891 0.500000 0.749999
O O9 0.266201 0.273208 0.835450
O O10 0.437101 0.273207 0.664550
O O11 0.202532 0.246719 0.095486
O O12 0.241130 0.000000 0.104132
O O13 0.385666 0.200474 0.997804
O O14 0.893502 0.753281 0.404518
O O15 0.949396 0.000000 0.395866
O O16 0.567955 0.231167 0.124929
O O17 0.514370 0.189469 0.250002
O O18 0.634356 0.000000 0.122927
O O19 0.984237 0.500000 0.879635
O O20 0.880205 0.500000 0.377078
#
# Coordination Sequence:
#
# PCOD8081537 Si02
#       8
#     8   8   8   8   8   8   8   8
#     4   9  17  29  47  69  95 125 157 192 231 274
#     4   9  16  29  46  67  95 125 158 197 230 266
#     4   9  18  29  43  67  99 125 152 191 236 278
#     4  10  19  31  47  72 101 124 148 189 241 282
#     4  10  19  31  47  72 101 124 148 189 241 282
#     4  10  18  30  49  71  93 124 161 191 225 277
#     4   9  17  29  47  69  95 125 157 192 231 274
#     4  10  18  30  49  71  93 124 161 191 225 277
#
# _framework density 18.381160999999999
#
# number of rings (size 3 to 8) (size 9 to 14) (size 15 to 20)
#    0.000    2.500    2.500    0.750    0.000    1.000 
#    0.000    5.000    0.000    0.000    0.000    8.750 
#    0.000    0.000    0.000    0.000    0.000    0.000 
#
# Total GULP energy -396743.352113 kJ/mol
# GULP energy per Si atom -12398.229754 kJ/mol
# Density = 1.833932 g / cm^3
# Si number density = 18.381161 Si / 1000 Ang^3
#
#
#
# Elastic Constant Matrix: (Units=GPa)
#
#
# Indices 1 2 3 4 5 6 
#
# 1 149.5399 16.1748 66.8592 -0.0003 3.8107 0.0005
# 2 16.1748 18.5176 17.4223 -0.0005 -0.1142 -0.0005
# 3 66.8592 17.4223 128.6174 -0.0002 -1.9017 0.0006
# 4 -0.0003 -0.0005 -0.0002 12.2487 -0.0001 0.6237
# 5 3.8107 -0.1142 -1.9017 -0.0001 20.9992 -0.0001
# 6 0.0005 -0.0005 0.0006 0.6237 -0.0001 19.0808
#
#
#
# Elastic Compliance Matrix: (Units=1/GPa)
#
#
# Indices 1 2 3 4 5 6 
#
# 1 0.009043 -0.003966 -0.004194 0.000000 -0.002042 0.000000
# 2 -0.003966 0.063633 -0.006551 0.000003 0.000472 0.000002
# 3 -0.004194 -0.006551 0.010868 0.000000 0.001710 0.000000
# 4 0.000000 0.000003 0.000000 0.081777 0.000000 -0.002673
# 5 -0.002042 0.000472 0.001710 0.000000 0.048149 0.000000
# 6 0.000000 0.000002 0.000000 -0.002673 0.000000 0.052496
#
#
# Mechanical properties :
#
#
# Convention : Reuss Voigt Hill
#
# Bulk Modulus (GPa) = 18.47658 55.28749 36.88203
# Shear Modulus (GPa) = 15.95257 23.54700 19.74978
#
# Velocity S-wave (km/s) = 2.94917 3.58304 3.28145
# Velocity P-wave (km/s) = 4.65516 6.87468 5.87077
#
# Compressibility (1/GPa) = 0.05412256
#
# Stress axis : x y z
#
# Youngs Moduli (GPa) = 110.57900 15.71505 92.01468
#
# Poissons Ratio (x) = 0.06232 0.38591
# Poissons Ratio (y) = 0.43854 0.60280
# Poissons Ratio (z) = 0.46377 0.10295
#
# Static dielectric constant tensor:
#      x y z
#    x 3.547710 0.000000 -0.001640 
#    y 0.000000 2.800070 0.000000 
#    z -0.001640 0.000000 3.565630 
# 
# 
# High freq. dielectric constant tensor:
#      x y z
#    x 1.713600 0.000000 -0.001580 
#    y 0.000000 1.644650 0.000000 
#    z -0.001580 0.000000 1.730900 
# 
# From -- ./inp_files/346825.got.cif
#   From: 2010.06.25/outbox.cif.g09.slc.cpg/sg12_174_cif.got.tgz:346825.got - 2010.06.28 00:19:55.
