data_PCOD8081132
_publ_section_title
;
Structure prediction by ZEFSAII (Michael W. Deem and Ramdas Pophale) SiO2 
 PCOD8081132
Probable space group: C 2/M
;
_chemical_formula_sum "Si O2"
_cell_formula_units_Z 56
_cell_length_a 20.789443
_cell_length_b 18.327930
_cell_length_c 23.095491
_cell_angle_alpha 90.000000
_cell_angle_beta 20.405387
_cell_angle_gamma 90.000000
_cell_volume 3068.215137
_symmetry_space_group_name_H-M "C 2/M"
_symmetry_group_IT_number 12
_symmetry_cell_setting 'monoclinic'
loop_
_space_group_symop_operation_xyz
x,y,z
-x,y,-z
-x,-y,-z
x,-y,z
1/2+x,1/2+y,z
1/2-x,1/2+y,-z
1/2-x,1/2-y,-z
1/2+x,1/2-y,z
loop_
_atom_site_type_symbol
_atom_site_label
_atom_site_fract_x
_atom_site_fract_y
_atom_site_fract_z
Si Si1 0.314296 0.810287 0.991475
Si Si2 0.820552 0.693129 0.368043
Si Si3 0.226752 0.417340 0.387689
Si Si4 0.040654 0.922001 0.032611
Si Si5 0.470895 0.772870 0.458646
Si Si6 0.919963 0.151580 0.330868
Si Si7 0.156917 0.229083 0.917070
O O1 0.497869 0.849311 0.809935
O O2 0.250000 0.750000 0.000000
O O3 0.386980 0.778859 0.991164
O O4 0.140661 0.864173 0.150338
O O5 0.701518 0.725022 0.415805
O O6 0.895378 0.762404 0.340665
O O7 0.698055 0.637857 0.510640
O O8 0.147982 0.500000 0.456838
O O9 0.350621 0.405620 0.226394
O O10 0.060021 0.359795 0.524433
O O11 0.347405 0.402046 0.342811
O O12 0.124557 0.000000 0.984160
O O13 0.175206 0.853418 0.927465
O O14 0.000000 0.929717 0.000000
O O15 0.500000 0.753259 0.500000
O O16 0.647468 0.747938 0.273469
O O17 0.000000 0.235084 0.000000
#
# Coordination Sequence:
#
# PCOD8081132 Si02
#       7
#     8   8   8   8   8   8   8
#     4  10  18  29  50  71  94 126 163 203 257 303
#     4   9  17  30  48  72  95 122 161 203 243 305
#     4  10  21  35  49  68  96 131 176 215 244 291
#     4   9  17  30  44  59  86 127 170 205 237 277
#     4  11  20  31  48  71 102 136 167 201 250 297
#     4   9  17  32  49  69  93 124 161 204 256 291
#     4  11  20  31  46  70 101 133 171 210 249 301
#
# _framework density 18.251653999999998
#
# number of rings (size 3 to 8) (size 9 to 14) (size 15 to 20)
#    0.000    2.143    1.429    5.143    2.000    0.857 
#    0.000    0.000    0.000    0.000    0.000    0.000 
#    0.000    1.143    0.000    0.000    0.000    0.000 
#
# Total GULP energy -346913.239686 kJ/mol
# GULP energy per Si atom -12389.758560 kJ/mol
# Density = 1.821011 g / cm^3
# Si number density = 18.251654 Si / 1000 Ang^3
#
#
#
# Elastic Constant Matrix: (Units=GPa)
#
#
# Indices 1 2 3 4 5 6 
#
# 1 93.1649 14.5108 42.9373 -0.0090 10.5842 -0.0048
# 2 14.5108 10.9472 9.2457 0.0414 7.2888 0.0295
# 3 42.9373 9.2457 150.4439 -0.0717 12.8151 -0.0443
# 4 -0.0090 0.0414 -0.0717 -47.1375 0.0507 -81.2387
# 5 10.5842 7.2888 12.8151 0.0507 28.2225 0.0528
# 6 -0.0048 0.0295 -0.0443 -81.2387 0.0528 -97.2813
#
#
#
# Elastic Compliance Matrix: (Units=1/GPa)
#
#
# Indices 1 2 3 4 5 6 
#
# 1 0.014855 -0.017197 -0.003211 0.000012 0.000328 -0.000014
# 2 -0.017197 0.133273 -0.000936 -0.000105 -0.027545 0.000114
# 3 -0.003211 -0.000936 0.007799 0.000014 -0.002096 -0.000016
# 4 0.000012 -0.000105 0.000014 0.048300 0.000005 -0.040335
# 5 0.000328 -0.027545 -0.002096 0.000005 0.043375 0.000012
# 6 -0.000014 0.000114 -0.000016 -0.040335 0.000012 0.023404
#
#
# Mechanical properties :
#
#
# Convention : Reuss Voigt Hill
#
# Bulk Modulus (GPa) = 8.83083 43.10484 25.96783
# Shear Modulus (GPa) = 14.22720 -10.71510 1.75605
#
# Velocity S-wave (km/s) = 2.79498 -2.42559 0.98195
# Velocity P-wave (km/s) = 3.90702 3.97788 3.94261
#
# Compressibility (1/GPa) = 0.11323968
#
# Stress axis : x y z
#
# Youngs Moduli (GPa) = 67.31935 7.50338 128.21546
#
# Poissons Ratio (x) = 0.12904 0.41166
# Poissons Ratio (y) = 1.15770 0.12001
# Poissons Ratio (z) = 0.21614 0.00702
#
# Static dielectric constant tensor:
#      x y z
#    x 3.321020 -0.000030 0.164060 
#    y -0.000030 3.044080 0.000440 
#    z 0.164060 0.000440 3.837400 
# 
# 
# High freq. dielectric constant tensor:
#      x y z
#    x 1.707730 0.000000 0.016980 
#    y 0.000000 1.632710 0.000030 
#    z 0.016980 0.000030 1.727520 
# 
# From -- ./inp_files/347776.got.cif
#   From: 2010.06.25/outbox.cif.g09.slc.cpg/sg12_174_cif.got.tgz:347776.got - 2010.06.28 00:19:55.
