data_PCOD8081238
_publ_section_title
;
Structure prediction by ZEFSAII (Michael W. Deem and Ramdas Pophale) SiO2 
 PCOD8081238
Probable space group: C 2/M
;
_chemical_formula_sum "Si O2"
_cell_formula_units_Z 40
_cell_length_a 22.572831
_cell_length_b 13.276660
_cell_length_c 23.157987
_cell_angle_alpha 90.000000
_cell_angle_beta 17.840646
_cell_angle_gamma 90.000000
_cell_volume 2126.291792
_symmetry_space_group_name_H-M "C 2/M"
_symmetry_group_IT_number 12
_symmetry_cell_setting 'monoclinic'
loop_
_space_group_symop_operation_xyz
x,y,z
-x,y,-z
-x,-y,-z
x,-y,z
1/2+x,1/2+y,z
1/2-x,1/2+y,-z
1/2-x,1/2-y,-z
1/2+x,1/2-y,z
loop_
_atom_site_type_symbol
_atom_site_label
_atom_site_fract_x
_atom_site_fract_y
_atom_site_fract_z
Si Si1 0.233880 0.691529 0.401993
Si Si2 0.905680 0.000000 0.025399
Si Si3 0.141978 0.232578 0.190571
Si Si4 0.613537 0.382938 0.107503
Si Si5 0.982030 0.223382 0.948352
Si Si6 0.027274 0.500000 0.542771
O O1 0.402500 0.662765 0.290170
O O2 0.328889 0.761131 0.262259
O O3 0.141422 0.596996 0.456232
O O4 0.072903 0.753917 0.585377
O O5 0.677079 0.000000 0.237172
O O6 0.970314 0.105348 0.936158
O O7 0.000000 0.000000 0.000000
O O8 0.145471 0.134361 0.146468
O O9 0.211663 0.329012 0.088847
O O10 0.290434 0.216951 0.106454
O O11 0.624225 0.500000 0.081728
O O12 0.000000 0.233835 0.000000
O O13 0.000000 0.500000 0.500000
#
# Coordination Sequence:
#
# PCOD8081238 Si02
#       6
#     8   4   8   8   8   4
#     4  11  21  32  52  77 107 142 176 211 254 322
#     4  10  18  30  42  69 113 144 167 197 244 321
#     4  10  22  36  54  80 104 139 180 216 265 318
#     4  10  22  39  55  74 106 139 179 227 264 303
#     4  10  20  33  49  76 112 138 170 213 259 318
#     4  12  20  28  48  79 113 146 170 198 263 325
#
# _framework density 18.812093000000001
#
# number of rings (size 3 to 8) (size 9 to 14) (size 15 to 20)
#    0.000    1.600    3.000    3.600    5.600    0.000 
#    0.000    0.000    0.000    0.600    0.000    1.400 
#    0.000    0.000    0.000    0.000    0.000    0.000 
#
# Total GULP energy -247888.401734 kJ/mol
# GULP energy per Si atom -12394.420087 kJ/mol
# Density = 1.876928 g / cm^3
# Si number density = 18.812093 Si / 1000 Ang^3
#
#
#
# Elastic Constant Matrix: (Units=GPa)
#
#
# Indices 1 2 3 4 5 6 
#
# 1 102.9388 5.4747 36.9399 -0.0121 1.4637 0.0016
# 2 5.4747 15.1279 13.8487 -0.1160 3.7668 0.0204
# 3 36.9399 13.8487 155.6112 -0.0920 4.6422 0.0235
# 4 -0.0121 -0.1160 -0.0920 4.8114 0.0015 1.5117
# 5 1.4637 3.7668 4.6422 0.0015 31.0353 0.0035
# 6 0.0016 0.0204 0.0235 1.5117 0.0035 28.2429
#
#
#
# Elastic Compliance Matrix: (Units=1/GPa)
#
#
# Indices 1 2 3 4 5 6 
#
# 1 0.010658 -0.001692 -0.002381 -0.000061 0.000059 0.000006
# 2 -0.001692 0.074185 -0.005960 0.001717 -0.008033 -0.000140
# 3 -0.002381 -0.005960 0.007531 -0.000005 -0.000291 -0.000002
# 4 -0.000061 0.001717 -0.000005 0.211437 -0.000214 -0.011319
# 5 0.000059 -0.008033 -0.000291 -0.000214 0.033237 0.000013
# 6 0.000006 -0.000140 -0.000002 -0.011319 0.000013 0.036013
#
#
# Mechanical properties :
#
#
# Convention : Reuss Voigt Hill
#
# Bulk Modulus (GPa) = 13.82992 42.91161 28.37077
# Shear Modulus (GPa) = 11.98380 27.31222 19.64801
#
# Velocity S-wave (km/s) = 2.52668 3.81444 3.23528
# Velocity P-wave (km/s) = 3.98493 6.50078 5.39165
#
# Compressibility (1/GPa) = 0.07230698
#
# Stress axis : x y z
#
# Youngs Moduli (GPa) = 93.82446 13.47984 132.79134
#
# Poissons Ratio (x) = 0.02281 0.31621
# Poissons Ratio (y) = 0.15879 0.79139
# Poissons Ratio (z) = 0.22342 0.08034
#
# Static dielectric constant tensor:
#      x y z
#    x 3.685870 -0.000010 -0.064340 
#    y -0.000010 3.119480 0.000040 
#    z -0.064340 0.000040 3.794600 
# 
# 
# High freq. dielectric constant tensor:
#      x y z
#    x 1.749880 0.000000 -0.000460 
#    y 0.000000 1.661940 0.000010 
#    z -0.000460 0.000010 1.753730 
# 
# From -- ./inp_files/322070.got.cif
#   From: 2010.06.25/outbox.cif.g09.slc.cpg/sg12_162_cif.got.tgz:322070.got - 2010.06.28 00:19:55.
