data_PCOD8081295
_publ_section_title
;
Structure prediction by ZEFSAII (Michael W. Deem and Ramdas Pophale) SiO2 
 PCOD8081295
Probable space group: C 2/M
;
_chemical_formula_sum "Si O2"
_cell_formula_units_Z 56
_cell_length_a 20.643692
_cell_length_b 9.272788
_cell_length_c 18.603966
_cell_angle_alpha 90.000000
_cell_angle_beta 69.160978
_cell_angle_gamma 90.000000
_cell_volume 3328.291831
_symmetry_space_group_name_H-M "C 2/M"
_symmetry_group_IT_number 12
_symmetry_cell_setting 'monoclinic'
loop_
_space_group_symop_operation_xyz
x,y,z
-x,y,-z
-x,-y,-z
x,-y,z
1/2+x,1/2+y,z
1/2-x,1/2+y,-z
1/2-x,1/2-y,-z
1/2+x,1/2-y,z
loop_
_atom_site_type_symbol
_atom_site_label
_atom_site_fract_x
_atom_site_fract_y
_atom_site_fract_z
Si Si1 0.182638 0.668243 0.999957
Si Si2 0.304996 0.832602 0.692210
Si Si3 0.060463 0.829178 0.307988
Si Si4 0.197927 0.334401 0.470834
Si Si5 0.540816 0.831226 0.556231
Si Si6 0.617591 0.659615 0.138787
Si Si7 0.738243 0.159423 0.833654
O O1 0.189890 0.500000 0.014925
O O2 0.117086 0.732336 0.070339
O O3 0.250000 0.750000 0.000000
O O4 0.176556 0.693488 0.915717
O O5 0.374971 0.744533 0.677652
O O6 0.281132 0.809225 0.620088
O O7 0.242388 0.775367 0.767778
O O8 0.319603 0.000000 0.703091
O O9 0.061480 0.795904 0.221723
O O10 0.989888 0.762034 0.366301
O O11 0.064238 0.000000 0.320774
O O12 0.204298 0.500000 0.489481
O O13 0.250000 0.250000 0.500000
O O14 0.119732 0.281605 0.515155
O O15 0.500000 0.793039 0.500000
O O16 0.533739 0.000000 0.577073
O O17 0.601776 0.500000 0.115209
O O18 0.690995 0.662188 0.149684
O O19 0.727162 0.000000 0.804576
#
# Coordination Sequence:
#
# PCOD8081295 Si02
#       7
#     8   8   8   8   8   8   8
#     4   9  15  22  33  51  79 114 151 185 224 273
#     4  10  18  30  46  65  90 122 158 195 237 283
#     4  10  19  29  44  69  94 120 157 198 236 278
#     4  10  22  37  52  71  96 126 158 198 243 284
#     4  10  19  35  53  70  96 124 157 201 240 281
#     4   8  15  25  35  53  85 116 147 187 227 270
#     4   8  15  25  36  56  84 114 151 194 230 271
#
# _framework density 16.825448999999999
#
# number of rings (size 3 to 8) (size 9 to 14) (size 15 to 20)
#    0.000    2.714    1.429    3.000    0.000    8.286 
#    0.000    0.000    0.000    0.000    0.000    0.000 
#    0.000    1.143    0.000   12.571    0.000   11.286 
#
# Total GULP energy -346993.140332 kJ/mol
# GULP energy per Si atom -12392.612155 kJ/mol
# Density = 1.678715 g / cm^3
# Si number density = 16.825449 Si / 1000 Ang^3
#
#
#
# Elastic Constant Matrix: (Units=GPa)
#
#
# Indices 1 2 3 4 5 6 
#
# 1 56.1919 32.5013 37.2743 0.0000 -1.3337 -0.0001
# 2 32.5013 103.1925 82.2558 0.0000 -0.2770 -0.0004
# 3 37.2743 82.2558 158.7394 0.0000 -5.0728 0.0000
# 4 0.0000 0.0000 0.0000 37.6693 0.0000 -0.4799
# 5 -1.3337 -0.2770 -5.0728 0.0000 8.8623 0.0000
# 6 -0.0001 -0.0004 0.0000 -0.4799 0.0000 18.0353
#
#
#
# Elastic Compliance Matrix: (Units=1/GPa)
#
#
# Indices 1 2 3 4 5 6 
#
# 1 0.022462 -0.004957 -0.002652 0.000000 0.001708 0.000000
# 2 -0.004957 0.017779 -0.008205 0.000000 -0.004887 0.000000
# 3 -0.002652 -0.008205 0.011361 0.000000 0.005847 0.000000
# 4 0.000000 0.000000 0.000000 0.026556 0.000000 0.000707
# 5 0.001708 -0.004887 0.005847 0.000000 0.116289 0.000000
# 6 0.000000 0.000000 0.000000 0.000707 0.000000 0.055466
#
#
# Mechanical properties :
#
#
# Convention : Reuss Voigt Hill
#
# Bulk Modulus (GPa) = 50.06024 69.13185 59.59605
# Shear Modulus (GPa) = 17.34920 23.98619 20.66770
#
# Velocity S-wave (km/s) = 3.21460 3.77979 3.50860
# Velocity P-wave (km/s) = 6.60269 7.76054 7.20491
#
# Compressibility (1/GPa) = 0.01997593
#
# Stress axis : x y z
#
# Youngs Moduli (GPa) = 44.51881 56.24642 88.02206
#
# Poissons Ratio (x) = 0.27879 0.23339
# Poissons Ratio (y) = 0.22066 0.72222
# Poissons Ratio (z) = 0.11804 0.46150
#
# Static dielectric constant tensor:
#      x y z
#    x 2.492870 0.000000 -0.100260 
#    y 0.000000 3.355930 0.000000 
#    z -0.100260 0.000000 4.042310 
# 
# 
# High freq. dielectric constant tensor:
#      x y z
#    x 1.564130 0.000000 -0.003860 
#    y 0.000000 1.657630 0.000000 
#    z -0.003860 0.000000 1.675000 
# 
# From -- ./inp_files/314381.got.cif
#   From: 2010.06.25/outbox.cif.g09.slc.cpg/sg12_158_cif.got.tgz:314381.got - 2010.06.28 00:19:55.
