data_PCOD8081647
_publ_section_title
;
Structure prediction by ZEFSAII (Michael W. Deem and Ramdas Pophale) SiO2 
 PCOD8081647
Probable space group: C 2/M
;
_chemical_formula_sum "Si O2"
_cell_formula_units_Z 56
_cell_length_a 23.281024
_cell_length_b 14.066560
_cell_length_c 19.758584
_cell_angle_alpha 90.000000
_cell_angle_beta 149.627181
_cell_angle_gamma 90.000000
_cell_volume 3271.703485
_symmetry_space_group_name_H-M "C 2/M"
_symmetry_group_IT_number 12
_symmetry_cell_setting 'monoclinic'
loop_
_space_group_symop_operation_xyz
x,y,z
-x,y,-z
-x,-y,-z
x,-y,z
1/2+x,1/2+y,z
1/2-x,1/2+y,-z
1/2-x,1/2-y,-z
1/2+x,1/2-y,z
loop_
_atom_site_type_symbol
_atom_site_label
_atom_site_fract_x
_atom_site_fract_y
_atom_site_fract_z
Si Si1 0.575369 0.606042 0.245978
Si Si2 0.053422 0.387104 0.149172
Si Si3 0.402793 0.396408 0.956519
Si Si4 0.088776 0.109976 0.645334
Si Si5 0.782200 0.724550 0.608125
Si Si6 0.168221 0.693523 0.133265
Si Si7 0.428217 0.608942 0.601033
O O1 0.625232 0.500000 0.289119
O O2 0.671708 0.676626 0.312830
O O3 0.546421 0.630247 0.294628
O O4 0.458395 0.617564 0.086844
O O5 0.047657 0.500000 0.138052
O O6 0.113912 0.352298 0.280119
O O7 0.133554 0.343964 0.171833
O O8 0.926699 0.344643 0.015920
O O9 0.339773 0.500000 0.889872
O O10 0.320787 0.308169 0.857962
O O11 0.500000 0.395441 0.000000
O O12 0.209069 0.159775 0.763598
O O13 0.000000 0.151319 0.500000
O O14 0.040932 0.128014 0.672133
O O15 0.109259 0.000000 0.650694
O O16 0.750000 0.750000 0.500000
O O17 0.670619 0.678282 0.528845
O O18 0.387160 0.500000 0.549215
#
# Coordination Sequence:
#
# PCOD8081647 Si02
#       7
#     8   8   8   8   8   8   8
#     4   9  17  31  49  71  98 129 172 218 258 303
#     4  11  20  31  50  80 111 135 162 214 278 319
#     4  10  18  31  52  75 100 128 168 217 260 303
#     4  10  20  33  50  73 103 139 177 208 249 317
#     4  10  18  30  50  72 101 134 173 209 255 306
#     4  11  19  33  52  79 108 136 167 215 269 319
#     4   9  18  31  48  71 100 137 175 210 254 311
#
# _framework density 17.116465000000002
#
# number of rings (size 3 to 8) (size 9 to 14) (size 15 to 20)
#    0.000    2.000    2.857    3.000    0.000    1.714 
#    0.000    0.714    0.000    1.286    0.000    0.000 
#    0.000    0.000    0.000    0.000    0.000    0.000 
#
# Total GULP energy -346948.891667 kJ/mol
# GULP energy per Si atom -12391.031845 kJ/mol
# Density = 1.707751 g / cm^3
# Si number density = 17.116465 Si / 1000 Ang^3
#
#
#
# Elastic Constant Matrix: (Units=GPa)
#
#
# Indices 1 2 3 4 5 6 
#
# 1 64.3416 37.4854 43.5543 0.0000 6.1712 0.0000
# 2 37.4854 130.4360 45.6847 0.0000 12.9054 0.0000
# 3 43.5543 45.6847 95.8016 0.0000 11.4025 0.0000
# 4 0.0000 0.0000 0.0000 33.4480 0.0000 0.8115
# 5 6.1712 12.9054 11.4025 0.0000 28.9231 0.0000
# 6 0.0000 0.0000 0.0000 0.8115 0.0000 15.8406
#
#
#
# Elastic Compliance Matrix: (Units=1/GPa)
#
#
# Indices 1 2 3 4 5 6 
#
# 1 0.023828 -0.003676 -0.009097 0.000000 0.000142 0.000000
# 2 -0.003676 0.009945 -0.002767 0.000000 -0.002563 0.000000
# 3 -0.009097 -0.002767 0.016279 0.000000 -0.003242 0.000000
# 4 0.000000 0.000000 0.000000 0.029934 0.000000 -0.001533
# 5 0.000142 -0.002563 -0.003242 0.000000 0.036966 0.000000
# 6 0.000000 0.000000 0.000000 -0.001533 0.000000 0.063208
#
#
# Mechanical properties :
#
#
# Convention : Reuss Voigt Hill
#
# Bulk Modulus (GPa) = 52.70365 60.44756 56.57560
# Shear Modulus (GPa) = 22.98181 26.56597 24.77389
#
# Velocity S-wave (km/s) = 3.66823 3.94391 3.80856
# Velocity P-wave (km/s) = 6.98564 7.49208 7.24329
#
# Compressibility (1/GPa) = 0.01897402
#
# Stress axis : x y z
#
# Youngs Moduli (GPa) = 41.96780 100.54825 61.42809
#
# Poissons Ratio (x) = 0.36958 0.55881
# Poissons Ratio (y) = 0.15426 0.16995
# Poissons Ratio (z) = 0.38178 0.27818
#
# Static dielectric constant tensor:
#      x y z
#    x 3.079210 0.000000 -0.259770 
#    y 0.000000 3.727790 0.000000 
#    z -0.259770 0.000000 3.326660 
# 
# 
# High freq. dielectric constant tensor:
#      x y z
#    x 1.632710 0.000000 -0.027030 
#    y 0.000000 1.672640 0.000000 
#    z -0.027030 0.000000 1.652360 
# 
# From -- ./inp_files/352082.got.cif
#   From: 2010.06.25/outbox.cif.g09.slc.cpg/sg12_177_cif.got.tgz:352082.got - 2010.06.28 00:19:55.
