data_PCOD8081114
_publ_section_title
;
Structure prediction by ZEFSAII (Michael W. Deem and Ramdas Pophale) SiO2 
 PCOD8081114
Probable space group: C 2/M
;
_chemical_formula_sum "Si O2"
_cell_formula_units_Z 48
_cell_length_a 10.294084
_cell_length_b 26.166345
_cell_length_c 14.850538
_cell_angle_alpha 90.000000
_cell_angle_beta 136.405113
_cell_angle_gamma 90.000000
_cell_volume 2758.302023
_symmetry_space_group_name_H-M "C 2/M"
_symmetry_group_IT_number 12
_symmetry_cell_setting 'monoclinic'
loop_
_space_group_symop_operation_xyz
x,y,z
-x,y,-z
-x,-y,-z
x,-y,z
1/2+x,1/2+y,z
1/2-x,1/2+y,-z
1/2-x,1/2-y,-z
1/2+x,1/2-y,z
loop_
_atom_site_type_symbol
_atom_site_label
_atom_site_fract_x
_atom_site_fract_y
_atom_site_fract_z
Si Si1 0.225830 0.810647 0.220163
Si Si2 0.402623 0.632721 0.159844
Si Si3 0.130856 0.361893 0.870290
Si Si4 0.647394 0.801218 0.152066
Si Si5 0.210744 0.941648 0.369023
Si Si6 0.025927 0.399783 0.640401
O O1 0.223316 0.825729 0.112388
O O2 0.246195 0.749860 0.239956
O O3 0.406095 0.841765 0.352661
O O4 0.038547 0.828147 0.177170
O O5 0.308246 0.661565 0.195876
O O6 0.507474 0.583104 0.250496
O O7 0.242379 0.613024 0.009651
O O8 0.048331 0.405532 0.760434
O O9 0.956514 0.328389 0.817549
O O10 0.500000 0.786071 0.000000
O O11 0.313725 0.910628 0.501639
O O12 0.335508 0.939505 0.340626
O O13 0.181229 0.000000 0.383212
#
# Coordination Sequence:
#
# PCOD8081114 Si02
#       6
#     8   8   8   8   8   8
#     4   9  17  28  52  77 105 139 175 203 239 300
#     4  10  19  31  52  79 107 132 175 214 240 300
#     4   9  18  31  50  75 109 135 164 214 249 285
#     4  10  18  29  49  78 111 147 166 191 255 309
#     4  10  19  36  58  73  95 134 173 215 271 308
#     4   8  18  32  52  74 102 128 167 216 253 298
#
# _framework density 17.402010000000001
#
# number of rings (size 3 to 8) (size 9 to 14) (size 15 to 20)
#    1.000    1.667    0.000    3.500    0.000    2.667 
#    0.000    4.167    7.333    7.500    0.000    0.000 
#    0.000    0.000    0.000    0.000    0.000    0.000 
#
# Total GULP energy -297352.237582 kJ/mol
# GULP energy per Si atom -12389.676566 kJ/mol
# Density = 1.736240 g / cm^3
# Si number density = 17.402010 Si / 1000 Ang^3
#
#
#
# Elastic Constant Matrix: (Units=GPa)
#
#
# Indices 1 2 3 4 5 6 
#
# 1 77.9958 27.2221 20.9801 0.0000 5.4331 0.0000
# 2 27.2221 98.2473 66.5981 0.0000 4.6093 0.0000
# 3 20.9801 66.5981 101.9257 0.0000 -0.1362 0.0000
# 4 0.0000 0.0000 0.0000 17.8367 0.0000 2.0380
# 5 5.4331 4.6093 -0.1362 0.0000 18.8395 0.0000
# 6 0.0000 0.0000 0.0000 2.0380 0.0000 9.0183
#
#
#
# Elastic Compliance Matrix: (Units=1/GPa)
#
#
# Indices 1 2 3 4 5 6 
#
# 1 0.014422 -0.003272 -0.000835 0.000000 -0.003365 0.000000
# 2 -0.003272 0.019413 -0.012016 0.000000 -0.003893 0.000000
# 3 -0.000835 -0.012016 0.017839 0.000000 0.003310 0.000000
# 4 0.000000 0.000000 0.000000 0.057550 0.000000 -0.013006
# 5 -0.003365 -0.003893 0.003310 0.000000 0.055027 0.000000
# 6 0.000000 0.000000 0.000000 -0.013006 0.000000 0.113825
#
#
# Mechanical properties :
#
#
# Convention : Reuss Voigt Hill
#
# Bulk Modulus (GPa) = 51.47415 56.41881 53.94648
# Shear Modulus (GPa) = 15.78295 20.03014 17.90654
#
# Velocity S-wave (km/s) = 3.01485 3.39636 3.21127
# Velocity P-wave (km/s) = 6.46241 6.91893 6.69456
#
# Compressibility (1/GPa) = 0.01942723
#
# Stress axis : x y z
#
# Youngs Moduli (GPa) = 69.33722 51.51227 56.05814
#
# Poissons Ratio (x) = 0.16855 0.04682
# Poissons Ratio (y) = 0.22688 0.67359
# Poissons Ratio (z) = 0.05791 0.61897
#
# Static dielectric constant tensor:
#      x y z
#    x 3.175170 0.000000 -0.035020 
#    y 0.000000 2.913450 0.000000 
#    z -0.035020 0.000000 3.123600 
# 
# 
# High freq. dielectric constant tensor:
#      x y z
#    x 1.665580 0.000000 -0.000500 
#    y 0.000000 1.643100 0.000000 
#    z -0.000500 0.000000 1.657940 
# 
# From -- ./inp_files/265420.got.cif
#   From: 2010.06.25/outbox.cif.g09.slc.cpg/sg12_133_cif.got.tgz:265420.got - 2010.06.28 00:19:55.
