data_PCOD8081292
_publ_section_title
;
Structure prediction by ZEFSAII (Michael W. Deem and Ramdas Pophale) SiO2 
 PCOD8081292
Probable space group: C 2/M
;
_chemical_formula_sum "Si O2"
_cell_formula_units_Z 48
_cell_length_a 25.781850
_cell_length_b 8.602109
_cell_length_c 27.588495
_cell_angle_alpha 90.000000
_cell_angle_beta 151.099095
_cell_angle_gamma 90.000000
_cell_volume 2957.061922
_symmetry_space_group_name_H-M "C 2/M"
_symmetry_group_IT_number 12
_symmetry_cell_setting 'monoclinic'
loop_
_space_group_symop_operation_xyz
x,y,z
-x,y,-z
-x,-y,-z
x,-y,z
1/2+x,1/2+y,z
1/2-x,1/2+y,-z
1/2-x,1/2-y,-z
1/2+x,1/2-y,z
loop_
_atom_site_type_symbol
_atom_site_label
_atom_site_fract_x
_atom_site_fract_y
_atom_site_fract_z
Si Si1 0.329638 0.182352 0.256698
Si Si2 0.720337 0.676036 0.688543
Si Si3 0.654835 0.815852 0.389654
Si Si4 0.977612 0.183430 0.640281
Si Si5 0.211670 0.682011 0.578208
Si Si6 0.881335 0.323385 0.898116
O O1 0.357020 0.254198 0.332439
O O2 0.404409 0.261452 0.277926
O O3 0.205174 0.223192 0.141511
O O4 0.349761 0.000000 0.273723
O O5 0.684712 0.500000 0.646816
O O6 0.712622 0.784401 0.635782
O O7 0.842339 0.678776 0.809815
O O8 0.750000 0.750000 0.500000
O O9 0.545656 0.753647 0.325032
O O10 0.677761 0.750703 0.354412
O O11 0.654767 0.000000 0.388475
O O12 0.892521 0.241179 0.530952
O O13 0.972152 0.000000 0.638920
O O14 0.206050 0.500000 0.564028
O O15 0.882267 0.500000 0.918918
O O16 0.000000 0.249355 0.000000
#
# Coordination Sequence:
#
# PCOD8081292 Si02
#       6
#     8   8   8   8   8   8
#     4  10  19  31  46  70  96 120 153 191 230 276
#     4   9  18  32  47  68  94 122 155 188 227 277
#     4  10  18  30  46  65  88 120 159 195 227 265
#     4  11  20  32  47  65  92 127 160 193 228 269
#     4  11  20  31  46  67  94 125 158 194 229 268
#     4   8  16  32  51  69  92 120 150 186 229 277
#
# _framework density 16.232329
#
# number of rings (size 3 to 8) (size 9 to 14) (size 15 to 20)
#    1.000    1.167    0.000    8.000    0.000    1.000 
#    0.000    3.333    0.000    0.000    0.000    1.167 
#    0.000    0.000    0.000    0.000    0.000    0.000 
#
# Total GULP energy -297382.182080 kJ/mol
# GULP energy per Si atom -12390.924253 kJ/mol
# Density = 1.619538 g / cm^3
# Si number density = 16.232329 Si / 1000 Ang^3
#
#
#
# Elastic Constant Matrix: (Units=GPa)
#
#
# Indices 1 2 3 4 5 6 
#
# 1 85.9396 30.7281 16.5541 -0.0001 30.9809 -0.0002
# 2 30.7281 122.4598 12.1116 0.0001 13.0568 0.0000
# 3 16.5541 12.1116 39.6158 -0.0004 19.9479 -0.0002
# 4 -0.0001 0.0001 -0.0004 17.2761 -0.0001 2.8476
# 5 30.9809 13.0568 19.9479 -0.0001 19.1524 -0.0001
# 6 -0.0002 0.0000 -0.0002 2.8476 -0.0001 31.9022
#
#
#
# Elastic Compliance Matrix: (Units=1/GPa)
#
#
# Indices 1 2 3 4 5 6 
#
# 1 0.045246 -0.003337 0.037475 0.000001 -0.109946 0.000000
# 2 -0.003337 0.009061 -0.002068 0.000000 0.001374 0.000000
# 3 0.037475 -0.002068 0.084174 0.000001 -0.146880 0.000000
# 4 0.000001 0.000000 0.000001 0.058748 -0.000002 -0.005244
# 5 -0.109946 0.001374 -0.146880 -0.000002 0.382106 -0.000001
# 6 0.000000 0.000000 0.000000 -0.005244 -0.000001 0.031814
#
#
# Mechanical properties :
#
#
# Convention : Reuss Voigt Hill
#
# Bulk Modulus (GPa) = 4.93530 40.75586 22.84558
# Shear Modulus (GPa) = 8.13605 26.24089 17.18847
#
# Velocity S-wave (km/s) = 2.24123 4.02504 3.25761
# Velocity P-wave (km/s) = 3.12162 6.83839 5.31545
#
# Compressibility (1/GPa) = 0.20262209
#
# Stress axis : x y z
#
# Youngs Moduli (GPa) = 22.10144 110.35979 11.88010
#
# Poissons Ratio (x) = 0.36828 -0.44521
# Poissons Ratio (y) = 0.07375 0.02457
# Poissons Ratio (z) = -0.82826 0.22821
#
# Static dielectric constant tensor:
#      x y z
#    x 3.424040 0.000000 0.188650 
#    y 0.000000 3.123640 0.000000 
#    z 0.188650 0.000000 2.729430 
# 
# 
# High freq. dielectric constant tensor:
#      x y z
#    x 1.623520 0.000000 0.018720 
#    y 0.000000 1.644270 0.000000 
#    z 0.018720 0.000000 1.571010 
# 
# From -- ./inp_files/367213.got.cif
#   From: 2010.06.25/outbox.cif.g09.slc.cpg/sg12_184_cif.got.tgz:367213.got - 2010.06.28 00:19:55.
