data_PCOD8081244
_publ_section_title
;
Structure prediction by ZEFSAII (Michael W. Deem and Ramdas Pophale) SiO2 
 PCOD8081244
Probable space group: C 2/M
;
_chemical_formula_sum "Si O2"
_cell_formula_units_Z 56
_cell_length_a 29.224036
_cell_length_b 13.354824
_cell_length_c 14.187086
_cell_angle_alpha 90.000000
_cell_angle_beta 38.295242
_cell_angle_gamma 90.000000
_cell_volume 3431.332262
_symmetry_space_group_name_H-M "C 2/M"
_symmetry_group_IT_number 12
_symmetry_cell_setting 'monoclinic'
loop_
_space_group_symop_operation_xyz
x,y,z
-x,y,-z
-x,-y,-z
x,-y,z
1/2+x,1/2+y,z
1/2-x,1/2+y,-z
1/2-x,1/2-y,-z
1/2+x,1/2-y,z
loop_
_atom_site_type_symbol
_atom_site_label
_atom_site_fract_x
_atom_site_fract_y
_atom_site_fract_z
Si Si1 0.259157 0.112806 0.619302
Si Si2 0.893218 0.198054 0.173958
Si Si3 0.569309 0.111099 0.317601
Si Si4 0.014126 0.288968 0.698606
Si Si5 0.908813 0.613923 0.261815
Si Si6 0.501067 0.616049 0.849643
Si Si7 0.140762 0.616076 0.381509
O O1 0.194654 0.186709 0.691780
O O2 0.331476 0.131897 0.439972
O O3 0.280041 0.132088 0.696145
O O4 0.230051 0.000000 0.653225
O O5 0.910906 0.314601 0.166804
O O6 0.924915 0.129993 0.207914
O O7 0.931079 0.164455 0.015969
O O8 0.500000 0.117714 0.500000
O O9 0.559451 0.182940 0.242733
O O10 0.641150 0.136973 0.267482
O O11 0.577188 0.000000 0.263046
O O12 0.024052 0.356680 0.776653
O O13 0.084086 0.306079 0.519050
O O14 0.009345 0.172563 0.736341
O O15 0.918291 0.500000 0.212505
O O16 0.486869 0.500000 0.852292
O O17 0.114781 0.500000 0.442393
#
# Coordination Sequence:
#
# PCOD8081244 Si02
#       7
#     8   8   8   8   8   8   8
#     4   9  15  25  43  63  83 106 133 166 200 233
#     4  10  18  30  44  57  77 111 142 168 201 231
#     4   8  12  21  40  64  87 106 124 154 199 247
#     4   9  15  25  41  59  83 110 129 157 203 239
#     4   9  17  27  40  64  89 103 126 164 204 249
#     4  10  20  31  41  56  78 106 146 179 192 224
#     4   8  14  24  42  69  90 102 125 163 203 246
#
# _framework density 16.320191999999999
#
# number of rings (size 3 to 8) (size 9 to 14) (size 15 to 20)
#    0.000    3.000    0.000    5.143    0.000    0.000 
#    0.000    7.143    0.000    4.714    0.000    0.000 
#    0.000    0.000    0.000    0.000    0.000    0.000 
#
# Total GULP energy -346905.758985 kJ/mol
# GULP energy per Si atom -12389.491392 kJ/mol
# Density = 1.628305 g / cm^3
# Si number density = 16.320192 Si / 1000 Ang^3
#
#
#
# Elastic Constant Matrix: (Units=GPa)
#
#
# Indices 1 2 3 4 5 6 
#
# 1 92.8256 51.3028 26.6267 0.0000 8.7078 0.0000
# 2 51.3028 119.4297 31.4912 0.0000 11.4632 0.0000
# 3 26.6267 31.4912 28.6219 0.0000 3.1609 0.0000
# 4 0.0000 0.0000 0.0000 17.0285 0.0000 3.4701
# 5 8.7078 11.4632 3.1609 0.0000 12.7677 0.0000
# 6 0.0000 0.0000 0.0000 3.4701 0.0000 22.5158
#
#
#
# Elastic Compliance Matrix: (Units=1/GPa)
#
#
# Indices 1 2 3 4 5 6 
#
# 1 0.016347 -0.003756 -0.010504 0.000000 -0.005177 0.000000
# 2 -0.003756 0.013418 -0.010509 0.000000 -0.006884 0.000000
# 3 -0.010504 -0.010509 0.055970 0.000000 0.002743 0.000000
# 4 0.000000 0.000000 0.000000 0.060629 0.000000 -0.009344
# 5 -0.005177 -0.006884 0.002743 0.000000 0.087355 0.000000
# 6 0.000000 0.000000 0.000000 -0.009344 0.000000 0.045853
#
#
# Mechanical properties :
#
#
# Convention : Reuss Voigt Hill
#
# Bulk Modulus (GPa) = 27.62599 51.07985 39.35292
# Shear Modulus (GPa) = 14.65517 19.22616 16.94066
#
# Velocity S-wave (km/s) = 2.99988 3.43601 3.22532
# Velocity P-wave (km/s) = 5.38175 6.86353 6.16731
#
# Compressibility (1/GPa) = 0.03619779
#
# Stress axis : x y z
#
# Youngs Moduli (GPa) = 61.17278 74.52512 17.86674
#
# Poissons Ratio (x) = 0.27989 0.18767
# Poissons Ratio (y) = 0.22974 0.18777
# Poissons Ratio (z) = 0.64254 0.78321
#
# Static dielectric constant tensor:
#      x y z
#    x 3.496500 0.000000 0.056340 
#    y 0.000000 2.973990 0.000000 
#    z 0.056340 0.000000 2.633590 
# 
# 
# High freq. dielectric constant tensor:
#      x y z
#    x 1.636080 0.000000 0.000070 
#    y 0.000000 1.611800 0.000000 
#    z 0.000070 0.000000 1.574240 
# 
# From -- ./inp_files/231989.got.cif
#   From: 2010.06.25/outbox.cif.g09.slc.cpg/sg12_116_cif.got.tgz:231989.got - 2010.06.28 00:19:55.
