data_PCOD8081746
_publ_section_title
;
Structure prediction by ZEFSAII (Michael W. Deem and Ramdas Pophale) SiO2 
 PCOD8081746
Probable space group: C 2/M
;
_chemical_formula_sum "Si O2"
_cell_formula_units_Z 56
_cell_length_a 18.992395
_cell_length_b 8.841497
_cell_length_c 31.028281
_cell_angle_alpha 90.000000
_cell_angle_beta 34.948804
_cell_angle_gamma 90.000000
_cell_volume 2984.694066
_symmetry_space_group_name_H-M "C 2/M"
_symmetry_group_IT_number 12
_symmetry_cell_setting 'monoclinic'
loop_
_space_group_symop_operation_xyz
x,y,z
-x,y,-z
-x,-y,-z
x,-y,z
1/2+x,1/2+y,z
1/2-x,1/2+y,-z
1/2-x,1/2-y,-z
1/2+x,1/2-y,z
loop_
_atom_site_type_symbol
_atom_site_label
_atom_site_fract_x
_atom_site_fract_y
_atom_site_fract_z
Si Si1 0.280652 0.676780 0.051547
Si Si2 0.360607 0.324229 0.419229
Si Si3 0.121593 0.321315 0.298095
Si Si4 0.827154 0.822730 0.815134
Si Si5 0.104772 0.172750 0.695667
Si Si6 0.190264 0.676805 0.735959
Si Si7 0.933402 0.323783 0.906275
O O1 0.288954 0.500000 0.056311
O O2 0.273674 0.761824 0.100764
O O3 0.160887 0.722103 0.084070
O O4 0.402056 0.731498 0.965365
O O5 0.371647 0.500000 0.425389
O O6 0.250000 0.250000 0.500000
O O7 0.485855 0.245120 0.370617
O O8 0.335394 0.302135 0.381138
O O9 0.112893 0.500000 0.299520
O O10 0.192572 0.257751 0.220719
O O11 0.196400 0.271963 0.302734
O O12 0.961719 0.782629 0.765606
O O13 0.809994 0.000000 0.816245
O O14 0.173553 0.282230 0.694258
O O15 0.119801 0.000000 0.703463
O O16 0.218279 0.500000 0.725932
O O17 0.068537 0.722746 0.823407
O O18 0.922207 0.500000 0.922540
#
# Coordination Sequence:
#
# PCOD8081746 Si02
#       7
#     8   8   8   8   8   8   8
#     4  10  18  30  50  78 107 142 189 236 282 332
#     4  10  21  40  64  91 118 147 182 223 270 324
#     4  11  23  38  58  83 114 149 185 227 277 331
#     4  10  19  34  55  79 109 145 188 236 281 330
#     4   9  19  34  56  84 112 144 183 224 270 325
#     4  11  21  36  56  81 114 148 187 230 278 333
#     4   9  19  32  48  75 109 146 184 231 284 331
#
# _framework density 18.762391999999998
#
# number of rings (size 3 to 8) (size 9 to 14) (size 15 to 20)
#    0.000    2.000    1.429    3.857    0.000    4.571 
#    0.000    1.429    0.000    8.571    0.000    0.000 
#    0.000    0.000    0.000    0.000    0.000    0.000 
#
# Total GULP energy -347316.920746 kJ/mol
# GULP energy per Si atom -12404.175741 kJ/mol
# Density = 1.871969 g / cm^3
# Si number density = 18.762392 Si / 1000 Ang^3
#
#
#
# Elastic Constant Matrix: (Units=GPa)
#
#
# Indices 1 2 3 4 5 6 
#
# 1 83.0779 44.1761 29.9959 0.0067 3.4728 0.0484
# 2 44.1761 111.3848 44.3182 -0.0096 5.0507 0.0044
# 3 29.9959 44.3182 96.4187 -0.0041 8.5885 0.0072
# 4 0.0067 -0.0096 -0.0041 36.0126 -0.0012 4.1509
# 5 3.4728 5.0507 8.5885 -0.0012 19.5499 0.0039
# 6 0.0484 0.0044 0.0072 4.1509 0.0039 30.5455
#
#
#
# Elastic Compliance Matrix: (Units=1/GPa)
#
#
# Indices 1 2 3 4 5 6 
#
# 1 0.015726 -0.005246 -0.002449 -0.000002 -0.000362 -0.000023
# 2 -0.005246 0.012745 -0.004179 0.000003 -0.000525 0.000007
# 3 -0.002449 -0.004179 0.013445 0.000001 -0.004392 0.000002
# 4 -0.000002 0.000003 0.000001 0.028210 0.000002 -0.003833
# 5 -0.000362 -0.000525 -0.004392 0.000002 0.053281 -0.000005
# 6 -0.000023 0.000007 0.000002 -0.003833 -0.000005 0.033259
#
#
# Mechanical properties :
#
#
# Convention : Reuss Voigt Hill
#
# Bulk Modulus (GPa) = 55.04199 58.65129 56.84664
# Shear Modulus (GPa) = 26.81386 28.71435 27.76411
#
# Velocity S-wave (km/s) = 3.78448 3.91630 3.85096
# Velocity P-wave (km/s) = 6.96394 7.19568 7.08076
#
# Compressibility (1/GPa) = 0.01816795
#
# Stress axis : x y z
#
# Youngs Moduli (GPa) = 63.58968 78.46011 74.37449
#
# Poissons Ratio (x) = 0.41162 0.18211
# Poissons Ratio (y) = 0.33361 0.31084
# Poissons Ratio (z) = 0.15571 0.32792
#
# Static dielectric constant tensor:
#      x y z
#    x 3.261240 -0.000040 0.104730 
#    y -0.000040 3.455710 0.000020 
#    z 0.104730 0.000020 3.405890 
# 
# 
# High freq. dielectric constant tensor:
#      x y z
#    x 1.711410 0.000000 0.012110 
#    y 0.000000 1.739160 0.000000 
#    z 0.012110 0.000000 1.722260 
# 
# From -- ./inp_files/275022.got.cif
#   From: 2010.06.25/outbox.cif.g09.slc.cpg/sg12_138_cif.got.tgz:275022.got - 2010.06.28 00:19:55.
