data_PCOD8081809
_publ_section_title
;
Structure prediction by ZEFSAII (Michael W. Deem and Ramdas Pophale) SiO2 
 PCOD8081809
Probable space group: C 2/M
;
_chemical_formula_sum "Si O2"
_cell_formula_units_Z 56
_cell_length_a 18.560183
_cell_length_b 9.135645
_cell_length_c 20.128918
_cell_angle_alpha 90.000000
_cell_angle_beta 63.952953
_cell_angle_gamma 90.000000
_cell_volume 3066.394131
_symmetry_space_group_name_H-M "C 2/M"
_symmetry_group_IT_number 12
_symmetry_cell_setting 'monoclinic'
loop_
_space_group_symop_operation_xyz
x,y,z
-x,y,-z
-x,-y,-z
x,-y,z
1/2+x,1/2+y,z
1/2-x,1/2+y,-z
1/2-x,1/2-y,-z
1/2+x,1/2-y,z
loop_
_atom_site_type_symbol
_atom_site_label
_atom_site_fract_x
_atom_site_fract_y
_atom_site_fract_z
Si Si1 0.813086 0.828398 0.209750
Si Si2 0.707324 0.170518 0.920373
Si Si3 0.503575 0.326447 0.347116
Si Si4 0.369060 0.670649 0.931475
Si Si5 0.080167 0.338669 0.510337
Si Si6 0.023416 0.173539 0.790442
Si Si7 0.152684 0.329156 0.349744
O O1 0.799392 0.741790 0.148258
O O2 0.894147 0.769991 0.210989
O O3 0.741438 0.792357 0.289283
O O4 0.817880 0.000000 0.191399
O O5 0.796449 0.201758 0.910631
O O6 0.688596 0.000000 0.922703
O O7 0.642188 0.241868 0.995705
O O8 0.508109 0.500000 0.348901
O O9 0.431143 0.273254 0.424310
O O10 0.484179 0.267484 0.281405
O O11 0.589468 0.263344 0.332952
O O12 0.375216 0.500000 0.946802
O O13 0.449423 0.731379 0.864501
O O14 0.099662 0.500000 0.531394
O O15 0.148902 0.287842 0.430100
O O16 0.000000 0.344496 0.500000
O O17 0.021217 0.000000 0.789429
O O18 0.130990 0.500000 0.349239
#
# Coordination Sequence:
#
# PCOD8081809 Si02
#       7
#     8   8   8   8   8   8   8
#     4  10  20  35  53  71  96 133 170 198 235 292
#     4  10  20  34  53  78 103 124 156 205 249 284
#     4  10  18  30  51  76 100 126 161 206 248 285
#     4   9  18  35  56  74  96 129 164 197 239 292
#     4   8  15  29  47  70  99 128 161 200 242 289
#     4   9  19  34  51  72  98 130 167 202 237 285
#     4   9  18  32  51  73  97 128 165 203 242 288
#
# _framework density 18.262492000000002
#
# number of rings (size 3 to 8) (size 9 to 14) (size 15 to 20)
#    0.000    2.714    0.000    2.571    0.000    5.429 
#    0.000    7.143    0.000    0.000    0.000    0.000 
#    0.000    0.000    0.000    0.000    0.000    0.000 
#
# Total GULP energy -347161.710830 kJ/mol
# GULP energy per Si atom -12398.632530 kJ/mol
# Density = 1.822093 g / cm^3
# Si number density = 18.262492 Si / 1000 Ang^3
#
#
#
# Elastic Constant Matrix: (Units=GPa)
#
#
# Indices 1 2 3 4 5 6 
#
# 1 71.6930 35.7928 69.0913 0.0000 -19.9448 0.0000
# 2 35.7928 63.4067 56.7621 0.0000 -5.3833 -0.0002
# 3 69.0913 56.7621 182.2614 0.0000 -21.6137 0.0000
# 4 0.0000 0.0000 0.0000 31.9232 0.0000 4.0297
# 5 -19.9448 -5.3833 -21.6137 0.0000 8.1870 0.0000
# 6 0.0000 -0.0002 0.0000 4.0297 0.0000 16.1500
#
#
#
# Elastic Compliance Matrix: (Units=1/GPa)
#
#
# Indices 1 2 3 4 5 6 
#
# 1 0.068905 -0.025938 -0.000231 0.000000 0.150196 0.000000
# 2 -0.025938 0.031787 -0.007398 0.000000 -0.061817 0.000000
# 3 -0.000231 -0.007398 0.010532 0.000000 0.022376 0.000000
# 4 0.000000 0.000000 0.000000 0.032344 0.000000 -0.008070
# 5 0.150196 -0.061817 0.022376 0.000000 0.506471 -0.000001
# 6 0.000000 0.000000 0.000000 -0.008070 -0.000001 0.063933
#
#
# Mechanical properties :
#
#
# Convention : Reuss Voigt Hill
#
# Bulk Modulus (GPa) = 22.68070 71.18373 46.93221
# Shear Modulus (GPa) = 6.28298 21.63303 13.95800
#
# Velocity S-wave (km/s) = 1.85684 3.44548 2.76759
# Velocity P-wave (km/s) = 4.12836 7.40886 5.99727
#
# Compressibility (1/GPa) = 0.04409034
#
# Stress axis : x y z
#
# Youngs Moduli (GPa) = 14.51279 31.45929 94.95166
#
# Poissons Ratio (x) = 0.81598 0.02195
# Poissons Ratio (y) = 0.37643 0.70243
# Poissons Ratio (z) = 0.00336 0.23273
#
# Static dielectric constant tensor:
#      x y z
#    x 3.233690 0.000000 -0.125050 
#    y 0.000000 3.227300 0.000000 
#    z -0.125050 0.000000 3.873640 
# 
# 
# High freq. dielectric constant tensor:
#      x y z
#    x 1.682670 0.000000 -0.003500 
#    y 0.000000 1.692300 0.000000 
#    z -0.003500 0.000000 1.729140 
# 
# From -- ./inp_files/313666.got.cif
#   From: 2010.06.25/outbox.cif.g09.slc.cpg/sg12_157_cif.got.tgz:313666.got - 2010.06.28 00:19:55.
