data_PCOD8081040
_publ_section_title
;
Structure prediction by ZEFSAII (Michael W. Deem and Ramdas Pophale) SiO2 
 PCOD8081040
Probable space group: C 2/M
;
_chemical_formula_sum "Si O2"
_cell_formula_units_Z 64
_cell_length_a 19.723638
_cell_length_b 19.360385
_cell_length_c 16.825768
_cell_angle_alpha 90.000000
_cell_angle_beta 30.452324
_cell_angle_gamma 90.000000
_cell_volume 3256.347179
_symmetry_space_group_name_H-M "C 2/M"
_symmetry_group_IT_number 12
_symmetry_cell_setting 'monoclinic'
loop_
_space_group_symop_operation_xyz
x,y,z
-x,y,-z
-x,-y,-z
x,-y,z
1/2+x,1/2+y,z
1/2-x,1/2+y,-z
1/2-x,1/2-y,-z
1/2+x,1/2-y,z
loop_
_atom_site_type_symbol
_atom_site_label
_atom_site_fract_x
_atom_site_fract_y
_atom_site_fract_z
Si Si1 0.793866 0.921585 0.858609
Si Si2 0.966242 0.575104 0.442716
Si Si3 0.232453 0.787280 0.859542
Si Si4 0.316988 0.206393 0.600510
Si Si5 0.950731 0.660741 0.962053
Si Si6 0.538559 0.292216 0.296158
Si Si7 0.246558 0.925153 0.915231
Si Si8 0.382067 0.247509 0.310914
O O1 0.919128 0.869483 0.717803
O O2 0.827288 0.000000 0.795586
O O3 0.659253 0.895820 0.951185
O O4 0.770454 0.920288 0.974839
O O5 0.898563 0.500000 0.498590
O O6 0.867089 0.634256 0.512949
O O7 0.000000 0.586735 0.500000
O O8 0.096814 0.581976 0.258008
O O9 0.319914 0.795253 0.692010
O O10 0.334082 0.758199 0.823230
O O11 0.172933 0.861835 0.945609
O O12 0.109273 0.737338 0.969727
O O13 0.412929 0.269306 0.476556
O O14 0.165551 0.213975 0.721238
O O15 0.064862 0.672193 0.777226
O O16 0.000000 0.637768 0.000000
O O17 0.499234 0.286490 0.241937
O O18 0.193778 0.000000 0.936944
O O19 0.250000 0.250000 0.500000
#
# Coordination Sequence:
#
# PCOD8081040 Si02
#       8
#     8   8   8   8   8   8   8   8
#     4  10  23  40  61  83 111 154 202 253 300 350
#     4  10  18  29  48  78 116 149 184 227 273 335
#     4  11  19  33  59  86 116 148 191 244 291 340
#     4  11  19  33  55  85 120 154 186 236 291 349
#     4  11  22  38  59  88 115 146 195 252 303 355
#     4  10  20  36  57  82 111 150 197 238 295 343
#     4  10  19  32  53  83 114 148 191 235 281 338
#     4  10  22  36  56  87 119 152 186 239 294 356
#
# _framework density 19.653924
#
# number of rings (size 3 to 8) (size 9 to 14) (size 15 to 20)
#    0.000    1.625    3.750    1.875    1.750    2.250 
#    0.000    0.625    0.000   10.125    0.000    0.000 
#    0.000    0.000    0.000    0.000    0.000    0.000 
#
# Total GULP energy -396460.524426 kJ/mol
# GULP energy per Si atom -12389.391388 kJ/mol
# Density = 1.960919 g / cm^3
# Si number density = 19.653924 Si / 1000 Ang^3
#
#
#
# Elastic Constant Matrix: (Units=GPa)
#
#
# Indices 1 2 3 4 5 6 
#
# 1 73.4458 43.9740 17.7695 0.0114 -11.9382 -0.0031
# 2 43.9740 149.9134 25.6063 0.0107 -3.5778 -0.0045
# 3 17.7695 25.6063 58.2834 0.0140 4.1493 -0.0065
# 4 0.0114 0.0107 0.0140 25.0550 -0.0079 -0.6082
# 5 -11.9382 -3.5778 4.1493 -0.0079 25.7523 0.0028
# 6 -0.0031 -0.0045 -0.0065 -0.6082 0.0028 23.9946
#
#
#
# Elastic Compliance Matrix: (Units=1/GPa)
#
#
# Indices 1 2 3 4 5 6 
#
# 1 0.018838 -0.004571 -0.004362 -0.000001 0.008801 -0.000001
# 2 -0.004571 0.008381 -0.002246 0.000000 -0.000593 0.000000
# 3 -0.004362 -0.002246 0.019868 -0.000010 -0.005535 0.000005
# 4 -0.000001 0.000000 -0.000010 0.039937 0.000013 0.001012
# 5 0.008801 -0.000593 -0.005535 0.000013 0.043721 -0.000005
# 6 -0.000001 0.000000 0.000005 0.001012 -0.000005 0.041702
#
#
# Mechanical properties :
#
#
# Convention : Reuss Voigt Hill
#
# Bulk Modulus (GPa) = 40.43755 50.70467 45.57111
# Shear Modulus (GPa) = 24.62488 27.91325 26.26907
#
# Velocity S-wave (km/s) = 3.54351 3.77269 3.65989
# Velocity P-wave (km/s) = 6.11240 6.69570 6.41068
#
# Compressibility (1/GPa) = 0.02472949
#
# Stress axis : x y z
#
# Youngs Moduli (GPa) = 53.08472 119.32083 50.33134
#
# Poissons Ratio (x) = 0.54537 0.21953
# Poissons Ratio (y) = 0.24263 0.11306
# Poissons Ratio (z) = 0.23154 0.26803
#
# Static dielectric constant tensor:
#      x y z
#    x 3.734150 -0.000010 0.258060 
#    y -0.000010 3.972930 0.000010 
#    z 0.258060 0.000010 2.843910 
# 
# 
# High freq. dielectric constant tensor:
#      x y z
#    x 1.762620 0.000000 0.012040 
#    y 0.000000 1.754050 0.000000 
#    z 0.012040 0.000000 1.760190 
# 
# From -- ./inp_files/285175.got.cif
#   From: 2010.06.25/outbox.cif.g09.slc.cpg/sg12_143_cif.got.tgz:285175.got - 2010.06.28 00:19:55.
