data_PCOD8081952
_publ_section_title
;
Structure prediction by ZEFSAII (Michael W. Deem and Ramdas Pophale) SiO2 
 PCOD8081952
Probable space group: C 2/M
;
_chemical_formula_sum "Si O2"
_cell_formula_units_Z 48
_cell_length_a 22.078806
_cell_length_b 15.089705
_cell_length_c 18.106497
_cell_angle_alpha 90.000000
_cell_angle_beta 153.699103
_cell_angle_gamma 90.000000
_cell_volume 2672.871247
_symmetry_space_group_name_H-M "C 2/M"
_symmetry_group_IT_number 12
_symmetry_cell_setting 'monoclinic'
loop_
_space_group_symop_operation_xyz
x,y,z
-x,y,-z
-x,-y,-z
x,-y,z
1/2+x,1/2+y,z
1/2-x,1/2+y,-z
1/2-x,1/2-y,-z
1/2+x,1/2-y,z
loop_
_atom_site_type_symbol
_atom_site_label
_atom_site_fract_x
_atom_site_fract_y
_atom_site_fract_z
Si Si1 0.079185 0.401795 0.955918
Si Si2 0.315277 0.602369 0.944595
Si Si3 0.938390 0.189694 0.699225
Si Si4 0.638052 0.825159 0.868889
Si Si5 0.347940 0.251278 0.862707
Si Si6 0.201844 0.313341 0.342760
O O1 0.113362 0.500000 0.022207
O O2 0.130363 0.394194 0.927898
O O3 0.916985 0.386858 0.790307
O O4 0.164761 0.329577 0.094259
O O5 0.327331 0.500000 0.935286
O O6 0.173512 0.619383 0.833999
O O7 0.305849 0.658843 0.858836
O O8 0.443597 0.626865 0.138399
O O9 0.853845 0.226936 0.675738
O O10 0.832502 0.142060 0.527134
O O11 0.995268 0.272077 0.712456
O O12 0.750000 0.750000 0.000000
O O13 0.254531 0.223939 0.690554
O O14 0.500000 0.264450 0.000000
#
# Coordination Sequence:
#
# PCOD8081952 Si02
#       6
#     8   8   8   8   8   8
#     4  10  18  30  53  78 102 132 172 217 256 302
#     4  11  20  32  55  79 103 136 178 220 256 306
#     4   9  17  34  53  74  98 137 172 211 259 300
#     4   9  16  33  53  72  99 133 177 212 251 305
#     4  10  18  34  48  77 107 137 173 207 262 311
#     4   9  18  32  52  72 107 134 167 211 258 313
#
# _framework density 17.958217000000001
#
# number of rings (size 3 to 8) (size 9 to 14) (size 15 to 20)
#    0.000    2.333    6.667    0.500    0.000    4.000 
#    0.000    0.833    0.000    3.000    0.000    3.500 
#    0.000    0.000    0.000    0.000    0.000    0.000 
#
# Total GULP energy -297334.268337 kJ/mol
# GULP energy per Si atom -12388.927847 kJ/mol
# Density = 1.791734 g / cm^3
# Si number density = 17.958217 Si / 1000 Ang^3
#
#
#
# Elastic Constant Matrix: (Units=GPa)
#
#
# Indices 1 2 3 4 5 6 
#
# 1 100.9875 35.8090 7.4351 0.0000 -3.6808 -0.0001
# 2 35.8090 117.3407 7.0943 0.0000 -4.6176 0.0000
# 3 7.4351 7.0943 36.8447 0.0001 -4.1017 0.0000
# 4 0.0000 0.0000 0.0001 10.9522 0.0000 2.2492
# 5 -3.6808 -4.6176 -4.1017 0.0000 14.3834 0.0000
# 6 -0.0001 0.0000 0.0000 2.2492 0.0000 17.0514
#
#
#
# Elastic Compliance Matrix: (Units=1/GPa)
#
#
# Indices 1 2 3 4 5 6 
#
# 1 0.011225 -0.003281 -0.001478 0.000000 0.001398 0.000000
# 2 -0.003281 0.009661 -0.000977 0.000000 0.001983 0.000000
# 3 -0.001478 -0.000977 0.028454 0.000000 0.007422 0.000000
# 4 0.000000 0.000000 0.000000 0.093848 0.000000 -0.012379
# 5 0.001398 0.001983 0.007422 0.000000 0.072636 0.000000
# 6 0.000000 0.000000 0.000000 -0.012379 0.000000 0.060279
#
#
# Mechanical properties :
#
#
# Convention : Reuss Voigt Hill
#
# Bulk Modulus (GPa) = 26.40820 39.53884 32.97352
# Shear Modulus (GPa) = 16.65568 22.13302 19.39435
#
# Velocity S-wave (km/s) = 3.04874 3.51447 3.28986
# Velocity P-wave (km/s) = 5.20868 6.20754 5.72992
#
# Compressibility (1/GPa) = 0.03786702
#
# Stress axis : x y z
#
# Youngs Moduli (GPa) = 89.08294 103.51233 35.14492
#
# Poissons Ratio (x) = 0.33966 0.05194
# Poissons Ratio (y) = 0.29231 0.03434
# Poissons Ratio (z) = 0.13165 0.10115
#
# Static dielectric constant tensor:
#      x y z
#    x 3.734800 0.000000 0.020210 
#    y 0.000000 3.161850 0.000000 
#    z 0.020210 0.000000 3.376860 
# 
# 
# High freq. dielectric constant tensor:
#      x y z
#    x 1.706380 0.000000 -0.000450 
#    y 0.000000 1.675590 0.000000 
#    z -0.000450 0.000000 1.659690 
# 
# From -- ./inp_files/284107.got.cif
#   From: 2010.06.25/outbox.cif.g09.slc.cpg/sg12_143_cif.got.tgz:284107.got - 2010.06.28 00:19:55.
