data_PCOD8081124
_publ_section_title
;
Structure prediction by ZEFSAII (Michael W. Deem and Ramdas Pophale) SiO2 
 PCOD8081124
Probable space group: C 2/M
;
_chemical_formula_sum "Si O2"
_cell_formula_units_Z 64
_cell_length_a 33.847554
_cell_length_b 8.889343
_cell_length_c 15.155080
_cell_angle_alpha 90.000000
_cell_angle_beta 45.875835
_cell_angle_gamma 90.000000
_cell_volume 3273.244458
_symmetry_space_group_name_H-M "C 2/M"
_symmetry_group_IT_number 12
_symmetry_cell_setting 'monoclinic'
loop_
_space_group_symop_operation_xyz
x,y,z
-x,y,-z
-x,-y,-z
x,-y,z
1/2+x,1/2+y,z
1/2-x,1/2+y,-z
1/2-x,1/2-y,-z
1/2+x,1/2-y,z
loop_
_atom_site_type_symbol
_atom_site_label
_atom_site_fract_x
_atom_site_fract_y
_atom_site_fract_z
Si Si1 0.728901 0.171621 0.885200
Si Si2 0.383776 0.830447 0.845496
Si Si3 0.059030 0.323750 0.752460
Si Si4 0.338880 0.175626 0.735943
Si Si5 0.879606 0.674789 0.164038
Si Si6 0.150902 0.677224 0.477833
Si Si7 0.942547 0.823467 0.906733
Si Si8 0.226643 0.822836 0.706798
O O1 0.785020 0.227623 0.843115
O O2 0.713866 0.278888 0.827172
O O3 0.735839 0.000000 0.841735
O O4 0.680169 0.185756 0.030876
O O5 0.385638 0.793055 0.737495
O O6 0.422625 0.718260 0.839213
O O7 0.404850 0.000000 0.830902
O O8 0.047696 0.500000 0.753991
O O9 0.079096 0.294211 0.820369
O O10 0.104185 0.256277 0.614371
O O11 0.004193 0.231379 0.823757
O O12 0.361818 0.223196 0.603745
O O13 0.322115 0.000000 0.761417
O O14 0.872241 0.500000 0.156733
O O15 0.819575 0.742825 0.281787
O O16 0.902762 0.747825 0.039476
O O17 0.150429 0.500000 0.489865
O O18 0.211671 0.734752 0.412929
O O19 0.939936 0.000000 0.924279
O O20 0.221130 0.000000 0.703563
#
# Coordination Sequence:
#
# PCOD8081124 Si02
#       8
#     8   8   8   8   8   8   8   8
#     4  10  18  29  49  79 116 152 185 221 272 330
#     4  10  20  34  54  81 113 149 186 225 274 333
#     4  10  22  41  62  80 107 150 191 231 277 333
#     4   9  18  33  55  82 113 148 186 226 270 325
#     4  11  22  37  59  86 113 144 184 228 284 342
#     4   8  17  36  59  83 113 149 189 226 269 325
#     4  12  25  39  58  83 112 145 185 237 287 330
#     4  10  19  33  56  85 117 150 184 227 275 326
#
# _framework density 19.552465999999999
#
# number of rings (size 3 to 8) (size 9 to 14) (size 15 to 20)
#    0.000    2.000    1.250    3.750    0.000    4.000 
#    0.000    3.750    0.000    3.750    0.000    0.000 
#    0.000    0.000    0.000    0.000    0.000    0.000 
#
# Total GULP energy -396760.713660 kJ/mol
# GULP energy per Si atom -12398.772302 kJ/mol
# Density = 1.950796 g / cm^3
# Si number density = 19.552466 Si / 1000 Ang^3
#
#
#
# Elastic Constant Matrix: (Units=GPa)
#
#
# Indices 1 2 3 4 5 6 
#
# 1 114.1797 51.3906 35.9738 0.0000 -3.3308 -0.0001
# 2 51.3906 81.0148 25.3022 -0.0001 0.1322 0.0001
# 3 35.9738 25.3022 67.7267 0.0000 -5.1508 0.0000
# 4 0.0000 -0.0001 0.0000 18.2888 0.0000 -8.1815
# 5 -3.3308 0.1322 -5.1508 0.0000 11.9315 0.0000
# 6 -0.0001 0.0001 0.0000 -8.1815 0.0000 31.5951
#
#
#
# Elastic Compliance Matrix: (Units=1/GPa)
#
#
# Indices 1 2 3 4 5 6 
#
# 1 0.013387 -0.007156 -0.004288 0.000000 0.001965 0.000000
# 2 -0.007156 0.017871 -0.003146 0.000000 -0.003554 0.000000
# 3 -0.004288 -0.003146 0.018745 0.000000 0.006930 0.000000
# 4 0.000000 0.000000 0.000000 0.061842 0.000000 0.016014
# 5 0.001965 -0.003554 0.006930 0.000000 0.087391 0.000000
# 6 0.000000 0.000000 0.000000 0.016014 0.000000 0.035797
#
#
# Mechanical properties :
#
#
# Convention : Reuss Voigt Hill
#
# Bulk Modulus (GPa) = 48.02151 54.25052 51.13601
# Shear Modulus (GPa) = 18.43968 22.38006 20.40987
#
# Velocity S-wave (km/s) = 3.07430 3.38689 3.23437
# Velocity P-wave (km/s) = 6.10045 6.56514 6.33705
#
# Compressibility (1/GPa) = 0.02082400
#
# Stress axis : x y z
#
# Youngs Moduli (GPa) = 74.69801 55.95647 53.34745
#
# Poissons Ratio (x) = 0.40043 0.22875
# Poissons Ratio (y) = 0.53454 0.16782
# Poissons Ratio (z) = 0.32029 0.17602
#
# Static dielectric constant tensor:
#      x y z
#    x 3.669190 0.000000 0.004700 
#    y 0.000000 3.491970 0.000000 
#    z 0.004700 0.000000 3.680680 
# 
# 
# High freq. dielectric constant tensor:
#      x y z
#    x 1.769010 0.000000 0.002850 
#    y 0.000000 1.748200 0.000000 
#    z 0.002850 0.000000 1.744860 
# 
# From -- ./inp_files/249768.got.cif
#   From: 2010.06.25/outbox.cif.g09.slc.cpg/sg12_125_cif.got.tgz:249768.got - 2010.06.28 00:19:55.
