data_PCOD8081007
_publ_section_title
;
Structure prediction by ZEFSAII (Michael W. Deem and Ramdas Pophale) SiO2 
 PCOD8081007
Probable space group: C 2/M
;
_chemical_formula_sum "Si O2"
_cell_formula_units_Z 48
_cell_length_a 25.215567
_cell_length_b 8.995704
_cell_length_c 11.948390
_cell_angle_alpha 90.000000
_cell_angle_beta 90.005952
_cell_angle_gamma 90.000000
_cell_volume 2710.274520
_symmetry_space_group_name_H-M "C 2/M"
_symmetry_group_IT_number 12
_symmetry_cell_setting 'monoclinic'
loop_
_space_group_symop_operation_xyz
x,y,z
-x,y,-z
-x,-y,-z
x,-y,z
1/2+x,1/2+y,z
1/2-x,1/2+y,-z
1/2-x,1/2-y,-z
1/2+x,1/2-y,z
loop_
_atom_site_type_symbol
_atom_site_label
_atom_site_fract_x
_atom_site_fract_y
_atom_site_fract_z
Si Si1 0.395357 0.323821 0.763183
Si Si2 0.060019 0.823153 0.002343
Si Si3 0.188263 0.174014 0.607924
Si Si4 0.503151 0.676794 0.374848
Si Si5 0.309693 0.174204 0.622016
Si Si6 0.904405 0.176497 0.234666
O O1 0.387608 0.500000 0.759394
O O2 0.408956 0.266957 0.888010
O O3 0.442327 0.270783 0.681397
O O4 0.341306 0.246220 0.724647
O O5 0.057025 0.000000 0.004652
O O6 0.091698 0.764918 0.892930
O O7 0.000000 0.759956 0.000000
O O8 0.248096 0.212988 0.642544
O O9 0.170944 0.257754 0.495313
O O10 0.150519 0.229141 0.708828
O O11 0.180729 0.000000 0.583805
O O12 0.500000 0.741848 0.500000
O O13 0.500280 0.500000 0.376381
O O14 0.453825 0.741517 0.304722
O O15 0.320034 0.000000 0.619184
O O16 0.907776 0.000000 0.234259
#
# Coordination Sequence:
#
# PCOD8081007 Si02
#       6
#     8   8   8   8   8   8
#     4  10  18  29  48  73  99 126 159 195 238 289
#     4   9  15  26  45  74 102 123 154 201 245 276
#     4   9  18  33  53  73  93 124 163 200 241 285
#     4   9  15  22  39  70  98 117 146 194 242 280
#     4  10  20  33  49  70  98 129 161 198 239 285
#     4   9  15  26  46  72  99 121 153 203 247 279
#
# _framework density 17.710384000000001
#
# number of rings (size 3 to 8) (size 9 to 14) (size 15 to 20)
#    0.000    2.667    1.667    1.500    0.000    3.333 
#    0.000    0.833    0.000    6.000    0.000    0.000 
#    0.000    0.000    0.000    0.000    0.000    0.000 
#
# Total GULP energy -297562.865395 kJ/mol
# GULP energy per Si atom -12398.452725 kJ/mol
# Density = 1.767007 g / cm^3
# Si number density = 17.710384 Si / 1000 Ang^3
#
#
#
# Elastic Constant Matrix: (Units=GPa)
#
#
# Indices 1 2 3 4 5 6 
#
# 1 110.5639 25.0563 80.1558 0.0000 3.1377 0.0000
# 2 25.0563 24.6400 26.6342 0.0000 4.8818 0.0000
# 3 80.1558 26.6342 175.7051 0.0000 5.3194 0.0000
# 4 0.0000 0.0000 0.0000 14.3756 0.0000 5.0966
# 5 3.1377 4.8818 5.3194 0.0000 34.5297 0.0000
# 6 0.0000 0.0000 0.0000 5.0966 0.0000 18.0925
#
#
#
# Elastic Compliance Matrix: (Units=1/GPa)
#
#
# Indices 1 2 3 4 5 6 
#
# 1 0.015195 -0.009683 -0.005489 0.000000 0.000834 0.000000
# 2 -0.009683 0.055874 -0.003858 0.000000 -0.006425 0.000000
# 3 -0.005489 -0.003858 0.008790 0.000000 -0.000310 0.000000
# 4 0.000000 0.000000 0.000000 0.077280 0.000000 -0.021769
# 5 0.000834 -0.006425 -0.000310 0.000000 0.029841 0.000000
# 6 0.000000 0.000000 0.000000 -0.021769 0.000000 0.061404
#
#
# Mechanical properties :
#
#
# Convention : Reuss Voigt Hill
#
# Bulk Modulus (GPa) = 23.92439 63.84462 43.88450
# Shear Modulus (GPa) = 16.64576 25.33710 20.99143
#
# Velocity S-wave (km/s) = 3.06908 3.78648 3.44650
# Velocity P-wave (km/s) = 5.10853 7.43263 6.37735
#
# Compressibility (1/GPa) = 0.04179835
#
# Stress axis : x y z
#
# Youngs Moduli (GPa) = 65.81166 17.89732 113.77017
#
# Poissons Ratio (x) = 0.17331 0.62451
# Poissons Ratio (y) = 0.63728 0.43889
# Poissons Ratio (z) = 0.36125 0.06904
#
# Static dielectric constant tensor:
#      x y z
#    x 3.369210 0.000000 -0.072020 
#    y 0.000000 2.744470 0.000000 
#    z -0.072020 0.000000 3.542510 
# 
# 
# High freq. dielectric constant tensor:
#      x y z
#    x 1.687680 0.000000 0.000450 
#    y 0.000000 1.627580 0.000000 
#    z 0.000450 0.000000 1.692320 
# 
# From -- ./inp_files/164237.got.cif
#   From: 2010.06.25/outbox.cif.g09.slc.cpg/sg12_83_cif.got.tgz:164237.got - 2010.06.28 00:19:55.
