data_PCOD8081471
_publ_section_title
;
Structure prediction by ZEFSAII (Michael W. Deem and Ramdas Pophale) SiO2 
 PCOD8081471
Probable space group: C 2/M
;
_chemical_formula_sum "Si O2"
_cell_formula_units_Z 56
_cell_length_a 31.580603
_cell_length_b 7.723061
_cell_length_c 15.802351
_cell_angle_alpha 90.000000
_cell_angle_beta 54.792809
_cell_angle_gamma 90.000000
_cell_volume 3149.141720
_symmetry_space_group_name_H-M "C 2/M"
_symmetry_group_IT_number 12
_symmetry_cell_setting 'monoclinic'
loop_
_space_group_symop_operation_xyz
x,y,z
-x,y,-z
-x,-y,-z
x,-y,z
1/2+x,1/2+y,z
1/2-x,1/2+y,-z
1/2-x,1/2-y,-z
1/2+x,1/2-y,z
loop_
_atom_site_type_symbol
_atom_site_label
_atom_site_fract_x
_atom_site_fract_y
_atom_site_fract_z
Si Si1 0.547513 0.696565 0.998347
Si Si2 0.092272 0.191684 0.680210
Si Si3 0.583336 0.000000 0.439961
Si Si4 0.977817 0.500000 0.661417
Si Si5 0.143434 0.797727 0.447421
Si Si6 0.358927 0.192020 0.216575
Si Si7 0.027252 0.802969 0.202384
Si Si8 0.751676 0.296655 0.399481
O O1 0.530123 0.500000 0.032068
O O2 0.602505 0.701018 0.887323
O O3 0.500000 0.787700 0.000000
O O4 0.555925 0.769242 0.084298
O O5 0.106831 0.239388 0.568737
O O6 0.117777 0.324165 0.715962
O O7 0.031515 0.198757 0.759725
O O8 0.113743 0.000000 0.677440
O O9 0.619659 0.828425 0.403754
O O10 0.537672 0.000000 0.562944
O O11 0.559877 0.000000 0.374372
O O12 0.963988 0.672568 0.730224
O O13 0.201017 0.735395 0.406935
O O14 0.141743 0.000000 0.420537
O O15 0.302056 0.280979 0.292476
O O16 0.354814 0.000000 0.182660
O O17 0.044060 0.000000 0.209734
O O18 0.756470 0.500000 0.389186
O O19 0.750000 0.250000 0.500000
#
# Coordination Sequence:
#
# PCOD8081471 Si02
#       8
#     8   8   4   4   8   8   8   8
#     4  10  20  34  50  72 108 149 186 218 262 323
#     4  10  18  30  48  72 107 151 182 211 259 313
#     4  11  24  38  58  86 108 142 179 228 284 330
#     4  11  24  38  57  84 114 134 181 236 276 332
#     4  10  21  37  55  76 110 150 184 221 269 323
#     4  11  22  30  46  77 112 145 186 229 258 310
#     4  10  21  36  55  77 109 151 183 221 270 324
#     4  10  21  33  48  75 110 148 183 220 264 314
#
# _framework density 17.782624999999999
#
# number of rings (size 3 to 8) (size 9 to 14) (size 15 to 20)
#    0.000    1.714    4.286    0.429    4.000    1.429 
#    0.000    1.429    0.000    0.000    0.000    1.000 
#    0.000    0.000    0.000    0.000    0.000    0.000 
#
# Total GULP energy -346960.843227 kJ/mol
# GULP energy per Si atom -12391.458687 kJ/mol
# Density = 1.774215 g / cm^3
# Si number density = 17.782625 Si / 1000 Ang^3
#
#
#
# Elastic Constant Matrix: (Units=GPa)
#
#
# Indices 1 2 3 4 5 6 
#
# 1 101.1124 41.5602 47.2514 -0.0001 -1.5601 -0.0001
# 2 41.5602 73.2037 31.7467 -0.0006 10.7026 -0.0021
# 3 47.2514 31.7467 91.4270 0.0000 -6.9361 -0.0001
# 4 -0.0001 -0.0006 0.0000 21.9882 0.0001 3.7280
# 5 -1.5601 10.7026 -6.9361 0.0001 28.7717 -0.0003
# 6 -0.0001 -0.0021 -0.0001 3.7280 -0.0003 18.0119
#
#
#
# Elastic Compliance Matrix: (Units=1/GPa)
#
#
# Indices 1 2 3 4 5 6 
#
# 1 0.015130 -0.006531 -0.005404 0.000000 0.001947 -0.000001
# 2 -0.006531 0.020646 -0.004485 0.000000 -0.009115 0.000002
# 3 -0.005404 -0.004485 0.015679 0.000000 0.005155 0.000000
# 4 0.000000 0.000000 0.000000 0.047133 0.000000 -0.009755
# 5 0.001947 -0.009115 0.005155 0.000000 0.039496 0.000000
# 6 -0.000001 0.000002 0.000000 -0.009755 0.000000 0.057538
#
#
# Mechanical properties :
#
#
# Convention : Reuss Voigt Hill
#
# Bulk Modulus (GPa) = 53.72053 56.31775 55.01914
# Shear Modulus (GPa) = 21.30682 23.43334 22.37008
#
# Velocity S-wave (km/s) = 3.46523 3.63404 3.55064
# Velocity P-wave (km/s) = 6.80335 7.02476 6.91494
#
# Compressibility (1/GPa) = 0.01861486
#
# Stress axis : x y z
#
# Youngs Moduli (GPa) = 66.09522 48.43520 63.77904
#
# Poissons Ratio (x) = 0.31632 0.34466
# Poissons Ratio (y) = 0.43165 0.28607
# Poissons Ratio (z) = 0.35717 0.21725
#
# Static dielectric constant tensor:
#      x y z
#    x 3.151050 0.000000 -0.230460 
#    y 0.000000 3.476720 0.000000 
#    z -0.230460 0.000000 3.353860 
# 
# 
# High freq. dielectric constant tensor:
#      x y z
#    x 1.654940 0.000000 -0.016680 
#    y 0.000000 1.690400 0.000000 
#    z -0.016680 0.000000 1.678440 
# 
# From -- ./inp_files/248178.got.cif
#   From: 2010.06.25/outbox.cif.g09.slc.cpg/sg12_125_cif.got.tgz:248178.got - 2010.06.28 00:19:55.
