data_PCOD8081637
_publ_section_title
;
Structure prediction by ZEFSAII (Michael W. Deem and Ramdas Pophale) SiO2 
 PCOD8081637
Probable space group: C 2/M
;
_chemical_formula_sum "Si O2"
_cell_formula_units_Z 44
_cell_length_a 22.582044
_cell_length_b 10.241040
_cell_length_c 28.048845
_cell_angle_alpha 90.000000
_cell_angle_beta 158.402355
_cell_angle_gamma 90.000000
_cell_volume 2387.657288
_symmetry_space_group_name_H-M "C 2/M"
_symmetry_group_IT_number 12
_symmetry_cell_setting 'monoclinic'
loop_
_space_group_symop_operation_xyz
x,y,z
-x,y,-z
-x,-y,-z
x,-y,z
1/2+x,1/2+y,z
1/2-x,1/2+y,-z
1/2-x,1/2-y,-z
1/2+x,1/2-y,z
loop_
_atom_site_type_symbol
_atom_site_label
_atom_site_fract_x
_atom_site_fract_y
_atom_site_fract_z
Si Si1 0.818112 0.351139 0.282821
Si Si2 0.500000 0.288680 0.500000
Si Si3 0.158003 0.350422 0.397974
Si Si4 0.820428 0.357038 0.694537
Si Si5 0.309454 0.151874 0.171343
Si Si6 0.513203 0.348755 0.117402
O O1 0.867351 0.500000 0.313644
O O2 0.952018 0.296436 0.418457
O O3 0.825437 0.283006 0.236013
O O4 0.638590 0.333640 0.168233
O O5 0.653226 0.371930 0.598212
O O6 0.194365 0.500000 0.441104
O O7 0.250000 0.250000 0.500000
O O8 0.214971 0.324821 0.386931
O O9 0.968036 0.321462 0.259310
O O10 0.905250 0.500000 0.762061
O O11 0.933293 0.242401 0.798776
O O12 0.272564 0.000000 0.151127
O O13 0.157023 0.207850 0.028279
O O14 0.505122 0.500000 0.128766
#
# Coordination Sequence:
#
# PCOD8081637 Si02
#       6
#     8   4   8   8   8   8
#     4   9  16  27  48  78 104 124 158 207 248 286
#     4  10  18  30  50  70  97 136 169 196 241 294
#     4  10  21  36  53  74 100 130 164 201 243 292
#     4  10  21  35  50  71 101 133 164 201 245 290
#     4   9  17  31  51  73 100 131 160 200 251 291
#     4   9  18  32  52  76  98 126 165 203 242 291
#
# _framework density 18.428104999999999
#
# number of rings (size 3 to 8) (size 9 to 14) (size 15 to 20)
#    0.000    2.545    0.000    2.182    0.000    4.364 
#    0.000    0.909    0.000    9.818    0.000    0.000 
#    0.000    0.000    0.000    0.000    0.000    0.000 
#
# Total GULP energy -272711.033200 kJ/mol
# GULP energy per Si atom -12395.956055 kJ/mol
# Density = 1.838616 g / cm^3
# Si number density = 18.428105 Si / 1000 Ang^3
#
#
#
# Elastic Constant Matrix: (Units=GPa)
#
#
# Indices 1 2 3 4 5 6 
#
# 1 96.2646 43.4503 36.1449 0.0147 -15.5665 -0.0020
# 2 43.4503 81.2470 48.4697 -0.0155 -16.7887 -0.0020
# 3 36.1449 48.4697 111.0319 -0.0135 -15.4757 0.0050
# 4 0.0147 -0.0155 -0.0135 19.9584 0.0156 -4.9553
# 5 -15.5665 -16.7887 -15.4757 0.0156 26.3418 -0.0026
# 6 -0.0020 -0.0020 0.0050 -4.9553 -0.0026 22.5577
#
#
#
# Elastic Compliance Matrix: (Units=1/GPa)
#
#
# Indices 1 2 3 4 5 6 
#
# 1 0.014244 -0.005935 -0.001525 -0.000020 0.003739 -0.000003
# 2 -0.005935 0.020354 -0.006136 0.000013 0.005860 0.000006
# 3 -0.001525 -0.006136 0.012538 0.000002 0.002554 -0.000003
# 4 -0.000020 0.000013 0.000002 0.052995 -0.000032 0.011641
# 5 0.003739 0.005860 0.002554 -0.000032 0.045407 -0.000002
# 6 -0.000003 0.000006 -0.000003 0.011641 -0.000002 0.046888
#
#
# Mechanical properties :
#
#
# Convention : Reuss Voigt Hill
#
# Bulk Modulus (GPa) = 50.14431 60.51924 55.33178
# Shear Modulus (GPa) = 22.09787 24.47015 23.28401
#
# Velocity S-wave (km/s) = 3.46662 3.64795 3.55844
# Velocity P-wave (km/s) = 6.57975 7.11726 6.85378
#
# Compressibility (1/GPa) = 0.01994244
#
# Stress axis : x y z
#
# Youngs Moduli (GPa) = 70.20391 49.13032 79.76071
#
# Poissons Ratio (x) = 0.29161 0.12162
# Poissons Ratio (y) = 0.41669 0.48944
# Poissons Ratio (z) = 0.10705 0.30148
#
# Static dielectric constant tensor:
#      x y z
#    x 3.444040 0.000010 -0.025580 
#    y 0.000010 3.186200 -0.000030 
#    z -0.025580 -0.000030 3.409520 
# 
# 
# High freq. dielectric constant tensor:
#      x y z
#    x 1.721790 0.000000 0.000510 
#    y 0.000000 1.687010 0.000000 
#    z 0.000510 0.000000 1.713530 
# 
# From -- ./inp_files/103384.got.cif
#   From: 2010.06.25/outbox.cif.g09.slc.cpg/sg12_52_cif.got.tgz:103384.got - 2010.06.28 00:19:55.
