data_PCOD8081862
_publ_section_title
;
Structure prediction by ZEFSAII (Michael W. Deem and Ramdas Pophale) SiO2 
 PCOD8081862
Probable space group: C 2/M
;
_chemical_formula_sum "Si O2"
_cell_formula_units_Z 64
_cell_length_a 24.336701
_cell_length_b 9.028162
_cell_length_c 21.327393
_cell_angle_alpha 90.000000
_cell_angle_beta 51.212638
_cell_angle_gamma 90.000000
_cell_volume 3652.596158
_symmetry_space_group_name_H-M "C 2/M"
_symmetry_group_IT_number 12
_symmetry_cell_setting 'monoclinic'
loop_
_space_group_symop_operation_xyz
x,y,z
-x,y,-z
-x,-y,-z
x,-y,z
1/2+x,1/2+y,z
1/2-x,1/2+y,-z
1/2-x,1/2-y,-z
1/2+x,1/2-y,z
loop_
_atom_site_type_symbol
_atom_site_label
_atom_site_fract_x
_atom_site_fract_y
_atom_site_fract_z
Si Si1 0.719485 0.170589 0.169664
Si Si2 0.112721 0.827493 0.430168
Si Si3 0.883749 0.671154 0.168645
Si Si4 0.032144 0.329963 0.121969
Si Si5 0.255621 0.828695 0.704359
Si Si6 0.510760 0.327663 0.391856
Si Si7 0.626028 0.676437 0.953792
Si Si8 0.071715 0.324724 0.232565
O O1 0.715650 0.197290 0.246405
O O2 0.793826 0.234312 0.090663
O O3 0.650535 0.243791 0.186989
O O4 0.717745 0.000000 0.153488
O O5 0.185355 0.736534 0.384371
O O6 0.069080 0.774847 0.400366
O O7 0.066845 0.795301 0.524973
O O8 0.130834 0.000000 0.411562
O O9 0.867517 0.500000 0.165897
O O10 0.817944 0.743544 0.251786
O O11 0.901920 0.752419 0.090569
O O12 0.949987 0.690154 0.166906
O O13 0.055819 0.500000 0.094831
O O14 0.045250 0.276786 0.183310
O O15 0.077717 0.225025 0.045249
O O16 0.242690 0.000000 0.698362
O O17 0.520398 0.500000 0.371130
O O18 0.518164 0.239590 0.322001
O O19 0.624097 0.500000 0.946566
O O20 0.072043 0.500000 0.240777
#
# Coordination Sequence:
#
# PCOD8081862 Si02
#       8
#     8   8   8   8   8   8   8   8
#     4   8  16  30  47  71 101 128 157 199 249 294
#     4   9  17  30  49  75 108 137 162 199 246 296
#     4  10  20  35  53  73  99 131 168 212 257 299
#     4  10  22  36  51  72  98 134 175 208 250 303
#     4  10  18  30  51  79 104 128 165 209 251 298
#     4   9  18  31  48  75 107 136 167 200 240 295
#     4  10  20  34  53  76 100 126 165 216 259 296
#     4  10  19  34  52  70 101 139 170 205 246 297
#
# _framework density 17.521782999999999
#
# number of rings (size 3 to 8) (size 9 to 14) (size 15 to 20)
#    0.000    2.500    1.250    3.000    0.000    4.000 
#    0.000    1.875    0.000    0.750    0.000    0.000 
#    0.000    0.000    0.000    0.000    0.000    0.000 
#
# Total GULP energy -396758.525429 kJ/mol
# GULP energy per Si atom -12398.703920 kJ/mol
# Density = 1.748190 g / cm^3
# Si number density = 17.521783 Si / 1000 Ang^3
#
#
#
# Elastic Constant Matrix: (Units=GPa)
#
#
# Indices 1 2 3 4 5 6 
#
# 1 94.5962 38.6316 47.8607 -0.0008 -4.1982 0.0008
# 2 38.6316 69.2637 40.1049 -0.0038 -12.3659 0.0039
# 3 47.8607 40.1049 84.2036 -0.0017 -23.4731 0.0030
# 4 -0.0008 -0.0038 -0.0017 33.7892 -0.0007 -3.6297
# 5 -4.1982 -12.3659 -23.4731 -0.0007 17.8046 0.0010
# 6 0.0008 0.0039 0.0030 -3.6297 0.0010 19.7878
#
#
#
# Elastic Compliance Matrix: (Units=1/GPa)
#
#
# Indices 1 2 3 4 5 6 
#
# 1 0.018407 -0.006180 -0.011867 -0.000001 -0.015596 0.000003
# 2 -0.006180 0.022060 -0.004948 0.000002 0.007341 -0.000003
# 3 -0.011867 -0.004948 0.030419 0.000001 0.033869 -0.000005
# 4 -0.000001 0.000002 0.000001 0.030190 0.000003 0.005538
# 5 -0.015596 0.007341 0.033869 0.000003 0.102238 -0.000011
# 6 0.000003 -0.000003 -0.000005 0.005538 -0.000011 0.051552
#
#
# Mechanical properties :
#
#
# Convention : Reuss Voigt Hill
#
# Bulk Modulus (GPa) = 40.16546 55.69534 47.93040
# Shear Modulus (GPa) = 16.17323 22.37407 19.27365
#
# Velocity S-wave (km/s) = 3.04145 3.57729 3.32020
# Velocity P-wave (km/s) = 5.94195 6.99414 6.48941
#
# Compressibility (1/GPa) = 0.02489701
#
# Stress axis : x y z
#
# Youngs Moduli (GPa) = 54.32809 45.33130 32.87427
#
# Poissons Ratio (x) = 0.28014 0.39011
# Poissons Ratio (y) = 0.33573 0.16266
# Poissons Ratio (z) = 0.64469 0.22429
#
# Static dielectric constant tensor:
#      x y z
#    x 3.228870 0.000000 -0.204440 
#    y 0.000000 3.152400 0.000000 
#    z -0.204440 0.000000 3.219560 
# 
# 
# High freq. dielectric constant tensor:
#      x y z
#    x 1.658420 0.000000 -0.020870 
#    y 0.000000 1.670500 0.000000 
#    z -0.020870 0.000000 1.675580 
# 
# From -- ./inp_files/324147.got.cif
#   From: 2010.06.25/outbox.cif.g09.slc.cpg/sg12_163_cif.got.tgz:324147.got - 2010.06.28 00:19:55.
