data_PCOD8081602
_publ_section_title
;
Structure prediction by ZEFSAII (Michael W. Deem and Ramdas Pophale) SiO2 
 PCOD8081602
Probable space group: C 2/M
;
_chemical_formula_sum "Si O2"
_cell_formula_units_Z 64
_cell_length_a 10.218800
_cell_length_b 22.889401
_cell_length_c 23.007486
_cell_angle_alpha 90.000000
_cell_angle_beta 47.020073
_cell_angle_gamma 90.000000
_cell_volume 3937.066861
_symmetry_space_group_name_H-M "C 2/M"
_symmetry_group_IT_number 12
_symmetry_cell_setting 'monoclinic'
loop_
_space_group_symop_operation_xyz
x,y,z
-x,y,-z
-x,-y,-z
x,-y,z
1/2+x,1/2+y,z
1/2-x,1/2+y,-z
1/2-x,1/2-y,-z
1/2+x,1/2-y,z
loop_
_atom_site_type_symbol
_atom_site_label
_atom_site_fract_x
_atom_site_fract_y
_atom_site_fract_z
Si Si1 0.924804 0.569029 0.963254
Si Si2 0.462553 0.569768 0.947659
Si Si3 0.880885 0.937390 0.479297
Si Si4 0.154938 0.850402 0.357018
Si Si5 0.424732 0.871236 0.378649
Si Si6 0.107140 0.566992 0.789711
Si Si7 0.314119 0.065994 0.782069
Si Si8 0.541982 0.762309 0.555755
O O1 0.906033 0.500000 0.973947
O O2 0.058080 0.584421 0.870251
O O3 0.727355 0.595738 0.014814
O O4 0.000000 0.596309 0.000000
O O5 0.462812 0.500000 0.950077
O O6 0.616695 0.590617 0.856294
O O7 0.500000 0.595503 0.000000
O O8 0.674788 0.922120 0.555456
O O9 0.000000 0.944272 0.500000
O O10 0.971292 0.886922 0.414694
O O11 0.880424 0.000000 0.446570
O O12 0.276504 0.848503 0.377836
O O13 0.261045 0.881610 0.272237
O O14 0.083726 0.784301 0.371424
O O15 0.599941 0.894989 0.293922
O O16 0.498727 0.823163 0.400507
O O17 0.187393 0.500000 0.761496
O O18 0.926789 0.568180 0.807180
O O19 0.304607 0.000000 0.761451
O O20 0.500000 0.764189 0.500000
O O21 0.750000 0.750000 0.500000
#
# Coordination Sequence:
#
# PCOD8081602 Si02
#       8
#     8   8   8   8   8   8   8   8
#     4   9  16  26  42  67 101 137 162 187 232 290
#     4   9  14  24  43  68  97 127 159 191 231 285
#     4   9  15  25  44  71  99 124 153 191 243 298
#     4  10  18  30  49  74  97 124 163 207 250 285
#     4  10  19  31  49  73  97 126 162 206 252 287
#     4   9  16  27  45  74 105 128 159 203 245 290
#     4   9  16  27  47  75 102 127 162 205 243 289
#     4  12  21  37  54  72  94 126 171 214 247 291
#
# _framework density 16.255756000000002
#
# number of rings (size 3 to 8) (size 9 to 14) (size 15 to 20)
#    0.000    2.375    3.750    1.125    0.000    3.000 
#    0.000    1.250    0.000    1.500    0.000    1.750 
#    0.000    0.000    0.000    0.000    0.000    0.000 
#
# Total GULP energy -396476.210002 kJ/mol
# GULP energy per Si atom -12389.881563 kJ/mol
# Density = 1.621876 g / cm^3
# Si number density = 16.255756 Si / 1000 Ang^3
#
#
#
# Elastic Constant Matrix: (Units=GPa)
#
#
# Indices 1 2 3 4 5 6 
#
# 1 78.0157 29.1002 54.6605 -0.0003 -0.6642 0.0009
# 2 29.1002 79.7674 45.6032 -0.0001 1.1759 0.0001
# 3 54.6605 45.6032 118.9273 0.0000 -3.3399 0.0001
# 4 -0.0003 -0.0001 0.0000 13.2138 0.0001 7.2801
# 5 -0.6642 1.1759 -3.3399 0.0001 22.9979 -0.0004
# 6 0.0009 0.0001 0.0001 7.2801 -0.0004 -14.4546
#
#
#
# Elastic Compliance Matrix: (Units=1/GPa)
#
#
# Indices 1 2 3 4 5 6 
#
# 1 0.019299 -0.002504 -0.007923 0.000000 -0.000465 0.000001
# 2 -0.002504 0.016450 -0.005204 0.000000 -0.001669 0.000000
# 3 -0.007923 -0.005204 0.014104 0.000000 0.002086 0.000000
# 4 0.000000 0.000000 0.000000 0.059240 0.000000 0.029836
# 5 -0.000465 -0.001669 0.002086 0.000000 0.043857 -0.000001
# 6 0.000001 0.000000 0.000000 0.029836 -0.000001 -0.054155
#
#
# Mechanical properties :
#
#
# Convention : Reuss Voigt Hill
#
# Bulk Modulus (GPa) = 53.78900 59.49315 56.64107
# Shear Modulus (GPa) = 36.69636 14.17451 25.43544
#
# Velocity S-wave (km/s) = 4.75640 2.95612 3.95992
# Velocity P-wave (km/s) = 7.95774 6.95192 7.47177
#
# Compressibility (1/GPa) = 0.01859116
#
# Stress axis : x y z
#
# Youngs Moduli (GPa) = 51.81575 60.79207 70.90229
#
# Poissons Ratio (x) = 0.15223 0.56176
# Poissons Ratio (y) = 0.12975 0.36895
# Poissons Ratio (z) = 0.41054 0.31634
#
# Static dielectric constant tensor:
#      x y z
#    x 3.036920 0.000000 -0.071950 
#    y 0.000000 2.946660 0.000000 
#    z -0.071950 0.000000 3.145410 
# 
# 
# High freq. dielectric constant tensor:
#      x y z
#    x 1.600880 0.000000 -0.012540 
#    y 0.000000 1.589440 0.000000 
#    z -0.012540 0.000000 1.629920 
# 
# From -- ./inp_files/336960.got.cif
#   From: 2010.06.25/outbox.cif.g09.slc.cpg/sg12_169_cif.got.tgz:336960.got - 2010.06.28 00:19:55.
