data_PCOD8081342
_publ_section_title
;
Structure prediction by ZEFSAII (Michael W. Deem and Ramdas Pophale) SiO2 
 PCOD8081342
Probable space group: C 2/M
;
_chemical_formula_sum "Si O2"
_cell_formula_units_Z 64
_cell_length_a 24.989976
_cell_length_b 9.376079
_cell_length_c 18.882735
_cell_angle_alpha 90.000000
_cell_angle_beta 64.268145
_cell_angle_gamma 90.000000
_cell_volume 3985.635900
_symmetry_space_group_name_H-M "C 2/M"
_symmetry_group_IT_number 12
_symmetry_cell_setting 'monoclinic'
loop_
_space_group_symop_operation_xyz
x,y,z
-x,y,-z
-x,-y,-z
x,-y,z
1/2+x,1/2+y,z
1/2-x,1/2+y,-z
1/2-x,1/2-y,-z
1/2+x,1/2-y,z
loop_
_atom_site_type_symbol
_atom_site_label
_atom_site_fract_x
_atom_site_fract_y
_atom_site_fract_z
Si Si1 0.502641 0.833155 0.680552
Si Si2 0.386704 0.835012 0.148259
Si Si3 0.361650 0.168954 0.418135
Si Si4 0.201818 0.666793 0.685296
Si Si5 0.488208 0.836619 0.850110
Si Si6 0.667717 0.665778 0.426663
Si Si7 0.436773 0.338820 0.998616
Si Si8 0.548888 0.666841 0.415285
O O1 0.570002 0.785042 0.627825
O O2 0.484007 0.792603 0.770719
O O3 0.459245 0.749112 0.653329
O O4 0.495209 0.000000 0.670833
O O5 0.331147 0.774154 0.225702
O O6 0.444631 0.813173 0.163132
O O7 0.389523 0.743668 0.074726
O O8 0.379076 0.000000 0.131002
O O9 0.326573 0.230005 0.370195
O O10 0.332871 0.242567 0.502299
O O11 0.354506 0.000000 0.430382
O O12 0.188231 0.500000 0.691227
O O13 0.271590 0.701503 0.649956
O O14 0.469336 0.000000 0.872860
O O15 0.442174 0.738697 0.919794
O O16 0.664584 0.500000 0.449998
O O17 0.613689 0.707655 0.406744
O O18 0.414682 0.500000 0.999394
O O19 0.500000 0.334268 0.000000
O O20 0.500000 0.718795 0.500000
O O21 0.542035 0.500000 0.404195
#
# Coordination Sequence:
#
# PCOD8081342 Si02
#       8
#     8   8   8   8   8   8   8   8
#     4  10  19  30  48  70  90 117 154 194 232 267
#     4   9  15  27  46  65  88 120 151 181 220 268
#     4  10  18  30  47  68  92 117 151 194 233 270
#     4   9  17  30  48  68  91 120 156 192 226 269
#     4   9  16  28  45  66  90 117 150 184 222 270
#     4  10  20  33  47  64  89 124 160 192 227 271
#     4   9  17  27  40  64  96 124 147 175 215 268
#     4  10  20  33  46  63  90 123 158 192 229 274
#
# _framework density 16.057663000000002
#
# number of rings (size 3 to 8) (size 9 to 14) (size 15 to 20)
#    0.000    2.500    2.500    0.750    0.000    2.750 
#    0.000    1.250    0.000    0.000    0.000    0.875 
#    0.000    0.000    0.000    0.000    0.000    0.000 
#
# Total GULP energy -396809.631686 kJ/mol
# GULP energy per Si atom -12400.300990 kJ/mol
# Density = 1.602111 g / cm^3
# Si number density = 16.057663 Si / 1000 Ang^3
#
#
#
# Elastic Constant Matrix: (Units=GPa)
#
#
# Indices 1 2 3 4 5 6 
#
# 1 73.5615 26.9446 51.4536 0.0000 -7.2141 0.0000
# 2 26.9446 56.9083 58.6390 0.0000 0.3940 0.0000
# 3 51.4536 58.6390 148.3228 0.0000 -2.3380 0.0000
# 4 0.0000 0.0000 0.0000 23.8015 0.0000 4.5462
# 5 -7.2141 0.3940 -2.3380 0.0000 18.5816 0.0000
# 6 0.0000 0.0000 0.0000 4.5462 0.0000 14.5570
#
#
#
# Elastic Compliance Matrix: (Units=1/GPa)
#
#
# Indices 1 2 3 4 5 6 
#
# 1 0.019223 -0.004034 -0.004965 0.000000 0.006924 0.000000
# 2 -0.004034 0.030580 -0.010747 0.000000 -0.003567 0.000000
# 3 -0.004965 -0.010747 0.012711 0.000000 -0.000100 0.000000
# 4 0.000000 0.000000 0.000000 0.044679 0.000000 -0.013953
# 5 0.006924 -0.003567 -0.000100 0.000000 0.056568 0.000000
# 6 0.000000 0.000000 0.000000 -0.013953 0.000000 0.073053
#
#
# Mechanical properties :
#
#
# Convention : Reuss Voigt Hill
#
# Bulk Modulus (GPa) = 43.43235 61.42967 52.43101
# Shear Modulus (GPa) = 17.60682 20.83837 19.22259
#
# Velocity S-wave (km/s) = 3.31490 3.60630 3.46366
# Velocity P-wave (km/s) = 6.46203 7.46185 6.97987
#
# Compressibility (1/GPa) = 0.02302431
#
# Stress axis : x y z
#
# Youngs Moduli (GPa) = 52.02016 32.70084 78.66990
#
# Poissons Ratio (x) = 0.13192 0.39057
# Poissons Ratio (y) = 0.20985 0.84543
# Poissons Ratio (z) = 0.25826 0.35142
#
# Static dielectric constant tensor:
#      x y z
#    x 2.810460 0.000000 -0.021450 
#    y 0.000000 2.938360 0.000000 
#    z -0.021450 0.000000 3.155790 
# 
# 
# High freq. dielectric constant tensor:
#      x y z
#    x 1.583630 0.000000 0.001610 
#    y 0.000000 1.605170 0.000000 
#    z 0.001610 0.000000 1.623090 
# 
# From -- ./inp_files/323616.got.cif
#   From: 2010.06.25/outbox.cif.g09.slc.cpg/sg12_162_cif.got.tgz:323616.got - 2010.06.28 00:19:55.
