data_PCOD8081989
_publ_section_title
;
Structure prediction by ZEFSAII (Michael W. Deem and Ramdas Pophale) SiO2 
 PCOD8081989
Probable space group: C 2/M
;
_chemical_formula_sum "Si O2"
_cell_formula_units_Z 28
_cell_length_a 8.476387
_cell_length_b 28.538014
_cell_length_c 5.323281
_cell_angle_alpha 90.000000
_cell_angle_beta 60.493373
_cell_angle_gamma 90.000000
_cell_volume 1120.681667
_symmetry_space_group_name_H-M "C 2/M"
_symmetry_group_IT_number 12
_symmetry_cell_setting 'monoclinic'
loop_
_space_group_symop_operation_xyz
x,y,z
-x,y,-z
-x,-y,-z
x,-y,z
1/2+x,1/2+y,z
1/2-x,1/2+y,-z
1/2-x,1/2-y,-z
1/2+x,1/2-y,z
loop_
_atom_site_type_symbol
_atom_site_label
_atom_site_fract_x
_atom_site_fract_y
_atom_site_fract_z
Si Si1 0.298742 0.597260 0.130952
Si Si2 0.355327 0.686926 0.799120
Si Si3 0.500000 0.767860 0.000000
Si Si4 0.784606 0.946749 0.642250
O O1 0.204568 0.584385 0.471358
O O2 0.500000 0.575629 0.000000
O O3 0.310967 0.653418 0.071701
O O4 0.198891 0.573155 0.969945
O O5 0.500000 0.660886 0.500000
O O6 0.169962 0.698946 0.797578
O O7 0.449519 0.735525 0.803838
O O8 0.000000 0.942259 0.500000
O O9 0.722098 0.000000 0.650027
#
# Coordination Sequence:
#
# PCOD8081989 Si02
#       4
#     8   8   4   8
#     4  10  18  30  54  80 117 158 194 246 300 355
#     4  11  21  39  59  86 120 157 203 249 304 358
#     4  10  24  38  60  86 116 160 204 250 304 360
#     4   9  17  29  48  81 118 153 195 245 299 357
#
# _framework density 24.984797
#
# number of rings (size 3 to 8) (size 9 to 14) (size 15 to 20)
#    0.000    2.000    1.429    4.286    0.000    3.429 
#    0.000    0.000    0.000    0.000    0.000    6.000 
#    0.000    0.000    0.000    4.857    0.000    0.000 
#
# Total GULP energy -173526.842291 kJ/mol
# GULP energy per Si atom -12394.774449 kJ/mol
# Density = 2.492793 g / cm^3
# Si number density = 24.984797 Si / 1000 Ang^3
#
#
#
# Elastic Constant Matrix: (Units=GPa)
#
#
# Indices 1 2 3 4 5 6 
#
# 1 99.6038 49.2037 57.6467 0.0000 19.4151 0.0000
# 2 49.2037 143.5239 56.6708 0.0000 19.0520 0.0000
# 3 57.6467 56.6708 125.0312 0.0000 38.5359 0.0000
# 4 0.0000 0.0000 0.0000 29.7029 0.0000 14.4350
# 5 19.4151 19.0520 38.5359 0.0000 40.7403 0.0000
# 6 0.0000 0.0000 0.0000 14.4350 0.0000 10.4037
#
#
#
# Elastic Compliance Matrix: (Units=1/GPa)
#
#
# Indices 1 2 3 4 5 6 
#
# 1 0.014610 -0.002852 -0.005235 0.000000 -0.000677 0.000000
# 2 -0.002852 0.009049 -0.002684 0.000000 -0.000334 0.000000
# 3 -0.005235 -0.002684 0.014782 0.000000 -0.010232 0.000000
# 4 0.000000 0.000000 0.000000 0.103365 0.000000 -0.143418
# 5 -0.000677 -0.000334 -0.010232 0.000000 0.034703 0.000000
# 6 0.000000 0.000000 0.000000 -0.143418 0.000000 0.295111
#
#
# Mechanical properties :
#
#
# Convention : Reuss Voigt Hill
#
# Bulk Modulus (GPa) = 59.17027 77.24458 68.20743
# Shear Modulus (GPa) = 10.02415 29.81191 19.91803
#
# Velocity S-wave (km/s) = 2.00520 3.45802 2.82655
# Velocity P-wave (km/s) = 5.39398 6.85038 6.16533
#
# Compressibility (1/GPa) = 0.01690038
#
# Stress axis : x y z
#
# Youngs Moduli (GPa) = 68.44471 110.50694 67.65192
#
# Poissons Ratio (x) = 0.31515 0.35414
# Poissons Ratio (y) = 0.19520 0.18156
# Poissons Ratio (z) = 0.35829 0.29656
#
# Static dielectric constant tensor:
#      x y z
#    x 4.320560 0.000000 0.410410 
#    y 0.000000 4.315130 0.000000 
#    z 0.410410 0.000000 4.343630 
# 
# 
# High freq. dielectric constant tensor:
#      x y z
#    x 1.975870 0.000000 0.031700 
#    y 0.000000 1.990880 0.000000 
#    z 0.031700 0.000000 1.969220 
# 
# From -- ./inp_files/3400.got.cif
#   From: 2010.06.25/outbox.cif.g09.slc.cpg/sg12_2_cif.got.tgz:3400.got - 2010.06.28 00:19:55.
