data_PCOD8081968
_publ_section_title
;
Structure prediction by ZEFSAII (Michael W. Deem and Ramdas Pophale) SiO2 
 PCOD8081968
Probable space group: C 2/M
;
_chemical_formula_sum "Si O2"
_cell_formula_units_Z 56
_cell_length_a 21.831629
_cell_length_b 10.080258
_cell_length_c 21.742271
_cell_angle_alpha 90.000000
_cell_angle_beta 142.639452
_cell_angle_gamma 90.000000
_cell_volume 2903.546588
_symmetry_space_group_name_H-M "C 2/M"
_symmetry_group_IT_number 12
_symmetry_cell_setting 'monoclinic'
loop_
_space_group_symop_operation_xyz
x,y,z
-x,y,-z
-x,-y,-z
x,-y,z
1/2+x,1/2+y,z
1/2-x,1/2+y,-z
1/2-x,1/2-y,-z
1/2+x,1/2-y,z
loop_
_atom_site_type_symbol
_atom_site_label
_atom_site_fract_x
_atom_site_fract_y
_atom_site_fract_z
Si Si1 0.007557 0.345755 0.352853
Si Si2 0.195468 0.653709 0.271778
Si Si3 0.084866 0.155625 0.517787
Si Si4 0.716019 0.854388 0.854300
Si Si5 0.032935 0.344688 0.233896
Si Si6 0.841325 0.648683 0.010540
Si Si7 0.388237 0.751395 0.922235
O O1 0.027489 0.500000 0.386425
O O2 0.888465 0.312306 0.260936
O O3 0.065442 0.245676 0.443032
O O4 0.049895 0.313516 0.318754
O O5 0.200432 0.500000 0.289942
O O6 0.309391 0.706997 0.369666
O O7 0.122386 0.721804 0.264779
O O8 0.152368 0.675346 0.169993
O O9 0.000000 0.185393 0.500000
O O10 0.085069 0.000000 0.499281
O O11 0.745698 0.750555 0.932301
O O12 0.805517 0.860834 0.874527
O O13 0.702169 0.000000 0.873349
O O14 0.031574 0.500000 0.219220
O O15 0.922659 0.294037 0.124124
O O16 0.804131 0.500000 0.996591
O O17 0.893216 0.646024 0.983650
O O18 0.500000 0.690704 0.000000
#
# Coordination Sequence:
#
# PCOD8081968 Si02
#       7
#     8   8   8   8   8   8   8
#     4  10  21  39  58  75 106 144 182 221 260 316
#     4  10  18  31  53  81 111 138 172 222 271 312
#     4  10  22  38  57  82 109 135 172 225 275 313
#     4   9  20  34  49  73 107 145 176 214 267 313
#     4   9  18  33  54  81 108 140 178 218 263 312
#     4   9  18  31  52  82 108 137 180 220 255 311
#     4  10  18  30  53  81 110 139 173 217 262 315
#
# _framework density 19.286757000000001
#
# number of rings (size 3 to 8) (size 9 to 14) (size 15 to 20)
#    0.857    1.571    1.429    1.286    0.000    2.857 
#    0.000    1.429    0.000    1.714    0.000    0.000 
#    0.000    0.000    0.000    0.000    0.000    0.000 
#
# Total GULP energy -346929.964948 kJ/mol
# GULP energy per Si atom -12390.355891 kJ/mol
# Density = 1.924286 g / cm^3
# Si number density = 19.286757 Si / 1000 Ang^3
#
#
#
# Elastic Constant Matrix: (Units=GPa)
#
#
# Indices 1 2 3 4 5 6 
#
# 1 47.4038 2.8805 22.4258 0.0000 4.3662 0.0000
# 2 2.8805 48.5068 27.2071 0.0000 -0.0562 0.0000
# 3 22.4258 27.2071 113.0243 0.0000 -0.5930 0.0000
# 4 0.0000 0.0000 0.0000 26.3086 0.0000 1.7836
# 5 4.3662 -0.0562 -0.5930 0.0000 35.7382 0.0000
# 6 0.0000 0.0000 0.0000 1.7836 0.0000 6.7831
#
#
#
# Elastic Compliance Matrix: (Units=1/GPa)
#
#
# Indices 1 2 3 4 5 6 
#
# 1 0.023675 0.001427 -0.005056 0.000000 -0.002974 0.000000
# 2 0.001427 0.023920 -0.006042 0.000000 -0.000237 0.000000
# 3 -0.005056 -0.006042 0.011310 0.000000 0.000796 0.000000
# 4 0.000000 0.000000 0.000000 0.038700 0.000000 -0.010176
# 5 -0.002974 -0.000237 0.000796 0.000000 0.028357 0.000000
# 6 0.000000 0.000000 0.000000 -0.010176 0.000000 0.150102
#
#
# Mechanical properties :
#
#
# Convention : Reuss Voigt Hill
#
# Bulk Modulus (GPa) = 25.27797 34.88464 30.08130
# Shear Modulus (GPa) = 16.20251 24.19407 20.19829
#
# Velocity S-wave (km/s) = 2.90157 3.54565 3.23965
# Velocity P-wave (km/s) = 4.93561 5.90667 5.44284
#
# Compressibility (1/GPa) = 0.03956014
#
# Stress axis : x y z
#
# Youngs Moduli (GPa) = 42.23915 41.80649 88.42034
#
# Poissons Ratio (x) = -0.05965 0.44710
# Poissons Ratio (y) = -0.06027 0.53426
# Poissons Ratio (z) = 0.21358 0.25261
#
# Static dielectric constant tensor:
#      x y z
#    x 3.663070 0.000000 0.177630 
#    y 0.000000 3.107360 0.000000 
#    z 0.177630 0.000000 3.494520 
# 
# 
# High freq. dielectric constant tensor:
#      x y z
#    x 1.761650 0.000000 0.003380 
#    y 0.000000 1.709710 0.000000 
#    z 0.003380 0.000000 1.751790 
# 
# From -- ./inp_files/223118.got.cif
#   From: 2010.06.25/outbox.cif.g09.slc.cpg/sg12_112_cif.got.tgz:223118.got - 2010.06.28 00:19:55.
