data_PCOD8081725
_publ_section_title
;
Structure prediction by ZEFSAII (Michael W. Deem and Ramdas Pophale) SiO2 
 PCOD8081725
Probable space group: C 2/M
;
_chemical_formula_sum "Si O2"
_cell_formula_units_Z 48
_cell_length_a 22.613616
_cell_length_b 8.664434
_cell_length_c 16.028902
_cell_angle_alpha 90.000000
_cell_angle_beta 121.270443
_cell_angle_gamma 90.000000
_cell_volume 2684.363130
_symmetry_space_group_name_H-M "C 2/M"
_symmetry_group_IT_number 12
_symmetry_cell_setting 'monoclinic'
loop_
_space_group_symop_operation_xyz
x,y,z
-x,y,-z
-x,-y,-z
x,-y,z
1/2+x,1/2+y,z
1/2-x,1/2+y,-z
1/2-x,1/2-y,-z
1/2+x,1/2-y,z
loop_
_atom_site_type_symbol
_atom_site_label
_atom_site_fract_x
_atom_site_fract_y
_atom_site_fract_z
Si Si1 0.381847 0.681314 0.227872
Si Si2 0.510237 0.820570 0.411975
Si Si3 0.258861 0.319712 0.809263
Si Si4 0.180915 0.821848 0.981246
Si Si5 0.352806 0.679488 0.556683
Si Si6 0.723393 0.179382 0.351771
O O1 0.397416 0.500000 0.252821
O O2 0.440840 0.784284 0.311459
O O3 0.309096 0.720820 0.218757
O O4 0.380533 0.729197 0.127328
O O5 0.500000 0.772469 0.500000
O O6 0.571494 0.718859 0.419750
O O7 0.529029 0.000000 0.417159
O O8 0.239027 0.500000 0.797051
O O9 0.287769 0.274763 0.740582
O O10 0.322375 0.284542 0.921861
O O11 0.189550 0.000000 0.971903
O O12 0.250000 0.750000 0.000000
O O13 0.347320 0.500000 0.574670
O O14 0.337355 0.775246 0.629013
O O15 0.297656 0.724582 0.444984
O O16 0.718363 0.000000 0.327179
#
# Coordination Sequence:
#
# PCOD8081725 Si02
#       6
#     8   8   8   8   8   8
#     4  10  19  32  50  73 102 134 168 205 247 292
#     4  11  23  36  51  73 102 134 166 201 244 295
#     4  10  18  30  50  76 104 132 165 203 247 294
#     4   8  16  29  46  70  99 130 163 202 245 290
#     4  10  21  36  53  73  99 132 167 203 245 291
#     4  10  20  34  53  76 101 129 164 205 246 291
#
# _framework density 17.881336999999998
#
# number of rings (size 3 to 8) (size 9 to 14) (size 15 to 20)
#    0.000    2.167    0.000    3.500    0.000    7.333 
#    0.000    0.000    0.000    1.000    0.000    7.000 
#    0.000    0.000    0.000    0.000    0.000    0.000 
#
# Total GULP energy -297447.308265 kJ/mol
# GULP energy per Si atom -12393.637844 kJ/mol
# Density = 1.784064 g / cm^3
# Si number density = 17.881337 Si / 1000 Ang^3
#
#
#
# Elastic Constant Matrix: (Units=GPa)
#
#
# Indices 1 2 3 4 5 6 
#
# 1 62.6387 7.9396 41.2101 0.0000 -3.2836 0.0000
# 2 7.9396 32.4810 30.8825 0.0000 -2.3070 0.0000
# 3 41.2101 30.8825 147.8667 0.0000 -10.1370 0.0000
# 4 0.0000 0.0000 0.0000 20.2565 0.0000 -2.6994
# 5 -3.2836 -2.3070 -10.1370 0.0000 23.1799 0.0000
# 6 0.0000 0.0000 0.0000 -2.6994 0.0000 28.8782
#
#
#
# Elastic Compliance Matrix: (Units=1/GPa)
#
#
# Indices 1 2 3 4 5 6 
#
# 1 0.019559 0.000504 -0.005529 0.000000 0.000403 0.000000
# 2 0.000504 0.038431 -0.008144 0.000000 0.000335 0.000000
# 3 -0.005529 -0.008144 0.010201 0.000000 0.002867 0.000000
# 4 0.000000 0.000000 0.000000 0.049989 0.000000 0.004673
# 5 0.000403 0.000335 0.002867 0.000000 0.044485 0.000000
# 6 0.000000 0.000000 0.000000 0.004673 0.000000 0.035065
#
#
# Mechanical properties :
#
#
# Convention : Reuss Voigt Hill
#
# Bulk Modulus (GPa) = 23.89241 44.78344 34.33792
# Shear Modulus (GPa) = 21.00669 25.32654 23.16662
#
# Velocity S-wave (km/s) = 3.43123 3.76755 3.60331
# Velocity P-wave (km/s) = 5.39337 6.63514 6.04622
#
# Compressibility (1/GPa) = 0.04185430
#
# Stress axis : x y z
#
# Youngs Moduli (GPa) = 51.12692 26.02070 98.02766
#
# Poissons Ratio (x) = -0.01312 0.54198
# Poissons Ratio (y) = -0.02579 0.79834
# Poissons Ratio (z) = 0.28267 0.21191
#
# Static dielectric constant tensor:
#      x y z
#    x 2.930820 0.000000 -0.105220 
#    y 0.000000 3.297190 0.000000 
#    z -0.105220 0.000000 3.986470 
# 
# 
# High freq. dielectric constant tensor:
#      x y z
#    x 1.650700 0.000000 -0.009620 
#    y 0.000000 1.705220 0.000000 
#    z -0.009620 0.000000 1.710020 
# 
# From -- ./inp_files/229853.got.cif
#   From: 2010.06.25/outbox.cif.g09.slc.cpg/sg12_115_cif.got.tgz:229853.got - 2010.06.28 00:19:55.
