data_PCOD8081276
_publ_section_title
;
Structure prediction by ZEFSAII (Michael W. Deem and Ramdas Pophale) SiO2 
 PCOD8081276
Probable space group: C 2/M
;
_chemical_formula_sum "Si O2"
_cell_formula_units_Z 56
_cell_length_a 13.667279
_cell_length_b 18.177402
_cell_length_c 28.363858
_cell_angle_alpha 90.000000
_cell_angle_beta 149.990639
_cell_angle_gamma 90.000000
_cell_volume 3524.293375
_symmetry_space_group_name_H-M "C 2/M"
_symmetry_group_IT_number 12
_symmetry_cell_setting 'monoclinic'
loop_
_space_group_symop_operation_xyz
x,y,z
-x,y,-z
-x,-y,-z
x,-y,z
1/2+x,1/2+y,z
1/2-x,1/2+y,-z
1/2-x,1/2-y,-z
1/2+x,1/2-y,z
loop_
_atom_site_type_symbol
_atom_site_label
_atom_site_fract_x
_atom_site_fract_y
_atom_site_fract_z
Si Si1 0.942193 0.587986 0.229118
Si Si2 0.319413 0.580789 0.959952
Si Si3 0.404889 0.587807 0.849478
Si Si4 0.274671 0.337208 0.418911
Si Si5 0.825395 0.584494 0.526412
Si Si6 0.217624 0.915760 0.301559
Si Si7 0.729112 0.830300 0.586590
O O1 0.960672 0.500000 0.236033
O O2 0.859605 0.618285 0.143826
O O3 0.795846 0.614370 0.209603
O O4 0.152892 0.623290 0.326640
O O5 0.245473 0.500000 0.943816
O O6 0.500000 0.573173 0.000000
O O7 0.403331 0.620682 0.042538
O O8 0.410407 0.500000 0.855852
O O9 0.407905 0.611978 0.796028
O O10 0.500000 0.342245 0.500000
O O11 0.243407 0.376471 0.455186
O O12 0.202612 0.253099 0.392329
O O13 0.759048 0.500000 0.500276
O O14 0.716719 0.623240 0.437212
O O15 0.056938 0.591552 0.618365
O O16 0.160535 0.865301 0.322207
O O17 0.168430 0.000000 0.293964
O O18 0.500000 0.835844 0.500000
#
# Coordination Sequence:
#
# PCOD8081276 Si02
#       7
#     8   8   8   8   8   8   8
#     4   9  15  25  39  59  85 113 141 169 202 242
#     4   7  11  19  35  59  86 106 126 163 211 255
#     4   8  12  21  40  66  86 102 127 167 217 256
#     4  11  21  30  40  58  87 122 147 167 193 243
#     4  10  18  30  46  61  80 108 143 180 213 241
#     4   9  15  26  46  67  84 103 134 176 218 254
#     4   9  19  31  42  59  84 112 141 173 212 252
#
# _framework density 15.889709
#
# number of rings (size 3 to 8) (size 9 to 14) (size 15 to 20)
#    0.000    3.000    1.429    3.000    0.000    2.857 
#    0.000    0.000    0.000    0.857    0.000    0.000 
#    0.000    0.143    0.000    8.571    0.000    0.000 
#
# Total GULP energy -346883.222073 kJ/mol
# GULP energy per Si atom -12388.686503 kJ/mol
# Density = 1.585354 g / cm^3
# Si number density = 15.889709 Si / 1000 Ang^3
#
#
#
# Elastic Constant Matrix: (Units=GPa)
#
#
# Indices 1 2 3 4 5 6 
#
# 1 53.3520 42.4276 49.1761 0.0001 -26.6537 0.0002
# 2 42.4276 82.3945 41.1940 -0.0002 -16.3910 0.0000
# 3 49.1761 41.1940 110.2397 0.0051 -39.6375 -0.0008
# 4 0.0001 -0.0002 0.0051 4.2357 -0.0002 1.4828
# 5 -26.6537 -16.3910 -39.6375 -0.0002 30.9163 0.0001
# 6 0.0002 0.0000 -0.0008 1.4828 0.0001 19.0249
#
#
#
# Elastic Compliance Matrix: (Units=1/GPa)
#
#
# Indices 1 2 3 4 5 6 
#
# 1 0.053959 -0.018727 -0.007265 0.000009 0.027276 -0.000002
# 2 -0.018727 0.021458 -0.002559 0.000004 -0.008049 0.000000
# 3 -0.007265 -0.002559 0.019532 -0.000023 0.017422 0.000003
# 4 0.000009 0.000004 -0.000023 0.242710 -0.000018 -0.018917
# 5 0.027276 -0.008049 0.017422 -0.000018 0.073931 0.000001
# 6 -0.000002 0.000000 0.000003 -0.018917 0.000001 0.054037
#
#
# Mechanical properties :
#
#
# Convention : Reuss Voigt Hill
#
# Bulk Modulus (GPa) = 26.42117 56.84240 41.63179
# Shear Modulus (GPa) = 9.33979 18.38128 13.86053
#
# Velocity S-wave (km/s) = 2.42706 3.40487 2.95667
# Velocity P-wave (km/s) = 4.95158 7.16298 6.15737
#
# Compressibility (1/GPa) = 0.03784843
#
# Stress axis : x y z
#
# Youngs Moduli (GPa) = 18.53265 46.60322 51.19708
#
# Poissons Ratio (x) = 0.87273 0.37194
# Poissons Ratio (y) = 0.34706 0.13099
# Poissons Ratio (z) = 0.13464 0.11924
#
# Static dielectric constant tensor:
#      x y z
#    x 2.931620 0.000000 -0.493000 
#    y 0.000000 2.853800 0.000000 
#    z -0.493000 0.000000 3.251580 
# 
# 
# High freq. dielectric constant tensor:
#      x y z
#    x 1.584970 0.000000 -0.041890 
#    y 0.000000 1.580860 0.000000 
#    z -0.041890 0.000000 1.601200 
# 
# From -- ./inp_files/215551.got.cif
#   From: 2010.06.25/outbox.cif.g09.slc.cpg/sg12_108_cif.got.tgz:215551.got - 2010.06.28 00:19:55.
