data_PCOD8081913
_publ_section_title
;
Structure prediction by ZEFSAII (Michael W. Deem and Ramdas Pophale) SiO2 
 PCOD8081913
Probable space group: C 2/M
;
_chemical_formula_sum "Si O2"
_cell_formula_units_Z 56
_cell_length_a 31.324871
_cell_length_b 9.292041
_cell_length_c 18.776938
_cell_angle_alpha 90.000000
_cell_angle_beta 32.813770
_cell_angle_gamma 90.000000
_cell_volume 2961.778076
_symmetry_space_group_name_H-M "C 2/M"
_symmetry_group_IT_number 12
_symmetry_cell_setting 'monoclinic'
loop_
_space_group_symop_operation_xyz
x,y,z
-x,y,-z
-x,-y,-z
x,-y,z
1/2+x,1/2+y,z
1/2-x,1/2+y,-z
1/2-x,1/2-y,-z
1/2+x,1/2-y,z
loop_
_atom_site_type_symbol
_atom_site_label
_atom_site_fract_x
_atom_site_fract_y
_atom_site_fract_z
Si Si1 0.838804 0.658715 0.944757
Si Si2 0.090640 0.662273 0.891756
Si Si3 0.238099 0.668306 0.590583
Si Si4 0.656869 0.342045 0.188315
Si Si5 0.816599 0.662393 0.602593
Si Si6 0.585914 0.833542 0.406157
Si Si7 0.664044 0.664356 0.908656
O O1 0.878087 0.500000 0.896331
O O2 0.749179 0.638915 0.047021
O O3 0.848141 0.742097 0.004709
O O4 0.881541 0.748696 0.821983
O O5 0.109431 0.500000 0.891968
O O6 0.148993 0.696533 0.743437
O O7 0.103287 0.776859 0.935782
O O8 0.000000 0.677980 0.000000
O O9 0.255017 0.500000 0.555504
O O10 0.250000 0.750000 0.500000
O O11 0.301671 0.727919 0.558922
O O12 0.616753 0.500000 0.245506
O O13 0.646623 0.262821 0.277459
O O14 0.815979 0.500000 0.572178
O O15 0.898443 0.694113 0.530882
O O16 0.751390 0.679574 0.755413
O O17 0.500000 0.786319 0.500000
O O18 0.602088 0.000000 0.365475
O O19 0.643151 0.500000 0.955852
#
# Coordination Sequence:
#
# PCOD8081913 Si02
#       7
#     8   8   8   8   8   8   8
#     4  10  19  31  50  74 101 133 170 212 258 311
#     4   9  19  36  56  79 108 142 178 217 266 325
#     4  10  20  35  58  84 109 139 178 223 271 326
#     4  10  20  32  49  73 102 133 169 216 263 304
#     4   9  18  33  53  77 105 137 178 222 262 312
#     4  10  20  35  54  75 104 144 184 220 262 316
#     4  10  18  30  52  79 106 135 171 219 266 313
#
# _framework density 18.907561000000001
#
# number of rings (size 3 to 8) (size 9 to 14) (size 15 to 20)
#    0.000    2.286    1.429    1.714    0.000    3.429 
#    0.000    1.429    0.000    3.429    0.000    0.000 
#    0.000    0.000    0.000    0.000    0.000    0.000 
#
# Total GULP energy -347074.873996 kJ/mol
# GULP energy per Si atom -12395.531214 kJ/mol
# Density = 1.886453 g / cm^3
# Si number density = 18.907561 Si / 1000 Ang^3
#
#
#
# Elastic Constant Matrix: (Units=GPa)
#
#
# Indices 1 2 3 4 5 6 
#
# 1 122.4161 73.1574 41.1955 0.0004 13.0434 -0.0002
# 2 73.1574 142.2778 33.1670 -0.0223 20.8475 0.0040
# 3 41.1955 33.1670 40.2707 -0.0129 6.1724 0.0030
# 4 0.0004 -0.0223 -0.0129 18.2186 0.0030 6.4746
# 5 13.0434 20.8475 6.1724 0.0030 32.9005 0.0001
# 6 -0.0002 0.0040 0.0030 6.4746 0.0001 35.9451
#
#
#
# Elastic Compliance Matrix: (Units=1/GPa)
#
#
# Indices 1 2 3 4 5 6 
#
# 1 0.014964 -0.005013 -0.011075 -0.000016 -0.000678 0.000004
# 2 -0.005013 0.011009 -0.003268 0.000013 -0.004375 -0.000003
# 3 -0.011075 -0.003268 0.038983 0.000027 -0.000852 -0.000008
# 4 -0.000016 0.000013 0.000027 0.058643 -0.000012 -0.010563
# 5 -0.000678 -0.004375 -0.000852 -0.000012 0.033596 0.000003
# 6 0.000004 -0.000003 -0.000008 -0.010563 0.000003 0.029723
#
#
# Mechanical properties :
#
#
# Convention : Reuss Voigt Hill
#
# Bulk Modulus (GPa) = 38.10377 66.66716 52.38547
# Shear Modulus (GPa) = 21.33297 27.90913 24.62105
#
# Velocity S-wave (km/s) = 3.36263 3.84615 3.61249
# Velocity P-wave (km/s) = 5.93909 7.42024 6.72059
#
# Compressibility (1/GPa) = 0.02624412
#
# Stress axis : x y z
#
# Youngs Moduli (GPa) = 66.82724 90.83282 25.65194
#
# Poissons Ratio (x) = 0.45537 0.28409
# Poissons Ratio (y) = 0.33502 0.08384
# Poissons Ratio (z) = 0.74010 0.29686
#
# Static dielectric constant tensor:
#      x y z
#    x 3.455920 0.000000 0.029410 
#    y 0.000000 3.787980 0.000010 
#    z 0.029410 0.000010 3.158960 
# 
# 
# High freq. dielectric constant tensor:
#      x y z
#    x 1.732130 0.000000 0.012200 
#    y 0.000000 1.749700 0.000000 
#    z 0.012200 0.000000 1.696850 
# 
# From -- ./inp_files/280907.got.cif
#   From: 2010.06.25/outbox.cif.g09.slc.cpg/sg12_141_cif.got.tgz:280907.got - 2010.06.28 00:19:55.
