data_PCOD8081282
_publ_section_title
;
Structure prediction by ZEFSAII (Michael W. Deem and Ramdas Pophale) SiO2 
 PCOD8081282
Probable space group: C 2/M
;
_chemical_formula_sum "Si O2"
_cell_formula_units_Z 56
_cell_length_a 24.085800
_cell_length_b 8.724308
_cell_length_c 25.487389
_cell_angle_alpha 90.000000
_cell_angle_beta 39.269634
_cell_angle_gamma 90.000000
_cell_volume 3390.010094
_symmetry_space_group_name_H-M "C 2/M"
_symmetry_group_IT_number 12
_symmetry_cell_setting 'monoclinic'
loop_
_space_group_symop_operation_xyz
x,y,z
-x,y,-z
-x,-y,-z
x,-y,z
1/2+x,1/2+y,z
1/2-x,1/2+y,-z
1/2-x,1/2-y,-z
1/2+x,1/2-y,z
loop_
_atom_site_type_symbol
_atom_site_label
_atom_site_fract_x
_atom_site_fract_y
_atom_site_fract_z
Si Si1 0.655387 0.321272 0.013048
Si Si2 0.596803 0.176664 0.950438
Si Si3 0.745895 0.816672 0.222433
Si Si4 0.636423 0.171915 0.394265
Si Si5 0.590609 0.679072 0.270134
Si Si6 0.141235 0.678458 0.130926
Si Si7 0.025495 0.673818 0.565829
O O1 0.641242 0.500000 0.033075
O O2 0.605088 0.270624 0.997875
O O3 0.757498 0.280484 0.932251
O O4 0.614455 0.230958 0.092237
O O5 0.661894 0.240719 0.858491
O O6 0.618826 0.000000 0.945421
O O7 0.500000 0.200559 0.000000
O O8 0.718024 0.756243 0.301700
O O9 0.673105 0.770049 0.233248
O O10 0.753621 0.000000 0.215346
O O11 0.606793 0.247735 0.471864
O O12 0.556834 0.171922 0.412144
O O13 0.661555 0.000000 0.391116
O O14 0.607439 0.500000 0.263835
O O15 0.582462 0.727281 0.215344
O O16 0.498880 0.723444 0.365975
O O17 0.121505 0.500000 0.151914
O O18 0.046714 0.500000 0.568560
#
# Coordination Sequence:
#
# PCOD8081282 Si02
#       7
#     8   8   8   8   8   8   8
#     4  10  20  33  50  69  89 117 153 192 232 274
#     4  11  23  36  49  67  93 123 155 193 234 273
#     4  10  18  30  46  63  84 116 157 193 229 271
#     4   7  12  23  40  58  79 111 149 186 221 264
#     4  11  19  26  40  64  94 122 151 186 223 269
#     4  10  19  31  48  68  92 121 152 189 229 276
#     4   8  13  24  39  56  82 116 150 181 218 265
#
# _framework density 16.519126
#
# number of rings (size 3 to 8) (size 9 to 14) (size 15 to 20)
#    0.000    2.429    1.429    4.714    0.000    2.286 
#    0.000    6.429    0.000    0.000    0.000    0.000 
#    0.000    1.143    0.000    3.429    0.000    5.571 
#
# Total GULP energy -346950.093825 kJ/mol
# GULP energy per Si atom -12391.074779 kJ/mol
# Density = 1.648153 g / cm^3
# Si number density = 16.519126 Si / 1000 Ang^3
#
#
#
# Elastic Constant Matrix: (Units=GPa)
#
#
# Indices 1 2 3 4 5 6 
#
# 1 37.0165 14.4897 32.6779 0.0007 8.2521 -0.0030
# 2 14.4897 48.2260 29.7443 -0.0011 5.0049 -0.0109
# 3 32.6779 29.7443 142.6432 -0.0014 24.8459 0.0016
# 4 0.0007 -0.0011 -0.0014 24.4350 0.0005 3.9714
# 5 8.2521 5.0049 24.8459 0.0005 18.9991 0.0004
# 6 -0.0030 -0.0109 0.0016 3.9714 0.0004 17.6569
#
#
#
# Elastic Compliance Matrix: (Units=1/GPa)
#
#
# Indices 1 2 3 4 5 6 
#
# 1 0.036140 -0.006628 -0.005785 -0.000002 -0.006386 0.000003
# 2 -0.006628 0.025013 -0.003951 -0.000001 0.001457 0.000015
# 3 -0.005785 -0.003951 0.011060 0.000002 -0.010910 -0.000005
# 4 -0.000002 -0.000001 0.000002 0.042478 -0.000002 -0.009554
# 5 -0.006386 0.001457 -0.010910 -0.000002 0.069292 -0.000001
# 6 0.000003 0.000015 -0.000005 -0.009554 -0.000001 0.058784
#
#
# Mechanical properties :
#
#
# Convention : Reuss Voigt Hill
#
# Bulk Modulus (GPa) = 25.32592 42.41215 33.86903
# Shear Modulus (GPa) = 17.32172 22.28313 19.80242
#
# Velocity S-wave (km/s) = 3.24170 3.67676 3.46606
# Velocity P-wave (km/s) = 5.41997 6.61476 6.04695
#
# Compressibility (1/GPa) = 0.03948525
#
# Stress axis : x y z
#
# Youngs Moduli (GPa) = 27.67035 39.97959 90.41596
#
# Poissons Ratio (x) = 0.26497 0.52304
# Poissons Ratio (y) = 0.18339 0.35724
# Poissons Ratio (z) = 0.16007 0.15796
#
# Static dielectric constant tensor:
#      x y z
#    x 2.572170 0.000000 0.293890 
#    y 0.000000 3.065640 0.000000 
#    z 0.293890 0.000000 3.789170 
# 
# 
# High freq. dielectric constant tensor:
#      x y z
#    x 1.564730 0.000000 0.032620 
#    y 0.000000 1.633230 0.000000 
#    z 0.032620 0.000000 1.654330 
# 
# From -- ./inp_files/348463.got.cif
#   From: 2010.06.25/outbox.cif.g09.slc.cpg/sg12_175_cif.got.tgz:348463.got - 2010.06.28 00:19:55.
