data_PCOD8081097
_publ_section_title
;
Structure prediction by ZEFSAII (Michael W. Deem and Ramdas Pophale) SiO2 
 PCOD8081097
Probable space group: C 2/M
;
_chemical_formula_sum "Si O2"
_cell_formula_units_Z 56
_cell_length_a 28.893587
_cell_length_b 9.266222
_cell_length_c 11.815820
_cell_angle_alpha 90.000000
_cell_angle_beta 109.265031
_cell_angle_gamma 90.000000
_cell_volume 2986.353199
_symmetry_space_group_name_H-M "C 2/M"
_symmetry_group_IT_number 12
_symmetry_cell_setting 'monoclinic'
loop_
_space_group_symop_operation_xyz
x,y,z
-x,y,-z
-x,-y,-z
x,-y,z
1/2+x,1/2+y,z
1/2-x,1/2+y,-z
1/2-x,1/2-y,-z
1/2+x,1/2-y,z
loop_
_atom_site_type_symbol
_atom_site_label
_atom_site_fract_x
_atom_site_fract_y
_atom_site_fract_z
Si Si1 0.083634 0.832989 0.327793
Si Si2 0.601328 0.671678 0.816371
Si Si3 0.676739 0.166263 0.406178
Si Si4 0.711018 0.670380 0.891332
Si Si5 0.053826 0.168290 0.552223
Si Si6 0.989359 0.171509 0.115445
Si Si7 0.774999 0.165822 0.356583
O O1 0.128707 0.741640 0.314346
O O2 0.083481 0.805388 0.461645
O O3 0.032677 0.777401 0.233674
O O4 0.091968 0.000000 0.303930
O O5 0.600726 0.500000 0.810717
O O6 0.656748 0.722606 0.886505
O O7 0.584304 0.735451 0.681030
O O8 0.563202 0.728648 0.881026
O O9 0.718694 0.187421 0.346628
O O10 0.690616 0.238382 0.536539
O O11 0.665703 0.000000 0.421257
O O12 0.717935 0.500000 0.912102
O O13 0.719168 0.715820 0.767781
O O14 0.750000 0.750000 0.000000
O O15 0.000000 0.240680 0.500000
O O16 0.046241 0.000000 0.570942
O O17 0.987780 0.000000 0.109540
O O18 0.000000 0.236545 0.000000
O O19 0.791765 0.000000 0.385304
#
# Coordination Sequence:
#
# PCOD8081097 Si02
#       7
#     8   8   8   8   8   8   8
#     4  10  18  29  49  76 103 132 167 208 256 311
#     4   9  16  28  46  70  97 127 165 209 253 293
#     4  10  20  33  53  78 106 136 169 215 267 319
#     4  10  21  36  55  77 104 138 177 220 261 310
#     4   9  14  24  46  74  98 123 163 210 251 295
#     4   9  17  28  43  69 103 131 160 204 252 298
#     4   9  19  37  55  75 102 135 176 220 265 310
#
# _framework density 18.751968999999999
#
# number of rings (size 3 to 8) (size 9 to 14) (size 15 to 20)
#    0.000    2.571    1.429    1.286    0.000    4.571 
#    0.000    1.429    0.000    1.714    0.000    0.000 
#    0.000    0.000    0.000    0.000    0.000    0.000 
#
# Total GULP energy -347133.638004 kJ/mol
# GULP energy per Si atom -12397.629929 kJ/mol
# Density = 1.870929 g / cm^3
# Si number density = 18.751969 Si / 1000 Ang^3
#
#
#
# Elastic Constant Matrix: (Units=GPa)
#
#
# Indices 1 2 3 4 5 6 
#
# 1 157.9740 42.4226 77.4573 0.0000 13.5699 0.0000
# 2 42.4226 42.6669 26.8154 0.0000 3.6540 0.0000
# 3 77.4573 26.8154 116.8039 0.0000 -1.0656 0.0000
# 4 0.0000 0.0000 0.0000 18.4275 0.0000 4.8556
# 5 13.5699 3.6540 -1.0656 0.0000 31.8165 0.0000
# 6 0.0000 0.0000 0.0000 4.8556 0.0000 22.9753
#
#
#
# Elastic Compliance Matrix: (Units=1/GPa)
#
#
# Indices 1 2 3 4 5 6 
#
# 1 0.011674 -0.007416 -0.006079 0.000000 -0.004331 0.000000
# 2 -0.007416 0.032464 -0.002541 0.000000 -0.000650 0.000000
# 3 -0.006079 -0.002541 0.013206 0.000000 0.003327 0.000000
# 4 0.000000 0.000000 0.000000 0.057467 0.000000 -0.012145
# 5 -0.004331 -0.000650 0.003327 0.000000 0.033464 0.000000
# 6 0.000000 0.000000 0.000000 -0.012145 0.000000 0.046092
#
#
# Mechanical properties :
#
#
# Convention : Reuss Voigt Hill
#
# Bulk Modulus (GPa) = 39.56847 67.87061 53.71954
# Shear Modulus (GPa) = 21.28918 26.02714 23.65816
#
# Velocity S-wave (km/s) = 3.37308 3.72959 3.55581
# Velocity P-wave (km/s) = 6.02636 7.40398 6.75040
#
# Compressibility (1/GPa) = 0.02527265
#
# Stress axis : x y z
#
# Youngs Moduli (GPa) = 85.65951 30.80366 75.72347
#
# Poissons Ratio (x) = 0.22844 0.46029
# Poissons Ratio (y) = 0.63526 0.19240
# Poissons Ratio (z) = 0.52068 0.07827
#
# Static dielectric constant tensor:
#      x y z
#    x 3.725980 0.000000 -0.018700 
#    y 0.000000 2.943590 0.000000 
#    z -0.018700 0.000000 3.443480 
# 
# 
# High freq. dielectric constant tensor:
#      x y z
#    x 1.748470 0.000000 0.002440 
#    y 0.000000 1.667390 0.000000 
#    z 0.002440 0.000000 1.723550 
# 
# From -- ./inp_files/186854.got.cif
#   From: 2010.06.25/outbox.cif.g09.slc.cpg/sg12_94_cif.got.tgz:186854.got - 2010.06.28 00:19:55.
