data_PCOD8081154
_publ_section_title
;
Structure prediction by ZEFSAII (Michael W. Deem and Ramdas Pophale) SiO2 
 PCOD8081154
Probable space group: C 2/M
;
_chemical_formula_sum "Si O2"
_cell_formula_units_Z 40
_cell_length_a 18.447048
_cell_length_b 9.166769
_cell_length_c 26.344912
_cell_angle_alpha 90.000000
_cell_angle_beta 150.485537
_cell_angle_gamma 90.000000
_cell_volume 2194.686288
_symmetry_space_group_name_H-M "C 2/M"
_symmetry_group_IT_number 12
_symmetry_cell_setting 'monoclinic'
loop_
_space_group_symop_operation_xyz
x,y,z
-x,y,-z
-x,-y,-z
x,-y,z
1/2+x,1/2+y,z
1/2-x,1/2+y,-z
1/2-x,1/2-y,-z
1/2+x,1/2-y,z
loop_
_atom_site_type_symbol
_atom_site_label
_atom_site_fract_x
_atom_site_fract_y
_atom_site_fract_z
Si Si1 0.157451 0.670884 0.286181
Si Si2 0.815642 0.327386 0.291873
Si Si3 0.179278 0.328231 0.909351
Si Si4 0.834972 0.173174 0.902813
Si Si5 0.573547 0.660784 0.490024
O O1 0.175976 0.500000 0.284522
O O2 0.206992 0.761248 0.267435
O O3 0.257654 0.710804 0.396736
O O4 0.991824 0.712770 0.199073
O O5 0.813766 0.500000 0.296556
O O6 0.758224 0.274216 0.202334
O O7 0.984291 0.272625 0.400227
O O8 0.202741 0.500000 0.929988
O O9 0.257866 0.267703 0.906701
O O10 0.250000 0.250000 0.000000
O O11 0.840350 0.000000 0.907407
O O12 0.000000 0.237410 0.000000
O O13 0.500000 0.655161 0.500000
O O14 0.568754 0.500000 0.461830
#
# Coordination Sequence:
#
# PCOD8081154 Si02
#       5
#     8   8   8   8   8
#     4   9  18  32  50  71  97 131 163 193 236 287
#     4  10  18  29  50  76  98 124 161 202 238 276
#     4  10  20  35  53  72  96 126 162 200 239 286
#     4   9  18  32  49  70  97 127 156 192 243 294
#     4   8  15  29  47  68  97 131 162 191 232 285
#
# _framework density 18.225838
#
# number of rings (size 3 to 8) (size 9 to 14) (size 15 to 20)
#    0.000    2.800    0.000    3.000    0.000    6.000 
#    0.000    3.000    0.000    5.400    0.000    0.000 
#    0.000    0.000    0.000    0.000    0.000    0.000 
#
# Total GULP energy -247931.551473 kJ/mol
# GULP energy per Si atom -12396.577574 kJ/mol
# Density = 1.818436 g / cm^3
# Si number density = 18.225838 Si / 1000 Ang^3
#
#
#
# Elastic Constant Matrix: (Units=GPa)
#
#
# Indices 1 2 3 4 5 6 
#
# 1 117.5434 40.0423 89.3050 0.0000 -2.0810 0.0000
# 2 40.0423 52.8564 52.8378 0.0000 -3.9799 0.0000
# 3 89.3050 52.8378 196.8394 0.0001 2.2923 0.0001
# 4 0.0000 0.0000 0.0001 30.1899 0.0001 -3.9504
# 5 -2.0810 -3.9799 2.2923 0.0001 31.7692 0.0000
# 6 0.0000 0.0000 0.0001 -3.9504 0.0000 16.0329
#
#
#
# Elastic Compliance Matrix: (Units=1/GPa)
#
#
# Indices 1 2 3 4 5 6 
#
# 1 0.014224 -0.005845 -0.004891 0.000000 0.000552 0.000000
# 2 -0.005845 0.028712 -0.005097 0.000000 0.003582 0.000000
# 3 -0.004891 -0.005097 0.008686 0.000000 -0.001586 0.000000
# 4 0.000000 0.000000 0.000000 0.034227 0.000000 0.008433
# 5 0.000552 0.003582 -0.001586 0.000000 0.032076 0.000000
# 6 0.000000 0.000000 0.000000 0.008433 0.000000 0.064450
#
#
# Mechanical properties :
#
#
# Convention : Reuss Voigt Hill
#
# Bulk Modulus (GPa) = 50.10942 81.28993 65.69967
# Shear Modulus (GPa) = 22.65579 27.93536 25.29557
#
# Velocity S-wave (km/s) = 3.52953 3.91926 3.72949
# Velocity P-wave (km/s) = 6.64556 8.07336 7.39400
#
# Compressibility (1/GPa) = 0.01995633
#
# Stress axis : x y z
#
# Youngs Moduli (GPa) = 70.30147 34.82834 115.12818
#
# Poissons Ratio (x) = 0.20358 0.56309
# Poissons Ratio (y) = 0.41092 0.58682
# Poissons Ratio (z) = 0.34384 0.17752
#
# Static dielectric constant tensor:
#      x y z
#    x 3.240080 0.000000 0.127170 
#    y 0.000000 3.158650 0.000000 
#    z 0.127170 0.000000 4.001770 
# 
# 
# High freq. dielectric constant tensor:
#      x y z
#    x 1.680170 0.000000 0.003050 
#    y 0.000000 1.683240 0.000000 
#    z 0.003050 0.000000 1.730290 
# 
# From -- ./inp_files/179664.got.cif
#   From: 2010.06.25/outbox.cif.g09.slc.cpg/sg12_90_cif.got.tgz:179664.got - 2010.06.28 00:19:55.
