data_PCOD8081242
_publ_section_title
;
Structure prediction by ZEFSAII (Michael W. Deem and Ramdas Pophale) SiO2 
 PCOD8081242
Probable space group: C 2/M
;
_chemical_formula_sum "Si O2"
_cell_formula_units_Z 64
_cell_length_a 16.257007
_cell_length_b 17.519188
_cell_length_c 23.467095
_cell_angle_alpha 90.000000
_cell_angle_beta 32.218907
_cell_angle_gamma 90.000000
_cell_volume 3563.426261
_symmetry_space_group_name_H-M "C 2/M"
_symmetry_group_IT_number 12
_symmetry_cell_setting 'monoclinic'
loop_
_space_group_symop_operation_xyz
x,y,z
-x,y,-z
-x,-y,-z
x,-y,z
1/2+x,1/2+y,z
1/2-x,1/2+y,-z
1/2-x,1/2-y,-z
1/2+x,1/2-y,z
loop_
_atom_site_type_symbol
_atom_site_label
_atom_site_fract_x
_atom_site_fract_y
_atom_site_fract_z
Si Si1 0.512699 0.198646 0.573139
Si Si2 0.788454 0.587917 0.380976
Si Si3 0.121045 0.148719 0.384721
Si Si4 0.743514 0.087534 0.299768
Si Si5 0.135779 0.180387 0.668256
Si Si6 0.453482 0.182389 0.736105
Si Si7 0.829653 0.087295 0.119904
Si Si8 0.041256 0.911385 0.617031
O O1 0.413009 0.261476 0.597914
O O2 0.433298 0.118881 0.600677
O O3 0.692832 0.202599 0.452992
O O4 0.489706 0.216585 0.652896
O O5 0.759723 0.500000 0.386688
O O6 0.780498 0.633163 0.324704
O O7 0.671259 0.621290 0.497575
O O8 0.956308 0.602826 0.308171
O O9 0.000000 0.108227 0.500000
O O10 0.117378 0.109674 0.323950
O O11 0.851102 0.135767 0.279805
O O12 0.822807 0.094818 0.191970
O O13 0.733723 0.000000 0.326111
O O14 0.052429 0.125873 0.671826
O O15 0.020883 0.254028 0.740778
O O16 0.277334 0.153617 0.846077
O O17 0.785115 0.000000 0.128024
O O18 0.000000 0.107576 0.000000
O O19 0.059220 0.000000 0.616858
#
# Coordination Sequence:
#
# PCOD8081242 Si02
#       8
#     8   8   8   8   8   8   8   8
#     4  11  20  32  48  70 109 151 178 204 247 303
#     4  10  19  30  45  67  97 132 179 219 238 282
#     4  10  18  30  43  62  93 138 183 208 241 282
#     4  10  22  35  52  79 105 141 183 216 260 315
#     4  12  20  32  47  74 112 143 173 210 248 305
#     4  11  20  32  53  78 103 137 176 210 258 314
#     4   9  20  41  63  79 100 128 166 224 283 326
#     4  10  19  29  43  64 100 146 176 203 241 282
#
# _framework density 17.960242999999998
#
# number of rings (size 3 to 8) (size 9 to 14) (size 15 to 20)
#    0.000    1.625    2.500    4.875    0.000    3.500 
#    0.000    0.625    0.000    0.000    0.000    0.000 
#    0.000    1.000    0.000    0.000    0.000    0.000 
#
# Total GULP energy -396500.255015 kJ/mol
# GULP energy per Si atom -12390.632969 kJ/mol
# Density = 1.791936 g / cm^3
# Si number density = 17.960243 Si / 1000 Ang^3
#
#
#
# Elastic Constant Matrix: (Units=GPa)
#
#
# Indices 1 2 3 4 5 6 
#
# 1 78.6772 35.9952 20.2057 -0.0002 -4.4817 0.0002
# 2 35.9952 92.0698 28.4263 0.0020 -8.6490 0.0011
# 3 20.2057 28.4263 58.6988 0.0009 -14.7868 0.0021
# 4 -0.0002 0.0020 0.0009 17.1761 -0.0001 -4.0963
# 5 -4.4817 -8.6490 -14.7868 -0.0001 14.1898 -0.0012
# 6 0.0002 0.0011 0.0021 -4.0963 -0.0012 43.3238
#
#
#
# Elastic Compliance Matrix: (Units=1/GPa)
#
#
# Indices 1 2 3 4 5 6 
#
# 1 0.015916 -0.005359 -0.003308 0.000001 -0.001687 0.000000
# 2 -0.005359 0.014610 -0.004629 -0.000002 0.002389 0.000000
# 3 -0.003308 -0.004629 0.026363 -0.000001 0.023606 -0.000001
# 4 0.000001 -0.000002 -0.000001 0.059564 -0.000001 0.005632
# 5 -0.001687 0.002389 0.023606 -0.000001 0.095996 0.000001
# 6 0.000000 0.000000 -0.000001 0.005632 0.000001 0.023614
#
#
# Mechanical properties :
#
#
# Convention : Reuss Voigt Hill
#
# Bulk Modulus (GPa) = 33.00728 44.30001 38.65364
# Shear Modulus (GPa) = 18.33155 24.59252 21.46204
#
# Velocity S-wave (km/s) = 3.19826 3.70439 3.46059
# Velocity P-wave (km/s) = 5.66184 6.55864 6.12667
#
# Compressibility (1/GPa) = 0.03029635
#
# Stress axis : x y z
#
# Youngs Moduli (GPa) = 62.83142 68.44577 37.93195
#
# Poissons Ratio (x) = 0.36683 0.12549
# Poissons Ratio (y) = 0.33674 0.17557
# Poissons Ratio (z) = 0.20786 0.31681
#
# Static dielectric constant tensor:
#      x y z
#    x 3.743410 0.000000 0.021920 
#    y 0.000000 3.378210 0.000000 
#    z 0.021920 0.000000 2.754800 
# 
# 
# High freq. dielectric constant tensor:
#      x y z
#    x 1.722730 0.000000 0.001810 
#    y 0.000000 1.709670 0.000000 
#    z 0.001810 0.000000 1.610330 
# 
# From -- ./inp_files/344366.got.cif
#   From: 2010.06.25/outbox.cif.g09.slc.cpg/sg12_173_cif.got.tgz:344366.got - 2010.06.28 00:19:55.
