data_PCOD8081994
_publ_section_title
;
Structure prediction by ZEFSAII (Michael W. Deem and Ramdas Pophale) SiO2 
 PCOD8081994
Probable space group: C 2/M
;
_chemical_formula_sum "Si O2"
_cell_formula_units_Z 56
_cell_length_a 24.942811
_cell_length_b 13.453442
_cell_length_c 14.856431
_cell_angle_alpha 90.000000
_cell_angle_beta 39.578183
_cell_angle_gamma 90.000000
_cell_volume 3176.301544
_symmetry_space_group_name_H-M "C 2/M"
_symmetry_group_IT_number 12
_symmetry_cell_setting 'monoclinic'
loop_
_space_group_symop_operation_xyz
x,y,z
-x,y,-z
-x,-y,-z
x,-y,z
1/2+x,1/2+y,z
1/2-x,1/2+y,-z
1/2-x,1/2-y,-z
1/2+x,1/2-y,z
loop_
_atom_site_type_symbol
_atom_site_label
_atom_site_fract_x
_atom_site_fract_y
_atom_site_fract_z
Si Si1 0.591780 0.886493 0.894551
Si Si2 0.260236 0.112201 0.425507
Si Si3 0.617719 0.214573 0.036860
Si Si4 0.517246 0.113700 0.685404
Si Si5 0.155156 0.388571 0.158850
Si Si6 0.198771 0.309836 0.436379
Si Si7 0.778617 0.883204 0.153525
O O1 0.645256 0.873749 0.734330
O O2 0.578990 0.000000 0.938278
O O3 0.500000 0.835952 0.000000
O O4 0.642532 0.837336 0.911099
O O5 0.199439 0.191320 0.454673
O O6 0.264236 0.131323 0.526367
O O7 0.227011 0.000000 0.450078
O O8 0.520360 0.184761 0.185867
O O9 0.678039 0.176576 0.040502
O O10 0.636832 0.331772 0.996570
O O11 0.447126 0.114323 0.695985
O O12 0.603859 0.157656 0.536694
O O13 0.530241 0.000000 0.703919
O O14 0.185880 0.500000 0.097896
O O15 0.200400 0.352166 0.190757
O O16 0.258535 0.339883 0.277226
O O17 0.795064 0.000000 0.137177
#
# Coordination Sequence:
#
# PCOD8081994 Si02
#       7
#     8   8   8   8   8   8   8
#     4  10  18  30  54  82 105 129 169 221 267 305
#     4  10  21  35  52  79 108 142 180 214 262 318
#     4  10  18  34  52  79 106 138 174 219 266 310
#     4   9  18  33  56  80 104 136 175 226 270 304
#     4   8  18  33  54  81 106 133 176 223 271 312
#     4  11  21  36  55  79 111 142 174 220 268 315
#     4  11  21  34  53  79 109 145 178 213 266 327
#
# _framework density 17.630568
#
# number of rings (size 3 to 8) (size 9 to 14) (size 15 to 20)
#    0.857    1.286    1.429    3.429    0.000    1.714 
#    0.000    2.857    0.000    0.429    0.000    1.000 
#    0.000    0.000    0.000    0.000    0.000    0.000 
#
# Total GULP energy -346887.114150 kJ/mol
# GULP energy per Si atom -12388.825505 kJ/mol
# Density = 1.759044 g / cm^3
# Si number density = 17.630568 Si / 1000 Ang^3
#
#
#
# Elastic Constant Matrix: (Units=GPa)
#
#
# Indices 1 2 3 4 5 6 
#
# 1 60.9664 35.6176 21.5189 0.0000 10.1686 0.0000
# 2 35.6176 111.3415 40.4041 0.0000 -4.5357 0.0000
# 3 21.5189 40.4041 66.5064 0.0000 1.4978 0.0000
# 4 0.0000 0.0000 0.0000 27.1668 0.0000 -5.0280
# 5 10.1686 -4.5357 1.4978 0.0000 32.8663 0.0000
# 6 0.0000 0.0000 0.0000 -5.0280 0.0000 18.0276
#
#
#
# Elastic Compliance Matrix: (Units=1/GPa)
#
#
# Indices 1 2 3 4 5 6 
#
# 1 0.022544 -0.006339 -0.003270 0.000000 -0.007701 0.000000
# 2 -0.006339 0.013425 -0.006197 0.000000 0.004096 0.000000
# 3 -0.003270 -0.006197 0.019876 0.000000 -0.000749 0.000000
# 4 0.000000 0.000000 0.000000 0.038813 0.000000 0.010825
# 5 -0.007701 0.004096 -0.000749 0.000000 0.033408 0.000000
# 6 0.000000 0.000000 0.000000 0.010825 0.000000 0.058490
#
#
# Mechanical properties :
#
#
# Convention : Reuss Voigt Hill
#
# Bulk Modulus (GPa) = 41.26585 48.21061 44.73823
# Shear Modulus (GPa) = 22.09981 25.03039 23.56510
#
# Velocity S-wave (km/s) = 3.54431 3.77200 3.65993
# Velocity P-wave (km/s) = 6.34084 6.80991 6.57956
#
# Compressibility (1/GPa) = 0.02423311
#
# Stress axis : x y z
#
# Youngs Moduli (GPa) = 44.35685 74.48850 50.31202
#
# Poissons Ratio (x) = 0.47218 0.16452
# Poissons Ratio (y) = 0.28117 0.31179
# Poissons Ratio (z) = 0.14505 0.46162
#
# Static dielectric constant tensor:
#      x y z
#    x 3.197270 0.000000 0.082820 
#    y 0.000000 3.317970 0.000000 
#    z 0.082820 0.000000 3.111310 
# 
# 
# High freq. dielectric constant tensor:
#      x y z
#    x 1.669820 0.000000 0.016440 
#    y 0.000000 1.675020 0.000000 
#    z 0.016440 0.000000 1.666930 
# 
# From -- ./inp_files/250529.got.cif
#   From: 2010.06.25/outbox.cif.g09.slc.cpg/sg12_126_cif.got.tgz:250529.got - 2010.06.28 00:19:55.
