data_PCOD8081195
_publ_section_title
;
Structure prediction by ZEFSAII (Michael W. Deem and Ramdas Pophale) SiO2 
 PCOD8081195
Probable space group: C 2/M
;
_chemical_formula_sum "Si O2"
_cell_formula_units_Z 64
_cell_length_a 20.545811
_cell_length_b 8.772389
_cell_length_c 20.589176
_cell_angle_alpha 90.000000
_cell_angle_beta 63.365714
_cell_angle_gamma 90.000000
_cell_volume 3317.128823
_symmetry_space_group_name_H-M "C 2/M"
_symmetry_group_IT_number 12
_symmetry_cell_setting 'monoclinic'
loop_
_space_group_symop_operation_xyz
x,y,z
-x,y,-z
-x,-y,-z
x,-y,z
1/2+x,1/2+y,z
1/2-x,1/2+y,-z
1/2-x,1/2-y,-z
1/2+x,1/2-y,z
loop_
_atom_site_type_symbol
_atom_site_label
_atom_site_fract_x
_atom_site_fract_y
_atom_site_fract_z
Si Si1 0.803163 0.820059 0.423696
Si Si2 0.515320 0.319196 0.188062
Si Si3 0.261031 0.679598 0.674935
Si Si4 0.834886 0.167441 0.831523
Si Si5 0.043526 0.678778 0.654934
Si Si6 0.954885 0.178547 0.079757
Si Si7 0.088964 0.168395 0.341006
Si Si8 0.791025 0.823933 0.171436
O O1 0.750000 0.750000 0.500000
O O2 0.777735 0.773980 0.363519
O O3 0.883725 0.759757 0.402114
O O4 0.802694 0.000000 0.430556
O O5 0.503040 0.500000 0.203331
O O6 0.601960 0.280145 0.146719
O O7 0.475318 0.234608 0.264567
O O8 0.481348 0.254309 0.136811
O O9 0.251360 0.500000 0.667161
O O10 0.347395 0.723569 0.638065
O O11 0.222070 0.721224 0.759739
O O12 0.873995 0.158955 0.745172
O O13 0.767451 0.284545 0.858981
O O14 0.804802 0.000000 0.863939
O O15 0.056186 0.500000 0.650290
O O16 0.979544 0.717768 0.631626
O O17 0.870035 0.213737 0.107130
O O18 0.971113 0.000000 0.074482
O O19 0.000000 0.253088 0.000000
O O20 0.060811 0.000000 0.373517
O O21 0.783658 0.000000 0.194603
#
# Coordination Sequence:
#
# PCOD8081195 Si02
#       8
#     8   8   8   8   8   8   8   8
#     4  12  25  41  58  78 109 144 180 219 261 310
#     4   9  17  32  54  76  99 133 175 215 260 312
#     4  10  20  36  58  83 110 139 174 216 265 317
#     4   8  15  28  47  72 102 133 165 208 261 314
#     4  11  21  34  56  84 111 139 175 218 263 312
#     4   9  18  32  49  70  97 132 176 221 261 307
#     4   8  16  32  54  80 109 139 171 212 262 313
#     4  10  18  29  51  79 103 132 171 216 263 310
#
# _framework density 19.293793999999998
#
# number of rings (size 3 to 8) (size 9 to 14) (size 15 to 20)
#    0.000    2.375    0.000    5.250    0.000    6.000 
#    0.000    1.875    0.000    7.125    0.000    0.000 
#    0.000    0.000    0.000    0.000    0.000    0.000 
#
# Total GULP energy -396693.600056 kJ/mol
# GULP energy per Si atom -12396.675002 kJ/mol
# Density = 1.924988 g / cm^3
# Si number density = 19.293794 Si / 1000 Ang^3
#
#
#
# Elastic Constant Matrix: (Units=GPa)
#
#
# Indices 1 2 3 4 5 6 
#
# 1 116.0508 45.3476 28.4620 -0.0002 -28.8819 0.0001
# 2 45.3476 101.1715 30.9180 0.0000 -15.1391 0.0001
# 3 28.4620 30.9180 59.6642 0.0000 -23.2913 -0.0001
# 4 -0.0002 0.0000 0.0000 17.8938 -0.0001 -4.2092
# 5 -28.8819 -15.1391 -23.2913 -0.0001 18.6798 -0.0001
# 6 0.0001 0.0001 -0.0001 -4.2092 -0.0001 33.6556
#
#
#
# Elastic Compliance Matrix: (Units=1/GPa)
#
#
# Indices 1 2 3 4 5 6 
#
# 1 0.016087 -0.004761 0.005838 0.000000 0.028294 0.000000
# 2 -0.004761 0.013290 -0.006400 0.000000 -0.004570 0.000000
# 3 0.005838 -0.006400 0.036611 0.000000 0.049490 0.000000
# 4 0.000000 0.000000 0.000000 0.057579 0.000001 0.007201
# 5 0.028294 -0.004570 0.049490 0.000001 0.155285 0.000001
# 6 0.000000 0.000000 0.000000 0.007201 0.000001 0.030613
#
#
# Mechanical properties :
#
#
# Convention : Reuss Voigt Hill
#
# Bulk Modulus (GPa) = 18.06886 54.03796 36.05341
# Shear Modulus (GPa) = 14.76849 25.52311 20.14580
#
# Velocity S-wave (km/s) = 2.76968 3.64107 3.23485
# Velocity P-wave (km/s) = 4.42873 6.76352 5.71659
#
# Compressibility (1/GPa) = 0.05534384
#
# Stress axis : x y z
#
# Youngs Moduli (GPa) = 62.16161 75.24400 27.31408
#
# Poissons Ratio (x) = 0.35823 -0.15947
# Poissons Ratio (y) = 0.29595 0.17480
# Poissons Ratio (z) = -0.36292 0.48154
#
# Static dielectric constant tensor:
#      x y z
#    x 4.146130 0.000000 -0.006480 
#    y 0.000000 3.456090 0.000000 
#    z -0.006480 0.000000 3.177400 
# 
# 
# High freq. dielectric constant tensor:
#      x y z
#    x 1.773770 0.000000 -0.006650 
#    y 0.000000 1.737740 0.000000 
#    z -0.006650 0.000000 1.710470 
# 
# From -- ./inp_files/319919.got.cif
#   From: 2010.06.25/outbox.cif.g09.slc.cpg/sg12_160_cif.got.tgz:319919.got - 2010.06.28 00:19:55.
