data_PCOD8081544
_publ_section_title
;
Structure prediction by ZEFSAII (Michael W. Deem and Ramdas Pophale) SiO2 
 PCOD8081544
Probable space group: C 2/M
;
_chemical_formula_sum "Si O2"
_cell_formula_units_Z 64
_cell_length_a 30.540038
_cell_length_b 9.088786
_cell_length_c 11.870437
_cell_angle_alpha 90.000000
_cell_angle_beta 93.286322
_cell_angle_gamma 90.000000
_cell_volume 3289.481031
_symmetry_space_group_name_H-M "C 2/M"
_symmetry_group_IT_number 12
_symmetry_cell_setting 'monoclinic'
loop_
_space_group_symop_operation_xyz
x,y,z
-x,y,-z
-x,-y,-z
x,-y,z
1/2+x,1/2+y,z
1/2-x,1/2+y,-z
1/2-x,1/2-y,-z
1/2+x,1/2-y,z
loop_
_atom_site_type_symbol
_atom_site_label
_atom_site_fract_x
_atom_site_fract_y
_atom_site_fract_z
Si Si1 0.791896 0.670586 0.953400
Si Si2 0.383144 0.672580 0.981634
Si Si3 0.832622 0.831905 0.589711
Si Si4 0.000861 0.175710 0.370336
Si Si5 0.238231 0.668796 0.298597
Si Si6 0.082618 0.173081 0.777154
Si Si7 0.413275 0.674826 0.743542
Si Si8 0.666091 0.331186 0.668769
O O1 0.791585 0.500000 0.989719
O O2 0.837321 0.744778 0.998128
O O3 0.789017 0.688064 0.819032
O O4 0.750000 0.750000 0.000000
O O5 0.371778 0.500000 0.972532
O O6 0.408032 0.727076 0.872452
O O7 0.416954 0.705886 0.088900
O O8 0.787518 0.747513 0.604986
O O9 0.871790 0.762910 0.669009
O O10 0.846126 0.814839 0.463058
O O11 0.824816 0.000000 0.623020
O O12 0.043133 0.238306 0.309546
O O13 0.000000 0.232713 0.500000
O O14 0.959475 0.239438 0.293641
O O15 0.001193 0.000000 0.370446
O O16 0.243753 0.500000 0.335944
O O17 0.286764 0.741234 0.294953
O O18 0.126906 0.245553 0.732260
O O19 0.082526 0.000000 0.753225
O O20 0.414856 0.500000 0.736858
O O21 0.668687 0.500000 0.707565
#
# Coordination Sequence:
#
# PCOD8081544 Si02
#       8
#     8   8   8   8   8   8   8   8
#     4  11  22  35  53  75 103 140 180 219 258 307
#     4  10  19  33  51  73 106 140 173 215 263 313
#     4  10  18  30  49  71  99 131 164 207 254 302
#     4   9  16  27  45  73 107 138 172 214 264 319
#     4  10  20  33  48  70  99 130 168 209 251 305
#     4   9  17  29  47  71 102 139 172 210 264 315
#     4   9  17  28  45  71 102 135 170 213 260 306
#     4   9  17  29  45  67  96 131 168 206 254 305
#
# _framework density 19.455957999999999
#
# number of rings (size 3 to 8) (size 9 to 14) (size 15 to 20)
#    0.000    2.375    1.250    2.250    0.000    6.000 
#    0.000    2.500    0.000    0.750    0.000    2.625 
#    0.000    3.500    0.000    0.000    0.000    0.000 
#
# Total GULP energy -396688.086805 kJ/mol
# GULP energy per Si atom -12396.502713 kJ/mol
# Density = 1.941167 g / cm^3
# Si number density = 19.455958 Si / 1000 Ang^3
#
#
#
# Elastic Constant Matrix: (Units=GPa)
#
#
# Indices 1 2 3 4 5 6 
#
# 1 152.4789 19.2369 67.6201 0.0000 -1.1858 0.0000
# 2 19.2369 33.4332 18.9188 0.0000 -2.8484 0.0000
# 3 67.6201 18.9188 105.5418 0.0000 3.0299 0.0000
# 4 0.0000 0.0000 0.0000 11.1927 0.0000 -1.8726
# 5 -1.1858 -2.8484 3.0299 0.0000 41.6019 0.0000
# 6 0.0000 0.0000 0.0000 -1.8726 0.0000 18.3096
#
#
#
# Elastic Compliance Matrix: (Units=1/GPa)
#
#
# Indices 1 2 3 4 5 6 
#
# 1 0.009316 -0.002147 -0.005599 0.000000 0.000526 0.000000
# 2 -0.002147 0.034092 -0.004811 0.000000 0.002623 0.000000
# 3 -0.005599 -0.004811 0.013968 0.000000 -0.001506 0.000000
# 4 0.000000 0.000000 0.000000 0.090900 0.000000 0.009297
# 5 0.000526 0.002623 -0.001506 0.000000 0.024342 0.000000
# 6 0.000000 0.000000 0.000000 0.009297 0.000000 0.055567
#
#
# Mechanical properties :
#
#
# Convention : Reuss Voigt Hill
#
# Bulk Modulus (GPa) = 30.99654 55.88952 43.44303
# Shear Modulus (GPa) = 18.93567 26.59937 22.76752
#
# Velocity S-wave (km/s) = 3.12309 3.70152 3.42454
# Velocity P-wave (km/s) = 5.38249 6.85980 6.16555
#
# Compressibility (1/GPa) = 0.03226167
#
# Stress axis : x y z
#
# Youngs Moduli (GPa) = 107.33833 29.33278 71.59311
#
# Poissons Ratio (x) = 0.06298 0.40086
# Poissons Ratio (y) = 0.23048 0.34441
# Poissons Ratio (z) = 0.60100 0.14111
#
# Static dielectric constant tensor:
#      x y z
#    x 3.799770 0.000000 0.019710 
#    y 0.000000 2.958620 0.000000 
#    z 0.019710 0.000000 3.661030 
# 
# 
# High freq. dielectric constant tensor:
#      x y z
#    x 1.767260 0.000000 0.000990 
#    y 0.000000 1.685970 0.000000 
#    z 0.000990 0.000000 1.772330 
# 
# From -- ./inp_files/187626.got.cif
#   From: 2010.06.25/outbox.cif.g09.slc.cpg/sg12_94_cif.got.tgz:187626.got - 2010.06.28 00:19:55.
