data_PCOD8081144
_publ_section_title
;
Structure prediction by ZEFSAII (Michael W. Deem and Ramdas Pophale) SiO2 
 PCOD8081144
Probable space group: C 2/M
;
_chemical_formula_sum "Si O2"
_cell_formula_units_Z 56
_cell_length_a 31.166454
_cell_length_b 9.528880
_cell_length_c 10.694397
_cell_angle_alpha 90.000000
_cell_angle_beta 106.010897
_cell_angle_gamma 90.000000
_cell_volume 3052.836156
_symmetry_space_group_name_H-M "C 2/M"
_symmetry_group_IT_number 12
_symmetry_cell_setting 'monoclinic'
loop_
_space_group_symop_operation_xyz
x,y,z
-x,y,-z
-x,-y,-z
x,-y,z
1/2+x,1/2+y,z
1/2-x,1/2+y,-z
1/2-x,1/2-y,-z
1/2+x,1/2-y,z
loop_
_atom_site_type_symbol
_atom_site_label
_atom_site_fract_x
_atom_site_fract_y
_atom_site_fract_z
Si Si1 0.116174 0.341237 0.080870
Si Si2 0.521475 0.832048 0.389092
Si Si3 0.713081 0.157601 0.815679
Si Si4 0.613534 0.161809 0.363155
Si Si5 0.791128 0.665651 0.475908
Si Si6 0.313014 0.340480 0.988166
Si Si7 0.976783 0.337195 0.103037
O O1 0.134786 0.500000 0.083586
O O2 0.099128 0.315064 0.208032
O O3 0.154917 0.231953 0.085396
O O4 0.076227 0.315906 0.951251
O O5 0.500000 0.772036 0.500000
O O6 0.572892 0.778087 0.415682
O O7 0.493225 0.772223 0.248008
O O8 0.520032 0.000000 0.389346
O O9 0.706224 0.199496 0.667844
O O10 0.683886 0.261971 0.876517
O O11 0.696022 0.000000 0.828151
O O12 0.764639 0.171844 0.889957
O O13 0.662423 0.227027 0.429930
O O14 0.618685 0.000000 0.401409
O O15 0.784026 0.500000 0.496905
O O16 0.750000 0.750000 0.500000
O O17 0.327869 0.500000 0.021102
O O18 0.990383 0.500000 0.114281
O O19 0.000000 0.265888 0.000000
#
# Coordination Sequence:
#
# PCOD8081144 Si02
#       7
#     8   8   8   8   8   8   8
#     4  10  18  29  50  75 100 130 165 203 248 300
#     4   9  16  26  42  68 101 132 163 206 257 300
#     4   9  19  35  51  69  98 133 167 206 251 297
#     4   9  17  29  46  72 103 132 163 205 251 299
#     4  10  20  33  51  74 103 134 167 206 248 300
#     4  10  20  33  50  72  98 129 166 209 251 297
#     4   9  15  26  44  67  96 127 160 201 247 294
#
# _framework density 18.343596999999999
#
# number of rings (size 3 to 8) (size 9 to 14) (size 15 to 20)
#    0.000    2.571    1.429    1.286    0.000    2.286 
#    0.000    4.286    0.000    0.429    0.000    0.000 
#    0.000    2.857    0.000    0.000    0.000    0.000 
#
# Total GULP energy -347088.466116 kJ/mol
# GULP energy per Si atom -12396.016647 kJ/mol
# Density = 1.830185 g / cm^3
# Si number density = 18.343597 Si / 1000 Ang^3
#
#
#
# Elastic Constant Matrix: (Units=GPa)
#
#
# Indices 1 2 3 4 5 6 
#
# 1 108.9677 37.8397 51.2902 0.0000 -16.3527 0.0000
# 2 37.8397 56.4058 24.0677 0.0000 -8.2085 0.0000
# 3 51.2902 24.0677 121.5936 0.0000 -0.5044 0.0000
# 4 0.0000 0.0000 0.0000 13.5100 0.0000 -3.2000
# 5 -16.3527 -8.2085 -0.5044 0.0000 21.0077 0.0000
# 6 0.0000 0.0000 0.0000 -3.2000 0.0000 18.9826
#
#
#
# Elastic Compliance Matrix: (Units=1/GPa)
#
#
# Indices 1 2 3 4 5 6 
#
# 1 0.015281 -0.006759 -0.005070 0.000000 0.009132 0.000000
# 2 -0.006759 0.023603 -0.001805 0.000000 0.003918 0.000000
# 3 -0.005070 -0.001805 0.010702 0.000000 -0.004395 0.000000
# 4 0.000000 0.000000 0.000000 0.077098 0.000000 0.012997
# 5 0.009132 0.003918 -0.004395 0.000000 0.056136 0.000000
# 6 0.000000 0.000000 0.000000 0.012997 0.000000 0.054871
#
#
# Mechanical properties :
#
#
# Convention : Reuss Voigt Hill
#
# Bulk Modulus (GPa) = 44.80569 57.04024 50.92297
# Shear Modulus (GPa) = 18.35558 22.28468 20.32013
#
# Velocity S-wave (km/s) = 3.16674 3.48925 3.33190
# Velocity P-wave (km/s) = 6.15222 6.88448 6.52863
#
# Compressibility (1/GPa) = 0.02231859
#
# Stress axis : x y z
#
# Youngs Moduli (GPa) = 65.44066 42.36739 93.44287
#
# Poissons Ratio (x) = 0.28636 0.47376
# Poissons Ratio (y) = 0.44231 0.16863
# Poissons Ratio (z) = 0.33179 0.07646
#
# Static dielectric constant tensor:
#      x y z
#    x 3.415430 0.000000 -0.015960 
#    y 0.000000 2.978790 0.000000 
#    z -0.015960 0.000000 3.579080 
# 
# 
# High freq. dielectric constant tensor:
#      x y z
#    x 1.716630 0.000000 -0.000650 
#    y 0.000000 1.651190 0.000000 
#    z -0.000650 0.000000 1.720030 
# 
# From -- ./inp_files/186840.got.cif
#   From: 2010.06.25/outbox.cif.g09.slc.cpg/sg12_94_cif.got.tgz:186840.got - 2010.06.28 00:19:55.
