data_PCOD8081675
_publ_section_title
;
Structure prediction by ZEFSAII (Michael W. Deem and Ramdas Pophale) SiO2 
 PCOD8081675
Probable space group: C 2/M
;
_chemical_formula_sum "Si O2"
_cell_formula_units_Z 56
_cell_length_a 8.989259
_cell_length_b 28.484111
_cell_length_c 13.672174
_cell_angle_alpha 90.000000
_cell_angle_beta 109.192460
_cell_angle_gamma 90.000000
_cell_volume 3306.200217
_symmetry_space_group_name_H-M "C 2/M"
_symmetry_group_IT_number 12
_symmetry_cell_setting 'monoclinic'
loop_
_space_group_symop_operation_xyz
x,y,z
-x,y,-z
-x,-y,-z
x,-y,z
1/2+x,1/2+y,z
1/2-x,1/2+y,-z
1/2-x,1/2-y,-z
1/2+x,1/2-y,z
loop_
_atom_site_type_symbol
_atom_site_label
_atom_site_fract_x
_atom_site_fract_y
_atom_site_fract_z
Si Si1 0.734502 0.798330 0.119618
Si Si2 0.323374 0.447585 1.000000
Si Si3 0.078348 0.888672 0.803941
Si Si4 0.477214 0.446587 0.604635
Si Si5 0.627422 0.053413 0.604635
Si Si6 0.725594 0.888672 0.803941
Si Si7 0.385116 0.798330 0.119618
O O1 0.838407 0.838773 0.191212
O O2 0.569250 0.794479 0.138501
O O3 0.827354 0.750000 0.154708
O O4 0.713086 0.809251 0.000000
O O5 0.255730 0.500000 0.000001
O O6 0.215700 0.420722 0.898434
O O7 0.500000 0.450410 0.000000
O O8 0.317265 0.420721 0.101564
O O9 0.076395 0.913870 0.698673
O O10 0.904700 0.881051 0.809399
O O11 0.500000 0.427668 0.500000
O O12 0.539418 0.500000 0.628256
O O13 0.294833 0.443858 0.589666
O O14 0.500000 0.072331 0.500000
O O15 0.622279 0.086131 0.698672
O O16 0.588842 0.000000 0.628258
O O17 0.647196 0.838773 0.808789
#
# Coordination Sequence:
#
# PCOD8081675 Si02
#       7
#     8   8   8   8   8   8   8
#     4  10  20  33  50  72 100 131 165 202 245 298
#     4   9  16  26  44  71 100 129 160 197 240 287
#     4  10  18  30  50  74 100 130 166 205 246 292
#     4   9  18  32  50  73 100 133 173 210 243 286
#     4   9  18  32  50  73 100 133 173 210 243 286
#     4  10  18  30  50  74 100 130 166 205 246 292
#     4  10  20  33  50  72 100 131 165 202 245 298
#
# _framework density 16.937873
#
# number of rings (size 3 to 8) (size 9 to 14) (size 15 to 20)
#    0.000    2.429    1.429    1.714    0.000    5.714 
#    0.000    0.000    0.000    4.286    0.000    6.000 
#    0.000    0.000    0.000    0.000    0.000    0.000 
#
# Total GULP energy -347265.210877 kJ/mol
# GULP energy per Si atom -12402.328960 kJ/mol
# Density = 1.689932 g / cm^3
# Si number density = 16.937873 Si / 1000 Ang^3
#
#
#
# Elastic Constant Matrix: (Units=GPa)
#
#
# Indices 1 2 3 4 5 6 
#
# 1 43.9477 45.9907 41.0847 0.0000 -1.1250 0.0000
# 2 45.9907 146.2299 83.1557 0.0000 -0.8672 0.0000
# 3 41.0847 83.1557 139.1314 0.0000 -1.0961 0.0000
# 4 0.0000 0.0000 0.0000 25.0229 0.0000 0.0667
# 5 -1.1250 -0.8672 -1.0961 0.0000 25.5379 0.0000
# 6 0.0000 0.0000 0.0000 0.0667 0.0000 27.8857
#
#
#
# Elastic Compliance Matrix: (Units=1/GPa)
#
#
# Indices 1 2 3 4 5 6 
#
# 1 0.036991 -0.008212 -0.006007 0.000000 0.001093 0.000000
# 2 -0.008212 0.012183 -0.004858 0.000000 -0.000157 0.000000
# 3 -0.006007 -0.004858 0.011865 0.000000 0.000080 0.000000
# 4 0.000000 0.000000 0.000000 0.039964 0.000000 -0.000096
# 5 0.001093 -0.000157 0.000080 0.000000 0.039204 0.000000
# 6 0.000000 0.000000 0.000000 -0.000096 0.000000 0.035861
#
#
# Mechanical properties :
#
#
# Convention : Reuss Voigt Hill
#
# Bulk Modulus (GPa) = 43.69341 74.41901 59.05621
# Shear Modulus (GPa) = 22.53791 26.29450 24.41620
#
# Velocity S-wave (km/s) = 3.65173 3.94434 3.80085
# Velocity P-wave (km/s) = 6.60548 8.04833 7.36234
#
# Compressibility (1/GPa) = 0.02288675
#
# Stress axis : x y z
#
# Youngs Moduli (GPa) = 27.03348 82.08377 84.28080
#
# Poissons Ratio (x) = 0.67406 0.50624
# Poissons Ratio (y) = 0.22199 0.40941
# Poissons Ratio (z) = 0.16238 0.39873
#
# Static dielectric constant tensor:
#      x y z
#    x 2.952980 0.000000 -0.003900 
#    y 0.000000 3.217770 0.000000 
#    z -0.003900 0.000000 3.120120 
# 
# 
# High freq. dielectric constant tensor:
#      x y z
#    x 1.638160 0.000000 -0.000010 
#    y 0.000000 1.655980 0.000000 
#    z -0.000010 0.000000 1.638530 
# 
# From -- ./inp_files/198509.got.cif
#   From: 2010.06.25/outbox.cif.g09.slc.cpg/sg12_100_cif.got.tgz:198509.got - 2010.06.28 00:19:55.
