data_PCOD8081273
_publ_section_title
;
Structure prediction by ZEFSAII (Michael W. Deem and Ramdas Pophale) SiO2 
 PCOD8081273
Probable space group: C 2/M
;
_chemical_formula_sum "Si O2"
_cell_formula_units_Z 64
_cell_length_a 24.720507
_cell_length_b 25.343331
_cell_length_c 18.776952
_cell_angle_alpha 90.000000
_cell_angle_beta 160.470593
_cell_angle_gamma 90.000000
_cell_volume 3932.514772
_symmetry_space_group_name_H-M "C 2/M"
_symmetry_group_IT_number 12
_symmetry_cell_setting 'monoclinic'
loop_
_space_group_symop_operation_xyz
x,y,z
-x,y,-z
-x,-y,-z
x,-y,z
1/2+x,1/2+y,z
1/2-x,1/2+y,-z
1/2-x,1/2-y,-z
1/2+x,1/2-y,z
loop_
_atom_site_type_symbol
_atom_site_label
_atom_site_fract_x
_atom_site_fract_y
_atom_site_fract_z
Si Si1 0.138351 0.894127 0.113839
Si Si2 0.061841 0.155220 0.783601
Si Si3 0.172293 0.940293 0.006144
Si Si4 0.951428 0.209633 0.517117
Si Si5 0.511641 0.105138 0.435137
Si Si6 0.091303 0.298129 0.778597
Si Si7 0.876632 0.770485 0.909929
Si Si8 0.063382 0.241599 0.282827
O O1 0.308570 0.919458 0.352476
O O2 0.170342 0.831970 0.141151
O O3 0.093764 0.920541 0.982973
O O4 0.000000 0.906129 0.000000
O O5 0.103276 0.095227 0.855525
O O6 0.965264 0.159673 0.588732
O O7 0.954920 0.181179 0.713447
O O8 0.219746 0.192878 0.972554
O O9 0.117949 0.000000 0.924090
O O10 0.368230 0.937938 0.250755
O O11 0.773966 0.234195 0.296957
O O12 0.000000 0.188657 0.500000
O O13 0.075763 0.254888 0.696820
O O14 0.500000 0.130501 0.500000
O O15 0.489793 0.148214 0.347582
O O16 0.994374 0.282333 0.728787
O O17 0.000000 0.762834 0.000000
O O18 0.957094 0.748692 0.081249
O O19 0.250000 0.250000 0.500000
#
# Coordination Sequence:
#
# PCOD8081273 Si02
#       8
#     8   8   8   8   8   8   8   8
#     4  10  20  31  49  73 102 133 168 208 252 299
#     4  10  20  34  48  73  98 128 170 208 242 299
#     4  10  21  37  54  68  95 135 177 219 252 286
#     4  11  19  28  50  72  99 131 163 195 243 300
#     4   9  18  31  50  71  96 128 171 205 247 301
#     4  10  18  30  45  69  99 133 162 197 239 294
#     4  11  20  31  44  70 105 139 162 191 243 298
#     4  11  21  31  47  72 105 135 165 196 241 304
#
# _framework density 16.274573
#
# number of rings (size 3 to 8) (size 9 to 14) (size 15 to 20)
#    0.000    1.750    2.500    4.875    3.500    2.500 
#    0.000    0.000    0.000    0.375    0.000    0.000 
#    0.000    4.500    0.000    0.000    0.000    0.500 
#
# Total GULP energy -396683.299780 kJ/mol
# GULP energy per Si atom -12396.353118 kJ/mol
# Density = 1.623753 g / cm^3
# Si number density = 16.274573 Si / 1000 Ang^3
#
#
#
# Elastic Constant Matrix: (Units=GPa)
#
#
# Indices 1 2 3 4 5 6 
#
# 1 101.6076 44.3480 50.3998 0.0000 -3.1829 -0.0001
# 2 44.3480 76.2148 46.8774 0.0000 -3.8813 -0.0001
# 3 50.3998 46.8774 91.9071 0.0000 -1.6106 -0.0001
# 4 0.0000 0.0000 0.0000 12.2966 0.0000 0.6686
# 5 -3.1829 -3.8813 -1.6106 0.0000 35.0709 -0.0001
# 6 -0.0001 -0.0001 -0.0001 0.6686 -0.0001 15.6332
#
#
#
# Elastic Compliance Matrix: (Units=1/GPa)
#
#
# Indices 1 2 3 4 5 6 
#
# 1 0.014862 -0.005267 -0.005455 0.000000 0.000515 0.000000
# 2 -0.005267 0.021083 -0.007839 0.000000 0.001495 0.000000
# 3 -0.005455 -0.007839 0.017861 0.000000 -0.000542 0.000000
# 4 0.000000 0.000000 0.000000 0.081513 0.000000 -0.003486
# 5 0.000515 0.001495 -0.000542 0.000000 0.028701 0.000000
# 6 0.000000 0.000000 0.000000 -0.003486 0.000000 0.064116
#
#
# Mechanical properties :
#
#
# Convention : Reuss Voigt Hill
#
# Bulk Modulus (GPa) = 59.93477 61.44221 60.68849
# Shear Modulus (GPa) = 18.46250 21.14042 19.80146
#
# Velocity S-wave (km/s) = 3.37180 3.60805 3.49192
# Velocity P-wave (km/s) = 7.21567 7.42919 7.32321
#
# Compressibility (1/GPa) = 0.01668480
#
# Stress axis : x y z
#
# Youngs Moduli (GPa) = 67.28372 47.43099 55.98880
#
# Poissons Ratio (x) = 0.24981 0.30541
# Poissons Ratio (y) = 0.35437 0.43890
# Poissons Ratio (z) = 0.36702 0.37182
#
# Static dielectric constant tensor:
#      x y z
#    x 3.149960 0.000000 -0.047140 
#    y 0.000000 2.726900 0.000000 
#    z -0.047140 0.000000 3.252390 
# 
# 
# High freq. dielectric constant tensor:
#      x y z
#    x 1.631960 0.000000 0.002690 
#    y 0.000000 1.581010 0.000000 
#    z 0.002690 0.000000 1.631850 
# 
# From -- ./inp_files/291198.got.cif
#   From: 2010.06.25/outbox.cif.g09.slc.cpg/sg12_146_cif.got.tgz:291198.got - 2010.06.28 00:19:55.
