data_PCOD8081592
_publ_section_title
;
Structure prediction by ZEFSAII (Michael W. Deem and Ramdas Pophale) SiO2 
 PCOD8081592
Probable space group: C 2/M
;
_chemical_formula_sum "Si O2"
_cell_formula_units_Z 56
_cell_length_a 22.115958
_cell_length_b 13.641366
_cell_length_c 12.820693
_cell_angle_alpha 90.000000
_cell_angle_beta 58.248976
_cell_angle_gamma 90.000000
_cell_volume 3289.040095
_symmetry_space_group_name_H-M "C 2/M"
_symmetry_group_IT_number 12
_symmetry_cell_setting 'monoclinic'
loop_
_space_group_symop_operation_xyz
x,y,z
-x,y,-z
-x,-y,-z
x,-y,z
1/2+x,1/2+y,z
1/2-x,1/2+y,-z
1/2-x,1/2-y,-z
1/2+x,1/2-y,z
loop_
_atom_site_type_symbol
_atom_site_label
_atom_site_fract_x
_atom_site_fract_y
_atom_site_fract_z
Si Si1 0.092226 0.786205 0.095254
Si Si2 0.643559 0.391176 0.847689
Si Si3 0.795537 0.605970 0.786635
Si Si4 0.445825 0.383936 0.267288
Si Si5 0.309395 0.889252 0.007846
Si Si6 0.930353 0.112317 0.512107
Si Si7 0.670492 0.685053 0.229211
O O1 0.131452 0.840348 0.156080
O O2 0.009424 0.808603 0.183979
O O3 0.112493 0.822994 0.963778
O O4 0.116616 0.671538 0.070073
O O5 0.616086 0.500000 0.898254
O O6 0.728703 0.387044 0.770311
O O7 0.616420 0.359872 0.758172
O O8 0.834645 0.500000 0.731999
O O9 0.843907 0.701402 0.723638
O O10 0.770344 0.610547 0.930614
O O11 0.468216 0.500000 0.242546
O O12 0.416400 0.350469 0.407215
O O13 0.254392 0.838952 0.139337
O O14 0.327297 0.000000 0.028005
O O15 0.861169 0.122921 0.647356
O O16 0.000000 0.165193 0.500000
O O17 0.949488 0.000000 0.483560
#
# Coordination Sequence:
#
# PCOD8081592 Si02
#       7
#     8   8   8   8   8   8   8
#     4  11  18  30  49  74 102 126 158 200 247 290
#     4  10  18  30  49  74 103 128 154 198 250 296
#     4   9  17  30  49  75 104 125 155 203 248 287
#     4  10  21  33  48  75 103 129 161 196 245 299
#     4  10  19  30  48  76 102 127 162 202 242 286
#     4  10  20  33  49  71 101 132 161 198 238 287
#     4  11  18  31  52  75  99 130 161 197 246 290
#
# _framework density 17.026244999999999
#
# number of rings (size 3 to 8) (size 9 to 14) (size 15 to 20)
#    0.000    1.857    4.286    2.143    0.000    2.286 
#    0.000    0.714    0.000    3.000    0.000    0.000 
#    0.000    0.000    0.000    0.000    0.000    0.000 
#
# Total GULP energy -346880.419005 kJ/mol
# GULP energy per Si atom -12388.586393 kJ/mol
# Density = 1.698749 g / cm^3
# Si number density = 17.026245 Si / 1000 Ang^3
#
#
#
# Elastic Constant Matrix: (Units=GPa)
#
#
# Indices 1 2 3 4 5 6 
#
# 1 70.5627 26.3134 31.5499 0.0000 17.2736 0.0000
# 2 26.3134 61.4807 19.5373 0.0000 11.0250 0.0000
# 3 31.5499 19.5373 75.3812 0.0000 19.9773 0.0000
# 4 0.0000 0.0000 0.0000 16.9051 0.0000 -2.7653
# 5 17.2736 11.0250 19.9773 0.0000 27.3252 0.0000
# 6 0.0000 0.0000 0.0000 -2.7653 0.0000 20.7934
#
#
#
# Elastic Compliance Matrix: (Units=1/GPa)
#
#
# Indices 1 2 3 4 5 6 
#
# 1 0.020317 -0.005840 -0.005222 0.000000 -0.006669 0.000000
# 2 -0.005840 0.019905 -0.001941 0.000000 -0.002921 0.000000
# 3 -0.005222 -0.001941 0.018446 0.000000 -0.009402 0.000000
# 4 0.000000 0.000000 0.000000 0.060469 0.000000 0.008042
# 5 -0.006669 -0.002921 -0.009402 0.000000 0.048864 0.000000
# 6 0.000000 0.000000 0.000000 0.008042 0.000000 0.049162
#
#
# Mechanical properties :
#
#
# Convention : Reuss Voigt Hill
#
# Bulk Modulus (GPa) = 30.61654 40.24733 35.43193
# Shear Modulus (GPa) = 19.68058 21.67302 20.67680
#
# Velocity S-wave (km/s) = 3.40354 3.57167 3.48862
# Velocity P-wave (km/s) = 5.78502 6.37956 6.08955
#
# Compressibility (1/GPa) = 0.03266208
#
# Stress axis : x y z
#
# Youngs Moduli (GPa) = 49.21923 50.23794 54.21149
#
# Poissons Ratio (x) = 0.29340 0.28312
# Poissons Ratio (y) = 0.28745 0.10521
# Poissons Ratio (z) = 0.25705 0.09750
#
# Static dielectric constant tensor:
#      x y z
#    x 3.092960 0.000000 0.216570 
#    y 0.000000 3.280630 0.000000 
#    z 0.216570 0.000000 3.070530 
# 
# 
# High freq. dielectric constant tensor:
#      x y z
#    x 1.633990 0.000000 0.016450 
#    y 0.000000 1.645400 0.000000 
#    z 0.016450 0.000000 1.638580 
# 
# From -- ./inp_files/175721.got.cif
#   From: 2010.06.25/outbox.cif.g09.slc.cpg/sg12_88_cif.got.tgz:175721.got - 2010.06.28 00:19:55.
