data_PCOD8081827
_publ_section_title
;
Structure prediction by ZEFSAII (Michael W. Deem and Ramdas Pophale) SiO2 
 PCOD8081827
Probable space group: C 2/M
;
_chemical_formula_sum "Si O2"
_cell_formula_units_Z 52
_cell_length_a 27.269581
_cell_length_b 12.062165
_cell_length_c 10.622251
_cell_angle_alpha 90.000000
_cell_angle_beta 120.411282
_cell_angle_gamma 90.000000
_cell_volume 3013.256435
_symmetry_space_group_name_H-M "C 2/M"
_symmetry_group_IT_number 12
_symmetry_cell_setting 'monoclinic'
loop_
_space_group_symop_operation_xyz
x,y,z
-x,y,-z
-x,-y,-z
x,-y,z
1/2+x,1/2+y,z
1/2-x,1/2+y,-z
1/2-x,1/2-y,-z
1/2+x,1/2-y,z
loop_
_atom_site_type_symbol
_atom_site_label
_atom_site_fract_x
_atom_site_fract_y
_atom_site_fract_z
Si Si1 0.405901 0.000000 0.157298
Si Si2 0.529848 0.000000 0.360894
Si Si3 0.224558 0.370500 0.325096
Si Si4 0.972203 0.121640 0.099965
Si Si5 0.064079 0.714200 0.266514
Si Si6 0.389969 0.197569 0.943898
Si Si7 0.181712 0.301656 0.534158
Si Si8 0.357520 0.000000 0.350731
O O1 0.463963 0.000000 0.315714
O O2 0.354779 0.000000 0.194416
O O3 0.403180 0.892983 0.065922
O O4 0.538770 0.895786 0.286601
O O5 0.575371 0.000000 0.531511
O O6 0.230406 0.500000 0.294061
O O7 0.176071 0.309918 0.179597
O O8 0.211980 0.364619 0.457539
O O9 0.281770 0.302462 0.368426
O O10 0.018912 0.189657 0.239667
O O11 0.962776 0.000000 0.147403
O O12 0.910191 0.182071 0.022147
O O13 0.000000 0.109317 0.000000
O O14 0.071640 0.682761 0.130031
O O15 0.122594 0.749626 0.409278
O O16 0.173064 0.390358 0.634582
#
# Coordination Sequence:
#
# PCOD8081827 Si02
#       8
#     4   4   8   8   8   8   8   4
#     4  12  20  30  53  75 102 140 171 206 250 302
#     4  10  18  30  51  77 100 130 170 208 256 296
#     4  10  18  33  56  77 101 124 168 216 255 307
#     4   9  17  29  44  70 107 134 157 199 256 310
#     4   9  17  29  50  75 104 128 162 216 258 299
#     4  10  19  30  48  79 102 132 167 208 258 298
#     4   9  19  34  51  76 102 133 162 208 266 298
#     4  10  21  36  48  74 110 134 166 212 250 304
#
# _framework density 17.257076999999999
#
# number of rings (size 3 to 8) (size 9 to 14) (size 15 to 20)
#    0.000    2.308    3.077    0.692    2.154    1.231 
#    1.385    3.846    0.000    0.923    0.000    2.154 
#    0.000    0.000    0.000    0.000    0.000    0.000 
#
# Total GULP energy -322149.473969 kJ/mol
# GULP energy per Si atom -12390.364383 kJ/mol
# Density = 1.721780 g / cm^3
# Si number density = 17.257077 Si / 1000 Ang^3
#
#
#
# Elastic Constant Matrix: (Units=GPa)
#
#
# Indices 1 2 3 4 5 6 
#
# 1 70.3539 54.2680 49.0255 0.0000 9.2128 0.0000
# 2 54.2680 157.1515 61.3096 0.0000 16.1295 0.0000
# 3 49.0255 61.3096 61.4759 0.0000 17.7656 0.0000
# 4 0.0000 0.0000 0.0000 19.0287 0.0000 11.2547
# 5 9.2128 16.1295 17.7656 0.0000 27.8713 0.0000
# 6 0.0000 0.0000 0.0000 11.2547 0.0000 23.8898
#
#
#
# Elastic Compliance Matrix: (Units=1/GPa)
#
#
# Indices 1 2 3 4 5 6 
#
# 1 0.033429 -0.001753 -0.026981 0.000000 0.007162 0.000000
# 2 -0.001753 0.010520 -0.009195 0.000000 0.000353 0.000000
# 3 -0.026981 -0.009195 0.052511 0.000000 -0.019232 0.000000
# 4 0.000000 0.000000 0.000000 0.072852 0.000000 -0.034321
# 5 0.007162 0.000353 -0.019232 0.000000 0.045566 0.000000
# 6 0.000000 0.000000 0.000000 -0.034321 0.000000 0.058028
#
#
# Mechanical properties :
#
#
# Convention : Reuss Voigt Hill
#
# Bulk Modulus (GPa) = 48.53842 68.68750 58.61296
# Shear Modulus (GPa) = 14.05949 22.44984 18.25467
#
# Velocity S-wave (km/s) = 2.85741 3.61072 3.25592
# Velocity P-wave (km/s) = 6.25093 7.56783 6.94068
#
# Compressibility (1/GPa) = 0.02060223
#
# Stress axis : x y z
#
# Youngs Moduli (GPa) = 29.91380 95.05875 19.04368
#
# Poissons Ratio (x) = 0.16665 0.51381
# Poissons Ratio (y) = 0.05244 0.17511
# Poissons Ratio (z) = 0.80709 0.87409
#
# Static dielectric constant tensor:
#      x y z
#    x 3.021410 0.000000 0.273700 
#    y 0.000000 3.363810 0.000000 
#    z 0.273700 0.000000 3.256730 
# 
# 
# High freq. dielectric constant tensor:
#      x y z
#    x 1.638350 0.000000 0.020820 
#    y 0.000000 1.664660 0.000000 
#    z 0.020820 0.000000 1.657000 
# 
# From -- ./inp_files/188460.got.cif
#   From: 2010.06.25/outbox.cif.g09.slc.cpg/sg12_95_cif.got.tgz:188460.got - 2010.06.28 00:19:55.
