data_PCOD8081800
_publ_section_title
;
Structure prediction by ZEFSAII (Michael W. Deem and Ramdas Pophale) SiO2 
 PCOD8081800
Probable space group: C 2/M
;
_chemical_formula_sum "Si O2"
_cell_formula_units_Z 56
_cell_length_a 21.630835
_cell_length_b 9.160604
_cell_length_c 15.350083
_cell_angle_alpha 90.000000
_cell_angle_beta 92.233903
_cell_angle_gamma 90.000000
_cell_volume 3039.330614
_symmetry_space_group_name_H-M "C 2/M"
_symmetry_group_IT_number 12
_symmetry_cell_setting 'monoclinic'
loop_
_space_group_symop_operation_xyz
x,y,z
-x,y,-z
-x,-y,-z
x,-y,z
1/2+x,1/2+y,z
1/2-x,1/2+y,-z
1/2-x,1/2-y,-z
1/2+x,1/2-y,z
loop_
_atom_site_type_symbol
_atom_site_label
_atom_site_fract_x
_atom_site_fract_y
_atom_site_fract_z
Si Si1 0.585449 0.827210 0.443542
Si Si2 0.235780 0.831319 0.771561
Si Si3 0.433785 0.831756 0.021841
Si Si4 0.957276 0.326166 0.374545
Si Si5 0.613650 0.168354 0.793477
Si Si6 0.720663 0.826472 0.414755
Si Si7 0.196962 0.329455 0.052754
O O1 0.528004 0.767612 0.383153
O O2 0.579890 0.770637 0.542628
O O3 0.649452 0.775054 0.405757
O O4 0.581222 0.000000 0.445964
O O5 0.178180 0.748352 0.809388
O O6 0.250771 0.771876 0.675223
O O7 0.291989 0.807589 0.842879
O O8 0.218660 0.000000 0.763510
O O9 0.371950 0.765356 0.972113
O O10 0.436801 0.000000 0.993759
O O11 0.500000 0.757054 0.000000
O O12 0.428267 0.810448 0.124498
O O13 0.957400 0.500000 0.368195
O O14 0.923907 0.259535 0.288476
O O15 0.628851 0.000000 0.776792
O O16 0.750000 0.750000 0.500000
O O17 0.726724 0.000000 0.426738
O O18 0.199752 0.500000 0.026557
O O19 0.250000 0.250000 0.000000
#
# Coordination Sequence:
#
# PCOD8081800 Si02
#       7
#     8   8   8   8   8   8   8
#     4   8  14  26  42  64  95 124 153 197 250 295
#     4  10  21  33  49  74 103 136 170 206 255 308
#     4   9  18  31  49  76 105 129 163 216 268 305
#     4   8  14  24  43  69  92 118 157 203 245 289
#     4  10  18  30  51  75  96 127 171 211 251 303
#     4  10  20  33  49  72 102 134 166 206 253 301
#     4  10  19  34  54  75 103 138 173 213 259 313
#
# _framework density 18.42511
#
# number of rings (size 3 to 8) (size 9 to 14) (size 15 to 20)
#    0.000    2.714    1.429    1.714    0.000    2.857 
#    0.000    5.714    0.000    2.571    0.000    6.000 
#    0.000    0.000    0.000    0.000    0.000    0.000 
#
# Total GULP energy -346993.077657 kJ/mol
# GULP energy per Si atom -12392.609916 kJ/mol
# Density = 1.838317 g / cm^3
# Si number density = 18.425110 Si / 1000 Ang^3
#
#
#
# Elastic Constant Matrix: (Units=GPa)
#
#
# Indices 1 2 3 4 5 6 
#
# 1 143.0268 23.0313 53.5507 0.0000 0.7561 0.0000
# 2 23.0313 21.0462 21.4224 0.0000 -1.4142 0.0000
# 3 53.5507 21.4224 105.6572 0.0000 12.5853 0.0000
# 4 0.0000 0.0000 0.0000 18.5224 0.0000 1.4924
# 5 0.7561 -1.4142 12.5853 0.0000 34.8889 0.0000
# 6 0.0000 0.0000 0.0000 1.4924 0.0000 17.6448
#
#
#
# Elastic Compliance Matrix: (Units=1/GPa)
#
#
# Indices 1 2 3 4 5 6 
#
# 1 0.009365 -0.006638 -0.003494 0.000000 0.000788 0.000000
# 2 -0.006638 0.066313 -0.010886 0.000000 0.006759 0.000000
# 3 -0.003494 -0.010886 0.014092 0.000000 -0.005449 0.000000
# 4 0.000000 0.000000 0.000000 0.054359 0.000000 -0.004598
# 5 0.000788 0.006759 -0.005449 0.000000 0.030885 0.000000
# 6 0.000000 0.000000 0.000000 -0.004598 0.000000 0.057063
#
#
# Mechanical properties :
#
#
# Convention : Reuss Voigt Hill
#
# Bulk Modulus (GPa) = 20.94981 51.74874 36.34928
# Shear Modulus (GPa) = 17.23989 25.65959 21.44974
#
# Velocity S-wave (km/s) = 3.06220 3.73586 3.41568
# Velocity P-wave (km/s) = 4.88852 6.83782 5.94363
#
# Compressibility (1/GPa) = 0.04773313
#
# Stress axis : x y z
#
# Youngs Moduli (GPa) = 106.78270 15.07989 70.96321
#
# Poissons Ratio (x) = 0.10010 0.24797
# Poissons Ratio (y) = 0.70885 0.77249
# Poissons Ratio (z) = 0.37314 0.16416
#
# Static dielectric constant tensor:
#      x y z
#    x 3.842740 0.000000 0.153290 
#    y 0.000000 2.898110 0.000000 
#    z 0.153290 0.000000 3.569540 
# 
# 
# High freq. dielectric constant tensor:
#      x y z
#    x 1.725150 0.000000 0.009590 
#    y 0.000000 1.654590 0.000000 
#    z 0.009590 0.000000 1.724490 
# 
# From -- ./inp_files/231039.got.cif
#   From: 2010.06.25/outbox.cif.g09.slc.cpg/sg12_116_cif.got.tgz:231039.got - 2010.06.28 00:19:55.
