data_PCOD8081742
_publ_section_title
;
Structure prediction by ZEFSAII (Michael W. Deem and Ramdas Pophale) SiO2 
 PCOD8081742
Probable space group: C 2/M
;
_chemical_formula_sum "Si O2"
_cell_formula_units_Z 52
_cell_length_a 27.507999
_cell_length_b 9.798688
_cell_length_c 19.814917
_cell_angle_alpha 90.000000
_cell_angle_beta 147.525220
_cell_angle_gamma 90.000000
_cell_volume 2867.711760
_symmetry_space_group_name_H-M "C 2/M"
_symmetry_group_IT_number 12
_symmetry_cell_setting 'monoclinic'
loop_
_space_group_symop_operation_xyz
x,y,z
-x,y,-z
-x,-y,-z
x,-y,z
1/2+x,1/2+y,z
1/2-x,1/2+y,-z
1/2-x,1/2-y,-z
1/2+x,1/2-y,z
loop_
_atom_site_type_symbol
_atom_site_label
_atom_site_fract_x
_atom_site_fract_y
_atom_site_fract_z
Si Si1 0.712924 0.342966 0.053430
Si Si2 0.622723 0.153677 0.843409
Si Si3 0.000000 0.790408 0.000000
Si Si4 0.423027 0.841490 0.630797
Si Si5 0.227725 0.159270 0.614354
Si Si6 0.919189 0.346028 0.776629
Si Si7 0.693859 0.350147 0.184698
O O1 0.686296 0.500000 0.011491
O O2 0.816411 0.313720 0.151122
O O3 0.699893 0.299945 0.115161
O O4 0.644354 0.254379 0.929621
O O5 0.517402 0.169745 0.700759
O O6 0.642208 0.000000 0.891743
O O7 0.018941 0.708229 0.090622
O O8 0.090647 0.873651 0.089255
O O9 0.354661 0.740162 0.514544
O O10 0.438140 0.783712 0.724733
O O11 0.387929 0.000000 0.589851
O O12 0.312652 0.172601 0.664309
O O13 0.252881 0.232730 0.713639
O O14 0.203151 0.000000 0.598571
O O15 0.949409 0.500000 0.807714
O O16 0.740257 0.500000 0.247430
#
# Coordination Sequence:
#
# PCOD8081742 Si02
#       7
#     8   8   4   8   8   8   8
#     4   9  18  33  52  75 102 130 160 198 246 292
#     4   9  18  32  52  77 101 127 162 201 242 292
#     4  10  18  30  50  78 103 128 163 200 237 288
#     4  10  19  33  52  73  98 130 166 202 242 289
#     4  10  21  35  50  71  98 130 168 205 243 289
#     4   9  18  31  49  74 103 132 160 197 245 292
#     4  10  20  34  51  72 101 133 163 200 245 291
#
# _framework density 18.132925
#
# number of rings (size 3 to 8) (size 9 to 14) (size 15 to 20)
#    0.000    2.462    0.000    2.308    0.000    1.846 
#    0.000    4.615    0.000    4.615    0.000    0.000 
#    0.000    0.000    0.000    0.000    0.000    0.000 
#
# Total GULP energy -322206.644007 kJ/mol
# GULP energy per Si atom -12392.563231 kJ/mol
# Density = 1.809165 g / cm^3
# Si number density = 18.132925 Si / 1000 Ang^3
#
#
#
# Elastic Constant Matrix: (Units=GPa)
#
#
# Indices 1 2 3 4 5 6 
#
# 1 93.2779 36.4440 38.6880 0.0000 -13.8347 0.0000
# 2 36.4440 91.4223 55.9726 0.0000 -8.4012 0.0000
# 3 38.6880 55.9726 98.7631 0.0000 -6.5668 0.0000
# 4 0.0000 0.0000 0.0000 28.9068 0.0000 5.8912
# 5 -13.8347 -8.4012 -6.5668 0.0000 21.4754 0.0000
# 6 0.0000 0.0000 0.0000 5.8912 0.0000 34.1465
#
#
#
# Elastic Compliance Matrix: (Units=1/GPa)
#
#
# Indices 1 2 3 4 5 6 
#
# 1 0.014361 -0.002941 -0.003491 0.000000 0.007033 0.000000
# 2 -0.002941 0.017650 -0.008694 0.000000 0.002351 0.000000
# 3 -0.003491 -0.008694 0.016377 0.000000 -0.000642 0.000000
# 4 0.000000 0.000000 0.000000 0.035855 0.000000 -0.006186
# 5 0.007033 0.002351 -0.000642 0.000000 0.051819 0.000000
# 6 0.000000 0.000000 0.000000 -0.006186 0.000000 0.030353
#
#
# Mechanical properties :
#
#
# Convention : Reuss Voigt Hill
#
# Bulk Modulus (GPa) = 55.14131 60.63029 57.88580
# Shear Modulus (GPa) = 24.66545 27.06299 25.86422
#
# Velocity S-wave (km/s) = 3.69217 3.86745 3.78083
# Velocity P-wave (km/s) = 6.97507 7.31109 7.14506
#
# Compressibility (1/GPa) = 0.01813522
#
# Stress axis : x y z
#
# Youngs Moduli (GPa) = 69.63382 56.65793 61.05948
#
# Poissons Ratio (x) = 0.16663 0.21316
# Poissons Ratio (y) = 0.20479 0.53087
# Poissons Ratio (z) = 0.24310 0.49260
#
# Static dielectric constant tensor:
#      x y z
#    x 3.515690 0.000000 -0.006350 
#    y 0.000000 3.346050 0.000000 
#    z -0.006350 0.000000 3.300230 
# 
# 
# High freq. dielectric constant tensor:
#      x y z
#    x 1.706570 0.000000 0.003450 
#    y 0.000000 1.702240 0.000000 
#    z 0.003450 0.000000 1.687860 
# 
# From -- ./inp_files/329324.got.cif
#   From: 2010.06.25/outbox.cif.g09.slc.cpg/sg12_165_cif.got.tgz:329324.got - 2010.06.28 00:19:55.
