data_PCOD8081981
_publ_section_title
;
Structure prediction by ZEFSAII (Michael W. Deem and Ramdas Pophale) SiO2 
 PCOD8081981
Probable space group: C 2/M
;
_chemical_formula_sum "Si O2"
_cell_formula_units_Z 40
_cell_length_a 10.745489
_cell_length_b 18.472883
_cell_length_c 17.147963
_cell_angle_alpha 90.000000
_cell_angle_beta 145.652106
_cell_angle_gamma 90.000000
_cell_volume 1920.521186
_symmetry_space_group_name_H-M "C 2/M"
_symmetry_group_IT_number 12
_symmetry_cell_setting 'monoclinic'
loop_
_space_group_symop_operation_xyz
x,y,z
-x,y,-z
-x,-y,-z
x,-y,z
1/2+x,1/2+y,z
1/2-x,1/2+y,-z
1/2-x,1/2-y,-z
1/2+x,1/2-y,z
loop_
_atom_site_type_symbol
_atom_site_label
_atom_site_fract_x
_atom_site_fract_y
_atom_site_fract_z
Si Si1 0.245504 0.863337 0.093190
Si Si2 0.245178 0.787410 0.852278
Si Si3 0.477163 0.231274 0.575926
Si Si4 0.908142 0.080086 0.140575
Si Si5 0.393146 0.921211 0.322894
O O1 0.332242 0.780090 0.133380
O O2 0.390514 0.910720 0.227803
O O3 0.000000 0.858645 0.000000
O O4 0.261603 0.898948 0.016612
O O5 0.185371 0.763103 0.732562
O O6 0.107611 0.859961 0.799954
O O7 0.500000 0.805363 0.000000
O O8 0.500000 0.262570 0.500000
O O9 0.250000 0.250000 0.500000
O O10 0.473853 0.143714 0.568810
O O11 0.149041 0.079952 0.230174
O O12 0.846297 0.000000 0.140611
O O13 0.502869 0.000000 0.397595
#
# Coordination Sequence:
#
# PCOD8081981 Si02
#       5
#     8   8   8   8   8
#     4   8  15  28  49  79 110 140 180 235 293 343
#     4  10  21  36  57  82 114 156 202 245 294 357
#     4  11  24  42  63  89 122 159 199 247 301 356
#     4  10  18  30  53  85 119 152 195 251 301 346
#     4   9  18  33  55  84 115 150 194 245 301 357
#
# _framework density 20.827677999999999
#
# number of rings (size 3 to 8) (size 9 to 14) (size 15 to 20)
#    0.000    2.400    0.000    3.600    0.000    6.400 
#    0.000    1.000    0.000    2.400    0.000    0.000 
#    0.000    0.000    0.000    0.000    0.000    0.000 
#
# Total GULP energy -247847.167659 kJ/mol
# GULP energy per Si atom -12392.358383 kJ/mol
# Density = 2.078027 g / cm^3
# Si number density = 20.827678 Si / 1000 Ang^3
#
#
#
# Elastic Constant Matrix: (Units=GPa)
#
#
# Indices 1 2 3 4 5 6 
#
# 1 71.7858 43.6944 30.5421 -0.0005 -13.7236 0.0000
# 2 43.6944 181.9869 24.7559 -0.0020 -6.0102 -0.0006
# 3 30.5421 24.7559 79.7377 -0.0044 -11.6155 -0.0007
# 4 -0.0005 -0.0020 -0.0044 21.0203 0.0041 3.8022
# 5 -13.7236 -6.0102 -11.6155 0.0041 23.3613 0.0017
# 6 0.0000 -0.0006 -0.0007 3.8022 0.0017 26.2472
#
#
#
# Elastic Compliance Matrix: (Units=1/GPa)
#
#
# Indices 1 2 3 4 5 6 
#
# 1 0.020084 -0.003829 -0.005314 -0.000003 0.008171 0.000000
# 2 -0.003829 0.006476 -0.000678 0.000001 -0.000921 0.000000
# 3 -0.005314 -0.000678 0.015424 0.000002 0.004373 0.000000
# 4 -0.000003 0.000001 0.000002 0.048853 -0.000008 -0.007077
# 5 0.008171 -0.000921 0.004373 -0.000008 0.049544 -0.000002
# 6 0.000000 0.000000 0.000000 -0.007077 -0.000002 0.039125
#
#
# Mechanical properties :
#
#
# Convention : Reuss Voigt Hill
#
# Bulk Modulus (GPa) = 44.75839 59.05501 51.90670
# Shear Modulus (GPa) = 24.20194 29.76027 26.98110
#
# Velocity S-wave (km/s) = 3.41252 3.78415 3.60313
# Velocity P-wave (km/s) = 6.08799 6.89266 6.50278
#
# Compressibility (1/GPa) = 0.02234218
#
# Stress axis : x y z
#
# Youngs Moduli (GPa) = 49.79064 154.41261 64.83436
#
# Poissons Ratio (x) = 0.59131 0.34451
# Poissons Ratio (y) = 0.19067 0.04395
# Poissons Ratio (z) = 0.26457 0.10468
#
# Static dielectric constant tensor:
#      x y z
#    x 3.368590 0.000000 -0.263720 
#    y 0.000000 4.243470 0.000000 
#    z -0.263720 0.000000 3.724270 
# 
# 
# High freq. dielectric constant tensor:
#      x y z
#    x 1.774190 0.000000 -0.023060 
#    y 0.000000 1.825050 0.000000 
#    z -0.023060 0.000000 1.801990 
# 
# From -- ./inp_files/241224.got.cif
#   From: 2010.06.25/outbox.cif.g09.slc.cpg/sg12_121_cif.got.tgz:241224.got - 2010.06.28 00:19:55.
