data_PCOD8081530
_publ_section_title
;
Structure prediction by ZEFSAII (Michael W. Deem and Ramdas Pophale) SiO2 
 PCOD8081530
Probable space group: C 2/M
;
_chemical_formula_sum "Si O2"
_cell_formula_units_Z 64
_cell_length_a 25.085500
_cell_length_b 8.849000
_cell_length_c 24.142435
_cell_angle_alpha 90.000000
_cell_angle_beta 133.898407
_cell_angle_gamma 90.000000
_cell_volume 3861.663610
_symmetry_space_group_name_H-M "C 2/M"
_symmetry_group_IT_number 12
_symmetry_cell_setting 'monoclinic'
loop_
_space_group_symop_operation_xyz
x,y,z
-x,y,-z
-x,-y,-z
x,-y,z
1/2+x,1/2+y,z
1/2-x,1/2+y,-z
1/2-x,1/2-y,-z
1/2+x,1/2-y,z
loop_
_atom_site_type_symbol
_atom_site_label
_atom_site_fract_x
_atom_site_fract_y
_atom_site_fract_z
Si Si1 0.198614 0.821550 0.834972
Si Si2 0.026999 0.826365 0.403499
Si Si3 0.223186 0.821962 0.423673
Si Si4 0.416716 0.823036 0.165192
Si Si5 0.834193 0.173984 0.421347
Si Si6 0.193307 0.323376 0.000320
Si Si7 0.070798 0.322509 0.322255
Si Si8 0.866546 0.820910 0.323573
O O1 0.131870 0.759068 0.823692
O O2 0.189787 0.764604 0.765346
O O3 0.189006 0.000000 0.828625
O O4 0.280233 0.772996 0.918501
O O5 0.084123 0.812188 0.494823
O O6 0.054876 0.723360 0.373647
O O7 0.948737 0.762120 0.368494
O O8 0.020701 0.000000 0.378512
O O9 0.250000 0.750000 0.500000
O O10 0.276753 0.776847 0.412625
O O11 0.141318 0.765524 0.349537
O O12 0.222776 0.000000 0.431358
O O13 0.388853 0.780612 0.081877
O O14 0.502047 0.775930 0.233224
O O15 0.407259 0.000000 0.169532
O O16 0.837826 0.241061 0.361640
O O17 0.807107 0.000000 0.403605
O O18 0.204593 0.500000 0.004038
O O19 0.250000 0.250000 0.000000
O O20 0.086942 0.500000 0.331944
O O21 0.870173 0.000000 0.331110
#
# Coordination Sequence:
#
# PCOD8081530 Si02
#       8
#     8   8   8   8   8   8   8   8
#     4   9  15  25  44  68  95 128 161 190 224 277
#     4  10  18  30  49  70  96 128 161 193 230 278
#     4  12  24  38  54  71  92 120 158 202 244 285
#     4   9  17  28  42  65  97 127 156 193 237 279
#     4  10  20  34  51  70  95 128 162 198 236 279
#     4   8  14  24  39  62  93 126 156 188 228 274
#     4  11  21  32  49  71  96 127 161 198 240 282
#     4   9  17  29  47  73 100 128 163 194 229 279
#
# _framework density 16.573167999999999
#
# number of rings (size 3 to 8) (size 9 to 14) (size 15 to 20)
#    0.000    2.250    2.500    1.875    0.000    2.000 
#    0.000    1.250    0.000    1.500    0.000    0.875 
#    0.000    7.000    0.000    0.000    0.000    0.000 
#
# Total GULP energy -396506.784984 kJ/mol
# GULP energy per Si atom -12390.837031 kJ/mol
# Density = 1.653545 g / cm^3
# Si number density = 16.573168 Si / 1000 Ang^3
#
#
#
# Elastic Constant Matrix: (Units=GPa)
#
#
# Indices 1 2 3 4 5 6 
#
# 1 77.9403 22.6379 55.1829 0.0000 -3.8911 0.0000
# 2 22.6379 48.4650 32.7812 0.0000 3.1009 0.0000
# 3 55.1829 32.7812 159.6996 0.0000 2.2162 0.0000
# 4 0.0000 0.0000 0.0000 15.2899 0.0000 1.2907
# 5 -3.8911 3.1009 2.2162 0.0000 18.1769 0.0000
# 6 0.0000 0.0000 0.0000 1.2907 0.0000 21.2897
#
#
#
# Elastic Compliance Matrix: (Units=1/GPa)
#
#
# Indices 1 2 3 4 5 6 
#
# 1 0.018450 -0.005350 -0.005354 0.000000 0.005515 0.000000
# 2 -0.005350 0.025735 -0.003363 0.000000 -0.005125 0.000000
# 3 -0.005354 -0.003363 0.008825 0.000000 -0.001648 0.000000
# 4 0.000000 0.000000 0.000000 0.065739 0.000000 -0.003985
# 5 0.005515 -0.005125 -0.001648 0.000000 0.057271 0.000000
# 6 0.000000 0.000000 0.000000 -0.003985 0.000000 0.047213
#
#
# Mechanical properties :
#
#
# Convention : Reuss Voigt Hill
#
# Bulk Modulus (GPa) = 40.19738 56.36766 48.28252
# Shear Modulus (GPa) = 19.25618 22.65149 20.95384
#
# Velocity S-wave (km/s) = 3.41235 3.70098 3.55959
# Velocity P-wave (km/s) = 6.31131 7.23521 6.78899
#
# Compressibility (1/GPa) = 0.02487724
#
# Stress axis : x y z
#
# Youngs Moduli (GPa) = 54.20081 38.85792 113.31662
#
# Poissons Ratio (x) = 0.20787 0.60666
# Poissons Ratio (y) = 0.28995 0.38107
# Poissons Ratio (z) = 0.29017 0.13067
#
# Static dielectric constant tensor:
#      x y z
#    x 2.934650 0.000000 0.093280 
#    y 0.000000 2.982260 0.000000 
#    z 0.093280 0.000000 3.894540 
# 
# 
# High freq. dielectric constant tensor:
#      x y z
#    x 1.596740 0.000000 0.007180 
#    y 0.000000 1.627500 0.000000 
#    z 0.007180 0.000000 1.656910 
# 
# From -- ./inp_files/350958.got.cif
#   From: 2010.06.25/outbox.cif.g09.slc.cpg/sg12_176_cif.got.tgz:350958.got - 2010.06.28 00:19:55.
