data_PCOD8081758
_publ_section_title
;
Structure prediction by ZEFSAII (Michael W. Deem and Ramdas Pophale) SiO2 
 PCOD8081758
Probable space group: C 2/M
;
_chemical_formula_sum "Si O2"
_cell_formula_units_Z 56
_cell_length_a 20.072949
_cell_length_b 9.076481
_cell_length_c 21.004556
_cell_angle_alpha 90.000000
_cell_angle_beta 134.148674
_cell_angle_gamma 90.000000
_cell_volume 2745.902967
_symmetry_space_group_name_H-M "C 2/M"
_symmetry_group_IT_number 12
_symmetry_cell_setting 'monoclinic'
loop_
_space_group_symop_operation_xyz
x,y,z
-x,y,-z
-x,-y,-z
x,-y,z
1/2+x,1/2+y,z
1/2-x,1/2+y,-z
1/2-x,1/2-y,-z
1/2+x,1/2-y,z
loop_
_atom_site_type_symbol
_atom_site_label
_atom_site_fract_x
_atom_site_fract_y
_atom_site_fract_z
Si Si1 0.988254 0.828164 0.216190
Si Si2 0.938664 0.833424 0.601527
Si Si3 0.189757 0.168572 0.590817
Si Si4 0.406000 0.833000 0.367744
Si Si5 0.624796 0.174077 0.220147
Si Si6 0.206050 0.325463 0.909852
Si Si7 0.285396 0.333333 0.830114
O O1 0.061359 0.804047 0.322886
O O2 0.032012 0.754173 0.182641
O O3 0.892744 0.748389 0.170654
O O4 0.969243 0.000000 0.190148
O O5 0.835794 0.811043 0.501335
O O6 0.007491 0.722566 0.613977
O O7 0.973039 0.000000 0.611257
O O8 0.107925 0.247651 0.575449
O O9 0.291440 0.229242 0.677492
O O10 0.188133 0.000000 0.610979
O O11 0.317140 0.812561 0.264587
O O12 0.424430 0.000000 0.398770
O O13 0.644698 0.224533 0.160714
O O14 0.609074 0.000000 0.211483
O O15 0.192171 0.500000 0.910600
O O16 0.278130 0.294591 0.900051
O O17 0.250000 0.250000 0.000000
O O18 0.321103 0.500000 0.843693
#
# Coordination Sequence:
#
# PCOD8081758 Si02
#       7
#     8   8   8   8   8   8   8
#     4  11  23  39  60  86 118 157 197 240 293 348
#     4  10  20  33  51  76 112 155 199 242 287 340
#     4   9  19  34  50  75 112 156 200 242 287 337
#     4  10  18  30  50  79 112 148 193 242 290 339
#     4  10  21  37  59  84 117 159 201 242 287 341
#     4  11  23  42  67  95 122 148 184 235 291 351
#     4   9  19  37  60  85 117 153 189 234 288 344
#
# _framework density 20.394020000000001
#
# number of rings (size 3 to 8) (size 9 to 14) (size 15 to 20)
#    0.000    2.000    1.429    2.143    0.000    5.714 
#    0.000    0.714    0.000    4.286    0.000    0.000 
#    0.000    0.000    0.000    0.000    0.000    0.000 
#
# Total GULP energy -347125.572526 kJ/mol
# GULP energy per Si atom -12397.341876 kJ/mol
# Density = 2.034760 g / cm^3
# Si number density = 20.394020 Si / 1000 Ang^3
#
#
#
# Elastic Constant Matrix: (Units=GPa)
#
#
# Indices 1 2 3 4 5 6 
#
# 1 86.7431 41.1478 20.7872 0.0000 -11.6450 0.0000
# 2 41.1478 91.7336 29.5613 0.0000 -7.9464 0.0000
# 3 20.7872 29.5613 71.7214 0.0000 -25.0119 0.0000
# 4 0.0000 0.0000 0.0000 24.3307 0.0000 0.4000
# 5 -11.6450 -7.9464 -25.0119 0.0000 22.0485 0.0000
# 6 0.0000 0.0000 0.0000 0.4000 0.0000 33.0968
#
#
#
# Elastic Compliance Matrix: (Units=1/GPa)
#
#
# Indices 1 2 3 4 5 6 
#
# 1 0.015336 -0.006465 0.000384 0.000000 0.006205 0.000000
# 2 -0.006465 0.015363 -0.006152 0.000000 -0.004857 0.000000
# 3 0.000384 -0.006152 0.025918 0.000000 0.027387 0.000000
# 4 0.000000 0.000000 0.000000 0.041109 0.000000 -0.000497
# 5 0.006205 -0.004857 0.027387 0.000000 0.077950 0.000000
# 6 0.000000 0.000000 0.000000 -0.000497 0.000000 0.030220
#
#
# Mechanical properties :
#
#
# Convention : Reuss Voigt Hill
#
# Bulk Modulus (GPa) = 31.10372 48.13232 39.61802
# Shear Modulus (GPa) = 20.74001 26.47531 23.60766
#
# Velocity S-wave (km/s) = 3.19245 3.60695 3.40601
# Velocity P-wave (km/s) = 5.37340 6.40306 5.91070
#
# Compressibility (1/GPa) = 0.03215050
#
# Stress axis : x y z
#
# Youngs Moduli (GPa) = 65.20489 65.09146 38.58293
#
# Poissons Ratio (x) = 0.42084 -0.01481
# Poissons Ratio (y) = 0.42157 0.23736
# Poissons Ratio (z) = -0.02503 0.40044
#
# Static dielectric constant tensor:
#      x y z
#    x 3.522550 0.000000 -0.188160 
#    y 0.000000 3.736160 0.000000 
#    z -0.188160 0.000000 3.850990 
# 
# 
# High freq. dielectric constant tensor:
#      x y z
#    x 1.781800 0.000000 -0.011730 
#    y 0.000000 1.802310 0.000000 
#    z -0.011730 0.000000 1.788130 
# 
# From -- ./inp_files/320260.got.cif
#   From: 2010.06.25/outbox.cif.g09.slc.cpg/sg12_161_cif.got.tgz:320260.got - 2010.06.28 00:19:55.
