data_PCOD8081747
_publ_section_title
;
Structure prediction by ZEFSAII (Michael W. Deem and Ramdas Pophale) SiO2 
 PCOD8081747
Probable space group: C 2/M
;
_chemical_formula_sum "Si O2"
_cell_formula_units_Z 56
_cell_length_a 20.471945
_cell_length_b 8.905125
_cell_length_c 16.873290
_cell_angle_alpha 90.000000
_cell_angle_beta 90.238091
_cell_angle_gamma 90.000000
_cell_volume 3076.062442
_symmetry_space_group_name_H-M "C 2/M"
_symmetry_group_IT_number 12
_symmetry_cell_setting 'monoclinic'
loop_
_space_group_symop_operation_xyz
x,y,z
-x,y,-z
-x,-y,-z
x,-y,z
1/2+x,1/2+y,z
1/2-x,1/2+y,-z
1/2-x,1/2-y,-z
1/2+x,1/2-y,z
loop_
_atom_site_type_symbol
_atom_site_label
_atom_site_fract_x
_atom_site_fract_y
_atom_site_fract_z
Si Si1 0.121879 0.827139 0.182817
Si Si2 0.632761 0.321824 0.821613
Si Si3 0.325642 0.177058 0.329841
Si Si4 0.251116 0.826610 0.084417
Si Si5 0.818217 0.672397 0.500574
Si Si6 0.183750 0.324101 0.327562
Si Si7 0.004012 0.821451 0.911031
O O1 0.180047 0.807666 0.121157
O O2 0.132922 0.730670 0.261763
O O3 0.057083 0.762916 0.140459
O O4 0.113396 0.000000 0.207944
O O5 0.636860 0.500000 0.821342
O O6 0.627318 0.260985 0.731849
O O7 0.697974 0.256235 0.859499
O O8 0.570427 0.264452 0.870567
O O9 0.354950 0.216578 0.418393
O O10 0.251328 0.234013 0.320000
O O11 0.326108 0.000000 0.311799
O O12 0.270798 0.000000 0.075756
O O13 0.250000 0.750000 0.000000
O O14 0.801228 0.500000 0.493819
O O15 0.750000 0.750000 0.500000
O O16 0.851405 0.706853 0.586257
O O17 0.198876 0.500000 0.316230
O O18 0.002015 0.000000 0.914935
O O19 0.000000 0.754989 0.000000
#
# Coordination Sequence:
#
# PCOD8081747 Si02
#       7
#     8   8   8   8   8   8   8
#     4  10  20  35  55  77 104 139 176 214 263 319
#     4  11  21  34  55  80 106 135 175 222 265 313
#     4  10  18  31  50  75 108 142 175 211 260 315
#     4  11  22  35  54  78 105 135 171 216 268 319
#     4   8  16  28  45  71 104 139 172 210 254 308
#     4  10  18  30  50  78 108 137 174 217 262 307
#     4   9  19  37  57  75  99 138 181 218 260 317
#
# _framework density 18.205092
#
# number of rings (size 3 to 8) (size 9 to 14) (size 15 to 20)
#    0.000    2.143    1.429    2.571    0.000    4.000 
#    0.000    1.429    0.000    3.857    0.000    6.000 
#    0.000    0.000    0.000    0.000    0.000    0.000 
#
# Total GULP energy -347016.701226 kJ/mol
# GULP energy per Si atom -12393.453615 kJ/mol
# Density = 1.816366 g / cm^3
# Si number density = 18.205092 Si / 1000 Ang^3
#
#
#
# Elastic Constant Matrix: (Units=GPa)
#
#
# Indices 1 2 3 4 5 6 
#
# 1 61.6405 20.5872 29.9567 0.0000 -5.5770 0.0000
# 2 20.5872 65.1842 44.6227 0.0000 -6.1801 0.0000
# 3 29.9567 44.6227 158.5837 0.0000 -8.4776 0.0000
# 4 0.0000 0.0000 0.0000 32.2890 0.0000 -0.4418
# 5 -5.5770 -6.1801 -8.4776 0.0000 25.5344 0.0000
# 6 0.0000 0.0000 0.0000 -0.4418 0.0000 17.7007
#
#
#
# Elastic Compliance Matrix: (Units=1/GPa)
#
#
# Indices 1 2 3 4 5 6 
#
# 1 0.018944 -0.004206 -0.002269 0.000000 0.002367 0.000000
# 2 -0.004206 0.020145 -0.004747 0.000000 0.002381 0.000000
# 3 -0.002269 -0.004747 0.008126 0.000000 0.001054 0.000000
# 4 0.000000 0.000000 0.000000 0.030981 0.000000 0.000773
# 5 0.002367 0.002381 0.001054 0.000000 0.040606 0.000000
# 6 0.000000 0.000000 0.000000 0.000773 0.000000 0.056514
#
#
# Mechanical properties :
#
#
# Convention : Reuss Voigt Hill
#
# Bulk Modulus (GPa) = 40.36621 52.86018 46.61319
# Shear Modulus (GPa) = 24.26994 27.78760 26.02877
#
# Velocity S-wave (km/s) = 3.65518 3.91111 3.78531
# Velocity P-wave (km/s) = 6.32732 7.03524 6.69065
#
# Compressibility (1/GPa) = 0.02477319
#
# Stress axis : x y z
#
# Youngs Moduli (GPa) = 52.78588 49.64130 123.05729
#
# Poissons Ratio (x) = 0.20878 0.27918
# Poissons Ratio (y) = 0.22201 0.58410
# Poissons Ratio (z) = 0.11975 0.23562
#
# Static dielectric constant tensor:
#      x y z
#    x 3.095680 0.000000 0.005390 
#    y 0.000000 3.332410 0.000000 
#    z 0.005390 0.000000 4.126070 
# 
# 
# High freq. dielectric constant tensor:
#      x y z
#    x 1.662740 0.000000 -0.002200 
#    y 0.000000 1.701800 0.000000 
#    z -0.002200 0.000000 1.734680 
# 
# From -- ./inp_files/280333.got.cif
#   From: 2010.06.25/outbox.cif.g09.slc.cpg/sg12_141_cif.got.tgz:280333.got - 2010.06.28 00:19:55.
