data_PCOD8081570
_publ_section_title
;
Structure prediction by ZEFSAII (Michael W. Deem and Ramdas Pophale) SiO2 
 PCOD8081570
Probable space group: C 2/M
;
_chemical_formula_sum "Si O2"
_cell_formula_units_Z 48
_cell_length_a 15.311056
_cell_length_b 17.474706
_cell_length_c 23.678958
_cell_angle_alpha 90.000000
_cell_angle_beta 153.998072
_cell_angle_gamma 90.000000
_cell_volume 2777.471001
_symmetry_space_group_name_H-M "C 2/M"
_symmetry_group_IT_number 12
_symmetry_cell_setting 'monoclinic'
loop_
_space_group_symop_operation_xyz
x,y,z
-x,y,-z
-x,-y,-z
x,-y,z
1/2+x,1/2+y,z
1/2-x,1/2+y,-z
1/2-x,1/2-y,-z
1/2+x,1/2-y,z
loop_
_atom_site_type_symbol
_atom_site_label
_atom_site_fract_x
_atom_site_fract_y
_atom_site_fract_z
Si Si1 0.787944 0.660974 0.017712
Si Si2 0.006884 0.090675 0.370390
Si Si3 0.188152 0.091177 0.074057
Si Si4 0.390722 0.086586 0.645495
Si Si5 0.219178 0.590837 0.105354
Si Si6 0.307509 0.913328 0.723248
O O1 0.666216 0.619724 0.997207
O O2 0.020540 0.644326 0.158496
O O3 0.750000 0.750000 0.000000
O O4 0.717419 0.629911 0.916237
O O5 0.888001 0.121383 0.246956
O O6 0.889125 0.113704 0.358686
O O7 0.234754 0.124150 0.509497
O O8 0.024036 0.000000 0.376501
O O9 0.390605 0.125597 0.221045
O O10 0.199772 0.000000 0.079052
O O11 0.000000 0.121208 0.000000
O O12 0.273192 0.089371 0.636567
O O13 0.431521 0.000000 0.650446
O O14 0.225519 0.500000 0.101987
O O15 0.000000 0.616146 0.000000
O O16 0.368842 0.000000 0.777681
#
# Coordination Sequence:
#
# PCOD8081570 Si02
#       6
#     8   8   8   8   8   8
#     4  11  21  31  46  71  99 131 164 201 238 286
#     4   9  15  24  45  76 102 123 147 190 251 300
#     4   9  18  34  54  72  92 125 168 209 239 269
#     4   8  14  24  44  75 101 118 153 201 241 284
#     4  10  18  30  49  73 102 129 155 193 248 303
#     4   9  15  27  46  70 100 128 157 195 243 288
#
# _framework density 17.281908000000001
#
# number of rings (size 3 to 8) (size 9 to 14) (size 15 to 20)
#    0.000    2.667    1.667    3.000    0.000    2.667 
#    0.000    0.000    0.000    5.000    8.667    5.833 
#    0.000    0.000    0.000    0.000    0.000    0.000 
#
# Total GULP energy -297330.538533 kJ/mol
# GULP energy per Si atom -12388.772439 kJ/mol
# Density = 1.724257 g / cm^3
# Si number density = 17.281908 Si / 1000 Ang^3
#
#
#
# Elastic Constant Matrix: (Units=GPa)
#
#
# Indices 1 2 3 4 5 6 
#
# 1 114.1951 16.6086 71.0648 0.0011 3.3175 -0.0003
# 2 16.6086 36.5183 29.2454 0.0087 1.0197 0.0024
# 3 71.0648 29.2454 145.4464 0.0150 0.3732 0.0041
# 4 0.0011 0.0087 0.0150 5.9256 0.0027 0.2564
# 5 3.3175 1.0197 0.3732 0.0027 19.5476 -0.0009
# 6 -0.0003 0.0024 0.0041 0.2564 -0.0009 10.3750
#
#
#
# Elastic Compliance Matrix: (Units=1/GPa)
#
#
# Indices 1 2 3 4 5 6 
#
# 1 0.012688 -0.000899 -0.006013 0.000015 -0.001992 0.000002
# 2 -0.000899 0.032752 -0.006143 -0.000032 -0.001439 -0.000005
# 3 -0.006013 -0.006143 0.011046 -0.000018 0.001130 -0.000003
# 4 0.000015 -0.000032 -0.000018 0.168941 -0.000024 -0.004174
# 5 -0.001992 -0.001439 0.001130 -0.000024 0.051549 0.000005
# 6 0.000002 -0.000005 -0.000003 -0.004174 0.000005 0.096488
#
#
# Mechanical properties :
#
#
# Convention : Reuss Voigt Hill
#
# Bulk Modulus (GPa) = 32.92145 58.88862 45.90503
# Shear Modulus (GPa) = 12.20410 19.11904 15.66157
#
# Velocity S-wave (km/s) = 2.66028 3.32972 3.01365
# Velocity P-wave (km/s) = 5.34108 6.99514 6.22331
#
# Compressibility (1/GPa) = 0.03037533
#
# Stress axis : x y z
#
# Youngs Moduli (GPa) = 78.81647 30.53270 90.53327
#
# Poissons Ratio (x) = 0.02745 0.54440
# Poissons Ratio (y) = 0.07086 0.55610
# Poissons Ratio (z) = 0.47395 0.18755
#
# Static dielectric constant tensor:
#      x y z
#    x 3.241110 0.000000 -0.024220 
#    y 0.000000 2.720670 0.000000 
#    z -0.024220 0.000000 3.599970 
# 
# 
# High freq. dielectric constant tensor:
#      x y z
#    x 1.654600 0.000000 -0.003770 
#    y 0.000000 1.612260 0.000000 
#    z -0.003770 0.000000 1.678020 
# 
# From -- ./inp_files/143900.got.cif
#   From: 2010.06.25/outbox.cif.g09.slc.cpg/sg12_72_cif.got.tgz:143900.got - 2010.06.28 00:19:55.
