data_PCOD8081096
_publ_section_title
;
Structure prediction by ZEFSAII (Michael W. Deem and Ramdas Pophale) SiO2 
 PCOD8081096
Probable space group: C 2/M
;
_chemical_formula_sum "Si O2"
_cell_formula_units_Z 40
_cell_length_a 24.127206
_cell_length_b 9.214419
_cell_length_c 21.230997
_cell_angle_alpha 90.000000
_cell_angle_beta 29.938191
_cell_angle_gamma 90.000000
_cell_volume 2355.607331
_symmetry_space_group_name_H-M "C 2/M"
_symmetry_group_IT_number 12
_symmetry_cell_setting 'monoclinic'
loop_
_space_group_symop_operation_xyz
x,y,z
-x,y,-z
-x,-y,-z
x,-y,z
1/2+x,1/2+y,z
1/2-x,1/2+y,-z
1/2-x,1/2-y,-z
1/2+x,1/2-y,z
loop_
_atom_site_type_symbol
_atom_site_label
_atom_site_fract_x
_atom_site_fract_y
_atom_site_fract_z
Si Si1 0.847984 0.333118 0.203520
Si Si2 0.914672 0.167607 0.344228
Si Si3 0.654376 0.328913 0.056398
Si Si4 0.232162 0.330998 0.420887
Si Si5 0.402155 0.832423 0.010457
O O1 0.826914 0.500000 0.241687
O O2 0.755884 0.236433 0.329062
O O3 0.835775 0.308348 0.140883
O O4 0.970382 0.286358 0.105460
O O5 0.878325 0.261016 0.440480
O O6 0.837431 0.205860 0.360962
O O7 0.039389 0.210109 0.203874
O O8 0.903063 0.000000 0.373932
O O9 0.675868 0.500000 0.033524
O O10 0.750000 0.250000 0.000000
O O11 0.653987 0.269928 0.985768
O O12 0.210816 0.500000 0.433911
O O13 0.394062 0.000000 0.997216
#
# Coordination Sequence:
#
# PCOD8081096 Si02
#       5
#     8   8   8   8   8
#     4   9  17  30  50  75 105 135 163 203 254 304
#     4   9  19  33  47  70 102 134 168 204 250 302
#     4  11  22  36  53  74 102 136 173 211 249 295
#     4  10  18  29  49  76 103 131 165 207 253 300
#     4   9  18  32  50  74 102 135 171 204 247 301
#
# _framework density 16.980758000000002
#
# number of rings (size 3 to 8) (size 9 to 14) (size 15 to 20)
#    0.000    2.400    2.000    2.400    0.000    3.200 
#    0.000    2.000    0.000    1.200    0.000    8.400 
#    0.000    0.000    0.000    0.000    0.000    0.000 
#
# Total GULP energy -248037.020155 kJ/mol
# GULP energy per Si atom -12401.851008 kJ/mol
# Density = 1.694211 g / cm^3
# Si number density = 16.980758 Si / 1000 Ang^3
#
#
#
# Elastic Constant Matrix: (Units=GPa)
#
#
# Indices 1 2 3 4 5 6 
#
# 1 87.6340 51.8217 47.3464 -0.0009 6.8792 0.0002
# 2 51.8217 89.4234 60.7928 -0.0033 13.1613 0.0014
# 3 47.3464 60.7928 104.5556 -0.0041 18.0503 0.0021
# 4 -0.0009 -0.0033 -0.0041 31.3536 0.0014 6.0668
# 5 6.8792 13.1613 18.0503 0.0014 27.2887 -0.0005
# 6 0.0002 0.0014 0.0021 6.0668 -0.0005 29.9669
#
#
#
# Elastic Compliance Matrix: (Units=1/GPa)
#
#
# Indices 1 2 3 4 5 6 
#
# 1 0.018174 -0.008257 -0.003754 -0.000001 0.001884 0.000001
# 2 -0.008257 0.022345 -0.008751 0.000001 -0.002907 -0.000001
# 3 -0.003754 -0.008751 0.017454 0.000002 -0.006378 -0.000001
# 4 -0.000001 0.000001 0.000002 0.033195 -0.000003 -0.006720
# 5 0.001884 -0.002907 -0.006378 -0.000003 0.041791 0.000002
# 6 0.000001 -0.000001 -0.000001 -0.006720 0.000002 0.034731
#
#
# Mechanical properties :
#
#
# Convention : Reuss Voigt Hill
#
# Bulk Modulus (GPa) = 60.79887 66.83721 63.81804
# Shear Modulus (GPa) = 23.28855 25.83197 24.56026
#
# Velocity S-wave (km/s) = 3.70735 3.90455 3.80723
# Velocity P-wave (km/s) = 7.36262 7.73132 7.54922
#
# Compressibility (1/GPa) = 0.01644767
#
# Stress axis : x y z
#
# Youngs Moduli (GPa) = 55.02258 44.75222 57.29432
#
# Poissons Ratio (x) = 0.36953 0.21509
# Poissons Ratio (y) = 0.45434 0.50140
# Poissons Ratio (z) = 0.20656 0.39164
#
# Static dielectric constant tensor:
#      x y z
#    x 2.927720 0.000000 0.160890 
#    y 0.000000 3.161150 0.000000 
#    z 0.160890 0.000000 3.164600 
# 
# 
# High freq. dielectric constant tensor:
#      x y z
#    x 1.624130 0.000000 0.023220 
#    y 0.000000 1.661030 0.000000 
#    z 0.023220 0.000000 1.652200 
# 
# From -- ./inp_files/162358.got.cif
#   From: 2010.06.25/outbox.cif.g09.slc.cpg/sg12_82_cif.got.tgz:162358.got - 2010.06.28 00:19:55.
