data_PCOD8081467
_publ_section_title
;
Structure prediction by ZEFSAII (Michael W. Deem and Ramdas Pophale) SiO2 
 PCOD8081467
Probable space group: C 2/M
;
_chemical_formula_sum "Si O2"
_cell_formula_units_Z 56
_cell_length_a 20.614864
_cell_length_b 9.104498
_cell_length_c 30.954268
_cell_angle_alpha 90.000000
_cell_angle_beta 147.353920
_cell_angle_gamma 90.000000
_cell_volume 3134.055812
_symmetry_space_group_name_H-M "C 2/M"
_symmetry_group_IT_number 12
_symmetry_cell_setting 'monoclinic'
loop_
_space_group_symop_operation_xyz
x,y,z
-x,y,-z
-x,-y,-z
x,-y,z
1/2+x,1/2+y,z
1/2-x,1/2+y,-z
1/2-x,1/2-y,-z
1/2+x,1/2-y,z
loop_
_atom_site_type_symbol
_atom_site_label
_atom_site_fract_x
_atom_site_fract_y
_atom_site_fract_z
Si Si1 0.269382 0.170007 0.658418
Si Si2 0.465267 0.827189 0.168612
Si Si3 0.761008 0.826128 0.903383
Si Si4 0.730618 0.674179 0.189540
Si Si5 0.614424 0.327965 0.655188
Si Si6 0.974248 0.173791 0.083299
Si Si7 0.419424 0.165868 0.497280
O O1 0.408325 0.215812 0.738756
O O2 0.209430 0.207064 0.670719
O O3 0.209268 0.262741 0.586128
O O4 0.251466 0.000000 0.636954
O O5 0.361726 0.773088 0.142956
O O6 0.446051 0.745741 0.113057
O O7 0.459100 0.000000 0.155931
O O8 0.766008 0.766077 0.857485
O O9 0.767043 0.000000 0.905298
O O10 0.875645 0.766661 0.994099
O O11 0.749373 0.500000 0.202816
O O12 0.838635 0.752964 0.275019
O O13 0.604356 0.722546 0.139379
O O14 0.597663 0.500000 0.653274
O O15 0.484775 0.258663 0.571303
O O16 0.965730 0.000000 0.083919
O O17 0.500000 0.170948 0.500000
O O18 0.399613 0.000000 0.502423
#
# Coordination Sequence:
#
# PCOD8081467 Si02
#       7
#     8   8   8   8   8   8   8
#     4   9  17  29  46  70  99 130 161 198 247 297
#     4  10  19  33  52  73 101 134 169 205 248 301
#     4   9  19  34  51  72  99 135 172 208 250 296
#     4  10  19  32  51  73 100 133 171 210 248 293
#     4  10  18  30  48  72 102 131 162 201 249 299
#     4  10  19  32  52  75  99 129 170 215 254 291
#     4   9  17  28  46  73 101 127 159 201 246 292
#
# _framework density 17.868220999999998
#
# number of rings (size 3 to 8) (size 9 to 14) (size 15 to 20)
#    0.000    2.429    1.429    1.714    0.000    4.571 
#    0.000    1.429    0.000    2.571    0.000    0.000 
#    0.000    0.000    0.000    0.000    0.000    0.000 
#
# Total GULP energy -347244.223131 kJ/mol
# GULP energy per Si atom -12401.579398 kJ/mol
# Density = 1.782755 g / cm^3
# Si number density = 17.868221 Si / 1000 Ang^3
#
#
#
# Elastic Constant Matrix: (Units=GPa)
#
#
# Indices 1 2 3 4 5 6 
#
# 1 69.1569 23.0728 44.4588 0.0001 -9.9080 -0.0001
# 2 23.0728 54.2047 49.6059 0.0002 -5.4258 -0.0002
# 3 44.4588 49.6059 162.0500 0.0000 -9.7726 0.0000
# 4 0.0001 0.0002 0.0000 30.2035 0.0000 -3.7355
# 5 -9.9080 -5.4258 -9.7726 0.0000 11.9956 0.0000
# 6 -0.0001 -0.0002 0.0000 -3.7355 0.0000 16.3657
#
#
#
# Elastic Compliance Matrix: (Units=1/GPa)
#
#
# Indices 1 2 3 4 5 6 
#
# 1 0.019704 -0.004054 -0.003464 0.000000 0.011619 0.000000
# 2 -0.004054 0.026808 -0.006904 0.000000 0.003153 0.000000
# 3 -0.003464 -0.006904 0.009332 0.000000 0.001619 0.000000
# 4 0.000000 0.000000 0.000000 0.034071 0.000000 0.007777
# 5 0.011619 0.003153 0.001619 0.000000 0.095706 0.000000
# 6 0.000000 0.000000 0.000000 0.007777 0.000000 0.062878
#
#
# Mechanical properties :
#
#
# Convention : Reuss Voigt Hill
#
# Bulk Modulus (GPa) = 37.03666 57.74294 47.38980
# Shear Modulus (GPa) = 17.46155 22.93124 20.19639
#
# Velocity S-wave (km/s) = 3.12948 3.58628 3.36564
# Velocity P-wave (km/s) = 5.81643 7.03809 6.45622
#
# Compressibility (1/GPa) = 0.02700028
#
# Stress axis : x y z
#
# Youngs Moduli (GPa) = 50.75104 37.30228 107.15372
#
# Poissons Ratio (x) = 0.15122 0.37120
# Poissons Ratio (y) = 0.20574 0.73979
# Poissons Ratio (z) = 0.17581 0.25754
#
# Static dielectric constant tensor:
#      x y z
#    x 3.126840 0.000000 0.032760 
#    y 0.000000 3.150290 0.000000 
#    z 0.032760 0.000000 3.522120 
# 
# 
# High freq. dielectric constant tensor:
#      x y z
#    x 1.658930 0.000000 0.001550 
#    y 0.000000 1.676390 0.000000 
#    z 0.001550 0.000000 1.710290 
# 
# From -- ./inp_files/275211.got.cif
#   From: 2010.06.25/outbox.cif.g09.slc.cpg/sg12_138_cif.got.tgz:275211.got - 2010.06.28 00:19:55.
