data_PCOD8081998
_publ_section_title
;
Structure prediction by ZEFSAII (Michael W. Deem and Ramdas Pophale) SiO2 
 PCOD8081998
Probable space group: C 2/M
;
_chemical_formula_sum "Si O2"
_cell_formula_units_Z 44
_cell_length_a 9.544144
_cell_length_b 20.210528
_cell_length_c 18.036424
_cell_angle_alpha 90.000000
_cell_angle_beta 139.038463
_cell_angle_gamma 90.000000
_cell_volume 2280.722173
_symmetry_space_group_name_H-M "C 2/M"
_symmetry_group_IT_number 12
_symmetry_cell_setting 'monoclinic'
loop_
_space_group_symop_operation_xyz
x,y,z
-x,y,-z
-x,-y,-z
x,-y,z
1/2+x,1/2+y,z
1/2-x,1/2+y,-z
1/2-x,1/2-y,-z
1/2+x,1/2-y,z
loop_
_atom_site_type_symbol
_atom_site_label
_atom_site_fract_x
_atom_site_fract_y
_atom_site_fract_z
Si Si1 0.816455 0.078425 0.977018
Si Si2 0.761741 0.578282 0.894467
Si Si3 0.660620 0.163197 0.436716
Si Si4 0.432897 0.075178 0.727881
Si Si5 0.518487 0.576410 0.652954
Si Si6 0.500000 0.754248 0.500000
O O1 0.585426 0.102316 0.854520
O O2 0.824435 0.000000 0.976152
O O3 0.859405 0.099660 0.078809
O O4 0.000000 0.110936 0.000000
O O5 0.781213 0.500000 0.890117
O O6 0.629606 0.605852 0.771670
O O7 0.000000 0.607703 0.000000
O O8 0.524820 0.114059 0.331336
O O9 0.489513 0.201237 0.420705
O O10 0.820010 0.122852 0.554194
O O11 0.787488 0.210632 0.429377
O O12 0.186774 0.081263 0.653230
O O13 0.493699 0.000000 0.734124
O O14 0.443557 0.500000 0.633073
#
# Coordination Sequence:
#
# PCOD8081998 Si02
#       6
#     8   8   8   8   8   4
#     4   9  17  28  44  72 109 143 169 199 251 313
#     4   9  15  26  44  70 104 137 169 198 240 310
#     4  11  21  39  55  81 101 136 176 220 263 316
#     4  10  18  31  54  81 111 139 168 214 265 315
#     4  10  18  30  54  83 110 138 169 214 264 313
#     4  10  24  38  56  72 104 138 184 216 256 306
#
# _framework density 19.292134000000001
#
# number of rings (size 3 to 8) (size 9 to 14) (size 15 to 20)
#    0.000    2.182    3.636    0.545    0.000    2.909 
#    0.000    3.636    0.000    0.000    0.000   25.455 
#    0.000    0.000    0.000    0.000    0.000    0.000 
#
# Total GULP energy -272622.449058 kJ/mol
# GULP energy per Si atom -12391.929503 kJ/mol
# Density = 1.924822 g / cm^3
# Si number density = 19.292134 Si / 1000 Ang^3
#
#
#
# Elastic Constant Matrix: (Units=GPa)
#
#
# Indices 1 2 3 4 5 6 
#
# 1 94.8843 26.1232 20.8051 0.0001 -19.9778 0.0001
# 2 26.1232 53.5780 38.1218 0.0003 -12.0059 0.0001
# 3 20.8051 38.1218 109.6264 0.0007 -22.4553 0.0003
# 4 0.0001 0.0003 0.0007 5.5847 0.0005 -8.8160
# 5 -19.9778 -12.0059 -22.4553 0.0005 29.6930 0.0002
# 6 0.0001 0.0001 0.0003 -8.8160 0.0002 19.5596
#
#
#
# Elastic Compliance Matrix: (Units=1/GPa)
#
#
# Indices 1 2 3 4 5 6 
#
# 1 0.013437 -0.005515 0.000902 -0.000003 0.007494 -0.000002
# 2 -0.005515 0.027503 -0.008283 0.000000 0.001146 0.000000
# 3 0.000902 -0.008283 0.013335 -0.000008 0.007343 -0.000004
# 4 -0.000003 0.000000 -0.000008 0.620710 -0.000020 0.279770
# 5 0.007494 0.001146 0.007343 -0.000020 0.044736 -0.000010
# 6 -0.000002 0.000000 -0.000004 0.279770 -0.000010 0.177225
#
#
# Mechanical properties :
#
#
# Convention : Reuss Voigt Hill
#
# Bulk Modulus (GPa) = 35.10517 47.57655 41.34086
# Shear Modulus (GPa) = 5.36347 22.50336 13.93342
#
# Velocity S-wave (km/s) = 1.66918 3.41904 2.69035
# Velocity P-wave (km/s) = 4.68519 6.34832 5.57907
#
# Compressibility (1/GPa) = 0.02848584
#
# Stress axis : x y z
#
# Youngs Moduli (GPa) = 74.41977 36.35922 74.99114
#
# Poissons Ratio (x) = 0.20051 -0.06768
# Poissons Ratio (y) = 0.41040 0.62113
# Poissons Ratio (z) = -0.06716 0.30115
#
# Static dielectric constant tensor:
#      x y z
#    x 3.604750 0.000000 -0.211770 
#    y 0.000000 3.222840 0.000000 
#    z -0.211770 0.000000 3.549750 
# 
# 
# High freq. dielectric constant tensor:
#      x y z
#    x 1.746840 0.000000 -0.018510 
#    y 0.000000 1.698980 0.000000 
#    z -0.018510 0.000000 1.751430 
# 
# From -- ./inp_files/120721.got.cif
#   From: 2010.06.25/outbox.cif.g09.slc.cpg/sg12_61_cif.got.tgz:120721.got - 2010.06.28 00:19:55.
