data_PCOD8081070
_publ_section_title
;
Structure prediction by ZEFSAII (Michael W. Deem and Ramdas Pophale) SiO2 
 PCOD8081070
Probable space group: C 2/M
;
_chemical_formula_sum "Si O2"
_cell_formula_units_Z 64
_cell_length_a 28.975937
_cell_length_b 9.052536
_cell_length_c 15.674640
_cell_angle_alpha 90.000000
_cell_angle_beta 61.573415
_cell_angle_gamma 90.000000
_cell_volume 3615.809238
_symmetry_space_group_name_H-M "C 2/M"
_symmetry_group_IT_number 12
_symmetry_cell_setting 'monoclinic'
loop_
_space_group_symop_operation_xyz
x,y,z
-x,y,-z
-x,-y,-z
x,-y,z
1/2+x,1/2+y,z
1/2-x,1/2+y,-z
1/2-x,1/2-y,-z
1/2+x,1/2-y,z
loop_
_atom_site_type_symbol
_atom_site_label
_atom_site_fract_x
_atom_site_fract_y
_atom_site_fract_z
Si Si1 0.670848 0.171290 0.109336
Si Si2 0.071694 0.825680 0.278460
Si Si3 0.586952 0.169861 0.437529
Si Si4 0.470053 0.168772 0.335555
Si Si5 0.863634 0.674338 0.342375
Si Si6 0.702988 0.325389 0.730835
Si Si7 0.782406 0.170917 0.088001
Si Si8 0.310752 0.175484 0.558870
O O1 0.622994 0.260051 0.190181
O O2 0.720865 0.198482 0.125989
O O3 0.656009 0.000000 0.117210
O O4 0.682407 0.229381 0.004404
O O5 0.066479 0.772351 0.380152
O O6 0.020051 0.771645 0.273043
O O7 0.074911 0.000000 0.271701
O O8 0.547956 0.186461 0.551056
O O9 0.644836 0.225933 0.413151
O O10 0.588497 0.000000 0.404434
O O11 0.423320 0.217062 0.313080
O O12 0.486052 0.000000 0.303793
O O13 0.858137 0.500000 0.336023
O O14 0.847870 0.753829 0.268455
O O15 0.825073 0.733106 0.451596
O O16 0.700384 0.500000 0.723324
O O17 0.704116 0.278840 0.828300
O O18 0.754966 0.261386 0.638419
O O19 0.796417 0.000000 0.059587
O O20 0.311342 0.000000 0.556818
#
# Coordination Sequence:
#
# PCOD8081070 Si02
#       8
#     8   8   8   8   8   8   8   8
#     4  10  20  36  57  76  99 132 165 198 241 296
#     4  12  23  32  48  75 104 130 162 207 253 297
#     4   9  17  32  52  71  97 135 174 205 240 293
#     4   9  19  35  52  69  95 135 176 210 245 288
#     4   9  18  32  49  70  98 132 173 213 239 274
#     4  10  18  29  49  74 102 134 163 196 245 298
#     4   9  19  35  54  78 105 130 159 199 246 296
#     4   8  15  29  48  71 100 135 170 201 237 284
#
# _framework density 17.700049
#
# number of rings (size 3 to 8) (size 9 to 14) (size 15 to 20)
#    0.000    2.500    0.000    4.500    0.000    5.500 
#    0.000    3.750    0.000    0.750    0.000    5.250 
#    0.000    0.000    0.000    0.000    0.000    0.000 
#
# Total GULP energy -396814.150212 kJ/mol
# GULP energy per Si atom -12400.442194 kJ/mol
# Density = 1.765976 g / cm^3
# Si number density = 17.700049 Si / 1000 Ang^3
#
#
#
# Elastic Constant Matrix: (Units=GPa)
#
#
# Indices 1 2 3 4 5 6 
#
# 1 116.0828 52.9818 59.0834 0.0000 10.8554 0.0000
# 2 52.9818 82.6353 46.0094 0.0000 -0.5101 0.0000
# 3 59.0834 46.0094 71.6782 0.0000 10.0970 0.0000
# 4 0.0000 0.0000 0.0000 25.2064 0.0000 0.7816
# 5 10.8554 -0.5101 10.0970 0.0000 27.7071 0.0000
# 6 0.0000 0.0000 0.0000 0.7816 0.0000 28.0709
#
#
#
# Elastic Compliance Matrix: (Units=1/GPa)
#
#
# Indices 1 2 3 4 5 6 
#
# 1 0.016049 -0.004927 -0.009664 0.000000 -0.002857 0.000000
# 2 -0.004927 0.021027 -0.010291 0.000000 0.006068 0.000000
# 3 -0.009664 -0.010291 0.029532 0.000000 -0.007165 0.000000
# 4 0.000000 0.000000 0.000000 0.039707 0.000000 -0.001106
# 5 -0.002857 0.006068 -0.007165 0.000000 0.039934 0.000000
# 6 0.000000 0.000000 0.000000 -0.001106 0.000000 0.035655
#
#
# Mechanical properties :
#
#
# Convention : Reuss Voigt Hill
#
# Bulk Modulus (GPa) = 59.36469 65.17172 62.26821
# Shear Modulus (GPa) = 21.07185 23.68501 22.37843
#
# Velocity S-wave (km/s) = 3.45410 3.66202 3.55958
# Velocity P-wave (km/s) = 7.03703 7.40139 7.22151
#
# Compressibility (1/GPa) = 0.01684503
#
# Stress axis : x y z
#
# Youngs Moduli (GPa) = 62.30827 47.55713 33.86117
#
# Poissons Ratio (x) = 0.23430 0.32724
# Poissons Ratio (y) = 0.30698 0.34846
# Poissons Ratio (z) = 0.60217 0.48940
#
# Static dielectric constant tensor:
#      x y z
#    x 3.382940 0.000000 -0.019480 
#    y 0.000000 3.085030 0.000000 
#    z -0.019480 0.000000 3.180210 
# 
# 
# High freq. dielectric constant tensor:
#      x y z
#    x 1.689250 0.000000 -0.000260 
#    y 0.000000 1.667690 0.000000 
#    z -0.000260 0.000000 1.665330 
# 
# From -- ./inp_files/249066.got.cif
#   From: 2010.06.25/outbox.cif.g09.slc.cpg/sg12_125_cif.got.tgz:249066.got - 2010.06.28 00:19:55.
