data_PCOD8081835
_publ_section_title
;
Structure prediction by ZEFSAII (Michael W. Deem and Ramdas Pophale) SiO2 
 PCOD8081835
Probable space group: C 2/M
;
_chemical_formula_sum "Si O2"
_cell_formula_units_Z 56
_cell_length_a 32.818557
_cell_length_b 14.542670
_cell_length_c 12.522037
_cell_angle_alpha 90.000000
_cell_angle_beta 28.639170
_cell_angle_gamma 90.000000
_cell_volume 2864.433678
_symmetry_space_group_name_H-M "C 2/M"
_symmetry_group_IT_number 12
_symmetry_cell_setting 'monoclinic'
loop_
_space_group_symop_operation_xyz
x,y,z
-x,y,-z
-x,-y,-z
x,-y,z
1/2+x,1/2+y,z
1/2-x,1/2+y,-z
1/2-x,1/2-y,-z
1/2+x,1/2-y,z
loop_
_atom_site_type_symbol
_atom_site_label
_atom_site_fract_x
_atom_site_fract_y
_atom_site_fract_z
Si Si1 0.025366 0.398044 0.268061
Si Si2 0.591284 0.677091 0.798751
Si Si3 0.568335 0.134629 0.931202
Si Si4 0.695875 0.892480 0.968233
Si Si5 0.795194 0.261975 0.627456
Si Si6 0.659447 0.892484 0.288496
Si Si7 0.743478 0.398917 0.575221
O O1 0.021917 0.500000 0.323955
O O2 0.935945 0.351789 0.505049
O O3 0.036792 0.403782 0.115359
O O4 0.104019 0.350345 0.147183
O O5 0.571577 0.755024 0.931932
O O6 0.615709 0.733572 0.633555
O O7 0.670401 0.614663 0.653079
O O8 0.500000 0.622504 0.000000
O O9 0.663226 0.097307 0.691317
O O10 0.500000 0.100317 0.000000
O O11 0.761468 0.834725 0.747992
O O12 0.705939 0.000000 0.913682
O O13 0.710823 0.878236 0.060235
O O14 0.798335 0.334403 0.715559
O O15 0.736447 0.314379 0.674912
O O16 0.658231 0.000000 0.324655
O O17 0.727087 0.500000 0.664742
#
# Coordination Sequence:
#
# PCOD8081835 Si02
#       7
#     8   8   8   8   8   8   8
#     4  10  18  30  51  77 106 137 169 210 262 321
#     4  10  21  36  53  75 105 141 184 224 260 310
#     4  10  19  32  52  79 111 143 175 214 264 325
#     4  10  21  36  54  76 103 138 180 224 267 312
#     4  11  21  35  56  78 106 141 175 219 270 320
#     4  10  20  34  53  80 109 136 172 216 266 322
#     4  11  22  35  53  80 113 146 179 217 264 320
#
# _framework density 19.550111999999999
#
# number of rings (size 3 to 8) (size 9 to 14) (size 15 to 20)
#    0.000    1.714    0.000    7.714    0.000    6.000 
#    0.000    0.000    0.000    0.429    0.000    0.000 
#    0.000   11.429    0.000    0.000    0.000    0.000 
#
# Total GULP energy -346915.192714 kJ/mol
# GULP energy per Si atom -12389.828311 kJ/mol
# Density = 1.950562 g / cm^3
# Si number density = 19.550112 Si / 1000 Ang^3
#
#
#
# Elastic Constant Matrix: (Units=GPa)
#
#
# Indices 1 2 3 4 5 6 
#
# 1 86.5317 24.1957 41.0736 0.0000 -4.3488 0.0000
# 2 24.1957 79.7477 40.2296 0.0000 4.1757 0.0000
# 3 41.0736 40.2296 91.5213 0.0000 -10.0950 0.0000
# 4 0.0000 0.0000 0.0000 14.7404 0.0000 11.5979
# 5 -4.3488 4.1757 -10.0950 0.0000 37.7401 0.0000
# 6 0.0000 0.0000 0.0000 11.5979 0.0000 25.5547
#
#
#
# Elastic Compliance Matrix: (Units=1/GPa)
#
#
# Indices 1 2 3 4 5 6 
#
# 1 0.014820 -0.001505 -0.005958 0.000000 0.000280 0.000000
# 2 -0.001505 0.016809 -0.007148 0.000000 -0.003945 0.000000
# 3 -0.005958 -0.007148 0.017263 0.000000 0.004722 0.000000
# 4 0.000000 0.000000 0.000000 0.105522 0.000000 -0.047891
# 5 0.000280 -0.003945 0.004722 0.000000 0.028229 0.000000
# 6 0.000000 0.000000 0.000000 -0.047891 0.000000 0.060867
#
#
# Mechanical properties :
#
#
# Convention : Reuss Voigt Hill
#
# Bulk Modulus (GPa) = 50.84316 52.08871 51.46594
# Shear Modulus (GPa) = 17.90261 25.76050 21.83155
#
# Velocity S-wave (km/s) = 3.02938 3.63390 3.34533
# Velocity P-wave (km/s) = 6.18864 6.65647 6.42681
#
# Compressibility (1/GPa) = 0.01966833
#
# Stress axis : x y z
#
# Youngs Moduli (GPa) = 67.47811 59.49258 57.92621
#
# Poissons Ratio (x) = 0.08955 0.34514
# Poissons Ratio (y) = 0.10157 0.41407
# Poissons Ratio (z) = 0.40205 0.42526
#
# Static dielectric constant tensor:
#      x y z
#    x 3.617740 0.000000 -0.111800 
#    y 0.000000 3.404090 0.000000 
#    z -0.111800 0.000000 3.589200 
# 
# 
# High freq. dielectric constant tensor:
#      x y z
#    x 1.758710 0.000000 -0.000210 
#    y 0.000000 1.743010 0.000000 
#    z -0.000210 0.000000 1.755010 
# 
# From -- ./inp_files/189627.got.cif
#   From: 2010.06.25/outbox.cif.g09.slc.cpg/sg12_95_cif.got.tgz:189627.got - 2010.06.28 00:19:55.
