data_PCOD8081052
_publ_section_title
;
Structure prediction by ZEFSAII (Michael W. Deem and Ramdas Pophale) SiO2 
 PCOD8081052
Probable space group: C 2/M
;
_chemical_formula_sum "Si O2"
_cell_formula_units_Z 48
_cell_length_a 29.652125
_cell_length_b 13.211872
_cell_length_c 7.588611
_cell_angle_alpha 90.000000
_cell_angle_beta 98.302778
_cell_angle_gamma 90.000000
_cell_volume 2941.755104
_symmetry_space_group_name_H-M "C 2/M"
_symmetry_group_IT_number 12
_symmetry_cell_setting 'monoclinic'
loop_
_space_group_symop_operation_xyz
x,y,z
-x,y,-z
-x,-y,-z
x,-y,z
1/2+x,1/2+y,z
1/2-x,1/2+y,-z
1/2-x,1/2-y,-z
1/2+x,1/2-y,z
loop_
_atom_site_type_symbol
_atom_site_label
_atom_site_fract_x
_atom_site_fract_y
_atom_site_fract_z
Si Si1 0.109234 0.385042 0.912047
Si Si2 0.187571 0.242509 0.819756
Si Si3 0.724550 0.616809 0.139741
Si Si4 0.121767 0.617081 0.316571
Si Si5 0.197193 0.228161 0.442610
Si Si6 0.549608 0.117481 0.557330
O O1 0.126683 0.500000 0.889620
O O2 0.146734 0.307109 0.871860
O O3 0.064232 0.365170 0.768780
O O4 0.098391 0.368326 0.111881
O O5 0.230061 0.317470 0.827938
O O6 0.175924 0.197251 0.619754
O O7 0.196418 0.147160 0.950268
O O8 0.737586 0.500000 0.138078
O O9 0.693524 0.638988 0.295442
O O10 0.133086 0.500000 0.360793
O O11 0.170197 0.674204 0.352869
O O12 0.087035 0.662776 0.442586
O O13 0.250000 0.250000 0.500000
O O14 0.500000 0.168943 0.500000
O O15 0.545688 0.000000 0.506892
#
# Coordination Sequence:
#
# PCOD8081052 Si02
#       6
#     8   8   8   8   8   8
#     4  10  18  29  49  72  98 133 166 200 242 291
#     4  10  19  33  50  70  95 133 170 201 239 297
#     4  10  21  34  47  69 100 129 165 210 249 281
#     4  10  19  31  49  72 100 136 169 200 242 291
#     4  10  20  32  47  70  98 131 169 207 236 284
#     4   9  18  31  47  71 102 133 164 201 246 296
#
# _framework density 16.316790000000001
#
# number of rings (size 3 to 8) (size 9 to 14) (size 15 to 20)
#    0.000    2.167    3.333    0.500    0.000    4.000 
#    0.000    3.333    0.000    0.000    0.000    0.000 
#    0.000    4.000    0.000    0.000    0.000    0.000 
#
# Total GULP energy -297450.333246 kJ/mol
# GULP energy per Si atom -12393.763885 kJ/mol
# Density = 1.627965 g / cm^3
# Si number density = 16.316790 Si / 1000 Ang^3
#
#
#
# Elastic Constant Matrix: (Units=GPa)
#
#
# Indices 1 2 3 4 5 6 
#
# 1 68.1134 19.1316 29.3289 0.0000 8.9778 0.0000
# 2 19.1316 50.6744 32.1896 0.0000 -3.4155 0.0000
# 3 29.3289 32.1896 130.5407 0.0000 -6.0688 0.0000
# 4 0.0000 0.0000 0.0000 10.0769 0.0000 19.7744
# 5 8.9778 -3.4155 -6.0688 0.0000 24.1508 0.0000
# 6 0.0000 0.0000 0.0000 19.7744 0.0000 -34.9423
#
#
#
# Elastic Compliance Matrix: (Units=1/GPa)
#
#
# Indices 1 2 3 4 5 6 
#
# 1 0.018784 -0.005616 -0.003235 0.000000 -0.008590 0.000000
# 2 -0.005616 0.025163 -0.004736 0.000000 0.004456 0.000000
# 3 -0.003235 -0.004736 0.009693 0.000000 0.002968 0.000000
# 4 0.000000 0.000000 0.000000 0.047020 0.000000 0.026609
# 5 -0.008590 0.004456 0.002968 0.000000 0.045976 0.000000
# 6 0.000000 0.000000 0.000000 0.026609 0.000000 -0.013560
#
#
# Mechanical properties :
#
#
# Convention : Reuss Voigt Hill
#
# Bulk Modulus (GPa) = 37.78344 45.62542 41.70443
# Shear Modulus (GPa) = 29.57345 11.10230 20.33787
#
# Velocity S-wave (km/s) = 4.26191 2.61132 3.53432
# Velocity P-wave (km/s) = 6.88658 6.09220 6.50153
#
# Compressibility (1/GPa) = 0.02646662
#
# Stress axis : x y z
#
# Youngs Moduli (GPa) = 53.23747 39.74132 103.16701
#
# Poissons Ratio (x) = 0.22318 0.33372
# Poissons Ratio (y) = 0.29897 0.48859
# Poissons Ratio (z) = 0.17221 0.18821
#
# Static dielectric constant tensor:
#      x y z
#    x 3.100510 0.000000 -0.208690 
#    y 0.000000 2.728460 0.000000 
#    z -0.208690 0.000000 3.723470 
# 
# 
# High freq. dielectric constant tensor:
#      x y z
#    x 1.606450 0.000000 -0.009480 
#    y 0.000000 1.577870 0.000000 
#    z -0.009480 0.000000 1.657470 
# 
# From -- ./inp_files/109485.got.cif
#   From: 2010.06.25/outbox.cif.g09.slc.cpg/sg12_55_cif.got.tgz:109485.got - 2010.06.28 00:19:55.
