data_PCOD8081417
_publ_section_title
;
Structure prediction by ZEFSAII (Michael W. Deem and Ramdas Pophale) SiO2 
 PCOD8081417
Probable space group: C 2/M
;
_chemical_formula_sum "Si O2"
_cell_formula_units_Z 64
_cell_length_a 20.471129
_cell_length_b 9.005814
_cell_length_c 24.162104
_cell_angle_alpha 90.000000
_cell_angle_beta 55.818271
_cell_angle_gamma 90.000000
_cell_volume 3685.033368
_symmetry_space_group_name_H-M "C 2/M"
_symmetry_group_IT_number 12
_symmetry_cell_setting 'monoclinic'
loop_
_space_group_symop_operation_xyz
x,y,z
-x,y,-z
-x,-y,-z
x,-y,z
1/2+x,1/2+y,z
1/2-x,1/2+y,-z
1/2-x,1/2-y,-z
1/2+x,1/2-y,z
loop_
_atom_site_type_symbol
_atom_site_label
_atom_site_fract_x
_atom_site_fract_y
_atom_site_fract_z
Si Si1 0.210526 0.667732 0.437765
Si Si2 0.091952 0.675134 0.955493
Si Si3 0.208104 0.668174 0.693339
Si Si4 0.124987 0.824731 0.827518
Si Si5 0.526216 0.329956 0.170538
Si Si6 0.370792 0.667265 0.430855
Si Si7 0.831424 0.826422 0.975673
Si Si8 0.548629 0.833480 0.699390
O O1 0.185069 0.500000 0.436092
O O2 0.221568 0.757055 0.375273
O O3 0.290910 0.669429 0.433925
O O4 0.141279 0.744204 0.506244
O O5 0.106477 0.500000 0.949644
O O6 0.132996 0.743616 0.882121
O O7 0.132106 0.748543 0.988801
O O8 0.000000 0.716046 0.000000
O O9 0.231970 0.500000 0.697316
O O10 0.194695 0.763223 0.755239
O O11 0.129452 0.670129 0.694608
O O12 0.040076 0.781878 0.842271
O O13 0.135059 0.000000 0.830534
O O14 0.512166 0.500000 0.193700
O O15 0.611559 0.301868 0.103853
O O16 0.520057 0.236281 0.229917
O O17 0.396004 0.500000 0.433157
O O18 0.441091 0.742515 0.362316
O O19 0.819560 0.000000 0.993745
O O20 0.750000 0.750000 0.000000
O O21 0.523889 0.000000 0.695651
#
# Coordination Sequence:
#
# PCOD8081417 Si02
#       8
#     8   8   8   8   8   8   8   8
#     4   9  15  22  32  47  71 106 147 187 229 278
#     4  11  22  35  54  78 102 129 165 208 252 299
#     4   9  16  25  36  55  82 112 148 190 237 284
#     4  10  18  30  48  69  93 122 159 201 246 292
#     4   9  18  31  47  66  91 122 156 196 244 294
#     4   9  15  22  32  47  71 105 145 187 230 277
#     4  11  23  39  56  76 102 133 167 206 254 306
#     4   9  16  24  37  56  79 108 147 192 234 279
#
# _framework density 17.367549
#
# number of rings (size 3 to 8) (size 9 to 14) (size 15 to 20)
#    0.000    2.375    1.250    2.625    0.000    8.000 
#    0.000    0.000    0.000    0.000    0.000    0.000 
#    0.000    0.000    0.000    1.125    0.000   21.250 
#
# Total GULP energy -396813.750698 kJ/mol
# GULP energy per Si atom -12400.429709 kJ/mol
# Density = 1.732802 g / cm^3
# Si number density = 17.367549 Si / 1000 Ang^3
#
#
#
# Elastic Constant Matrix: (Units=GPa)
#
#
# Indices 1 2 3 4 5 6 
#
# 1 45.9922 36.4966 32.9215 0.0002 -0.3061 0.0005
# 2 36.4966 139.9949 80.0549 0.0005 3.1812 0.0012
# 3 32.9215 80.0549 145.5056 0.0000 6.0504 -0.0003
# 4 0.0002 0.0005 0.0000 40.4220 0.0000 3.2266
# 5 -0.3061 3.1812 6.0504 0.0000 8.2855 0.0001
# 6 0.0005 0.0012 -0.0003 3.2266 0.0001 16.1361
#
#
#
# Elastic Compliance Matrix: (Units=1/GPa)
#
#
# Indices 1 2 3 4 5 6 
#
# 1 0.028832 -0.005515 -0.003735 0.000000 0.005910 -0.000001
# 2 -0.005515 0.011477 -0.005028 0.000000 -0.000939 -0.000001
# 3 -0.003735 -0.005028 0.010735 0.000000 -0.006047 0.000001
# 4 0.000000 0.000000 0.000000 0.025140 0.000000 -0.005027
# 5 0.005910 -0.000939 -0.006047 0.000000 0.125687 -0.000001
# 6 -0.000001 -0.000001 0.000001 -0.005027 -0.000001 0.062978
#
#
# Mechanical properties :
#
#
# Convention : Reuss Voigt Hill
#
# Bulk Modulus (GPa) = 44.46576 70.04875 57.25726
# Shear Modulus (GPa) = 16.61671 25.10336 20.86004
#
# Velocity S-wave (km/s) = 3.09652 3.80599 3.46944
# Velocity P-wave (km/s) = 6.20024 7.72883 7.00634
#
# Compressibility (1/GPa) = 0.02248921
#
# Stress axis : x y z
#
# Youngs Moduli (GPa) = 34.68362 87.12833 93.15081
#
# Poissons Ratio (x) = 0.48052 0.34791
# Poissons Ratio (y) = 0.19128 0.46834
# Poissons Ratio (z) = 0.12954 0.43806
#
# Static dielectric constant tensor:
#      x y z
#    x 2.461670 0.000000 0.030770 
#    y 0.000000 3.444920 0.000000 
#    z 0.030770 0.000000 3.432890 
# 
# 
# High freq. dielectric constant tensor:
#      x y z
#    x 1.583460 0.000000 0.006170 
#    y 0.000000 1.691230 0.000000 
#    z 0.006170 0.000000 1.691400 
# 
# From -- ./inp_files/348537.got.cif
#   From: 2010.06.25/outbox.cif.g09.slc.cpg/sg12_175_cif.got.tgz:348537.got - 2010.06.28 00:19:55.
