data_PCOD8081465
_publ_section_title
;
Structure prediction by ZEFSAII (Michael W. Deem and Ramdas Pophale) SiO2 
 PCOD8081465
Probable space group: C 2/M
;
_chemical_formula_sum "Si O2"
_cell_formula_units_Z 48
_cell_length_a 22.400324
_cell_length_b 8.633954
_cell_length_c 19.622986
_cell_angle_alpha 90.000000
_cell_angle_beta 44.010534
_cell_angle_gamma 90.000000
_cell_volume 2636.835675
_symmetry_space_group_name_H-M "C 2/M"
_symmetry_group_IT_number 12
_symmetry_cell_setting 'monoclinic'
loop_
_space_group_symop_operation_xyz
x,y,z
-x,y,-z
-x,-y,-z
x,-y,z
1/2+x,1/2+y,z
1/2-x,1/2+y,-z
1/2-x,1/2-y,-z
1/2+x,1/2-y,z
loop_
_atom_site_type_symbol
_atom_site_label
_atom_site_fract_x
_atom_site_fract_y
_atom_site_fract_z
Si Si1 0.341711 0.318785 0.785544
Si Si2 0.697998 0.317180 0.979275
Si Si3 0.131688 0.321573 0.634092
Si Si4 0.903055 0.679430 0.597366
Si Si5 0.688643 0.678212 0.451882
Si Si6 0.056401 0.680523 0.173516
O O1 0.342396 0.500000 0.799250
O O2 0.372534 0.284592 0.684488
O O3 0.406068 0.238669 0.785680
O O4 0.243822 0.254307 0.874776
O O5 0.703302 0.500000 0.971283
O O6 0.599494 0.263845 0.072200
O O7 0.750000 0.250000 0.000000
O O8 0.133293 0.500000 0.608557
O O9 0.210619 0.286398 0.619698
O O10 0.136329 0.215495 0.563461
O O11 0.044771 0.282371 0.746037
O O12 0.896256 0.500000 0.623473
O O13 0.842661 0.712138 0.582701
O O14 0.000000 0.726495 0.500000
O O15 0.672225 0.500000 0.445954
O O16 0.075816 0.500000 0.151960
#
# Coordination Sequence:
#
# PCOD8081465 Si02
#       6
#     8   8   8   8   8   8
#     4  11  21  33  50  74 103 133 166 205 249 294
#     4  10  18  30  48  72 101 131 165 204 248 293
#     4   9  19  34  52  74 102 134 165 203 249 294
#     4  11  23  37  52  72 101 135 167 201 247 299
#     4  10  20  34  52  75 101 131 169 207 245 291
#     4  10  18  31  51  75 103 133 166 203 247 295
#
# _framework density 18.203635999999999
#
# number of rings (size 3 to 8) (size 9 to 14) (size 15 to 20)
#    0.000    1.833    0.000    7.500    0.000    7.333 
#    0.000    0.000    0.000    1.000    0.000    7.000 
#    0.000    0.000    0.000    0.000    0.000    0.000 
#
# Total GULP energy -297622.003851 kJ/mol
# GULP energy per Si atom -12400.916827 kJ/mol
# Density = 1.816220 g / cm^3
# Si number density = 18.203636 Si / 1000 Ang^3
#
#
#
# Elastic Constant Matrix: (Units=GPa)
#
#
# Indices 1 2 3 4 5 6 
#
# 1 61.1922 13.1131 39.5863 -0.0003 -7.1860 0.0003
# 2 13.1131 73.0480 40.2357 0.0010 -7.7261 -0.0060
# 3 39.5863 40.2357 139.5181 0.0005 -18.5520 -0.0006
# 4 -0.0003 0.0010 0.0005 32.6605 -0.0008 8.2397
# 5 -7.1860 -7.7261 -18.5520 -0.0008 23.6054 0.0018
# 6 0.0003 -0.0060 -0.0006 8.2397 0.0018 1.5560
#
#
#
# Elastic Compliance Matrix: (Units=1/GPa)
#
#
# Indices 1 2 3 4 5 6 
#
# 1 0.020101 -0.000487 -0.005327 -0.000008 0.001773 0.000034
# 2 -0.000487 0.016358 -0.004341 0.000046 0.001794 -0.000184
# 3 -0.005327 -0.004341 0.010638 -0.000014 0.005318 0.000055
# 4 -0.000008 0.000046 -0.000014 -0.091144 -0.000039 0.482640
# 5 0.001773 0.001794 0.005318 -0.000039 0.047670 0.000158
# 6 0.000034 -0.000184 0.000055 0.482640 0.000158 -1.913088
#
#
# Mechanical properties :
#
#
# Convention : Reuss Voigt Hill
#
# Bulk Modulus (GPa) = 37.33093 51.06984 44.20039
# Shear Modulus (GPa) = -2.65925 23.61926 10.48001
#
# Velocity S-wave (km/s) = -1.20996 3.60599 2.40200
# Velocity P-wave (km/s) = 4.31276 6.74190 5.65920
#
# Compressibility (1/GPa) = 0.02678744
#
# Stress axis : x y z
#
# Youngs Moduli (GPa) = 49.74952 61.13340 94.00210
#
# Poissons Ratio (x) = 0.02974 0.50077
# Poissons Ratio (y) = 0.02420 0.40804
# Poissons Ratio (z) = 0.26503 0.26537
#
# Static dielectric constant tensor:
#      x y z
#    x 3.064130 0.000000 -0.247550 
#    y 0.000000 3.435250 0.000010 
#    z -0.247550 0.000010 3.922390 
# 
# 
# High freq. dielectric constant tensor:
#      x y z
#    x 1.665080 0.000000 -0.015040 
#    y 0.000000 1.721570 0.000000 
#    z -0.015040 0.000000 1.719170 
# 
# From -- ./inp_files/280804.got.cif
#   From: 2010.06.25/outbox.cif.g09.slc.cpg/sg12_141_cif.got.tgz:280804.got - 2010.06.28 00:19:55.
