data_PCOD8081054
_publ_section_title
;
Structure prediction by ZEFSAII (Michael W. Deem and Ramdas Pophale) SiO2 
 PCOD8081054
Probable space group: C 2/M
;
_chemical_formula_sum "Si O2"
_cell_formula_units_Z 48
_cell_length_a 18.678946
_cell_length_b 18.878855
_cell_length_c 10.623799
_cell_angle_alpha 90.000000
_cell_angle_beta 50.731389
_cell_angle_gamma 90.000000
_cell_volume 2900.372545
_symmetry_space_group_name_H-M "C 2/M"
_symmetry_group_IT_number 12
_symmetry_cell_setting 'monoclinic'
loop_
_space_group_symop_operation_xyz
x,y,z
-x,y,-z
-x,-y,-z
x,-y,z
1/2+x,1/2+y,z
1/2-x,1/2+y,-z
1/2-x,1/2-y,-z
1/2+x,1/2-y,z
loop_
_atom_site_type_symbol
_atom_site_label
_atom_site_fract_x
_atom_site_fract_y
_atom_site_fract_z
Si Si1 0.460133 0.422048 0.336596
Si Si2 0.802758 0.282688 0.323170
Si Si3 0.780246 0.079281 0.681485
Si Si4 0.811031 0.781353 0.043575
Si Si5 0.828011 0.921373 0.900956
Si Si6 0.483922 0.711508 0.156199
O O1 0.445703 0.500000 0.287830
O O2 0.389676 0.414940 0.531105
O O3 0.565811 0.415196 0.262855
O O4 0.436681 0.355978 0.273954
O O5 0.750000 0.250000 0.500000
O O6 0.779210 0.365372 0.333774
O O7 0.777515 0.241983 0.219927
O O8 0.911651 0.276605 0.233550
O O9 0.767206 0.095359 0.844353
O O10 0.744198 0.000000 0.689776
O O11 0.581446 0.739655 0.103556
O O12 0.750000 0.750000 0.000000
O O13 0.803917 0.866934 0.039762
O O14 0.806197 0.000000 0.976579
O O15 0.500000 0.681694 0.000000
#
# Coordination Sequence:
#
# PCOD8081054 Si02
#       6
#     8   8   8   8   8   8
#     4   9  16  27  44  72 103 131 161 200 256 312
#     4  11  20  34  50  74 106 137 166 207 251 299
#     4  10  18  29  49  73 102 134 168 207 253 301
#     4  10  19  34  53  74  97 135 173 211 246 299
#     4   9  17  30  49  75 103 128 164 212 256 303
#     4   9  19  31  47  70 103 137 164 207 254 292
#
# _framework density 16.549598
#
# number of rings (size 3 to 8) (size 9 to 14) (size 15 to 20)
#    0.000    2.333    3.333    0.500    0.000    2.333 
#    0.000    4.167    0.000    5.500    0.000    0.000 
#    0.000    2.667    0.000    0.000    0.000    0.000 
#
# Total GULP energy -297322.031378 kJ/mol
# GULP energy per Si atom -12388.417974 kJ/mol
# Density = 1.651193 g / cm^3
# Si number density = 16.549598 Si / 1000 Ang^3
#
#
#
# Elastic Constant Matrix: (Units=GPa)
#
#
# Indices 1 2 3 4 5 6 
#
# 1 89.3932 49.6421 27.6769 0.0000 6.3705 0.0000
# 2 49.6421 117.7077 42.6814 0.0000 5.2413 0.0000
# 3 27.6769 42.6814 76.6258 0.0000 9.9225 0.0000
# 4 0.0000 0.0000 0.0000 24.4535 0.0000 1.4402
# 5 6.3705 5.2413 9.9225 0.0000 13.8015 0.0000
# 6 0.0000 0.0000 0.0000 1.4402 0.0000 27.9348
#
#
#
# Elastic Compliance Matrix: (Units=1/GPa)
#
#
# Indices 1 2 3 4 5 6 
#
# 1 0.015092 -0.005510 -0.001931 0.000000 -0.003486 0.000000
# 2 -0.005510 0.012658 -0.005257 0.000000 0.001516 0.000000
# 3 -0.001931 -0.005257 0.017976 0.000000 -0.010036 0.000000
# 4 0.000000 0.000000 0.000000 0.041018 0.000000 -0.002115
# 5 -0.003486 0.001516 -0.010036 0.000000 0.080705 0.000000
# 6 0.000000 0.000000 0.000000 -0.002115 0.000000 0.035907
#
#
# Mechanical properties :
#
#
# Convention : Reuss Voigt Hill
#
# Bulk Modulus (GPa) = 49.18590 58.19193 53.68891
# Shear Modulus (GPa) = 21.22891 24.15304 22.69097
#
# Velocity S-wave (km/s) = 3.58543 3.82440 3.70684
# Velocity P-wave (km/s) = 6.85020 7.39864 7.12969
#
# Compressibility (1/GPa) = 0.02033103
#
# Stress axis : x y z
#
# Youngs Moduli (GPa) = 66.25822 79.00177 55.63106
#
# Poissons Ratio (x) = 0.43528 0.10742
# Poissons Ratio (y) = 0.36506 0.29244
# Poissons Ratio (z) = 0.12794 0.41529
#
# Static dielectric constant tensor:
#      x y z
#    x 3.148310 0.000000 -0.046640 
#    y 0.000000 3.270590 0.000000 
#    z -0.046640 0.000000 3.066660 
# 
# 
# High freq. dielectric constant tensor:
#      x y z
#    x 1.621800 0.000000 0.006090 
#    y 0.000000 1.637180 0.000000 
#    z 0.006090 0.000000 1.621650 
# 
# From -- ./inp_files/75103.got.cif
#   From: 2010.06.25/outbox.cif.g09.slc.cpg/sg12_38_cif.got.tgz:75103.got - 2010.06.28 00:19:55.
