data_PCOD8081380
_publ_section_title
;
Structure prediction by ZEFSAII (Michael W. Deem and Ramdas Pophale) SiO2 
 PCOD8081380
Probable space group: C 2/M
;
_chemical_formula_sum "Si O2"
_cell_formula_units_Z 64
_cell_length_a 16.654568
_cell_length_b 20.030986
_cell_length_c 17.807446
_cell_angle_alpha 90.000000
_cell_angle_beta 142.802576
_cell_angle_gamma 90.000000
_cell_volume 3591.526847
_symmetry_space_group_name_H-M "C 2/M"
_symmetry_group_IT_number 12
_symmetry_cell_setting 'monoclinic'
loop_
_space_group_symop_operation_xyz
x,y,z
-x,y,-z
-x,-y,-z
x,-y,z
1/2+x,1/2+y,z
1/2-x,1/2+y,-z
1/2-x,1/2-y,-z
1/2+x,1/2-y,z
loop_
_atom_site_type_symbol
_atom_site_label
_atom_site_fract_x
_atom_site_fract_y
_atom_site_fract_z
Si Si1 0.129228 0.168012 0.403866
Si Si2 0.132723 0.150043 0.135559
Si Si3 0.393410 0.198199 0.860388
Si Si4 0.296372 0.577288 0.049425
Si Si5 0.162591 0.324304 0.836766
Si Si6 0.098251 0.925955 0.250943
Si Si7 0.834781 0.177297 0.204533
Si Si8 0.119465 0.693836 0.322313
O O1 0.133192 0.101322 0.358516
O O2 0.146803 0.227794 0.356616
O O3 0.245000 0.158506 0.551098
O O4 0.989489 0.177263 0.342884
O O5 0.088543 0.223053 0.127802
O O6 0.264505 0.147676 0.182666
O O7 0.174573 0.110856 0.240996
O O8 0.000000 0.117028 0.000000
O O9 0.247201 0.177490 0.779271
O O10 0.413380 0.175032 0.789000
O O11 0.500000 0.167656 0.000000
O O12 0.243427 0.500000 0.012858
O O13 0.440546 0.578762 0.119024
O O14 0.300738 0.609081 0.135615
O O15 0.205052 0.628789 0.936595
O O16 0.199113 0.244604 0.870521
O O17 0.002445 0.330424 0.715644
O O18 0.152499 0.000000 0.290542
#
# Coordination Sequence:
#
# PCOD8081380 Si02
#       8
#     8   8   8   8   8   8   8   8
#     4   9  19  35  52  75 102 137 184 220 256 307
#     4  10  18  30  47  78 111 133 168 215 260 317
#     4  10  19  30  52  82 108 132 167 219 276 316
#     4  10  19  31  51  78 108 140 175 217 268 325
#     4  10  19  31  51  76 105 140 177 216 269 317
#     4  10  19  32  52  76 108 144 174 214 263 319
#     4   9  19  32  52  77 104 138 175 223 266 310
#     4  10  19  34  55  74 103 138 177 228 263 304
#
# _framework density 17.819718999999999
#
# number of rings (size 3 to 8) (size 9 to 14) (size 15 to 20)
#    0.000    2.250    2.500    1.125    0.000    1.250 
#    0.000    1.250    0.000    4.875    0.000    3.500 
#    0.000    0.000    0.000    0.000    0.000    0.000 
#
# Total GULP energy -396513.729618 kJ/mol
# GULP energy per Si atom -12391.054051 kJ/mol
# Density = 1.777916 g / cm^3
# Si number density = 17.819719 Si / 1000 Ang^3
#
#
#
# Elastic Constant Matrix: (Units=GPa)
#
#
# Indices 1 2 3 4 5 6 
#
# 1 117.4978 31.8110 50.9785 -0.0014 4.6169 -0.0002
# 2 31.8110 69.7385 25.0133 -0.0005 4.1563 -0.0002
# 3 50.9785 25.0133 98.4041 -0.0015 4.3888 -0.0004
# 4 -0.0014 -0.0005 -0.0015 14.3454 -0.0013 -1.0274
# 5 4.6169 4.1563 4.3888 -0.0013 21.3817 -0.0001
# 6 -0.0002 -0.0002 -0.0004 -1.0274 -0.0001 16.6608
#
#
#
# Elastic Compliance Matrix: (Units=1/GPa)
#
#
# Indices 1 2 3 4 5 6 
#
# 1 0.011712 -0.003445 -0.005156 0.000000 -0.000801 0.000000
# 2 -0.003445 0.016901 -0.002420 0.000000 -0.002045 0.000000
# 3 -0.005156 -0.002420 0.013501 0.000001 -0.001188 0.000000
# 4 0.000000 0.000000 0.000001 0.070018 0.000004 0.004318
# 5 -0.000801 -0.002045 -0.001188 0.000004 0.047583 0.000001
# 6 0.000000 0.000000 0.000000 0.004318 0.000001 0.060287
#
#
# Mechanical properties :
#
#
# Convention : Reuss Voigt Hill
#
# Bulk Modulus (GPa) = 49.82171 55.69400 52.75786
# Shear Modulus (GPa) = 20.10168 22.33343 21.21755
#
# Velocity S-wave (km/s) = 3.36230 3.54404 3.45436
# Velocity P-wave (km/s) = 6.56452 6.93318 6.75136
#
# Compressibility (1/GPa) = 0.02007157
#
# Stress axis : x y z
#
# Youngs Moduli (GPa) = 85.38202 59.16914 74.06685
#
# Poissons Ratio (x) = 0.20386 0.38189
# Poissons Ratio (y) = 0.29417 0.17923
# Poissons Ratio (z) = 0.44023 0.14318
#
# Static dielectric constant tensor:
#      x y z
#    x 3.299300 0.000000 0.141560 
#    y 0.000000 3.183900 0.000000 
#    z 0.141560 0.000000 3.181860 
# 
# 
# High freq. dielectric constant tensor:
#      x y z
#    x 1.691380 0.000000 0.006040 
#    y 0.000000 1.663270 0.000000 
#    z 0.006040 0.000000 1.665160 
# 
# From -- ./inp_files/278927.got.cif
#   From: 2010.06.25/outbox.cif.g09.slc.cpg/sg12_140_cif.got.tgz:278927.got - 2010.06.28 00:19:55.
