data_PCOD8081549
_publ_section_title
;
Structure prediction by ZEFSAII (Michael W. Deem and Ramdas Pophale) SiO2 
 PCOD8081549
Probable space group: C 2/M
;
_chemical_formula_sum "Si O2"
_cell_formula_units_Z 64
_cell_length_a 24.569216
_cell_length_b 9.027546
_cell_length_c 23.551675
_cell_angle_alpha 90.000000
_cell_angle_beta 133.603647
_cell_angle_gamma 90.000000
_cell_volume 3782.667146
_symmetry_space_group_name_H-M "C 2/M"
_symmetry_group_IT_number 12
_symmetry_cell_setting 'monoclinic'
loop_
_space_group_symop_operation_xyz
x,y,z
-x,y,-z
-x,-y,-z
x,-y,z
1/2+x,1/2+y,z
1/2-x,1/2+y,-z
1/2-x,1/2-y,-z
1/2+x,1/2-y,z
loop_
_atom_site_type_symbol
_atom_site_label
_atom_site_fract_x
_atom_site_fract_y
_atom_site_fract_z
Si Si1 0.724442 0.827026 0.592009
Si Si2 0.019791 0.169968 0.578343
Si Si3 0.459519 0.826988 0.842325
Si Si4 0.891887 0.176181 0.687614
Si Si5 0.563360 0.332936 0.997950
Si Si6 0.163767 0.671706 0.151972
Si Si7 0.411304 0.173373 0.584535
Si Si8 0.188665 0.170171 0.681167
O O1 0.807061 0.765347 0.636937
O O2 0.669673 0.787926 0.500542
O O3 0.691044 0.756274 0.624238
O O4 0.727989 0.000000 0.605959
O O5 0.108378 0.192888 0.652988
O O6 0.000000 0.214694 0.500000
O O7 0.977078 0.279630 0.589332
O O8 0.995603 0.000000 0.572469
O O9 0.446394 0.742416 0.774296
O O10 0.536046 0.763549 0.924819
O O11 0.389246 0.794220 0.832576
O O12 0.470117 0.000000 0.838265
O O13 0.921110 0.234236 0.648688
O O14 0.896534 0.000000 0.692285
O O15 0.579827 0.500000 0.989761
O O16 0.500000 0.328253 0.000000
O O17 0.639069 0.263662 0.078826
O O18 0.159840 0.500000 0.132488
O O19 0.247392 0.724606 0.228992
O O20 0.418886 0.000000 0.603025
O O21 0.203714 0.000000 0.676389
#
# Coordination Sequence:
#
# PCOD8081549 Si02
#       8
#     8   8   8   8   8   8   8   8
#     4  10  21  34  50  73 101 133 169 211 256 301
#     4  10  20  35  55  75  98 131 172 215 259 301
#     4  10  18  30  49  72 101 134 167 203 248 300
#     4  11  22  35  51  73 102 135 172 211 253 304
#     4   9  17  28  44  68 100 135 167 200 243 296
#     4   9  17  29  46  71 101 132 167 205 247 297
#     4  11  23  37  52  72  99 134 175 216 257 300
#     4  10  19  32  52  76 101 134 171 209 254 303
#
# _framework density 16.919279
#
# number of rings (size 3 to 8) (size 9 to 14) (size 15 to 20)
#    0.000    2.000    2.500    1.875    0.000    4.250 
#    0.000    0.000    0.000    0.000    0.000    0.875 
#    0.000    0.000    0.000    0.000    0.000    0.000 
#
# Total GULP energy -396894.774868 kJ/mol
# GULP energy per Si atom -12402.961715 kJ/mol
# Density = 1.688077 g / cm^3
# Si number density = 16.919279 Si / 1000 Ang^3
#
#
#
# Elastic Constant Matrix: (Units=GPa)
#
#
# Indices 1 2 3 4 5 6 
#
# 1 47.8314 28.7977 33.9489 0.0000 -6.5795 0.0000
# 2 28.7977 73.0425 59.1917 0.0000 -4.6251 0.0000
# 3 33.9489 59.1917 133.6709 0.0000 -1.1627 0.0000
# 4 0.0000 0.0000 0.0000 32.3357 0.0000 -2.9154
# 5 -6.5795 -4.6251 -1.1627 0.0000 19.5952 0.0000
# 6 0.0000 0.0000 0.0000 -2.9154 0.0000 22.6386
#
#
#
# Elastic Compliance Matrix: (Units=1/GPa)
#
#
# Indices 1 2 3 4 5 6 
#
# 1 0.029565 -0.008005 -0.003896 0.000000 0.007807 0.000000
# 2 -0.008005 0.023921 -0.008538 0.000000 0.002452 0.000000
# 3 -0.003896 -0.008538 0.012229 0.000000 -0.002598 0.000000
# 4 0.000000 0.000000 0.000000 0.031289 0.000000 0.004029
# 5 0.007807 0.002452 -0.002598 0.000000 0.054079 0.000000
# 6 0.000000 0.000000 0.000000 0.004029 0.000000 0.044691
#
#
# Mechanical properties :
#
#
# Convention : Reuss Voigt Hill
#
# Bulk Modulus (GPa) = 40.26287 55.38017 47.82152
# Shear Modulus (GPa) = 20.41384 23.75434 22.08409
#
# Velocity S-wave (km/s) = 3.47730 3.75104 3.61676
# Velocity P-wave (km/s) = 6.32225 7.18077 6.76514
#
# Compressibility (1/GPa) = 0.02483678
#
# Stress axis : x y z
#
# Youngs Moduli (GPa) = 33.82327 41.80413 81.77310
#
# Poissons Ratio (x) = 0.33463 0.31862
# Poissons Ratio (y) = 0.27074 0.69821
# Poissons Ratio (z) = 0.13179 0.35694
#
# Static dielectric constant tensor:
#      x y z
#    x 2.867290 0.000000 0.150910 
#    y 0.000000 3.204460 0.000000 
#    z 0.150910 0.000000 3.321970 
# 
# 
# High freq. dielectric constant tensor:
#      x y z
#    x 1.611440 0.000000 0.007240 
#    y 0.000000 1.659820 0.000000 
#    z 0.007240 0.000000 1.660820 
# 
# From -- ./inp_files/324191.got.cif
#   From: 2010.06.25/outbox.cif.g09.slc.cpg/sg12_163_cif.got.tgz:324191.got - 2010.06.28 00:19:55.
