data_PCOD8081532
_publ_section_title
;
Structure prediction by ZEFSAII (Michael W. Deem and Ramdas Pophale) SiO2 
 PCOD8081532
Probable space group: C 2/M
;
_chemical_formula_sum "Si O2"
_cell_formula_units_Z 64
_cell_length_a 30.063209
_cell_length_b 13.260870
_cell_length_c 14.879710
_cell_angle_alpha 90.000000
_cell_angle_beta 142.774680
_cell_angle_gamma 90.000000
_cell_volume 3588.575271
_symmetry_space_group_name_H-M "C 2/M"
_symmetry_group_IT_number 12
_symmetry_cell_setting 'monoclinic'
loop_
_space_group_symop_operation_xyz
x,y,z
-x,y,-z
-x,-y,-z
x,-y,z
1/2+x,1/2+y,z
1/2-x,1/2+y,-z
1/2-x,1/2-y,-z
1/2+x,1/2-y,z
loop_
_atom_site_type_symbol
_atom_site_label
_atom_site_fract_x
_atom_site_fract_y
_atom_site_fract_z
Si Si1 0.636084 0.618368 0.039966
Si Si2 0.529918 0.891140 0.649420
Si Si3 0.182051 0.881501 0.434611
Si Si4 0.378281 0.883696 0.460995
Si Si5 0.749175 0.804569 0.635203
Si Si6 0.305322 0.611567 0.057770
Si Si7 0.840398 0.703409 0.217563
Si Si8 0.482003 0.618505 0.873153
O O1 0.651623 0.500000 0.086353
O O2 0.692374 0.686818 0.189118
O O3 0.648125 0.643138 0.955041
O O4 0.551039 0.646962 0.921276
O O5 0.500000 0.896049 0.500000
O O6 0.465525 0.864588 0.617981
O O7 0.595262 0.811147 0.752954
O O8 0.562705 0.000000 0.728170
O O9 0.216602 0.865116 0.392378
O O10 0.228793 0.812201 0.579538
O O11 0.096379 0.844016 0.293454
O O12 0.188797 0.000000 0.472535
O O13 0.327999 0.859118 0.465272
O O14 0.360482 0.805217 0.353444
O O15 0.366594 0.000000 0.411958
O O16 0.326761 0.500000 0.123397
O O17 0.315939 0.682583 0.160919
O O18 0.220204 0.618027 0.895686
O O19 0.473241 0.500000 0.870608
O O20 0.500000 0.666363 0.000000
#
# Coordination Sequence:
#
# PCOD8081532 Si02
#       8
#     8   8   8   8   8   8   8   8
#     4  10  18  31  53  77 101 128 169 214 250 292
#     4   8  15  27  46  70  93 121 155 200 247 283
#     4  10  21  35  50  77 109 133 163 206 253 303
#     4  10  18  31  53  75  96 123 166 211 246 288
#     4  11  20  31  54  78 100 133 168 208 253 295
#     4  10  20  31  47  71  98 129 165 210 249 293
#     4  10  18  30  49  70  97 127 162 207 252 295
#     4   9  16  29  51  75 101 131 162 204 253 294
#
# _framework density 17.834375999999999
#
# number of rings (size 3 to 8) (size 9 to 14) (size 15 to 20)
#    0.000    2.250    2.500    3.000    0.000    1.000 
#    0.000    0.625    0.000    3.375    0.000    8.750 
#    0.000    0.000    0.000    0.000    0.000    0.000 
#
# Total GULP energy -396428.371852 kJ/mol
# GULP energy per Si atom -12388.386620 kJ/mol
# Density = 1.779378 g / cm^3
# Si number density = 17.834376 Si / 1000 Ang^3
#
#
#
# Elastic Constant Matrix: (Units=GPa)
#
#
# Indices 1 2 3 4 5 6 
#
# 1 107.7313 22.5575 22.5598 0.0000 27.7125 0.0000
# 2 22.5575 65.8031 26.1725 0.0000 -1.2988 0.0000
# 3 22.5598 26.1725 39.7573 0.0000 12.5007 0.0000
# 4 0.0000 0.0000 0.0000 18.9419 0.0000 -0.1296
# 5 27.7125 -1.2988 12.5007 0.0000 29.9506 0.0000
# 6 0.0000 0.0000 0.0000 -0.1296 0.0000 19.6746
#
#
#
# Elastic Compliance Matrix: (Units=1/GPa)
#
#
# Indices 1 2 3 4 5 6 
#
# 1 0.013619 -0.004609 -0.000770 0.000000 -0.012480 0.000000
# 2 -0.004609 0.023740 -0.016895 0.000000 0.012345 0.000000
# 3 -0.000770 -0.016895 0.042264 0.000000 -0.017660 0.000000
# 4 0.000000 0.000000 0.000000 0.052795 0.000000 0.000348
# 5 -0.012480 0.012345 -0.017660 0.000000 0.052842 0.000000
# 6 0.000000 0.000000 0.000000 0.000348 0.000000 0.050829
#
#
# Mechanical properties :
#
#
# Convention : Reuss Voigt Hill
#
# Bulk Modulus (GPa) = 28.50923 39.54126 34.02524
# Shear Modulus (GPa) = 17.10401 23.18021 20.14211
#
# Velocity S-wave (km/s) = 3.10021 3.60911 3.36430
# Velocity P-wave (km/s) = 5.36985 6.29183 5.84903
#
# Compressibility (1/GPa) = 0.03507636
#
# Stress axis : x y z
#
# Youngs Moduli (GPa) = 73.42784 42.12271 23.66055
#
# Poissons Ratio (x) = 0.19413 0.01822
# Poissons Ratio (y) = 0.33840 0.39974
# Poissons Ratio (z) = 0.05654 0.71166
#
# Static dielectric constant tensor:
#      x y z
#    x 3.560790 0.000000 0.390190 
#    y 0.000000 3.075400 0.000000 
#    z 0.390190 0.000000 3.152240 
# 
# 
# High freq. dielectric constant tensor:
#      x y z
#    x 1.704490 0.000000 0.029370 
#    y 0.000000 1.664670 0.000000 
#    z 0.029370 0.000000 1.662400 
# 
# From -- ./inp_files/250894.got.cif
#   From: 2010.06.25/outbox.cif.g09.slc.cpg/sg12_126_cif.got.tgz:250894.got - 2010.06.28 00:19:55.
