data_PCOD8081431
_publ_section_title
;
Structure prediction by ZEFSAII (Michael W. Deem and Ramdas Pophale) SiO2 
 PCOD8081431
Probable space group: C 2/M
;
_chemical_formula_sum "Si O2"
_cell_formula_units_Z 64
_cell_length_a 27.329149
_cell_length_b 9.086686
_cell_length_c 16.784240
_cell_angle_alpha 90.000000
_cell_angle_beta 101.943769
_cell_angle_gamma 90.000000
_cell_volume 4077.820288
_symmetry_space_group_name_H-M "C 2/M"
_symmetry_group_IT_number 12
_symmetry_cell_setting 'monoclinic'
loop_
_space_group_symop_operation_xyz
x,y,z
-x,y,-z
-x,-y,-z
x,-y,z
1/2+x,1/2+y,z
1/2-x,1/2+y,-z
1/2-x,1/2-y,-z
1/2+x,1/2-y,z
loop_
_atom_site_type_symbol
_atom_site_label
_atom_site_fract_x
_atom_site_fract_y
_atom_site_fract_z
Si Si1 0.558150 0.333771 0.999611
Si Si2 0.457472 0.331768 0.598060
Si Si3 0.536255 0.829230 0.841206
Si Si4 0.614890 0.665364 0.568974
Si Si5 0.802681 0.825485 0.529918
Si Si6 0.943834 0.672482 0.331279
Si Si7 0.924751 0.669055 0.843252
Si Si8 0.625026 0.828630 0.333101
O O1 0.576465 0.500000 0.998400
O O2 0.588991 0.259645 0.082020
O O3 0.500000 0.319270 0.000000
O O4 0.568505 0.255605 0.918765
O O5 0.458477 0.500000 0.630169
O O6 0.434122 0.327729 0.502581
O O7 0.512481 0.265245 0.612586
O O8 0.425834 0.230006 0.646059
O O9 0.559349 0.789349 0.763202
O O10 0.478027 0.780812 0.823668
O O11 0.541738 0.000000 0.861843
O O12 0.623121 0.500000 0.603757
O O13 0.663004 0.716202 0.534230
O O14 0.607035 0.774307 0.641620
O O15 0.750000 0.750000 0.500000
O O16 0.827415 0.761904 0.618929
O O17 0.797280 0.000000 0.537655
O O18 0.952717 0.500000 0.348017
O O19 0.928354 0.500000 0.869888
O O20 0.880736 0.694124 0.763928
O O21 0.631457 0.000000 0.356931
#
# Coordination Sequence:
#
# PCOD8081431 Si02
#       8
#     8   8   8   8   8   8   8   8
#     4   9  17  26  38  59  82 112 155 192 223 261
#     4  10  19  30  43  60  89 123 153 188 228 265
#     4   9  17  29  40  56  85 121 156 187 224 263
#     4   9  20  34  45  63  88 116 148 184 229 272
#     4  10  21  37  54  71  92 118 148 186 234 278
#     4  11  20  29  43  64  88 119 158 192 221 264
#     4   9  16  28  43  59  86 120 151 187 226 264
#     4  10  18  30  48  70  92 118 155 190 227 273
#
# _framework density 15.694660000000001
#
# number of rings (size 3 to 8) (size 9 to 14) (size 15 to 20)
#    0.000    2.375    1.250    3.000    0.000    8.000 
#    0.000    0.000    0.000    0.000    0.000    0.000 
#    0.000    1.000    0.000    3.250    0.000    4.000 
#
# Total GULP energy -396745.612904 kJ/mol
# GULP energy per Si atom -12398.300403 kJ/mol
# Density = 1.565894 g / cm^3
# Si number density = 15.694660 Si / 1000 Ang^3
#
#
#
# Elastic Constant Matrix: (Units=GPa)
#
#
# Indices 1 2 3 4 5 6 
#
# 1 60.0448 39.9778 48.5784 0.0000 0.2940 0.0000
# 2 39.9778 94.7175 62.1719 0.0000 -3.5852 0.0000
# 3 48.5784 62.1719 106.0480 0.0000 -7.7515 0.0000
# 4 0.0000 0.0000 0.0000 26.0055 0.0000 -3.2353
# 5 0.2940 -3.5852 -7.7515 0.0000 14.4027 0.0000
# 6 0.0000 0.0000 0.0000 -3.2353 0.0000 20.6175
#
#
#
# Elastic Compliance Matrix: (Units=1/GPa)
#
#
# Indices 1 2 3 4 5 6 
#
# 1 0.028938 -0.005584 -0.010542 0.000000 -0.007654 0.000000
# 2 -0.005584 0.018259 -0.008126 0.000000 0.000286 0.000000
# 3 -0.010542 -0.008126 0.019664 0.000000 0.008776 0.000000
# 4 0.000000 0.000000 0.000000 0.039219 0.000000 0.006154
# 5 -0.007654 0.000286 0.008776 0.000000 0.074382 0.000000
# 6 0.000000 0.000000 0.000000 0.006154 0.000000 0.049468
#
#
# Mechanical properties :
#
#
# Convention : Reuss Voigt Hill
#
# Bulk Modulus (GPa) = 54.47229 62.47406 58.47317
# Shear Modulus (GPa) = 17.57139 19.54394 18.55767
#
# Velocity S-wave (km/s) = 3.34964 3.53265 3.44236
# Velocity P-wave (km/s) = 7.05287 7.51877 7.28954
#
# Compressibility (1/GPa) = 0.01835796
#
# Stress axis : x y z
#
# Youngs Moduli (GPa) = 34.55615 54.76689 50.85493
#
# Poissons Ratio (x) = 0.30584 0.53609
# Poissons Ratio (y) = 0.19298 0.41323
# Poissons Ratio (z) = 0.36428 0.44502
#
# Static dielectric constant tensor:
#      x y z
#    x 2.601850 0.000000 -0.073490 
#    y 0.000000 3.081800 0.000000 
#    z -0.073490 0.000000 3.028560 
# 
# 
# High freq. dielectric constant tensor:
#      x y z
#    x 1.545350 0.000000 -0.011310 
#    y 0.000000 1.616650 0.000000 
#    z -0.011310 0.000000 1.600570 
# 
# From -- ./inp_files/244253.got.cif
#   From: 2010.06.25/outbox.cif.g09.slc.cpg/sg12_123_cif.got.tgz:244253.got - 2010.06.28 00:19:55.
