data_PCOD8081041
_publ_section_title
;
Structure prediction by ZEFSAII (Michael W. Deem and Ramdas Pophale) SiO2 
 PCOD8081041
Probable space group: C 2/M
;
_chemical_formula_sum "Si O2"
_cell_formula_units_Z 56
_cell_length_a 16.638236
_cell_length_b 14.472278
_cell_length_c 22.659372
_cell_angle_alpha 90.000000
_cell_angle_beta 31.964743
_cell_angle_gamma 90.000000
_cell_volume 2888.509377
_symmetry_space_group_name_H-M "C 2/M"
_symmetry_group_IT_number 12
_symmetry_cell_setting 'monoclinic'
loop_
_space_group_symop_operation_xyz
x,y,z
-x,y,-z
-x,-y,-z
x,-y,z
1/2+x,1/2+y,z
1/2-x,1/2+y,-z
1/2-x,1/2-y,-z
1/2+x,1/2-y,z
loop_
_atom_site_type_symbol
_atom_site_label
_atom_site_fract_x
_atom_site_fract_y
_atom_site_fract_z
Si Si1 0.470781 0.104923 0.651950
Si Si2 0.148361 0.394779 0.148041
Si Si3 0.051320 0.785404 0.033500
Si Si4 0.954969 0.603369 0.151541
Si Si5 0.678273 0.599751 0.399589
Si Si6 0.313321 0.392839 0.251934
Si Si7 0.644688 0.791348 0.452951
O O1 0.456673 0.124618 0.729815
O O2 0.312857 0.128748 0.718485
O O3 0.603983 0.168105 0.542129
O O4 0.515850 0.000000 0.609893
O O5 0.216044 0.500000 0.109899
O O6 0.042825 0.382787 0.157800
O O7 0.274772 0.315128 0.067163
O O8 0.019488 0.676357 0.063967
O O9 0.964941 0.843116 0.136835
O O10 0.000000 0.812603 0.000000
O O11 0.982107 0.500000 0.109058
O O12 0.775018 0.617758 0.278640
O O13 0.500000 0.592161 0.500000
O O14 0.733769 0.500000 0.391798
O O15 0.707261 0.686952 0.424383
O O16 0.347680 0.500000 0.237285
O O17 0.270666 0.354335 0.342981
O O18 0.500000 0.788941 0.500000
#
# Coordination Sequence:
#
# PCOD8081041 Si02
#       7
#     8   8   8   8   8   8   8
#     4   9  17  30  50  78 110 143 177 214 270 337
#     4  10  21  37  57  82 115 151 186 227 279 341
#     4  12  22  34  57  83 111 147 189 237 275 329
#     4  10  22  40  57  79 111 149 191 233 283 334
#     4   9  17  31  54  77 101 137 187 233 268 316
#     4  10  18  29  48  79 112 139 174 226 277 326
#     4   9  16  28  49  76 108 136 173 223 278 324
#
# _framework density 19.387162
#
# number of rings (size 3 to 8) (size 9 to 14) (size 15 to 20)
#    0.000    2.143    2.857    1.286    0.000    2.571 
#    0.000    0.714    0.000    0.857    0.000    0.000 
#    0.000    0.000    0.000    0.000    0.000    0.000 
#
# Total GULP energy -347042.654617 kJ/mol
# GULP energy per Si atom -12394.380522 kJ/mol
# Density = 1.934304 g / cm^3
# Si number density = 19.387162 Si / 1000 Ang^3
#
#
#
# Elastic Constant Matrix: (Units=GPa)
#
#
# Indices 1 2 3 4 5 6 
#
# 1 27.6489 5.3963 15.2643 -0.0004 0.2398 -0.0003
# 2 5.3963 121.8162 51.0910 -0.0002 1.5989 0.0001
# 3 15.2643 51.0910 100.7557 -0.0030 5.2488 -0.0008
# 4 -0.0004 -0.0002 -0.0030 40.3619 -0.0017 1.3768
# 5 0.2398 1.5989 5.2488 -0.0017 17.5522 0.0018
# 6 -0.0003 0.0001 -0.0008 1.3768 0.0018 15.9624
#
#
#
# Elastic Compliance Matrix: (Units=1/GPa)
#
#
# Indices 1 2 3 4 5 6 
#
# 1 0.039589 0.000982 -0.006565 0.000000 0.001333 0.000000
# 2 0.000982 0.010458 -0.005487 0.000000 0.000675 0.000000
# 3 -0.006565 -0.005487 0.013888 0.000001 -0.003563 0.000001
# 4 0.000000 0.000000 0.000001 0.024849 0.000002 -0.002143
# 5 0.001333 0.000675 -0.003563 0.000002 0.057959 -0.000007
# 6 0.000000 0.000000 0.000001 -0.002143 -0.000007 0.062832
#
#
# Mechanical properties :
#
#
# Convention : Reuss Voigt Hill
#
# Bulk Modulus (GPa) = 23.92645 43.74710 33.83677
# Shear Modulus (GPa) = 20.35450 26.67326 23.51388
#
# Velocity S-wave (km/s) = 3.24372 3.71323 3.48639
# Velocity P-wave (km/s) = 5.13782 6.40297 5.80497
#
# Compressibility (1/GPa) = 0.04179476
#
# Stress axis : x y z
#
# Youngs Moduli (GPa) = 25.25957 95.62046 72.00687
#
# Poissons Ratio (x) = -0.09392 0.47274
# Poissons Ratio (y) = -0.02481 0.39510
# Poissons Ratio (z) = 0.16583 0.52467
#
# Static dielectric constant tensor:
#      x y z
#    x 3.014130 0.000000 -0.034510 
#    y 0.000000 3.991900 0.000010 
#    z -0.034510 0.000010 3.660110 
# 
# 
# High freq. dielectric constant tensor:
#      x y z
#    x 1.702600 0.000000 -0.004840 
#    y 0.000000 1.771270 0.000000 
#    z -0.004840 0.000000 1.761550 
# 
# From -- ./inp_files/143742.got.cif
#   From: 2010.06.25/outbox.cif.g09.slc.cpg/sg12_72_cif.got.tgz:143742.got - 2010.06.28 00:19:55.
