data_PCOD8081756
_publ_section_title
;
Structure prediction by ZEFSAII (Michael W. Deem and Ramdas Pophale) SiO2 
 PCOD8081756
Probable space group: C 2/M
;
_chemical_formula_sum "Si O2"
_cell_formula_units_Z 56
_cell_length_a 20.371958
_cell_length_b 9.042731
_cell_length_c 19.692996
_cell_angle_alpha 90.000000
_cell_angle_beta 58.696837
_cell_angle_gamma 90.000000
_cell_volume 3099.707691
_symmetry_space_group_name_H-M "C 2/M"
_symmetry_group_IT_number 12
_symmetry_cell_setting 'monoclinic'
loop_
_space_group_symop_operation_xyz
x,y,z
-x,y,-z
-x,-y,-z
x,-y,z
1/2+x,1/2+y,z
1/2-x,1/2+y,-z
1/2-x,1/2-y,-z
1/2+x,1/2-y,z
loop_
_atom_site_type_symbol
_atom_site_label
_atom_site_fract_x
_atom_site_fract_y
_atom_site_fract_z
Si Si1 0.317501 0.830927 0.499906
Si Si2 0.461977 0.329825 0.815183
Si Si3 0.405553 0.826536 0.327452
Si Si4 0.787199 0.825692 0.915353
Si Si5 0.793702 0.325834 0.179382
Si Si6 0.236596 0.174190 0.671680
Si Si7 0.546834 0.669524 0.908842
O O1 0.250000 0.750000 0.500000
O O2 0.394990 0.796715 0.415130
O O3 0.312019 0.791522 0.583354
O O4 0.296183 0.000000 0.503411
O O5 0.468156 0.500000 0.789315
O O6 0.510644 0.232934 0.736172
O O7 0.374770 0.273086 0.859444
O O8 0.491297 0.306148 0.875438
O O9 0.341177 0.741628 0.318412
O O10 0.399518 0.000000 0.313687
O O11 0.741200 0.774879 0.873410
O O12 0.783004 0.000000 0.929128
O O13 0.750000 0.750000 0.000000
O O14 0.787463 0.500000 0.192511
O O15 0.745781 0.248034 0.265423
O O16 0.881560 0.277111 0.136940
O O17 0.222574 0.000000 0.688942
O O18 0.575386 0.500000 0.898698
O O19 0.500000 0.717426 0.000000
#
# Coordination Sequence:
#
# PCOD8081756 Si02
#       7
#     8   8   8   8   8   8   8
#     4   8  16  28  45  72 106 139 171 210 256 310
#     4  10  20  35  54  76 105 140 178 215 260 319
#     4  10  18  30  50  79 110 137 171 218 267 309
#     4  10  23  41  58  77 104 141 181 221 264 316
#     4  11  22  35  53  79 109 137 173 223 268 307
#     4  10  18  31  51  76 107 143 178 211 257 317
#     4  10  20  34  54  77 101 134 173 214 264 319
#
# _framework density 18.066220000000001
#
# number of rings (size 3 to 8) (size 9 to 14) (size 15 to 20)
#    0.000    2.143    1.429    2.143    0.000    4.286 
#    0.000    0.000    0.000    0.857    0.000    6.000 
#    0.000    0.000    0.000    0.000    0.000    0.000 
#
# Total GULP energy -347045.993834 kJ/mol
# GULP energy per Si atom -12394.499780 kJ/mol
# Density = 1.802510 g / cm^3
# Si number density = 18.066220 Si / 1000 Ang^3
#
#
#
# Elastic Constant Matrix: (Units=GPa)
#
#
# Indices 1 2 3 4 5 6 
#
# 1 58.9012 25.5076 30.2594 0.0000 3.5113 0.0004
# 2 25.5076 68.1460 55.2450 0.0000 5.1939 0.0009
# 3 30.2594 55.2450 162.2813 -0.0001 6.5641 0.0001
# 4 0.0000 0.0000 -0.0001 25.2097 0.0000 4.4053
# 5 3.5113 5.1939 6.5641 0.0000 23.7612 0.0001
# 6 0.0004 0.0009 0.0001 4.4053 0.0001 17.3750
#
#
#
# Elastic Compliance Matrix: (Units=1/GPa)
#
#
# Indices 1 2 3 4 5 6 
#
# 1 0.020622 -0.006283 -0.001657 0.000000 -0.001216 0.000000
# 2 -0.006283 0.022336 -0.006343 0.000000 -0.002202 -0.000001
# 3 -0.001657 -0.006343 0.008661 0.000000 -0.000761 0.000000
# 4 0.000000 0.000000 0.000000 0.041506 0.000000 -0.010524
# 5 -0.001216 -0.002202 -0.000761 0.000000 0.042957 0.000000
# 6 0.000000 -0.000001 0.000000 -0.010524 0.000000 0.060222
#
#
# Mechanical properties :
#
#
# Convention : Reuss Voigt Hill
#
# Bulk Modulus (GPa) = 43.37804 56.81694 50.09749
# Shear Modulus (GPa) = 21.50016 25.15695 23.32855
#
# Velocity S-wave (km/s) = 3.45349 3.73565 3.59734
# Velocity P-wave (km/s) = 6.32177 7.07985 6.71153
#
# Compressibility (1/GPa) = 0.02305314
#
# Stress axis : x y z
#
# Youngs Moduli (GPa) = 48.49111 44.77004 115.45508
#
# Poissons Ratio (x) = 0.28129 0.19133
# Poissons Ratio (y) = 0.30467 0.73237
# Poissons Ratio (z) = 0.08036 0.28399
#
# Static dielectric constant tensor:
#      x y z
#    x 3.064700 0.000000 0.044340 
#    y 0.000000 3.340110 0.000000 
#    z 0.044340 0.000000 4.149580 
# 
# 
# High freq. dielectric constant tensor:
#      x y z
#    x 1.656570 0.000000 0.002630 
#    y 0.000000 1.704260 0.000000 
#    z 0.002630 0.000000 1.727580 
# 
# From -- ./inp_files/314377.got.cif
#   From: 2010.06.25/outbox.cif.g09.slc.cpg/sg12_158_cif.got.tgz:314377.got - 2010.06.28 00:19:55.
