data_PCOD8081659
_publ_section_title
;
Structure prediction by ZEFSAII (Michael W. Deem and Ramdas Pophale) SiO2 
 PCOD8081659
Probable space group: C 2/M
;
_chemical_formula_sum "Si O2"
_cell_formula_units_Z 48
_cell_length_a 19.314175
_cell_length_b 9.123323
_cell_length_c 28.007055
_cell_angle_alpha 90.000000
_cell_angle_beta 146.746830
_cell_angle_gamma 90.000000
_cell_volume 2706.114617
_symmetry_space_group_name_H-M "C 2/M"
_symmetry_group_IT_number 12
_symmetry_cell_setting 'monoclinic'
loop_
_space_group_symop_operation_xyz
x,y,z
-x,y,-z
-x,-y,-z
x,-y,z
1/2+x,1/2+y,z
1/2-x,1/2+y,-z
1/2-x,1/2-y,-z
1/2+x,1/2-y,z
loop_
_atom_site_type_symbol
_atom_site_label
_atom_site_fract_x
_atom_site_fract_y
_atom_site_fract_z
Si Si1 0.293484 0.669196 0.635992
Si Si2 0.950547 0.173361 0.523461
Si Si3 0.362772 0.831710 0.769205
Si Si4 0.075891 0.829321 0.774764
Si Si5 0.150142 0.828837 0.715325
Si Si6 0.356664 0.170597 0.091207
O O1 0.257402 0.500000 0.618120
O O2 0.184920 0.753442 0.544364
O O3 0.301738 0.729888 0.694223
O O4 0.425603 0.694685 0.685266
O O5 0.000000 0.221331 0.500000
O O6 0.047827 0.235159 0.619097
O O7 0.934799 0.000000 0.517617
O O8 0.292037 0.796124 0.778270
O O9 0.511587 0.802598 0.860694
O O10 0.336543 0.000000 0.738849
O O11 0.133671 0.764065 0.758965
O O12 0.137836 0.737024 0.852836
O O13 0.108743 0.000000 0.802245
O O14 0.123869 0.000000 0.704430
O O15 0.324314 0.000000 0.076670
O O16 0.250000 0.250000 0.000000
#
# Coordination Sequence:
#
# PCOD8081659 Si02
#       6
#     8   8   8   8   8   8
#     4  10  19  30  46  72 104 135 167 208 255 298
#     4  10  18  30  50  72  97 135 181 217 242 281
#     4   9  17  33  55  75  95 130 175 208 239 292
#     4   9  19  35  53  74 103 134 164 205 256 301
#     4   9  17  32  53  74  98 132 174 214 247 284
#     4  10  20  35  58  81 101 127 163 204 248 303
#
# _framework density 17.737608999999999
#
# number of rings (size 3 to 8) (size 9 to 14) (size 15 to 20)
#    0.000    2.500    1.667    1.000    0.000    2.333 
#    0.000    2.500    0.000    5.000    0.000    0.000 
#    0.000    0.000    0.000    0.000    0.000    0.000 
#
# Total GULP energy -297577.504633 kJ/mol
# GULP energy per Si atom -12399.062693 kJ/mol
# Density = 1.769724 g / cm^3
# Si number density = 17.737609 Si / 1000 Ang^3
#
#
#
# Elastic Constant Matrix: (Units=GPa)
#
#
# Indices 1 2 3 4 5 6 
#
# 1 144.4587 43.4058 70.0841 0.0001 -9.1176 0.0000
# 2 43.4058 60.5735 52.0121 0.0001 -0.8236 -0.0001
# 3 70.0841 52.0121 129.9925 0.0003 0.2527 0.0001
# 4 0.0001 0.0001 0.0003 31.2742 0.0001 3.6765
# 5 -9.1176 -0.8236 0.2527 0.0001 20.9250 0.0000
# 6 0.0000 -0.0001 0.0001 3.6765 0.0000 20.3789
#
#
#
# Elastic Compliance Matrix: (Units=1/GPa)
#
#
# Indices 1 2 3 4 5 6 
#
# 1 0.010315 -0.003883 -0.004016 0.000000 0.004390 0.000000
# 2 -0.003883 0.026637 -0.008563 0.000000 -0.000540 0.000000
# 3 -0.004016 -0.008563 0.013288 0.000000 -0.002247 0.000000
# 4 0.000000 0.000000 0.000000 0.032668 0.000000 -0.005894
# 5 0.004390 -0.000540 -0.002247 0.000000 0.049708 0.000000
# 6 0.000000 0.000000 0.000000 -0.005894 0.000000 0.050134
#
#
# Mechanical properties :
#
#
# Convention : Reuss Voigt Hill
#
# Bulk Modulus (GPa) = 57.75165 74.00318 65.87741
# Shear Modulus (GPa) = 22.57878 25.81713 24.19796
#
# Velocity S-wave (km/s) = 3.57169 3.81924 3.69754
# Velocity P-wave (km/s) = 7.04548 7.82691 7.44645
#
# Compressibility (1/GPa) = 0.01731552
#
# Stress axis : x y z
#
# Youngs Moduli (GPa) = 96.95052 37.54149 75.25336
#
# Poissons Ratio (x) = 0.14579 0.30220
# Poissons Ratio (y) = 0.37650 0.64441
# Poissons Ratio (z) = 0.38933 0.32148
#
# Static dielectric constant tensor:
#      x y z
#    x 3.459140 0.000000 0.066670 
#    y 0.000000 3.190850 0.000000 
#    z 0.066670 0.000000 3.215770 
# 
# 
# High freq. dielectric constant tensor:
#      x y z
#    x 1.686280 0.000000 0.009830 
#    y 0.000000 1.671220 0.000000 
#    z 0.009830 0.000000 1.674700 
# 
# From -- ./inp_files/229332.got.cif
#   From: 2010.06.25/outbox.cif.g09.slc.cpg/sg12_115_cif.got.tgz:229332.got - 2010.06.28 00:19:55.
