data_PCOD8081042
_publ_section_title
;
Structure prediction by ZEFSAII (Michael W. Deem and Ramdas Pophale) SiO2 
 PCOD8081042
Probable space group: C 2/M
;
_chemical_formula_sum "Si O2"
_cell_formula_units_Z 64
_cell_length_a 18.095643
_cell_length_b 27.192507
_cell_length_c 6.671251
_cell_angle_alpha 90.000000
_cell_angle_beta 99.065050
_cell_angle_gamma 90.000000
_cell_volume 3241.694581
_symmetry_space_group_name_H-M "C 2/M"
_symmetry_group_IT_number 12
_symmetry_cell_setting 'monoclinic'
loop_
_space_group_symop_operation_xyz
x,y,z
-x,y,-z
-x,-y,-z
x,-y,z
1/2+x,1/2+y,z
1/2-x,1/2+y,-z
1/2-x,1/2-y,-z
1/2+x,1/2-y,z
loop_
_atom_site_type_symbol
_atom_site_label
_atom_site_fract_x
_atom_site_fract_y
_atom_site_fract_z
Si Si1 0.413684 0.631017 0.974763
Si Si2 0.922848 0.700636 0.356627
Si Si3 0.802081 0.883908 0.258984
Si Si4 0.165518 0.323227 0.297162
Si Si5 0.173264 0.055936 0.343258
Si Si6 0.422950 0.114656 0.041681
Si Si7 0.792611 0.445588 0.086614
Si Si8 0.086688 0.242688 0.014223
O O1 0.376182 0.592046 0.811874
O O2 0.402299 0.687366 0.901633
O O3 0.500000 0.616743 0.000000
O O4 0.380417 0.630278 0.186486
O O5 0.858032 0.683583 0.481092
O O6 0.938847 0.658456 0.201918
O O7 0.000000 0.714116 0.500000
O O8 0.894923 0.748073 0.214916
O O9 0.754560 0.837118 0.325347
O O10 0.823556 0.923813 0.432722
O O11 0.752218 0.908356 0.068830
O O12 0.145634 0.273137 0.172643
O O13 0.120180 0.367514 0.175826
O O14 0.257660 0.055243 0.293893
O O15 0.140418 0.000000 0.328241
O O16 0.378036 0.071996 0.137261
O O17 0.500000 0.091094 0.000000
O O18 0.788794 0.500000 0.991616
O O19 0.000000 0.259785 0.000000
#
# Coordination Sequence:
#
# PCOD8081042 Si02
#       8
#     8   8   8   8   8   8   8   8
#     4  10  24  43  60  84 114 142 175 232 287 340
#     4  11  17  30  53  79 108 152 193 224 262 308
#     4  10  21  38  60  86 110 144 187 233 275 329
#     4  10  19  33  55  82 115 153 194 226 265 318
#     4  10  21  41  65  84 107 141 183 229 287 345
#     4  10  18  29  48  79 114 149 195 236 267 316
#     4   9  19  35  55  78 110 149 186 231 283 330
#     4  10  20  36  55  82 117 155 190 222 268 328
#
# _framework density 19.742761999999999
#
# number of rings (size 3 to 8) (size 9 to 14) (size 15 to 20)
#    0.000    2.000    2.500    1.875    0.000    4.000 
#    0.000    1.875    0.000    0.375    0.000    0.000 
#    0.000    0.000    0.000    0.000    0.000    0.000 
#
# Total GULP energy -396606.821714 kJ/mol
# GULP energy per Si atom -12393.963179 kJ/mol
# Density = 1.969783 g / cm^3
# Si number density = 19.742762 Si / 1000 Ang^3
#
#
#
# Elastic Constant Matrix: (Units=GPa)
#
#
# Indices 1 2 3 4 5 6 
#
# 1 120.8723 45.9376 35.4883 0.0000 -25.1947 0.0000
# 2 45.9376 93.3801 21.9170 0.0000 -5.7907 0.0000
# 3 35.4883 21.9170 88.4171 0.0000 -18.9091 0.0000
# 4 0.0000 0.0000 0.0000 27.1401 0.0000 0.3584
# 5 -25.1947 -5.7907 -18.9091 0.0000 22.0254 0.0000
# 6 0.0000 0.0000 0.0000 0.3584 0.0000 22.5565
#
#
#
# Elastic Compliance Matrix: (Units=1/GPa)
#
#
# Indices 1 2 3 4 5 6 
#
# 1 0.013406 -0.005501 -0.001282 0.000000 0.012788 0.000000
# 2 -0.005501 0.013636 -0.002145 0.000000 -0.004549 0.000000
# 3 -0.001282 -0.002145 0.014603 0.000000 0.010506 0.000000
# 4 0.000000 0.000000 0.000000 0.036854 0.000000 -0.000586
# 5 0.012788 -0.004549 0.010506 0.000000 0.067853 0.000000
# 6 0.000000 0.000000 0.000000 -0.000586 0.000000 0.044342
#
#
# Mechanical properties :
#
#
# Convention : Reuss Voigt Hill
#
# Bulk Modulus (GPa) = 42.03667 56.59503 49.31585
# Shear Modulus (GPa) = 23.09666 27.63284 25.36475
#
# Velocity S-wave (km/s) = 3.42406 3.74524 3.58825
# Velocity P-wave (km/s) = 6.08035 6.88701 6.49621
#
# Compressibility (1/GPa) = 0.02378875
#
# Stress axis : x y z
#
# Youngs Moduli (GPa) = 74.59482 73.33291 68.47720
#
# Poissons Ratio (x) = 0.40340 0.08781
# Poissons Ratio (y) = 0.41034 0.14689
# Poissons Ratio (z) = 0.09566 0.15731
#
# Static dielectric constant tensor:
#      x y z
#    x 3.728290 0.000000 -0.297090 
#    y 0.000000 3.593770 0.000000 
#    z -0.297090 0.000000 3.659920 
# 
# 
# High freq. dielectric constant tensor:
#      x y z
#    x 1.762200 0.000000 -0.018150 
#    y 0.000000 1.763020 0.000000 
#    z -0.018150 0.000000 1.766560 
# 
# From -- ./inp_files/18328.got.cif
#   From: 2010.06.25/outbox.cif.g09.slc.cpg/sg12_10_cif.got.tgz:18328.got - 2010.06.28 00:19:55.
