data_PCOD8081341
_publ_section_title
;
Structure prediction by ZEFSAII (Michael W. Deem and Ramdas Pophale) SiO2 
 PCOD8081341
Probable space group: C 2/M
;
_chemical_formula_sum "Si O2"
_cell_formula_units_Z 64
_cell_length_a 24.425665
_cell_length_b 8.732290
_cell_length_c 20.247001
_cell_angle_alpha 90.000000
_cell_angle_beta 122.372091
_cell_angle_gamma 90.000000
_cell_volume 3647.376400
_symmetry_space_group_name_H-M "C 2/M"
_symmetry_group_IT_number 12
_symmetry_cell_setting 'monoclinic'
loop_
_space_group_symop_operation_xyz
x,y,z
-x,y,-z
-x,-y,-z
x,-y,z
1/2+x,1/2+y,z
1/2-x,1/2+y,-z
1/2-x,1/2-y,-z
1/2+x,1/2-y,z
loop_
_atom_site_type_symbol
_atom_site_label
_atom_site_fract_x
_atom_site_fract_y
_atom_site_fract_z
Si Si1 0.048207 0.681869 0.732810
Si Si2 0.733563 0.822394 0.222781
Si Si3 0.154898 0.319708 0.898322
Si Si4 0.715725 0.177299 0.067852
Si Si5 0.867618 0.679762 0.335713
Si Si6 0.797100 0.320288 0.655388
Si Si7 0.404110 0.182354 0.626137
Si Si8 0.651395 0.680757 0.540237
O O1 0.047590 0.500000 0.735946
O O2 0.090815 0.749627 0.821605
O O3 0.079008 0.733188 0.683012
O O4 0.975220 0.746132 0.691080
O O5 0.692600 0.794902 0.128737
O O6 0.797449 0.719699 0.260993
O O7 0.690759 0.777492 0.259467
O O8 0.755171 0.000000 0.243353
O O9 0.150839 0.500000 0.889207
O O10 0.218380 0.268285 0.900358
O O11 0.160598 0.269186 0.979511
O O12 0.731549 0.000000 0.065557
O O13 0.871454 0.500000 0.352597
O O14 0.881580 0.770879 0.412199
O O15 0.799939 0.500000 0.646797
O O16 0.852964 0.246284 0.645842
O O17 0.726128 0.261077 0.587722
O O18 0.386825 0.236770 0.542237
O O19 0.403492 0.000000 0.626871
O O20 0.646775 0.500000 0.528411
#
# Coordination Sequence:
#
# PCOD8081341 Si02
#       8
#     8   8   8   8   8   8   8   8
#     4   9  18  30  46  66  93 122 153 187 218 262
#     4   9  16  28  45  70  96 118 146 187 231 267
#     4   9  16  28  43  65  95 123 150 182 217 261
#     4   9  16  25  44  69  94 121 148 181 224 265
#     4  10  18  30  47  68  91 121 151 182 222 271
#     4   8  16  30  49  67  88 115 149 190 228 265
#     4  10  19  33  50  66  84 120 160 187 221 268
#     4  10  20  34  49  69  92 113 143 194 239 269
#
# _framework density 17.546859999999999
#
# number of rings (size 3 to 8) (size 9 to 14) (size 15 to 20)
#    0.000    2.750    1.250    1.875    0.000    0.500 
#    0.000    6.875    0.000    0.750    0.000    5.250 
#    0.000    0.000    0.000   11.875    0.000   12.750 
#
# Total GULP energy -396555.567081 kJ/mol
# GULP energy per Si atom -12392.361471 kJ/mol
# Density = 1.750692 g / cm^3
# Si number density = 17.546860 Si / 1000 Ang^3
#
#
#
# Elastic Constant Matrix: (Units=GPa)
#
#
# Indices 1 2 3 4 5 6 
#
# 1 84.0258 12.3606 74.0013 0.0000 5.4857 0.0000
# 2 12.3606 12.1771 9.7241 0.0000 0.9317 0.0000
# 3 74.0013 9.7241 165.3270 0.0000 -6.8976 0.0000
# 4 0.0000 0.0000 0.0000 18.4449 0.0000 -1.0899
# 5 5.4857 0.9317 -6.8976 0.0000 22.0631 0.0000
# 6 0.0000 0.0000 0.0000 -1.0899 0.0000 14.9535
#
#
#
# Elastic Compliance Matrix: (Units=1/GPa)
#
#
# Indices 1 2 3 4 5 6 
#
# 1 0.023436 -0.015216 -0.009941 0.000000 -0.008292 0.000000
# 2 -0.015216 0.096662 0.001128 0.000000 0.000054 0.000000
# 3 -0.009941 0.001128 0.010672 0.000000 0.005761 0.000000
# 4 0.000000 0.000000 0.000000 0.054450 0.000000 0.003969
# 5 -0.008292 0.000054 0.005761 0.000000 0.049185 0.000000
# 6 0.000000 0.000000 0.000000 0.003969 0.000000 0.067163
#
#
# Mechanical properties :
#
#
# Convention : Reuss Voigt Hill
#
# Bulk Modulus (GPa) = 12.09027 50.41131 31.25079
# Shear Modulus (GPa) = 13.25567 22.12191 17.68879
#
# Velocity S-wave (km/s) = 2.75152 3.55453 3.17849
# Velocity P-wave (km/s) = 4.12307 6.75560 5.59633
#
# Compressibility (1/GPa) = 0.08271117
#
# Stress axis : x y z
#
# Youngs Moduli (GPa) = 42.66974 10.34535 93.70072
#
# Poissons Ratio (x) = 0.15741 0.93148
# Poissons Ratio (y) = 0.64926 -0.10566
# Poissons Ratio (z) = 0.42418 -0.01167
#
# Static dielectric constant tensor:
#      x y z
#    x 3.407380 0.000000 -0.101540 
#    y 0.000000 3.017840 0.000000 
#    z -0.101540 0.000000 3.631760 
# 
# 
# High freq. dielectric constant tensor:
#      x y z
#    x 1.653180 0.000000 -0.020820 
#    y 0.000000 1.653560 0.000000 
#    z -0.020820 0.000000 1.687090 
# 
# From -- ./inp_files/326971.got.cif
#   From: 2010.06.25/outbox.cif.g09.slc.cpg/sg12_164_cif.got.tgz:326971.got - 2010.06.28 00:19:55.
