data_PCOD8081395
_publ_section_title
;
Structure prediction by ZEFSAII (Michael W. Deem and Ramdas Pophale) SiO2 
 PCOD8081395
Probable space group: C 2/M
;
_chemical_formula_sum "Si O2"
_cell_formula_units_Z 56
_cell_length_a 19.160470
_cell_length_b 9.346128
_cell_length_c 18.832496
_cell_angle_alpha 90.000000
_cell_angle_beta 114.268772
_cell_angle_gamma 90.000000
_cell_volume 3074.419673
_symmetry_space_group_name_H-M "C 2/M"
_symmetry_group_IT_number 12
_symmetry_cell_setting 'monoclinic'
loop_
_space_group_symop_operation_xyz
x,y,z
-x,y,-z
-x,-y,-z
x,-y,z
1/2+x,1/2+y,z
1/2-x,1/2+y,-z
1/2-x,1/2-y,-z
1/2+x,1/2-y,z
loop_
_atom_site_type_symbol
_atom_site_label
_atom_site_fract_x
_atom_site_fract_y
_atom_site_fract_z
Si Si1 0.826744 0.836815 0.523004
Si Si2 0.074032 0.836505 0.568233
Si Si3 0.602426 0.161223 0.331520
Si Si4 0.441737 0.838379 0.189657
Si Si5 0.974091 0.670720 0.913328
Si Si6 0.152296 0.828874 0.742116
Si Si7 0.321685 0.830297 0.779319
O O1 0.750000 0.750000 0.500000
O O2 0.853124 0.825989 0.452819
O O3 0.891754 0.768486 0.600067
O O4 0.813455 0.000000 0.540163
O O5 0.100125 0.769993 0.654677
O O6 0.000000 0.760174 0.500000
O O7 0.050683 0.000000 0.573214
O O8 0.516125 0.165140 0.269558
O O9 0.659861 0.215639 0.293756
O O10 0.625156 0.000000 0.364365
O O11 0.464343 0.781145 0.120696
O O12 0.377810 0.735559 0.196607
O O13 0.409291 0.000000 0.172115
O O14 0.971989 0.500000 0.913374
O O15 0.888999 0.729472 0.859115
O O16 0.000000 0.733971 0.000000
O O17 0.239007 0.771527 0.768083
O O18 0.150532 0.000000 0.744917
O O19 0.322993 0.000000 0.783546
#
# Coordination Sequence:
#
# PCOD8081395 Si02
#       7
#     8   8   8   8   8   8   8
#     4  11  21  32  48  69  93 121 158 204 246 282
#     4   9  18  31  46  64  87 121 163 198 227 269
#     4   9  17  32  50  66  89 121 159 200 238 278
#     4   9  18  31  49  73  97 120 150 194 240 276
#     4   8  14  28  51  74  94 121 159 195 226 273
#     4  10  18  30  48  67  92 125 158 191 230 284
#     4   8  15  28  47  69  92 124 162 195 230 276
#
# _framework density 18.21482
#
# number of rings (size 3 to 8) (size 9 to 14) (size 15 to 20)
#    0.000    2.857    0.000    3.857    0.000    4.000 
#    0.000    4.286    0.000    5.143    0.000    0.000 
#    0.000    0.000    0.000    0.000    0.000    0.000 
#
# Total GULP energy -347058.930862 kJ/mol
# GULP energy per Si atom -12394.961816 kJ/mol
# Density = 1.817336 g / cm^3
# Si number density = 18.214820 Si / 1000 Ang^3
#
#
#
# Elastic Constant Matrix: (Units=GPa)
#
#
# Indices 1 2 3 4 5 6 
#
# 1 103.5929 20.7793 31.6959 0.0000 -8.2080 0.0000
# 2 20.7793 44.1309 20.6031 0.0000 -5.6687 0.0000
# 3 31.6959 20.6031 98.9841 0.0000 -10.7148 0.0000
# 4 0.0000 0.0000 0.0000 14.0167 0.0000 -6.4318
# 5 -8.2080 -5.6687 -10.7148 0.0000 22.5833 0.0000
# 6 0.0000 0.0000 0.0000 -6.4318 0.0000 25.1524
#
#
#
# Elastic Compliance Matrix: (Units=1/GPa)
#
#
# Indices 1 2 3 4 5 6 
#
# 1 0.011390 -0.003889 -0.002630 0.000000 0.001916 0.000000
# 2 -0.003889 0.026779 -0.003957 0.000000 0.003431 0.000000
# 3 -0.002630 -0.003957 0.012183 0.000000 0.003831 0.000000
# 4 0.000000 0.000000 0.000000 0.080828 0.000000 0.020669
# 5 0.001916 0.003431 0.003831 0.000000 0.047656 0.000000
# 6 0.000000 0.000000 0.000000 0.020669 0.000000 0.045043
#
#
# Mechanical properties :
#
#
# Convention : Reuss Voigt Hill
#
# Bulk Modulus (GPa) = 34.01455 43.65162 38.83308
# Shear Modulus (GPa) = 19.63624 23.92578 21.78101
#
# Velocity S-wave (km/s) = 3.28691 3.62820 3.46176
# Velocity P-wave (km/s) = 5.75497 6.44738 6.11099
#
# Compressibility (1/GPa) = 0.02939919
#
# Stress axis : x y z
#
# Youngs Moduli (GPa) = 87.79787 37.34246 82.07956
#
# Poissons Ratio (x) = 0.14522 0.21590
# Poissons Ratio (y) = 0.34143 0.32482
# Poissons Ratio (z) = 0.23094 0.14778
#
# Static dielectric constant tensor:
#      x y z
#    x 3.496240 0.000000 0.017170 
#    y 0.000000 3.021140 0.000000 
#    z 0.017170 0.000000 3.594580 
# 
# 
# High freq. dielectric constant tensor:
#      x y z
#    x 1.712470 0.000000 -0.002820 
#    y 0.000000 1.654850 0.000000 
#    z -0.002820 0.000000 1.699140 
# 
# From -- ./inp_files/275642.got.cif
#   From: 2010.06.25/outbox.cif.g09.slc.cpg/sg12_138_cif.got.tgz:275642.got - 2010.06.28 00:19:55.
