data_PCOD8081741
_publ_section_title
;
Structure prediction by ZEFSAII (Michael W. Deem and Ramdas Pophale) SiO2 
 PCOD8081741
Probable space group: C 2/M
;
_chemical_formula_sum "Si O2"
_cell_formula_units_Z 56
_cell_length_a 14.757261
_cell_length_b 16.985778
_cell_length_c 13.938804
_cell_angle_alpha 90.000000
_cell_angle_beta 72.023143
_cell_angle_gamma 90.000000
_cell_volume 3323.379965
_symmetry_space_group_name_H-M "C 2/M"
_symmetry_group_IT_number 12
_symmetry_cell_setting 'monoclinic'
loop_
_space_group_symop_operation_xyz
x,y,z
-x,y,-z
-x,-y,-z
x,-y,z
1/2+x,1/2+y,z
1/2-x,1/2+y,-z
1/2-x,1/2-y,-z
1/2+x,1/2-y,z
loop_
_atom_site_type_symbol
_atom_site_label
_atom_site_fract_x
_atom_site_fract_y
_atom_site_fract_z
Si Si1 0.177021 0.845663 0.714558
Si Si2 0.331553 0.747312 0.109804
Si Si3 0.981025 0.265495 0.211222
Si Si4 0.110730 0.000000 0.059827
Si Si5 0.012214 0.590801 0.653571
Si Si6 0.346778 0.089987 0.556729
Si Si7 0.342673 0.668582 0.910566
Si Si8 0.611781 0.500000 0.844841
O O1 0.225821 0.798099 0.786905
O O2 0.087384 0.793774 0.704759
O O3 0.252778 0.857484 0.604521
O O4 0.140140 0.926393 0.771362
O O5 0.431418 0.779388 0.122652
O O6 0.264860 0.815712 0.089845
O O7 0.356474 0.685534 0.018552
O O8 0.991983 0.350882 0.255390
O O9 0.083277 0.223790 0.170438
O O10 0.142624 0.076163 0.110132
O O11 0.998228 0.000000 0.095159
O O12 0.157939 0.000000 0.937085
O O13 0.018267 0.500000 0.687077
O O14 0.104768 0.612804 0.559645
O O15 0.918803 0.603026 0.620610
O O16 0.314096 0.000000 0.564492
#
# Coordination Sequence:
#
# PCOD8081741 Si02
#       8
#     8   8   8   4   8   8   8   4
#     4  10  18  30  50  78 100 125 163 213 252 300
#     4   9  21  32  47  76  98 139 167 200 252 295
#     4  10  20  33  52  73 101 136 164 208 255 296
#     4  11  18  30  50  74  99 136 167 199 258 294
#     4   9  19  35  52  72  98 137 168 208 260 299
#     4   9  17  31  54  77 100 123 167 218 256 297
#     4  11  19  34  52  71 105 135 169 211 246 300
#     4  11  18  28  50  79 100 125 168 214 257 292
#
# _framework density 16.850315999999999
#
# number of rings (size 3 to 8) (size 9 to 14) (size 15 to 20)
#    0.857    1.286    3.571    2.143    2.000    0.571 
#    1.286    0.000    0.000    0.857    0.000    0.000 
#    0.000    7.143    0.000    0.000    0.000    0.000 
#
# Total GULP energy -346900.665272 kJ/mol
# GULP energy per Si atom -12389.309474 kJ/mol
# Density = 1.681196 g / cm^3
# Si number density = 16.850316 Si / 1000 Ang^3
#
#
#
# Elastic Constant Matrix: (Units=GPa)
#
#
# Indices 1 2 3 4 5 6 
#
# 1 37.9777 20.1724 5.7663 0.0000 -2.1050 0.0000
# 2 20.1724 103.8117 29.7509 0.0000 5.1370 0.0000
# 3 5.7663 29.7509 44.5288 0.0000 -8.4172 0.0000
# 4 0.0000 0.0000 0.0000 27.3150 0.0000 -1.5693
# 5 -2.1050 5.1370 -8.4172 0.0000 26.7078 0.0000
# 6 0.0000 0.0000 0.0000 -1.5693 0.0000 24.7009
#
#
#
# Elastic Compliance Matrix: (Units=1/GPa)
#
#
# Indices 1 2 3 4 5 6 
#
# 1 0.029717 -0.006277 0.001081 0.000000 0.003890 0.000000
# 2 -0.006277 0.013932 -0.009672 0.000000 -0.006223 0.000000
# 3 0.001081 -0.009672 0.030994 0.000000 0.011713 0.000000
# 4 0.000000 0.000000 0.000000 0.036744 0.000000 0.002334
# 5 0.003890 -0.006223 0.011713 0.000000 0.042637 0.000000
# 6 0.000000 0.000000 0.000000 0.002334 0.000000 0.040633
#
#
# Mechanical properties :
#
#
# Convention : Reuss Voigt Hill
#
# Bulk Modulus (GPa) = 22.26830 33.07750 27.67290
# Shear Modulus (GPa) = 20.88892 24.45333 22.67113
#
# Velocity S-wave (km/s) = 3.52472 3.81361 3.67201
# Velocity P-wave (km/s) = 5.45976 6.25014 5.86827
#
# Compressibility (1/GPa) = 0.04490688
#
# Stress axis : x y z
#
# Youngs Moduli (GPa) = 33.65109 71.77586 32.26466
#
# Poissons Ratio (x) = 0.45052 -0.03487
# Poissons Ratio (y) = 0.21122 0.31206
# Poissons Ratio (z) = -0.03637 0.69421
#
# Static dielectric constant tensor:
#      x y z
#    x 2.940980 0.000000 -0.193090 
#    y 0.000000 3.021080 0.000000 
#    z -0.193090 0.000000 3.033550 
# 
# 
# High freq. dielectric constant tensor:
#      x y z
#    x 1.633480 0.000000 -0.020700 
#    y 0.000000 1.647100 0.000000 
#    z -0.020700 0.000000 1.632390 
# 
# From -- ./inp_files/215488.got.cif
#   From: 2010.06.25/outbox.cif.g09.slc.cpg/sg12_108_cif.got.tgz:215488.got - 2010.06.28 00:19:55.
