data_PCOD8081486
_publ_section_title
;
Structure prediction by ZEFSAII (Michael W. Deem and Ramdas Pophale) SiO2 
 PCOD8081486
Probable space group: C 2/M
;
_chemical_formula_sum "Si O2"
_cell_formula_units_Z 64
_cell_length_a 28.430255
_cell_length_b 12.112975
_cell_length_c 10.909164
_cell_angle_alpha 90.000000
_cell_angle_beta 80.724075
_cell_angle_gamma 90.000000
_cell_volume 3707.716772
_symmetry_space_group_name_H-M "C 2/M"
_symmetry_group_IT_number 12
_symmetry_cell_setting 'monoclinic'
loop_
_space_group_symop_operation_xyz
x,y,z
-x,y,-z
-x,-y,-z
x,-y,z
1/2+x,1/2+y,z
1/2-x,1/2+y,-z
1/2-x,1/2-y,-z
1/2+x,1/2-y,z
loop_
_atom_site_type_symbol
_atom_site_label
_atom_site_fract_x
_atom_site_fract_y
_atom_site_fract_z
Si Si1 0.279321 0.126931 0.613259
Si Si2 0.948230 0.122559 0.033398
Si Si3 0.596643 0.376456 0.205961
Si Si4 0.096138 0.130451 0.711214
Si Si5 0.186215 0.272165 0.643573
Si Si6 0.997731 0.869028 0.635195
Si Si7 0.787712 0.368920 0.109712
Si Si8 0.809276 0.738651 0.844417
O O1 0.230205 0.190512 0.625167
O O2 0.310613 0.149104 0.477351
O O3 0.304812 0.155637 0.731463
O O4 0.266244 0.000000 0.622598
O O5 0.911214 0.171742 0.146400
O O6 0.961477 0.000000 0.078435
O O7 0.916334 0.116660 0.929099
O O8 0.000000 0.184429 0.000000
O O9 0.606888 0.500000 0.253401
O O10 0.550549 0.319149 0.287184
O O11 0.642634 0.303135 0.205640
O O12 0.139302 0.199941 0.638837
O O13 0.046400 0.169851 0.674956
O O14 0.106765 0.000000 0.688112
O O15 0.184874 0.335663 0.775575
O O16 0.000000 0.821028 0.500000
O O17 0.993169 0.000000 0.644584
O O18 0.786788 0.500000 0.100271
O O19 0.733735 0.325719 0.136313
O O20 0.812841 0.322159 0.975256
#
# Coordination Sequence:
#
# PCOD8081486 Si02
#       8
#     8   8   8   8   8   8   8   8
#     4  10  21  38  53  74 107 134 166 214 253 294
#     4   9  15  26  43  66 100 135 160 192 244 297
#     4  10  18  30  48  74 108 136 164 204 248 305
#     4  10  18  30  49  75 106 134 164 204 250 307
#     4  10  21  34  55  80 100 134 175 202 251 309
#     4   9  18  29  43  68 105 139 162 198 254 304
#     4  10  20  37  54  75 107 134 168 216 251 292
#     4  10  21  33  54  81 101 136 176 200 251 308
#
# _framework density 17.261296000000002
#
# number of rings (size 3 to 8) (size 9 to 14) (size 15 to 20)
#    0.000    2.250    1.250    2.250    1.750    0.000 
#    0.000    5.000    0.000    0.000    0.000    5.250 
#    0.000    0.000    0.000    0.000    0.000    0.000 
#
# Total GULP energy -396453.529704 kJ/mol
# GULP energy per Si atom -12389.172803 kJ/mol
# Density = 1.722201 g / cm^3
# Si number density = 17.261296 Si / 1000 Ang^3
#
#
#
# Elastic Constant Matrix: (Units=GPa)
#
#
# Indices 1 2 3 4 5 6 
#
# 1 69.6812 15.6494 26.0349 0.0000 -7.6326 0.0000
# 2 15.6494 65.1774 25.4694 0.0000 3.2129 0.0000
# 3 26.0349 25.4694 126.5529 0.0000 3.5622 0.0000
# 4 0.0000 0.0000 0.0000 24.2397 0.0000 -2.5814
# 5 -7.6326 3.2129 3.5622 0.0000 16.6656 0.0000
# 6 0.0000 0.0000 0.0000 -2.5814 0.0000 19.4093
#
#
#
# Elastic Compliance Matrix: (Units=1/GPa)
#
#
# Indices 1 2 3 4 5 6 
#
# 1 0.017296 -0.003382 -0.003138 0.000000 0.009244 0.000000
# 2 -0.003382 0.017419 -0.002688 0.000000 -0.004333 0.000000
# 3 -0.003138 -0.002688 0.009169 0.000000 -0.002879 0.000000
# 4 0.000000 0.000000 0.000000 0.041847 0.000000 0.005566
# 5 0.009244 -0.004333 -0.002879 0.000000 0.065688 0.000000
# 6 0.000000 0.000000 0.000000 0.005566 0.000000 0.052262
#
#
# Mechanical properties :
#
#
# Convention : Reuss Voigt Hill
#
# Bulk Modulus (GPa) = 39.26486 43.96877 41.61682
# Shear Modulus (GPa) = 21.68393 25.01344 23.34868
#
# Velocity S-wave (km/s) = 3.54816 3.81084 3.68184
# Velocity P-wave (km/s) = 6.29147 6.70008 6.49899
#
# Compressibility (1/GPa) = 0.02546806
#
# Stress axis : x y z
#
# Youngs Moduli (GPa) = 57.81848 57.40930 109.05988
#
# Poissons Ratio (x) = 0.19418 0.34218
# Poissons Ratio (y) = 0.19556 0.29314
# Poissons Ratio (z) = 0.18141 0.15431
#
# Static dielectric constant tensor:
#      x y z
#    x 3.360210 0.000000 0.131010 
#    y 0.000000 2.893700 0.000000 
#    z 0.131010 0.000000 3.911030 
# 
# 
# High freq. dielectric constant tensor:
#      x y z
#    x 1.667050 0.000000 -0.001270 
#    y 0.000000 1.617620 0.000000 
#    z -0.001270 0.000000 1.690620 
# 
# From -- ./inp_files/174615.got.cif
#   From: 2010.06.25/outbox.cif.g09.slc.cpg/sg12_88_cif.got.tgz:174615.got - 2010.06.28 00:19:55.
