data_PCOD8081363
_publ_section_title
;
Structure prediction by ZEFSAII (Michael W. Deem and Ramdas Pophale) SiO2 
 PCOD8081363
Probable space group: C 2/M
;
_chemical_formula_sum "Si O2"
_cell_formula_units_Z 64
_cell_length_a 29.913045
_cell_length_b 9.066086
_cell_length_c 14.947445
_cell_angle_alpha 90.000000
_cell_angle_beta 78.903864
_cell_angle_gamma 90.000000
_cell_volume 3977.880388
_symmetry_space_group_name_H-M "C 2/M"
_symmetry_group_IT_number 12
_symmetry_cell_setting 'monoclinic'
loop_
_space_group_symop_operation_xyz
x,y,z
-x,y,-z
-x,-y,-z
x,-y,z
1/2+x,1/2+y,z
1/2-x,1/2+y,-z
1/2-x,1/2-y,-z
1/2+x,1/2-y,z
loop_
_atom_site_type_symbol
_atom_site_label
_atom_site_fract_x
_atom_site_fract_y
_atom_site_fract_z
Si Si1 0.528660 0.825587 0.115741
Si Si2 0.963169 0.324559 0.687585
Si Si3 0.443614 0.671482 0.380502
Si Si4 0.192338 0.330266 0.436856
Si Si5 0.432802 0.174117 0.080475
Si Si6 0.106115 0.828184 0.414925
Si Si7 0.294585 0.668742 0.386124
Si Si8 0.879556 0.170648 0.242553
O O1 0.543535 0.769203 0.207475
O O2 0.478312 0.765692 0.111997
O O3 0.525373 0.000000 0.115527
O O4 0.564641 0.775802 0.025013
O O5 0.962500 0.500000 0.679961
O O6 0.921867 0.257179 0.649015
O O7 0.010819 0.266898 0.630652
O O8 0.457008 0.500000 0.368813
O O9 0.414721 0.703485 0.480063
O O10 0.413387 0.723928 0.308360
O O11 0.176850 0.500000 0.440971
O O12 0.157457 0.233556 0.392465
O O13 0.242532 0.309831 0.374489
O O14 0.193235 0.278018 0.538741
O O15 0.389469 0.244959 0.146315
O O16 0.428229 0.000000 0.090098
O O17 0.106423 0.000000 0.391363
O O18 0.303140 0.500000 0.415820
O O19 0.327535 0.705297 0.290322
O O20 0.887060 0.000000 0.221125
#
# Coordination Sequence:
#
# PCOD8081363 Si02
#       8
#     8   8   8   8   8   8   8   8
#     4   8  16  30  47  66  93 123 152 194 242 278
#     4  11  21  33  49  70  93 123 166 206 232 268
#     4  10  20  33  46  63  95 135 164 186 229 281
#     4  10  19  31  50  72  92 121 164 202 230 274
#     4   9  16  30  49  68  91 123 157 190 235 282
#     4  11  22  36  49  64  95 134 163 194 240 283
#     4   9  18  33  49  68  98 129 153 189 244 288
#     4  10  18  30  47  70  98 128 155 186 232 284
#
# _framework density 16.08897
#
# number of rings (size 3 to 8) (size 9 to 14) (size 15 to 20)
#    0.000    2.250    2.500    2.250    0.000    3.500 
#    0.000    2.500    0.000    0.000    0.000    0.875 
#    0.000    0.000    0.000    0.000    0.000    0.000 
#
# Total GULP energy -396761.418612 kJ/mol
# GULP energy per Si atom -12398.794332 kJ/mol
# Density = 1.605235 g / cm^3
# Si number density = 16.088970 Si / 1000 Ang^3
#
#
#
# Elastic Constant Matrix: (Units=GPa)
#
#
# Indices 1 2 3 4 5 6 
#
# 1 97.7823 38.9633 40.5277 0.0000 -9.5354 0.0000
# 2 38.9633 55.6377 31.6787 0.0000 -2.9789 0.0000
# 3 40.5277 31.6787 77.4257 0.0000 -14.0316 0.0000
# 4 0.0000 0.0000 0.0000 23.1545 0.0000 -2.6012
# 5 -9.5354 -2.9789 -14.0316 0.0000 22.7313 0.0000
# 6 0.0000 0.0000 0.0000 -2.6012 0.0000 25.1763
#
#
#
# Elastic Compliance Matrix: (Units=1/GPa)
#
#
# Indices 1 2 3 4 5 6 
#
# 1 0.015584 -0.008356 -0.004225 0.000000 0.002834 0.000000
# 2 -0.008356 0.028122 -0.007994 0.000000 -0.004754 0.000000
# 3 -0.004225 -0.007994 0.020140 0.000000 0.009612 0.000000
# 4 0.000000 0.000000 0.000000 0.043695 0.000000 0.004515
# 5 0.002834 -0.004754 0.009612 0.000000 0.050491 0.000000
# 6 0.000000 0.000000 0.000000 0.004515 0.000000 0.040186
#
#
# Mechanical properties :
#
#
# Convention : Reuss Voigt Hill
#
# Bulk Modulus (GPa) = 44.06007 50.35389 47.20698
# Shear Modulus (GPa) = 20.24835 22.19084 21.21960
#
# Velocity S-wave (km/s) = 3.55142 3.71787 3.63559
# Velocity P-wave (km/s) = 6.65293 7.05657 6.85772
#
# Compressibility (1/GPa) = 0.02269629
#
# Stress axis : x y z
#
# Youngs Moduli (GPa) = 64.16879 35.55892 49.65356
#
# Poissons Ratio (x) = 0.29714 0.20976
# Poissons Ratio (y) = 0.53622 0.39692
# Poissons Ratio (z) = 0.27108 0.28425
#
# Static dielectric constant tensor:
#      x y z
#    x 3.041000 0.000000 -0.080570 
#    y 0.000000 2.984700 0.000000 
#    z -0.080570 0.000000 3.133970 
# 
# 
# High freq. dielectric constant tensor:
#      x y z
#    x 1.603060 0.000000 -0.012160 
#    y 0.000000 1.616250 0.000000 
#    z -0.012160 0.000000 1.604410 
# 
# From -- ./inp_files/248297.got.cif
#   From: 2010.06.25/outbox.cif.g09.slc.cpg/sg12_125_cif.got.tgz:248297.got - 2010.06.28 00:19:55.
