data_PCOD8081121
_publ_section_title
;
Structure prediction by ZEFSAII (Michael W. Deem and Ramdas Pophale) SiO2 
 PCOD8081121
Probable space group: C 2/M
;
_chemical_formula_sum "Si O2"
_cell_formula_units_Z 56
_cell_length_a 25.561493
_cell_length_b 9.030897
_cell_length_c 13.986179
_cell_angle_alpha 90.000000
_cell_angle_beta 126.489649
_cell_angle_gamma 90.000000
_cell_volume 2595.690791
_symmetry_space_group_name_H-M "C 2/M"
_symmetry_group_IT_number 12
_symmetry_cell_setting 'monoclinic'
loop_
_space_group_symop_operation_xyz
x,y,z
-x,y,-z
-x,-y,-z
x,-y,z
1/2+x,1/2+y,z
1/2-x,1/2+y,-z
1/2-x,1/2-y,-z
1/2+x,1/2-y,z
loop_
_atom_site_type_symbol
_atom_site_label
_atom_site_fract_x
_atom_site_fract_y
_atom_site_fract_z
Si Si1 0.152790 0.325142 0.210722
Si Si2 0.394771 0.162079 0.302097
Si Si3 0.288039 0.171790 0.335043
Si Si4 0.091505 0.825523 0.982953
Si Si5 0.875850 0.330239 0.605495
Si Si6 0.309857 0.837199 0.026534
Si Si7 0.006742 0.825327 0.711484
O O1 0.151460 0.500000 0.194962
O O2 0.222291 0.264024 0.249886
O O3 0.090376 0.253905 0.085913
O O4 0.143857 0.277328 0.310642
O O5 0.344526 0.232372 0.324423
O O6 0.360360 0.138895 0.164751
O O7 0.456390 0.265463 0.343557
O O8 0.418369 0.000000 0.365418
O O9 0.313180 0.191702 0.470516
O O10 0.273521 0.000000 0.295384
O O11 0.090233 0.000000 0.996732
O O12 0.161442 0.769237 0.022916
O O13 0.036778 0.774081 0.847231
O O14 0.899603 0.500000 0.631533
O O15 0.933533 0.230762 0.626633
O O16 0.291186 0.000000 0.964321
O O17 0.250000 0.750000 0.000000
O O18 0.009871 0.000000 0.708193
#
# Coordination Sequence:
#
# PCOD8081121 Si02
#       7
#     8   8   8   8   8   8   8
#     4  11  23  38  59  88 117 150 192 241 293 341
#     4   9  19  35  56  81 112 149 187 229 282 342
#     4  10  21  39  62  87 116 154 194 233 283 345
#     4  10  21  37  56  80 112 150 191 238 290 346
#     4  10  23  41  60  83 116 156 195 236 286 343
#     4  10  18  29  49  79 113 149 187 231 285 344
#     4  10  22  39  60  86 115 150 193 238 287 339
#
# _framework density 21.574218999999999
#
# number of rings (size 3 to 8) (size 9 to 14) (size 15 to 20)
#    0.000    2.000    0.000    3.000    0.000    6.857 
#    0.000    5.714    0.000    0.000    0.000    0.000 
#    0.000    0.000    0.000    0.000    0.000    0.000 
#
# Total GULP energy -347054.031896 kJ/mol
# GULP energy per Si atom -12394.786853 kJ/mol
# Density = 2.152511 g / cm^3
# Si number density = 21.574219 Si / 1000 Ang^3
#
#
#
# Elastic Constant Matrix: (Units=GPa)
#
#
# Indices 1 2 3 4 5 6 
#
# 1 67.3495 14.8729 -4.2676 0.0000 -2.4861 0.0000
# 2 14.8729 63.6582 11.4364 0.0000 5.7275 0.0000
# 3 -4.2676 11.4364 40.7675 0.0000 -7.2086 0.0000
# 4 0.0000 0.0000 0.0000 30.2021 0.0000 0.7471
# 5 -2.4861 5.7275 -7.2086 0.0000 34.8883 0.0000
# 6 0.0000 0.0000 0.0000 0.7471 0.0000 31.6857
#
#
#
# Elastic Compliance Matrix: (Units=1/GPa)
#
#
# Indices 1 2 3 4 5 6 
#
# 1 0.016189 -0.004641 0.003462 0.000000 0.002631 0.000000
# 2 -0.004641 0.018377 -0.006469 0.000000 -0.004684 0.000000
# 3 0.003462 -0.006469 0.027959 0.000000 0.007086 0.000000
# 4 0.000000 0.000000 0.000000 0.033130 0.000000 -0.000781
# 5 0.002631 -0.004684 0.007086 0.000000 0.031083 0.000000
# 6 0.000000 0.000000 0.000000 -0.000781 0.000000 0.031578
#
#
# Mechanical properties :
#
#
# Convention : Reuss Voigt Hill
#
# Bulk Modulus (GPa) = 21.17360 23.98428 22.57894
# Shear Modulus (GPa) = 26.40516 29.33746 27.87131
#
# Velocity S-wave (km/s) = 3.50225 3.69160 3.59817
# Velocity P-wave (km/s) = 5.11762 5.41404 5.26791
#
# Compressibility (1/GPa) = 0.04722862
#
# Stress axis : x y z
#
# Youngs Moduli (GPa) = 61.76927 54.41615 35.76602
#
# Poissons Ratio (x) = 0.25255 -0.12382
# Poissons Ratio (y) = 0.28667 0.23138
# Poissons Ratio (z) = -0.21383 0.35204
#
# Static dielectric constant tensor:
#      x y z
#    x 3.763810 0.000000 -0.318900 
#    y 0.000000 3.948560 0.000000 
#    z -0.318900 0.000000 3.714450 
# 
# 
# High freq. dielectric constant tensor:
#      x y z
#    x 1.839510 0.000000 -0.012440 
#    y 0.000000 1.841610 0.000000 
#    z -0.012440 0.000000 1.852590 
# 
# From -- ./inp_files/238929.got.cif
#   From: 2010.06.25/outbox.cif.g09.slc.cpg/sg12_120_cif.got.tgz:238929.got - 2010.06.28 00:19:55.
