data_PCOD8081094
_publ_section_title
;
Structure prediction by ZEFSAII (Michael W. Deem and Ramdas Pophale) SiO2 
 PCOD8081094
Probable space group: C 2/M
;
_chemical_formula_sum "Si O2"
_cell_formula_units_Z 64
_cell_length_a 23.592665
_cell_length_b 8.719913
_cell_length_c 21.516574
_cell_angle_alpha 90.000000
_cell_angle_beta 52.513930
_cell_angle_gamma 90.000000
_cell_volume 3512.448206
_symmetry_space_group_name_H-M "C 2/M"
_symmetry_group_IT_number 12
_symmetry_cell_setting 'monoclinic'
loop_
_space_group_symop_operation_xyz
x,y,z
-x,y,-z
-x,-y,-z
x,-y,z
1/2+x,1/2+y,z
1/2-x,1/2+y,-z
1/2-x,1/2-y,-z
1/2+x,1/2-y,z
loop_
_atom_site_type_symbol
_atom_site_label
_atom_site_fract_x
_atom_site_fract_y
_atom_site_fract_z
Si Si1 0.417236 0.823967 0.801599
Si Si2 0.815830 0.679099 0.760074
Si Si3 0.719148 0.175876 0.581552
Si Si4 0.572641 0.178281 0.735644
Si Si5 0.325730 0.679934 0.966737
Si Si6 0.119283 0.820730 0.823187
Si Si7 0.264030 0.322285 0.682714
Si Si8 0.169879 0.318348 0.907014
O O1 0.386347 0.789557 0.753781
O O2 0.501929 0.791752 0.742410
O O3 0.381872 0.712216 0.874973
O O4 0.401428 0.000000 0.831350
O O5 0.801646 0.500000 0.760195
O O6 0.828127 0.760012 0.683999
O O7 0.748270 0.751914 0.840183
O O8 0.750000 0.250000 0.500000
O O9 0.641323 0.244486 0.652262
O O10 0.775653 0.199678 0.600948
O O11 0.708902 0.000000 0.572246
O O12 0.563351 0.259939 0.808997
O O13 0.586002 0.000000 0.740578
O O14 0.316692 0.500000 0.982564
O O15 0.250000 0.750000 0.000000
O O16 0.355646 0.755718 0.009580
O O17 0.197661 0.782240 0.745995
O O18 0.111319 0.737042 0.895253
O O19 0.108308 0.000000 0.840241
O O20 0.247980 0.500000 0.708565
O O21 0.174014 0.500000 0.905637
#
# Coordination Sequence:
#
# PCOD8081094 Si02
#       8
#     8   8   8   8   8   8   8   8
#     4  10  21  36  54  74 103 139 174 214 262 312
#     4  10  18  29  49  76 102 131 172 217 257 303
#     4   9  18  32  54  81 106 133 167 208 254 306
#     4   9  19  37  55  75 105 140 172 206 257 318
#     4  12  23  35  51  74 104 136 176 221 264 308
#     4  10  18  30  50  75 101 131 170 218 260 305
#     4   9  17  30  48  73 104 135 168 207 254 306
#     4  11  20  32  51  73 100 135 173 220 267 308
#
# _framework density 18.220908999999999
#
# number of rings (size 3 to 8) (size 9 to 14) (size 15 to 20)
#    0.000    2.000    1.250    6.375    0.000    3.500 
#    0.000    0.625    0.000    4.500    0.000    5.250 
#    0.000    0.000    0.000    0.000    0.000    0.000 
#
# Total GULP energy -396661.556309 kJ/mol
# GULP energy per Si atom -12395.673635 kJ/mol
# Density = 1.817944 g / cm^3
# Si number density = 18.220909 Si / 1000 Ang^3
#
#
#
# Elastic Constant Matrix: (Units=GPa)
#
#
# Indices 1 2 3 4 5 6 
#
# 1 124.8712 45.7594 51.8511 0.0001 22.0657 -0.0005
# 2 45.7594 102.9617 38.9347 0.0011 14.0409 0.0025
# 3 51.8511 38.9347 88.6816 0.0000 23.3400 0.0003
# 4 0.0001 0.0011 0.0000 28.3902 0.0001 8.6121
# 5 22.0657 14.0409 23.3400 0.0001 27.6436 -0.0002
# 6 -0.0005 0.0025 0.0003 8.6121 -0.0002 26.4926
#
#
#
# Elastic Compliance Matrix: (Units=1/GPa)
#
#
# Indices 1 2 3 4 5 6 
#
# 1 0.011651 -0.002941 -0.004457 0.000000 -0.004043 0.000001
# 2 -0.002941 0.012480 -0.003483 0.000000 -0.001050 -0.000001
# 3 -0.004457 -0.003483 0.018012 0.000000 -0.009881 0.000000
# 4 0.000000 0.000000 0.000000 0.039077 0.000000 -0.012703
# 5 -0.004043 -0.001050 -0.009881 0.000000 0.048278 0.000001
# 6 0.000001 -0.000001 0.000000 -0.012703 0.000001 0.041876
#
#
# Mechanical properties :
#
#
# Convention : Reuss Voigt Hill
#
# Bulk Modulus (GPa) = 49.06604 65.51165 57.28885
# Shear Modulus (GPa) = 25.00876 28.50324 26.75600
#
# Velocity S-wave (km/s) = 3.70879 3.95943 3.83616
# Velocity P-wave (km/s) = 6.73253 7.54553 7.15059
#
# Compressibility (1/GPa) = 0.02038069
#
# Stress axis : x y z
#
# Youngs Moduli (GPa) = 85.82751 80.12870 55.51892
#
# Poissons Ratio (x) = 0.23570 0.24744
# Poissons Ratio (y) = 0.25246 0.19337
# Poissons Ratio (z) = 0.38251 0.27908
#
# Static dielectric constant tensor:
#      x y z
#    x 3.674720 0.000000 0.440550 
#    y 0.000000 3.481500 0.000000 
#    z 0.440550 0.000000 3.312050 
# 
# 
# High freq. dielectric constant tensor:
#      x y z
#    x 1.705030 0.000000 0.036970 
#    y 0.000000 1.714720 0.000000 
#    z 0.036970 0.000000 1.668390 
# 
# From -- ./inp_files/323598.got.cif
#   From: 2010.06.25/outbox.cif.g09.slc.cpg/sg12_162_cif.got.tgz:323598.got - 2010.06.28 00:19:55.
