data_PCOD8081128
_publ_section_title
;
Structure prediction by ZEFSAII (Michael W. Deem and Ramdas Pophale) SiO2 
 PCOD8081128
Probable space group: C 2/M
;
_chemical_formula_sum "Si O2"
_cell_formula_units_Z 44
_cell_length_a 18.275828
_cell_length_b 15.889149
_cell_length_c 20.963383
_cell_angle_alpha 90.000000
_cell_angle_beta 158.167016
_cell_angle_gamma 90.000000
_cell_volume 2263.955647
_symmetry_space_group_name_H-M "C 2/M"
_symmetry_group_IT_number 12
_symmetry_cell_setting 'monoclinic'
loop_
_space_group_symop_operation_xyz
x,y,z
-x,y,-z
-x,-y,-z
x,-y,z
1/2+x,1/2+y,z
1/2-x,1/2+y,-z
1/2-x,1/2-y,-z
1/2+x,1/2-y,z
loop_
_atom_site_type_symbol
_atom_site_label
_atom_site_fract_x
_atom_site_fract_y
_atom_site_fract_z
Si Si1 0.153537 0.000000 0.348340
Si Si2 0.288361 0.174349 0.456392
Si Si3 0.060734 0.720242 0.778974
Si Si4 0.827020 0.162757 0.407988
Si Si5 0.204381 0.500000 0.003643
Si Si6 0.286585 0.000000 0.603491
Si Si7 0.599365 0.830528 0.952075
O O1 0.245938 0.083660 0.389452
O O2 0.213409 0.000000 0.471516
O O3 0.919410 0.000000 0.145383
O O4 0.455627 0.157102 0.645061
O O5 0.370602 0.248092 0.477513
O O6 0.084163 0.201425 0.324177
O O7 0.107188 0.670901 0.880845
O O8 0.261029 0.756474 0.908673
O O9 0.623964 0.177943 0.203898
O O10 0.000000 0.140442 0.500000
O O11 0.802609 0.084808 0.436501
O O12 0.186430 0.421845 0.038345
O O13 0.023872 0.500000 0.805891
#
# Coordination Sequence:
#
# PCOD8081128 Si02
#       7
#     4   8   8   8   4   4   8
#     4  12  20  33  56  89 109 136 179 232 291 316
#     4  10  19  31  52  78 108 138 176 225 271 323
#     4   9  16  30  49  76 103 131 172 229 284 307
#     4  10  21  37  54  75 109 154 185 209 262 328
#     4  10  18  29  49  82 111 132 170 217 280 334
#     4  10  21  36  58  83 111 145 173 232 276 326
#     4   9  17  29  50  74 105 135 171 224 271 322
#
# _framework density 19.435009000000001
#
# number of rings (size 3 to 8) (size 9 to 14) (size 15 to 20)
#    0.000    2.182    1.818    4.636    0.000    0.000 
#    0.000    1.364    0.000    2.182    0.000    1.273 
#    0.000    0.000    0.000    0.000    0.000    0.000 
#
# Total GULP energy -272539.472813 kJ/mol
# GULP energy per Si atom -12388.157855 kJ/mol
# Density = 1.939077 g / cm^3
# Si number density = 19.435009 Si / 1000 Ang^3
#
#
#
# Elastic Constant Matrix: (Units=GPa)
#
#
# Indices 1 2 3 4 5 6 
#
# 1 32.1316 20.5792 22.0191 -0.0399 10.9185 0.0211
# 2 20.5792 126.3738 24.4389 0.1169 5.8562 0.0026
# 3 22.0191 24.4389 89.9464 -0.0235 13.5425 0.0276
# 4 -0.0399 0.1169 -0.0235 26.1703 -0.0325 1.6589
# 5 10.9185 5.8562 13.5425 -0.0325 21.1189 0.0108
# 6 0.0211 0.0026 0.0276 1.6589 0.0108 15.7239
#
#
#
# Elastic Compliance Matrix: (Units=1/GPa)
#
#
# Indices 1 2 3 4 5 6 
#
# 1 0.045180 -0.005191 -0.007028 0.000067 -0.017412 -0.000043
# 2 -0.005191 0.008966 -0.001323 -0.000049 0.001046 0.000012
# 3 -0.007028 -0.001323 0.013941 0.000002 -0.004940 -0.000012
# 4 0.000067 -0.000049 0.000002 0.038469 0.000039 -0.004059
# 5 -0.017412 0.001046 -0.004940 0.000039 0.059230 -0.000013
# 6 -0.000043 0.000012 -0.000012 -0.004059 -0.000013 0.064026
#
#
# Mechanical properties :
#
#
# Convention : Reuss Voigt Hill
#
# Bulk Modulus (GPa) = 24.38862 42.50292 33.44577
# Shear Modulus (GPa) = 18.47996 24.69694 21.58845
#
# Velocity S-wave (km/s) = 3.08695 3.56862 3.33649
# Velocity P-wave (km/s) = 5.02809 6.23673 5.66474
#
# Compressibility (1/GPa) = 0.04100273
#
# Stress axis : x y z
#
# Youngs Moduli (GPa) = 22.13380 111.53521 71.72925
#
# Poissons Ratio (x) = 0.57902 0.50412
# Poissons Ratio (y) = 0.11490 0.09488
# Poissons Ratio (z) = 0.15556 0.14753
#
# Static dielectric constant tensor:
#      x y z
#    x 2.818600 -0.000050 0.094490 
#    y -0.000050 3.867660 -0.000200 
#    z 0.094490 -0.000200 3.913570 
# 
# 
# High freq. dielectric constant tensor:
#      x y z
#    x 1.664880 0.000000 0.007880 
#    y 0.000000 1.776790 -0.000020 
#    z 0.007880 -0.000020 1.776430 
# 
# From -- ./inp_files/111047.got.cif
#   From: 2010.06.25/outbox.cif.g09.slc.cpg/sg12_56_cif.got.tgz:111047.got - 2010.06.28 00:19:55.
