data_PCOD8081384
_publ_section_title
;
Structure prediction by ZEFSAII (Michael W. Deem and Ramdas Pophale) SiO2 
 PCOD8081384
Probable space group: C 2/M
;
_chemical_formula_sum "Si O2"
_cell_formula_units_Z 64
_cell_length_a 20.688166
_cell_length_b 9.375308
_cell_length_c 20.320908
_cell_angle_alpha 90.000000
_cell_angle_beta 80.497523
_cell_angle_gamma 90.000000
_cell_volume 3887.319141
_symmetry_space_group_name_H-M "C 2/M"
_symmetry_group_IT_number 12
_symmetry_cell_setting 'monoclinic'
loop_
_space_group_symop_operation_xyz
x,y,z
-x,y,-z
-x,-y,-z
x,-y,z
1/2+x,1/2+y,z
1/2-x,1/2+y,-z
1/2-x,1/2-y,-z
1/2+x,1/2-y,z
loop_
_atom_site_type_symbol
_atom_site_label
_atom_site_fract_x
_atom_site_fract_y
_atom_site_fract_z
Si Si1 0.821048 0.661051 0.058426
Si Si2 0.312279 0.666624 0.463966
Si Si3 0.347647 0.841976 0.810096
Si Si4 0.864345 0.332414 0.660760
Si Si5 0.807392 0.840073 0.182234
Si Si6 0.718172 0.332661 0.673636
Si Si7 0.834385 0.160735 0.932530
Si Si8 0.929523 0.167408 0.538160
O O1 0.848443 0.500000 0.053715
O O2 0.841342 0.736317 0.123579
O O3 0.743316 0.660623 0.063166
O O4 0.854091 0.748287 0.993330
O O5 0.297505 0.500000 0.475256
O O6 0.250000 0.750000 0.500000
O O7 0.323136 0.703948 0.384814
O O8 0.376772 0.714159 0.492052
O O9 0.379598 0.798854 0.734801
O O10 0.269903 0.844748 0.815943
O O11 0.368917 0.730507 0.862798
O O12 0.371523 0.000000 0.826991
O O13 0.870118 0.500000 0.644867
O O14 0.792088 0.271744 0.654232
O O15 0.917022 0.248876 0.608300
O O16 0.819031 0.776259 0.254296
O O17 0.836511 0.000000 0.168924
O O18 0.726617 0.500000 0.684223
O O19 0.860812 0.000000 0.936286
O O20 0.000000 0.214662 0.500000
O O21 0.926464 0.000000 0.552970
#
# Coordination Sequence:
#
# PCOD8081384 Si02
#       8
#     8   8   8   8   8   8   8   8
#     4   9  15  21  29  43  67  98 131 166 201 241
#     4  10  18  30  48  66  86 113 146 185 223 264
#     4   8  14  23  35  51  71  95 127 171 214 248
#     4   9  16  28  45  62  80 106 143 182 219 261
#     4   8  13  22  34  48  68  95 126 164 208 251
#     4   8  14  25  42  61  79 101 137 181 219 254
#     4   9  15  21  30  45  66  97 135 168 199 243
#     4  10  21  33  44  64  93 120 144 177 226 274
#
# _framework density 16.463788999999998
#
# number of rings (size 3 to 8) (size 9 to 14) (size 15 to 20)
#    0.000    3.125    1.250    2.250    0.000    3.750 
#    0.000    2.500    0.000    0.000    0.000    0.000 
#    0.000    0.000    0.000    1.125    0.000   24.750 
#
# Total GULP energy -396605.193750 kJ/mol
# GULP energy per Si atom -12393.912305 kJ/mol
# Density = 1.642632 g / cm^3
# Si number density = 16.463789 Si / 1000 Ang^3
#
#
#
# Elastic Constant Matrix: (Units=GPa)
#
#
# Indices 1 2 3 4 5 6 
#
# 1 43.0069 22.3099 35.2496 0.0000 -1.3982 0.0000
# 2 22.3099 90.0213 75.1616 0.0000 -0.8695 0.0000
# 3 35.2496 75.1616 164.2583 0.0000 2.5210 0.0000
# 4 0.0000 0.0000 0.0000 32.2145 0.0000 -2.6738
# 5 -1.3982 -0.8695 2.5210 0.0000 10.0681 0.0000
# 6 0.0000 0.0000 0.0000 -2.6738 0.0000 9.1029
#
#
#
# Elastic Compliance Matrix: (Units=1/GPa)
#
#
# Indices 1 2 3 4 5 6 
#
# 1 0.029019 -0.003042 -0.004912 0.000000 0.004997 0.000000
# 2 -0.003042 0.018428 -0.007828 0.000000 0.003129 0.000000
# 3 -0.004912 -0.007828 0.010786 0.000000 -0.004059 0.000000
# 4 0.000000 0.000000 0.000000 0.031818 0.000000 0.009346
# 5 0.004997 0.003129 -0.004059 0.000000 0.101304 0.000000
# 6 0.000000 0.000000 0.000000 0.009346 0.000000 0.112600
#
#
# Mechanical properties :
#
#
# Convention : Reuss Voigt Hill
#
# Bulk Modulus (GPa) = 37.49614 62.52541 50.01077
# Shear Modulus (GPa) = 14.51767 21.24814 17.88291
#
# Velocity S-wave (km/s) = 2.97272 3.59639 3.29932
# Velocity P-wave (km/s) = 5.88278 7.43675 6.70494
#
# Compressibility (1/GPa) = 0.02666941
#
# Stress axis : x y z
#
# Youngs Moduli (GPa) = 34.46053 54.26501 92.71190
#
# Poissons Ratio (x) = 0.16509 0.45540
# Poissons Ratio (y) = 0.10484 0.72570
# Poissons Ratio (z) = 0.16927 0.42476
#
# Static dielectric constant tensor:
#      x y z
#    x 2.477510 0.000000 0.127390 
#    y 0.000000 3.109760 0.000000 
#    z 0.127390 0.000000 3.520850 
# 
# 
# High freq. dielectric constant tensor:
#      x y z
#    x 1.548980 0.000000 0.008600 
#    y 0.000000 1.626460 0.000000 
#    z 0.008600 0.000000 1.655550 
# 
# From -- ./inp_files/319096.got.cif
#   From: 2010.06.25/outbox.cif.g09.slc.cpg/sg12_160_cif.got.tgz:319096.got - 2010.06.28 00:19:55.
