data_PCOD8081345
_publ_section_title
;
Structure prediction by ZEFSAII (Michael W. Deem and Ramdas Pophale) SiO2 
 PCOD8081345
Probable space group: C 2/M
;
_chemical_formula_sum "Si O2"
_cell_formula_units_Z 56
_cell_length_a 22.426982
_cell_length_b 13.952831
_cell_length_c 14.704444
_cell_angle_alpha 90.000000
_cell_angle_beta 49.030391
_cell_angle_gamma 90.000000
_cell_volume 3474.255715
_symmetry_space_group_name_H-M "C 2/M"
_symmetry_group_IT_number 12
_symmetry_cell_setting 'monoclinic'
loop_
_space_group_symop_operation_xyz
x,y,z
-x,y,-z
-x,-y,-z
x,-y,z
1/2+x,1/2+y,z
1/2-x,1/2+y,-z
1/2-x,1/2-y,-z
1/2+x,1/2-y,z
loop_
_atom_site_type_symbol
_atom_site_label
_atom_site_fract_x
_atom_site_fract_y
_atom_site_fract_z
Si Si1 0.090981 0.389351 0.140834
Si Si2 0.199363 0.390548 0.197553
Si Si3 0.852573 0.229417 0.254097
Si Si4 0.500000 0.606455 0.107980
Si Si5 0.647427 0.270583 0.959244
Si Si6 0.199363 0.390548 0.403720
Si Si7 0.409019 0.110649 0.322796
O O1 0.099792 0.500000 0.104481
O O2 0.124973 0.370084 0.207471
O O3 1.000000 0.357120 0.231530
O O4 0.141210 0.330246 0.017107
O O5 0.229439 0.500000 0.157535
O O6 0.270375 0.320803 0.098541
O O7 0.171660 0.370344 0.328340
O O8 0.922271 0.160907 0.220112
O O9 0.860693 0.250048 0.139307
O O10 0.770375 0.179197 0.360710
O O11 0.858790 0.330246 0.299527
O O12 0.500000 0.500000 0.150352
O O13 0.500000 0.600177 0.000000
O O14 0.577729 0.660907 0.064653
O O15 0.229439 0.500000 0.383587
O O16 0.124973 0.370084 0.542583
O O17 0.400208 0.000000 0.304065
#
# Coordination Sequence:
#
# PCOD8081345 Si02
#       7
#     8   8   8   8   8   8   8
#     4  10  20  32  46  67  96 127 157 187 221 271
#     4   9  18  32  50  70  91 118 154 197 238 269
#     4  10  18  30  47  68  95 123 151 187 230 275
#     4   9  16  26  43  67  92 117 145 181 227 274
#     4  10  18  30  47  68  95 123 151 187 230 275
#     4   9  18  32  50  70  91 118 154 197 238 269
#     4  10  20  32  46  67  96 127 157 187 221 271
#
# _framework density 16.118559999999999
#
# number of rings (size 3 to 8) (size 9 to 14) (size 15 to 20)
#    0.000    2.429    1.429    1.714    0.000    4.571 
#    0.000    4.286    0.000    0.000    0.000    0.000 
#    0.000    1.143    0.000    0.000    0.000    0.000 
#
# Total GULP energy -347220.304949 kJ/mol
# GULP energy per Si atom -12400.725177 kJ/mol
# Density = 1.608187 g / cm^3
# Si number density = 16.118560 Si / 1000 Ang^3
#
#
#
# Elastic Constant Matrix: (Units=GPa)
#
#
# Indices 1 2 3 4 5 6 
#
# 1 73.1716 42.3821 24.0761 0.0000 0.9852 0.0000
# 2 42.3821 85.4864 42.6046 0.0000 3.5016 0.0000
# 3 24.0761 42.6046 73.2536 0.0000 0.3054 0.0000
# 4 0.0000 0.0000 0.0000 25.3534 0.0000 0.2403
# 5 0.9852 3.5016 0.3054 0.0000 13.8821 0.0000
# 6 0.0000 0.0000 0.0000 0.2403 0.0000 25.3381
#
#
#
# Elastic Compliance Matrix: (Units=1/GPa)
#
#
# Indices 1 2 3 4 5 6 
#
# 1 0.019246 -0.009048 -0.001067 0.000000 0.000940 0.000000
# 2 -0.009048 0.020945 -0.009190 0.000000 -0.004439 0.000000
# 3 -0.001067 -0.009190 0.019338 0.000000 0.001968 0.000000
# 4 0.000000 0.000000 0.000000 0.039446 0.000000 -0.000374
# 5 0.000940 -0.004439 0.001968 0.000000 0.073045 0.000000
# 6 0.000000 0.000000 0.000000 -0.000374 0.000000 0.039470
#
#
# Mechanical properties :
#
#
# Convention : Reuss Voigt Hill
#
# Bulk Modulus (GPa) = 47.80105 50.00414 48.90260
# Shear Modulus (GPa) = 19.44970 21.10464 20.27717
#
# Velocity S-wave (km/s) = 3.47748 3.62240 3.55068
# Velocity P-wave (km/s) = 6.77083 6.97035 6.87131
#
# Compressibility (1/GPa) = 0.02092004
#
# Stress axis : x y z
#
# Youngs Moduli (GPa) = 51.95921 47.74305 51.71092
#
# Poissons Ratio (x) = 0.43200 0.05517
# Poissons Ratio (y) = 0.47015 0.47520
# Poissons Ratio (z) = 0.05543 0.43874
#
# Static dielectric constant tensor:
#      x y z
#    x 2.974860 0.000000 -0.073920 
#    y 0.000000 3.086870 0.000000 
#    z -0.073920 0.000000 2.970170 
# 
# 
# High freq. dielectric constant tensor:
#      x y z
#    x 1.611150 0.000000 -0.009820 
#    y 0.000000 1.620490 0.000000 
#    z -0.009820 0.000000 1.610530 
# 
# From -- ./inp_files/168409.got.cif
#   From: 2010.06.25/outbox.cif.g09.slc.cpg/sg12_85_cif.got.tgz:168409.got - 2010.06.28 00:19:55.
