data_PCOD8081230
_publ_section_title
;
Structure prediction by ZEFSAII (Michael W. Deem and Ramdas Pophale) SiO2 
 PCOD8081230
Probable space group: C 2/M
;
_chemical_formula_sum "Si O2"
_cell_formula_units_Z 36
_cell_length_a 29.124321
_cell_length_b 13.961155
_cell_length_c 23.895062
_cell_angle_alpha 90.000000
_cell_angle_beta 168.466733
_cell_angle_gamma 90.000000
_cell_volume 1942.576784
_symmetry_space_group_name_H-M "C 2/M"
_symmetry_group_IT_number 12
_symmetry_cell_setting 'monoclinic'
loop_
_space_group_symop_operation_xyz
x,y,z
-x,y,-z
-x,-y,-z
x,-y,z
1/2+x,1/2+y,z
1/2-x,1/2+y,-z
1/2-x,1/2-y,-z
1/2+x,1/2-y,z
loop_
_atom_site_type_symbol
_atom_site_label
_atom_site_fract_x
_atom_site_fract_y
_atom_site_fract_z
Si Si1 0.325006 0.286621 0.150564
Si Si2 0.289477 0.500000 0.456887
Si Si3 0.237889 0.000000 0.449878
Si Si4 0.336352 0.806703 0.751878
Si Si5 0.262742 0.000000 0.976972
Si Si6 0.948531 0.204831 0.775686
O O1 0.592012 0.262117 0.477697
O O2 0.278198 0.400254 0.105396
O O3 0.250000 0.250000 0.000000
O O4 0.191411 0.225615 0.037203
O O5 0.178293 0.500000 0.385365
O O6 0.201249 0.411538 0.316653
O O7 0.571722 0.500000 0.798906
O O8 0.082611 0.091910 0.253862
O O9 0.466498 0.000000 0.683187
O O10 0.453907 0.744952 0.844254
O O11 0.500000 0.809381 0.000000
O O12 0.750000 0.250000 0.500000
#
# Coordination Sequence:
#
# PCOD8081230 Si02
#       6
#     8   4   4   8   4   8
#     4  11  20  36  58  86 115 152 200 240 287 346
#     4  10  19  34  58  87 119 152 187 232 293 355
#     4  12  20  35  60  90 112 147 201 245 282 336
#     4  11  23  38  58  88 125 155 188 239 299 350
#     4  10  18  29  53  84 114 145 183 238 288 337
#     4  12  21  37  61  85 115 154 197 242 282 343
#
# _framework density 18.532086
#
# number of rings (size 3 to 8) (size 9 to 14) (size 15 to 20)
#    0.000    0.889    6.667    1.667    0.000    0.889 
#    0.000    0.556    0.000    9.333    0.000    0.000 
#    0.000    0.000    0.000    0.000    0.000    0.000 
#
# Total GULP energy -223118.268238 kJ/mol
# GULP energy per Si atom -12395.459347 kJ/mol
# Density = 1.848991 g / cm^3
# Si number density = 18.532086 Si / 1000 Ang^3
#
#
#
# Elastic Constant Matrix: (Units=GPa)
#
#
# Indices 1 2 3 4 5 6 
#
# 1 120.9926 60.4616 65.6436 0.0264 9.0638 0.0397
# 2 60.4616 133.1270 44.9750 -0.0335 6.1819 0.0214
# 3 65.6436 44.9750 114.8730 0.0579 12.2662 0.0303
# 4 0.0264 -0.0335 0.0579 25.5680 -0.0886 4.0061
# 5 9.0638 6.1819 12.2662 -0.0886 33.6330 -0.0420
# 6 0.0397 0.0214 0.0303 4.0061 -0.0420 27.2769
#
#
#
# Elastic Compliance Matrix: (Units=1/GPa)
#
#
# Indices 1 2 3 4 5 6 
#
# 1 0.013710 -0.004117 -0.006148 -0.000006 -0.000696 -0.000010
# 2 -0.004117 0.009897 -0.001505 0.000021 -0.000161 -0.000003
# 3 -0.006148 -0.001505 0.013112 -0.000035 -0.002849 -0.000004
# 4 -0.000006 0.000021 -0.000035 0.040033 0.000109 -0.005879
# 5 -0.000696 -0.000161 -0.002849 0.000109 0.030989 0.000036
# 6 -0.000010 -0.000003 -0.000004 -0.005879 0.000036 0.037525
#
#
# Mechanical properties :
#
#
# Convention : Reuss Voigt Hill
#
# Bulk Modulus (GPa) = 75.88162 79.01701 77.44931
# Shear Modulus (GPa) = 28.86818 30.48975 29.67896
#
# Velocity S-wave (km/s) = 3.95110 4.06056 4.00620
# Velocity P-wave (km/s) = 7.86447 8.04454 7.95502
#
# Compressibility (1/GPa) = 0.01317842
#
# Stress axis : x y z
#
# Youngs Moduli (GPa) = 72.93768 101.03567 76.26474
#
# Poissons Ratio (x) = 0.41599 0.46891
# Poissons Ratio (y) = 0.30031 0.11479
# Poissons Ratio (z) = 0.44845 0.15207
#
# Static dielectric constant tensor:
#      x y z
#    x 3.554540 0.001190 0.549770 
#    y 0.001190 4.196930 0.001430 
#    z 0.549770 0.001430 3.500370 
# 
# 
# High freq. dielectric constant tensor:
#      x y z
#    x 1.708670 -0.000030 0.040040 
#    y -0.000030 1.735300 -0.000040 
#    z 0.040040 -0.000040 1.699040 
# 
# From -- ./inp_files/284203.got.cif
#   From: 2010.06.25/outbox.cif.g09.slc.cpg/sg12_143_cif.got.tgz:284203.got - 2010.06.28 00:19:55.
