data_PCOD8081344
_publ_section_title
;
Structure prediction by ZEFSAII (Michael W. Deem and Ramdas Pophale) SiO2 
 PCOD8081344
Probable space group: C 2/M
;
_chemical_formula_sum "Si O2"
_cell_formula_units_Z 64
_cell_length_a 20.853543
_cell_length_b 8.843555
_cell_length_c 22.830066
_cell_angle_alpha 90.000000
_cell_angle_beta 124.259140
_cell_angle_gamma 90.000000
_cell_volume 3479.819648
_symmetry_space_group_name_H-M "C 2/M"
_symmetry_group_IT_number 12
_symmetry_cell_setting 'monoclinic'
loop_
_space_group_symop_operation_xyz
x,y,z
-x,y,-z
-x,-y,-z
x,-y,z
1/2+x,1/2+y,z
1/2-x,1/2+y,-z
1/2-x,1/2-y,-z
1/2+x,1/2-y,z
loop_
_atom_site_type_symbol
_atom_site_label
_atom_site_fract_x
_atom_site_fract_y
_atom_site_fract_z
Si Si1 0.936191 0.179772 0.795285
Si Si2 0.120204 0.320292 0.574764
Si Si3 0.305781 0.179404 0.194684
Si Si4 0.262430 0.680250 0.719016
Si Si5 0.708822 0.679567 0.034194
Si Si6 0.020850 0.679419 0.420152
Si Si7 0.966638 0.179879 0.043892
Si Si8 0.018066 0.320574 0.726529
O O1 0.848486 0.243422 0.752069
O O2 0.980869 0.240234 0.875699
O O3 0.976724 0.241270 0.758735
O O4 0.937615 0.000000 0.794245
O O5 0.119093 0.500000 0.576392
O O6 0.205620 0.262135 0.637395
O O7 0.096028 0.265649 0.496645
O O8 0.057193 0.258390 0.589018
O O9 0.270256 0.244901 0.236512
O O10 0.252962 0.238489 0.114476
O O11 0.393338 0.236674 0.230554
O O12 0.305197 0.000000 0.197356
O O13 0.264560 0.500000 0.722615
O O14 0.712233 0.500000 0.031052
O O15 0.750000 0.750000 0.000000
O O16 0.620704 0.738809 0.991960
O O17 0.016205 0.500000 0.417868
O O18 0.024930 0.735131 0.355182
O O19 0.968053 0.000000 0.042653
O O20 0.000000 0.245082 0.000000
O O21 0.013486 0.500000 0.732119
#
# Coordination Sequence:
#
# PCOD8081344 Si02
#       8
#     8   8   8   8   8   8   8   8
#     4  10  20  31  46  68  94 121 149 183 225 271
#     4   8  12  21  40  67  93 111 142 192 230 251
#     4   9  16  27  46  69  87 110 150 193 226 255
#     4   9  15  26  44  67  90 113 148 193 226 252
#     4  10  19  30  46  67  91 116 145 184 226 268
#     4   8  13  22  40  67  93 115 142 184 229 261
#     4   9  17  31  49  67  87 117 156 191 222 261
#     4  10  18  30  47  68  95 122 147 180 226 274
#
# _framework density 18.391756999999998
#
# number of rings (size 3 to 8) (size 9 to 14) (size 15 to 20)
#    0.000    2.875    1.250    2.250    0.000    3.000 
#    0.000    0.625    0.000    4.500    0.000    1.750 
#    0.000    0.000    0.000    0.000    0.000    0.000 
#
# Total GULP energy -396611.454638 kJ/mol
# GULP energy per Si atom -12394.107957 kJ/mol
# Density = 1.834990 g / cm^3
# Si number density = 18.391757 Si / 1000 Ang^3
#
#
#
# Elastic Constant Matrix: (Units=GPa)
#
#
# Indices 1 2 3 4 5 6 
#
# 1 164.6189 12.6458 103.9508 0.0000 5.3908 0.0000
# 2 12.6458 6.4584 14.2693 0.0000 -0.4329 0.0000
# 3 103.9508 14.2693 207.6424 0.0000 10.5804 0.0000
# 4 0.0000 0.0000 0.0000 10.2982 0.0000 -8.0434
# 5 5.3908 -0.4329 10.5804 0.0000 34.1898 0.0000
# 6 0.0000 0.0000 0.0000 -8.0434 0.0000 19.7879
#
#
#
# Elastic Compliance Matrix: (Units=1/GPa)
#
#
# Indices 1 2 3 4 5 6 
#
# 1 0.009345 -0.009462 -0.004010 0.000000 -0.000352 0.000000
# 2 -0.009462 0.193478 -0.008900 0.000000 0.006696 0.000000
# 3 -0.004010 -0.008900 0.007528 0.000000 -0.001810 0.000000
# 4 0.000000 0.000000 0.000000 0.142274 0.000000 0.057832
# 5 -0.000352 0.006696 -0.001810 0.000000 0.029949 0.000000
# 6 0.000000 0.000000 0.000000 0.057832 0.000000 0.074043
#
#
# Mechanical properties :
#
#
# Convention : Reuss Voigt Hill
#
# Bulk Modulus (GPa) = 6.03844 71.16127 38.59986
# Shear Modulus (GPa) = 8.98370 29.37876 19.18123
#
# Velocity S-wave (km/s) = 2.21252 4.00107 3.23294
# Velocity P-wave (km/s) = 3.13326 7.75375 5.91346
#
# Compressibility (1/GPa) = 0.16560577
#
# Stress axis : x y z
#
# Youngs Moduli (GPa) = 107.00435 5.16856 132.84578
#
# Poissons Ratio (x) = 0.04890 0.53276
# Poissons Ratio (y) = 1.01244 1.18238
# Poissons Ratio (z) = 0.42913 0.04600
#
# Static dielectric constant tensor:
#      x y z
#    x 3.450510 0.000000 0.173530 
#    y 0.000000 2.680210 0.000000 
#    z 0.173530 0.000000 4.050440 
# 
# 
# High freq. dielectric constant tensor:
#      x y z
#    x 1.709260 0.000000 0.004650 
#    y 0.000000 1.638110 0.000000 
#    z 0.004650 0.000000 1.738410 
# 
# From -- ./inp_files/315338.got.cif
#   From: 2010.06.25/outbox.cif.g09.slc.cpg/sg12_158_cif.got.tgz:315338.got - 2010.06.28 00:19:55.
