data_PCOD8081167
_publ_section_title
;
Structure prediction by ZEFSAII (Michael W. Deem and Ramdas Pophale) SiO2 
 PCOD8081167
Probable space group: C 2/M
;
_chemical_formula_sum "Si O2"
_cell_formula_units_Z 48
_cell_length_a 20.679861
_cell_length_b 17.646870
_cell_length_c 11.852239
_cell_angle_alpha 90.000000
_cell_angle_beta 39.009701
_cell_angle_gamma 90.000000
_cell_volume 2722.565238
_symmetry_space_group_name_H-M "C 2/M"
_symmetry_group_IT_number 12
_symmetry_cell_setting 'monoclinic'
loop_
_space_group_symop_operation_xyz
x,y,z
-x,y,-z
-x,-y,-z
x,-y,z
1/2+x,1/2+y,z
1/2-x,1/2+y,-z
1/2-x,1/2-y,-z
1/2+x,1/2-y,z
loop_
_atom_site_type_symbol
_atom_site_label
_atom_site_fract_x
_atom_site_fract_y
_atom_site_fract_z
Si Si1 0.233626 0.085414 0.518379
Si Si2 0.116092 0.337818 0.857800
Si Si3 0.861944 0.089218 0.917783
Si Si4 0.427182 0.415622 0.452416
Si Si5 0.615947 0.658983 0.873268
Si Si6 0.245784 0.088975 0.155538
O O1 0.320681 0.132099 0.335027
O O2 0.128773 0.085458 0.591243
O O3 0.204514 0.122693 0.676341
O O4 0.274098 0.000000 0.482828
O O5 0.123183 0.248126 0.849833
O O6 0.155716 0.369734 0.924671
O O7 0.000000 0.365794 0.000000
O O8 0.764953 0.102562 0.964647
O O9 0.962045 0.122642 0.716565
O O10 0.875003 0.000000 0.928364
O O11 0.849178 0.135931 0.048800
O O12 0.449025 0.500000 0.466090
O O13 0.355804 0.376542 0.644198
O O14 0.500000 0.630594 0.000000
O O15 0.255754 0.000000 0.171394
#
# Coordination Sequence:
#
# PCOD8081167 Si02
#       6
#     8   8   8   8   8   8
#     4  10  19  33  55  79 103 134 175 216 258 304
#     4  10  22  37  53  74 102 141 181 220 251 295
#     4  10  18  29  50  78 109 137 164 206 261 317
#     4   8  14  26  47  75 104 128 157 204 255 304
#     4  11  21  33  51  79 114 143 162 200 266 329
#     4   9  18  32  51  76 101 134 179 218 253 294
#
# _framework density 17.630431999999999
#
# number of rings (size 3 to 8) (size 9 to 14) (size 15 to 20)
#    0.000    2.333    1.667    3.000    0.000    4.667 
#    0.000    0.000    0.000    1.000    0.000    3.500 
#    0.000    0.000    0.000    0.000    0.000    0.000 
#
# Total GULP energy -297431.269287 kJ/mol
# GULP energy per Si atom -12392.969554 kJ/mol
# Density = 1.759030 g / cm^3
# Si number density = 17.630432 Si / 1000 Ang^3
#
#
#
# Elastic Constant Matrix: (Units=GPa)
#
#
# Indices 1 2 3 4 5 6 
#
# 1 114.1694 39.4311 66.7658 0.0000 9.9441 0.0000
# 2 39.4311 67.3514 41.6854 0.0000 1.0301 0.0000
# 3 66.7658 41.6854 86.2181 0.0000 -0.3553 0.0000
# 4 0.0000 0.0000 0.0000 25.7913 0.0000 1.5743
# 5 9.9441 1.0301 -0.3553 0.0000 23.8431 0.0000
# 6 0.0000 0.0000 0.0000 1.5743 0.0000 21.5007
#
#
#
# Elastic Compliance Matrix: (Units=1/GPa)
#
#
# Indices 1 2 3 4 5 6 
#
# 1 0.017497 -0.002463 -0.012389 0.000000 -0.007376 0.000000
# 2 -0.002463 0.021562 -0.008518 0.000000 -0.000031 0.000000
# 3 -0.012389 -0.008518 0.025335 0.000000 0.005912 0.000000
# 4 0.000000 0.000000 0.000000 0.038947 0.000000 -0.002852
# 5 -0.007376 -0.000031 0.005912 0.000000 0.045106 0.000000
# 6 0.000000 0.000000 0.000000 -0.002852 0.000000 0.046719
#
#
# Mechanical properties :
#
#
# Convention : Reuss Voigt Hill
#
# Bulk Modulus (GPa) = 56.64327 62.61149 59.62738
# Shear Modulus (GPa) = 20.17842 22.21746 21.19794
#
# Velocity S-wave (km/s) = 3.38675 3.55375 3.47125
# Velocity P-wave (km/s) = 6.89139 7.24080 7.06826
#
# Compressibility (1/GPa) = 0.01765435
#
# Stress axis : x y z
#
# Youngs Moduli (GPa) = 57.15283 46.37842 39.47150
#
# Poissons Ratio (x) = 0.11423 0.48901
# Poissons Ratio (y) = 0.14077 0.33620
# Poissons Ratio (z) = 0.70806 0.39503
#
# Static dielectric constant tensor:
#      x y z
#    x 3.299570 0.000000 0.029060 
#    y 0.000000 3.056710 0.000000 
#    z 0.029060 0.000000 3.210870 
# 
# 
# High freq. dielectric constant tensor:
#      x y z
#    x 1.681040 0.000000 0.010530 
#    y 0.000000 1.656290 0.000000 
#    z 0.010530 0.000000 1.670130 
# 
# From -- ./inp_files/131750.got.cif
#   From: 2010.06.25/outbox.cif.g09.slc.cpg/sg12_66_cif.got.tgz:131750.got - 2010.06.28 00:19:55.
