data_PCOD8081472
_publ_section_title
;
Structure prediction by ZEFSAII (Michael W. Deem and Ramdas Pophale) SiO2 
 PCOD8081472
Probable space group: C 2/M
;
_chemical_formula_sum "Si O2"
_cell_formula_units_Z 56
_cell_length_a 9.345171
_cell_length_b 22.456369
_cell_length_c 17.429186
_cell_angle_alpha 90.000000
_cell_angle_beta 59.917822
_cell_angle_gamma 90.000000
_cell_volume 3165.004256
_symmetry_space_group_name_H-M "C 2/M"
_symmetry_group_IT_number 12
_symmetry_cell_setting 'monoclinic'
loop_
_space_group_symop_operation_xyz
x,y,z
-x,y,-z
-x,-y,-z
x,-y,z
1/2+x,1/2+y,z
1/2-x,1/2+y,-z
1/2-x,1/2-y,-z
1/2+x,1/2-y,z
loop_
_atom_site_type_symbol
_atom_site_label
_atom_site_fract_x
_atom_site_fract_y
_atom_site_fract_z
Si Si1 0.699437 0.357610 0.286590
Si Si2 0.199805 0.719697 0.265604
Si Si3 0.927861 0.382957 0.597658
Si Si4 0.062703 0.760026 0.149608
Si Si5 0.739608 0.066941 0.581441
Si Si6 0.615285 0.829397 0.906890
Si Si7 0.393863 0.432232 0.379835
O O1 0.675249 0.287079 0.303155
O O2 0.752824 0.386142 0.352145
O O3 0.831551 0.368756 0.181437
O O4 0.528688 0.388086 0.308227
O O5 0.098746 0.674379 0.343462
O O6 0.119907 0.715255 0.202203
O O7 0.395319 0.703709 0.216926
O O8 0.767402 0.422396 0.627152
O O9 0.000000 0.355937 0.500000
O O10 0.054427 0.429795 0.599764
O O11 0.217186 0.805066 0.096316
O O12 0.009143 0.723374 0.088205
O O13 0.866679 0.082082 0.477902
O O14 0.773310 0.000000 0.602683
O O15 0.500000 0.864636 0.000000
O O16 0.452442 0.500000 0.354517
#
# Coordination Sequence:
#
# PCOD8081472 Si02
#       7
#     8   8   8   8   8   8   8
#     4  10  20  32  49  72  98 128 156 193 240 288
#     4  10  18  32  47  72 103 128 156 190 240 298
#     4  10  19  30  47  71  99 127 157 199 244 282
#     4   8  17  30  47  66  96 132 159 188 228 282
#     4  10  20  34  51  70  93 126 169 206 233 271
#     4  10  18  30  48  72  98 125 159 195 235 285
#     4  10  20  34  51  70  93 126 169 206 233 271
#
# _framework density 17.6935
#
# number of rings (size 3 to 8) (size 9 to 14) (size 15 to 20)
#    0.000    2.571    0.000    5.143    0.000    4.000 
#    0.000    3.571    0.000    1.714    0.000    0.000 
#    0.000    4.571    0.000    0.000    0.000    0.000 
#
# Total GULP energy -346875.970132 kJ/mol
# GULP energy per Si atom -12388.427505 kJ/mol
# Density = 1.765323 g / cm^3
# Si number density = 17.693500 Si / 1000 Ang^3
#
#
#
# Elastic Constant Matrix: (Units=GPa)
#
#
# Indices 1 2 3 4 5 6 
#
# 1 66.9511 2.6623 0.7788 0.0000 -9.7417 0.0000
# 2 2.6623 64.7261 30.2911 0.0000 -6.3219 0.0000
# 3 0.7788 30.2911 86.3266 0.0000 -16.7400 0.0000
# 4 0.0000 0.0000 0.0000 11.4065 0.0000 2.6869
# 5 -9.7417 -6.3219 -16.7400 0.0000 22.1601 0.0000
# 6 0.0000 0.0000 0.0000 2.6869 0.0000 -7.7664
#
#
#
# Elastic Compliance Matrix: (Units=1/GPa)
#
#
# Indices 1 2 3 4 5 6 
#
# 1 0.016130 -0.000645 0.001664 0.000000 0.008164 0.000000
# 2 -0.000645 0.018515 -0.006469 0.000000 0.000112 0.000000
# 3 0.001664 -0.006469 0.015961 0.000000 0.010943 0.000000
# 4 0.000000 0.000000 0.000000 0.081063 0.000000 0.028045
# 5 0.008164 0.000112 0.010943 0.000000 0.057013 0.000000
# 6 0.000000 0.000000 0.000000 0.028045 0.000000 -0.119056
#
#
# Mechanical properties :
#
#
# Convention : Reuss Voigt Hill
#
# Bulk Modulus (GPa) = 25.18527 31.71871 28.45199
# Shear Modulus (GPa) = 53.32705 17.44481 35.38593
#
# Velocity S-wave (km/s) = 5.49589 3.14338 4.47692
# Velocity P-wave (km/s) = 7.38499 5.58034 6.54516
#
# Compressibility (1/GPa) = 0.03970575
#
# Stress axis : x y z
#
# Youngs Moduli (GPa) = 61.99461 54.01132 62.65332
#
# Poissons Ratio (x) = 0.03482 -0.10424
# Poissons Ratio (y) = 0.03997 0.40531
# Poissons Ratio (z) = -0.10315 0.34941
#
# Static dielectric constant tensor:
#      x y z
#    x 3.581250 0.000000 -0.106250 
#    y 0.000000 2.935380 0.000000 
#    z -0.106250 0.000000 3.282250 
# 
# 
# High freq. dielectric constant tensor:
#      x y z
#    x 1.713730 0.000000 -0.005510 
#    y 0.000000 1.645560 0.000000 
#    z -0.005510 0.000000 1.672570 
# 
# From -- ./inp_files/257996.got.cif
#   From: 2010.06.25/outbox.cif.g09.slc.cpg/sg12_129_cif.got.tgz:257996.got - 2010.06.28 00:19:55.
