data_PCOD8081135
_publ_section_title
;
Structure prediction by ZEFSAII (Michael W. Deem and Ramdas Pophale) SiO2 
 PCOD8081135
Probable space group: C 2/M
;
_chemical_formula_sum "Si O2"
_cell_formula_units_Z 56
_cell_length_a 32.581689
_cell_length_b 13.954541
_cell_length_c 9.760829
_cell_angle_alpha 90.000000
_cell_angle_beta 133.978768
_cell_angle_gamma 90.000000
_cell_volume 3193.488089
_symmetry_space_group_name_H-M "C 2/M"
_symmetry_group_IT_number 12
_symmetry_cell_setting 'monoclinic'
loop_
_space_group_symop_operation_xyz
x,y,z
-x,y,-z
-x,-y,-z
x,-y,z
1/2+x,1/2+y,z
1/2-x,1/2+y,-z
1/2-x,1/2-y,-z
1/2+x,1/2-y,z
loop_
_atom_site_type_symbol
_atom_site_label
_atom_site_fract_x
_atom_site_fract_y
_atom_site_fract_z
Si Si1 0.715916 0.397115 0.953629
Si Si2 0.696556 0.394096 0.221900
Si Si3 0.476844 0.110025 0.294541
Si Si4 0.864343 0.708975 0.944008
Si Si5 0.904710 0.610078 0.537158
Si Si6 0.177588 0.612060 0.416854
Si Si7 0.671265 0.799207 0.838091
O O1 0.705672 0.500000 0.853889
O O2 0.683109 0.308347 0.807230
O O3 0.693992 0.409268 0.055250
O O4 0.782812 0.373753 0.113267
O O5 0.685186 0.500000 0.263730
O O6 0.646750 0.316521 0.143451
O O7 0.758117 0.349421 0.409003
O O8 0.500000 0.134324 0.500000
O O9 0.526916 0.121383 0.296255
O O10 0.453449 0.000000 0.238365
O O11 0.429402 0.186388 0.136337
O O12 0.842798 0.633503 0.783190
O O13 0.826192 0.697889 0.991710
O O14 0.888337 0.500000 0.478551
O O15 0.869920 0.653727 0.586332
O O16 0.888639 0.666974 0.361059
O O17 0.179947 0.500000 0.444133
#
# Coordination Sequence:
#
# PCOD8081135 Si02
#       7
#     8   8   8   8   8   8   8
#     4   9  17  29  47  72  99 128 166 204 245 296
#     4   9  18  34  53  73 101 135 165 201 253 301
#     4  10  20  33  50  75 104 132 164 206 250 291
#     4  11  21  32  51  76 104 129 169 210 242 292
#     4  10  19  33  52  70 100 138 165 194 246 305
#     4  10  20  33  51  76 104 131 161 202 250 302
#     4  10  18  29  50  72  94 133 167 200 247 296
#
# _framework density 17.535685000000001
#
# number of rings (size 3 to 8) (size 9 to 14) (size 15 to 20)
#    0.000    2.143    2.857    1.286    0.000    2.286 
#    0.000    2.143    0.000    1.286    0.000    1.000 
#    0.000    0.000    0.000    0.000    0.000    0.000 
#
# Total GULP energy -346908.040542 kJ/mol
# GULP energy per Si atom -12389.572876 kJ/mol
# Density = 1.749577 g / cm^3
# Si number density = 17.535685 Si / 1000 Ang^3
#
#
#
# Elastic Constant Matrix: (Units=GPa)
#
#
# Indices 1 2 3 4 5 6 
#
# 1 58.4452 42.9203 30.8069 0.0000 12.9853 0.0000
# 2 42.9203 78.6864 41.4857 0.0000 16.5058 0.0000
# 3 30.8069 41.4857 77.2232 0.0000 14.7098 0.0000
# 4 0.0000 0.0000 0.0000 25.0199 0.0000 4.5239
# 5 12.9853 16.5058 14.7098 0.0000 25.9329 0.0000
# 6 0.0000 0.0000 0.0000 4.5239 0.0000 20.6011
#
#
#
# Elastic Compliance Matrix: (Units=1/GPa)
#
#
# Indices 1 2 3 4 5 6 
#
# 1 0.029952 -0.013356 -0.003964 0.000000 -0.004248 0.000000
# 2 -0.013356 0.024753 -0.006999 0.000000 -0.005097 0.000000
# 3 -0.003964 -0.006999 0.019131 0.000000 -0.004412 0.000000
# 4 0.000000 0.000000 0.000000 0.041621 0.000000 -0.009140
# 5 -0.004248 -0.005097 -0.004412 0.000000 0.046435 0.000000
# 6 0.000000 0.000000 0.000000 -0.009140 0.000000 0.050548
#
#
# Mechanical properties :
#
#
# Convention : Reuss Voigt Hill
#
# Bulk Modulus (GPa) = 39.68623 49.42007 44.55315
# Shear Modulus (GPa) = 18.55435 20.92024 19.73730
#
# Velocity S-wave (km/s) = 3.25636 3.45774 3.35856
# Velocity P-wave (km/s) = 6.06789 6.64719 6.36413
#
# Compressibility (1/GPa) = 0.02519766
#
# Stress axis : x y z
#
# Youngs Moduli (GPa) = 33.38661 40.39881 52.27063
#
# Poissons Ratio (x) = 0.53959 0.20722
# Poissons Ratio (y) = 0.44593 0.36582
# Poissons Ratio (z) = 0.13236 0.28273
#
# Static dielectric constant tensor:
#      x y z
#    x 3.283440 0.000000 0.064630 
#    y 0.000000 3.790770 0.000000 
#    z 0.064630 0.000000 3.047640 
# 
# 
# High freq. dielectric constant tensor:
#      x y z
#    x 1.666040 0.000000 0.000610 
#    y 0.000000 1.669060 0.000000 
#    z 0.000610 0.000000 1.655830 
# 
# From -- ./inp_files/104728.got.cif
#   From: 2010.06.25/outbox.cif.g09.slc.cpg/sg12_53_cif.got.tgz:104728.got - 2010.06.28 00:19:55.
