data_PCOD8081928
_publ_section_title
;
Structure prediction by ZEFSAII (Michael W. Deem and Ramdas Pophale) SiO2 
 PCOD8081928
Probable space group: C 2/M
;
_chemical_formula_sum "Si O2"
_cell_formula_units_Z 56
_cell_length_a 27.225243
_cell_length_b 13.458320
_cell_length_c 9.168064
_cell_angle_alpha 90.000000
_cell_angle_beta 71.259564
_cell_angle_gamma 90.000000
_cell_volume 3181.140042
_symmetry_space_group_name_H-M "C 2/M"
_symmetry_group_IT_number 12
_symmetry_cell_setting 'monoclinic'
loop_
_space_group_symop_operation_xyz
x,y,z
-x,y,-z
-x,-y,-z
x,-y,z
1/2+x,1/2+y,z
1/2-x,1/2+y,-z
1/2-x,1/2-y,-z
1/2+x,1/2-y,z
loop_
_atom_site_type_symbol
_atom_site_label
_atom_site_fract_x
_atom_site_fract_y
_atom_site_fract_z
Si Si1 0.276791 0.885222 0.059192
Si Si2 0.444147 0.889326 0.078030
Si Si3 0.290702 0.765051 0.332448
Si Si4 0.119250 0.713417 0.087125
Si Si5 0.681407 0.384713 0.934090
Si Si6 0.122219 0.609934 0.598993
Si Si7 0.056581 0.616293 0.389498
O O1 0.268279 0.835805 0.226167
O O2 0.285650 0.000000 0.080812
O O3 0.326948 0.842191 0.927208
O O4 0.229055 0.865517 0.997627
O O5 0.431845 0.894792 0.260577
O O6 0.444658 0.000000 0.006868
O O7 0.500000 0.838520 0.000000
O O8 0.398186 0.824646 0.054297
O O9 0.250000 0.750000 0.500000
O O10 0.306091 0.661642 0.237483
O O11 0.339653 0.810107 0.369757
O O12 0.072213 0.687133 0.240105
O O13 0.131543 0.830925 0.056960
O O14 0.668505 0.500000 0.925797
O O15 0.148512 0.500000 0.574788
O O16 0.103221 0.638853 0.456728
O O17 0.055676 0.500000 0.345917
O O18 0.000000 0.649473 0.500000
#
# Coordination Sequence:
#
# PCOD8081928 Si02
#       7
#     8   8   8   8   8   8   8
#     4  10  20  36  56  80 107 141 182 221 266 325
#     4  10  18  30  52  81 107 134 170 214 268 329
#     4  11  22  34  54  80 110 141 179 221 274 328
#     4  11  19  34  57  77 105 145 180 214 264 322
#     4  10  23  39  56  78 107 145 192 233 261 307
#     4  10  20  33  50  78 113 141 166 209 270 331
#     4  10  21  34  52  84 117 141 170 213 269 335
#
# _framework density 17.603752
#
# number of rings (size 3 to 8) (size 9 to 14) (size 15 to 20)
#    0.000    1.714    2.857    4.286    4.000    3.429 
#    0.000    0.000    0.000    0.857    0.000    0.000 
#    0.000    0.000    0.000    0.000    0.000    0.000 
#
# Total GULP energy -347009.201491 kJ/mol
# GULP energy per Si atom -12393.185768 kJ/mol
# Density = 1.756369 g / cm^3
# Si number density = 17.603752 Si / 1000 Ang^3
#
#
#
# Elastic Constant Matrix: (Units=GPa)
#
#
# Indices 1 2 3 4 5 6 
#
# 1 59.8415 44.3374 23.2667 0.0000 -7.4424 0.0000
# 2 44.3374 112.4122 41.5632 0.0000 -7.9609 0.0000
# 3 23.2667 41.5632 104.8649 0.0000 -17.9149 0.0000
# 4 0.0000 0.0000 0.0000 20.9913 0.0000 0.3834
# 5 -7.4424 -7.9609 -17.9149 0.0000 29.9730 0.0000
# 6 0.0000 0.0000 0.0000 0.3834 0.0000 27.5833
#
#
#
# Elastic Compliance Matrix: (Units=1/GPa)
#
#
# Indices 1 2 3 4 5 6 
#
# 1 0.024122 -0.008804 -0.001380 0.000000 0.002827 0.000000
# 2 -0.008804 0.013639 -0.003572 0.000000 -0.000698 0.000000
# 3 -0.001380 -0.003572 0.012293 0.000000 0.006056 0.000000
# 4 0.000000 0.000000 0.000000 0.047651 0.000000 -0.000662
# 5 0.002827 -0.000698 0.006056 0.000000 0.037499 0.000000
# 6 0.000000 0.000000 0.000000 -0.000662 0.000000 0.036263
#
#
# Mechanical properties :
#
#
# Convention : Reuss Voigt Hill
#
# Bulk Modulus (GPa) = 44.36011 55.05037 49.70524
# Shear Modulus (GPa) = 24.21404 26.90627 25.56016
#
# Velocity S-wave (km/s) = 3.71280 3.91377 3.81461
# Velocity P-wave (km/s) = 6.60559 7.19467 6.90641
#
# Compressibility (1/GPa) = 0.02254277
#
# Stress axis : x y z
#
# Youngs Moduli (GPa) = 41.45667 73.31697 81.35018
#
# Poissons Ratio (x) = 0.64546 0.11224
# Poissons Ratio (y) = 0.36497 0.29058
# Poissons Ratio (z) = 0.05720 0.26189
#
# Static dielectric constant tensor:
#      x y z
#    x 3.291680 0.000000 -0.032490 
#    y 0.000000 3.190250 0.000000 
#    z -0.032490 0.000000 3.405030 
# 
# 
# High freq. dielectric constant tensor:
#      x y z
#    x 1.681360 0.000000 0.006740 
#    y 0.000000 1.654290 0.000000 
#    z 0.006740 0.000000 1.686710 
# 
# From -- ./inp_files/103981.got.cif
#   From: 2010.06.25/outbox.cif.g09.slc.cpg/sg12_52_cif.got.tgz:103981.got - 2010.06.28 00:19:55.
