data_PCOD8081281
_publ_section_title
;
Structure prediction by ZEFSAII (Michael W. Deem and Ramdas Pophale) SiO2 
 PCOD8081281
Probable space group: C 2/M
;
_chemical_formula_sum "Si O2"
_cell_formula_units_Z 64
_cell_length_a 28.932544
_cell_length_b 8.688381
_cell_length_c 16.941441
_cell_angle_alpha 90.000000
_cell_angle_beta 65.645091
_cell_angle_gamma 90.000000
_cell_volume 3879.700937
_symmetry_space_group_name_H-M "C 2/M"
_symmetry_group_IT_number 12
_symmetry_cell_setting 'monoclinic'
loop_
_space_group_symop_operation_xyz
x,y,z
-x,y,-z
-x,-y,-z
x,-y,z
1/2+x,1/2+y,z
1/2-x,1/2+y,-z
1/2-x,1/2-y,-z
1/2+x,1/2-y,z
loop_
_atom_site_type_symbol
_atom_site_label
_atom_site_fract_x
_atom_site_fract_y
_atom_site_fract_z
Si Si1 0.049116 0.682862 0.918064
Si Si2 0.926411 0.815714 0.584619
Si Si3 0.250438 0.320615 0.912973
Si Si4 0.638156 0.821606 0.966936
Si Si5 0.914452 0.172049 0.856611
Si Si6 0.019309 0.320533 0.772958
Si Si7 0.526153 0.183912 0.593689
Si Si8 0.345324 0.672805 0.756948
O O1 0.044923 0.500000 0.918636
O O2 0.101572 0.735962 0.922016
O O3 0.049654 0.747826 0.827400
O O4 0.000000 0.748398 0.000000
O O5 0.929715 0.754436 0.492623
O O6 0.872013 0.758439 0.659114
O O7 0.971795 0.743799 0.603570
O O8 0.931162 0.000000 0.584293
O O9 0.262572 0.500000 0.916564
O O10 0.197271 0.294768 0.904580
O O11 0.294645 0.243278 0.826597
O O12 0.250000 0.250000 0.000000
O O13 0.627403 0.000000 0.993303
O O14 0.628046 0.721561 0.051292
O O15 0.890216 0.178457 0.788215
O O16 0.960288 0.290530 0.829761
O O17 0.933853 0.000000 0.861690
O O18 0.028307 0.500000 0.763063
O O19 0.036513 0.253603 0.675707
O O20 0.526674 0.000000 0.588396
O O21 0.328608 0.500000 0.748935
#
# Coordination Sequence:
#
# PCOD8081281 Si02
#       8
#     8   8   8   8   8   8   8   8
#     4   9  16  28  46  65  88 117 152 187 218 259
#     4  10  18  30  46  62  87 121 147 171 219 272
#     4  10  19  31  46  66  90 116 151 186 220 260
#     4  10  19  31  47  65  87 120 157 188 219 260
#     4  11  19  28  44  64  93 122 150 185 220 258
#     4  10  19  31  46  64  90 122 152 184 222 262
#     4  10  19  29  43  66  91 112 143 186 222 255
#     4   9  18  30  43  63  90 120 147 180 216 258
#
# _framework density 16.496116000000001
#
# number of rings (size 3 to 8) (size 9 to 14) (size 15 to 20)
#    0.000    2.125    3.750    1.875    0.000    0.500 
#    0.000    2.500    0.000    0.000    0.000    0.875 
#    0.000    0.000    0.000    0.000    0.000    0.000 
#
# Total GULP energy -396497.250946 kJ/mol
# GULP energy per Si atom -12390.539092 kJ/mol
# Density = 1.645857 g / cm^3
# Si number density = 16.496116 Si / 1000 Ang^3
#
#
#
# Elastic Constant Matrix: (Units=GPa)
#
#
# Indices 1 2 3 4 5 6 
#
# 1 85.4037 12.7142 55.2756 0.0000 -8.9359 0.0000
# 2 12.7142 25.8211 25.0621 0.0000 1.7398 0.0000
# 3 55.2756 25.0621 149.1638 0.0000 -12.9479 0.0000
# 4 0.0000 0.0000 0.0000 14.0367 0.0000 -3.7114
# 5 -8.9359 1.7398 -12.9479 0.0000 26.3914 0.0000
# 6 0.0000 0.0000 0.0000 -3.7114 0.0000 11.0878
#
#
#
# Elastic Compliance Matrix: (Units=1/GPa)
#
#
# Indices 1 2 3 4 5 6 
#
# 1 0.015759 -0.003052 -0.005062 0.000000 0.003054 0.000000
# 2 -0.003052 0.048202 -0.007659 0.000000 -0.007969 0.000000
# 3 -0.005062 -0.007659 0.010196 0.000000 0.003793 0.000000
# 4 0.000000 0.000000 0.000000 0.078159 0.000000 0.026162
# 5 0.003054 -0.007969 0.003793 0.000000 0.041311 0.000000
# 6 0.000000 0.000000 0.000000 0.026162 0.000000 0.098946
#
#
# Mechanical properties :
#
#
# Convention : Reuss Voigt Hill
#
# Bulk Modulus (GPa) = 23.46867 49.61027 36.53947
# Shear Modulus (GPa) = 14.77866 21.45896 18.11881
#
# Velocity S-wave (km/s) = 2.99638 3.61064 3.31776
# Velocity P-wave (km/s) = 5.12140 6.89358 6.07249
#
# Compressibility (1/GPa) = 0.04261000
#
# Stress axis : x y z
#
# Youngs Moduli (GPa) = 63.45466 20.74591 98.07721
#
# Poissons Ratio (x) = 0.06332 0.49647
# Poissons Ratio (y) = 0.19369 0.75122
# Poissons Ratio (z) = 0.32121 0.15890
#
# Static dielectric constant tensor:
#      x y z
#    x 3.109180 0.000000 0.018090 
#    y 0.000000 2.952310 0.000000 
#    z 0.018090 0.000000 3.553470 
# 
# 
# High freq. dielectric constant tensor:
#      x y z
#    x 1.604940 0.000000 -0.003880 
#    y 0.000000 1.615680 0.000000 
#    z -0.003880 0.000000 1.637950 
# 
# From -- ./inp_files/294567.got.cif
#   From: 2010.06.25/outbox.cif.g09.slc.cpg/sg12_148_cif.got.tgz:294567.got - 2010.06.28 00:19:55.
