data_PCOD8081515
_publ_section_title
;
Structure prediction by ZEFSAII (Michael W. Deem and Ramdas Pophale) SiO2 
 PCOD8081515
Probable space group: C 2/M
;
_chemical_formula_sum "Si O2"
_cell_formula_units_Z 48
_cell_length_a 34.258577
_cell_length_b 7.891714
_cell_length_c 20.138291
_cell_angle_alpha 90.000000
_cell_angle_beta 152.784097
_cell_angle_gamma 90.000000
_cell_volume 2490.043832
_symmetry_space_group_name_H-M "C 2/M"
_symmetry_group_IT_number 12
_symmetry_cell_setting 'monoclinic'
loop_
_space_group_symop_operation_xyz
x,y,z
-x,y,-z
-x,-y,-z
x,-y,z
1/2+x,1/2+y,z
1/2-x,1/2+y,-z
1/2-x,1/2-y,-z
1/2+x,1/2-y,z
loop_
_atom_site_type_symbol
_atom_site_label
_atom_site_fract_x
_atom_site_fract_y
_atom_site_fract_z
Si Si1 0.248255 0.299220 0.363512
Si Si2 0.924911 0.805547 0.689220
Si Si3 0.132737 0.000000 0.665829
Si Si4 0.993613 0.313393 0.312162
Si Si5 0.678322 0.811813 0.656575
Si Si6 0.947517 0.000000 0.319179
Si Si7 0.072953 0.299680 0.160654
O O1 0.245564 0.500000 0.351791
O O2 0.328908 0.238145 0.529617
O O3 0.252040 0.220635 0.295487
O O4 0.163482 0.230685 0.271173
O O5 0.948424 0.781977 0.801124
O O6 0.994547 0.709362 0.749183
O O7 0.930044 0.000000 0.675653
O O8 0.185207 0.168736 0.724070
O O9 0.124235 0.000000 0.732424
O O10 0.040665 0.000000 0.492404
O O11 0.953877 0.500000 0.265754
O O12 0.086135 0.297187 0.484333
O O13 0.933820 0.168373 0.253596
O O14 0.692675 0.000000 0.708923
O O15 0.074460 0.500000 0.171251
O O16 0.000000 0.239526 0.000000
#
# Coordination Sequence:
#
# PCOD8081515 Si02
#       7
#     8   8   4   8   8   4   8
#     4   9  17  31  49  67  93 130 170 209 246 288
#     4  10  18  30  49  69  92 128 173 209 244 291
#     4   9  16  26  40  62  99 128 156 200 242 297
#     4   9  16  27  43  64  92 126 164 202 238 287
#     4   9  16  26  43  65  90 127 165 199 241 287
#     4   9  16  26  40  64  95 130 160 192 248 297
#     4  10  21  34  47  68  99 132 161 208 256 298
#
# _framework density 19.276769000000002
#
# number of rings (size 3 to 8) (size 9 to 14) (size 15 to 20)
#    0.000    2.667    1.667    1.000    0.000    2.333 
#    0.000    3.333    0.000    0.000    0.000    0.000 
#    0.000    1.333    0.667    0.000    0.000    0.000 
#
# Total GULP energy -297538.400847 kJ/mol
# GULP energy per Si atom -12397.433369 kJ/mol
# Density = 1.923289 g / cm^3
# Si number density = 19.276769 Si / 1000 Ang^3
#
#
#
# Elastic Constant Matrix: (Units=GPa)
#
#
# Indices 1 2 3 4 5 6 
#
# 1 148.6576 70.0952 24.6805 0.0000 -18.0466 0.0000
# 2 70.0952 118.1322 12.5870 0.0000 -8.9508 0.0000
# 3 24.6805 12.5870 38.4052 0.0000 -10.5692 0.0000
# 4 0.0000 0.0000 0.0000 9.2472 0.0000 -3.6576
# 5 -18.0466 -8.9508 -10.5692 0.0000 6.3915 0.0000
# 6 0.0000 0.0000 0.0000 -3.6576 0.0000 25.4954
#
#
#
# Elastic Compliance Matrix: (Units=1/GPa)
#
#
# Indices 1 2 3 4 5 6 
#
# 1 0.012850 -0.005400 0.002598 0.000000 0.033016 0.000000
# 2 -0.005400 0.011760 -0.000088 0.000000 0.001078 0.000000
# 3 0.002598 -0.000088 0.048415 0.000000 0.087273 0.000000
# 4 0.000000 0.000000 0.000000 0.114647 0.000000 0.016447
# 5 0.033016 0.001078 0.087273 0.000000 0.395505 0.000000
# 6 0.000000 0.000000 0.000000 0.016447 0.000000 0.041582
#
#
# Mechanical properties :
#
#
# Convention : Reuss Voigt Hill
#
# Bulk Modulus (GPa) = 14.87071 57.76893 36.31982
# Shear Modulus (GPa) = 7.65753 21.41563 14.53658
#
# Velocity S-wave (km/s) = 1.99525 3.33672 2.74906
# Velocity P-wave (km/s) = 3.61097 6.69911 5.38132
#
# Compressibility (1/GPa) = 0.06724627
#
# Stress axis : x y z
#
# Youngs Moduli (GPa) = 77.82325 85.03331 20.65471
#
# Poissons Ratio (x) = 0.45916 -0.05366
# Poissons Ratio (y) = 0.42023 0.00181
# Poissons Ratio (z) = -0.20219 0.00745
#
# Static dielectric constant tensor:
#      x y z
#    x 3.604110 0.000000 0.023470 
#    y 0.000000 3.640160 0.000000 
#    z 0.023470 0.000000 2.932520 
# 
# 
# High freq. dielectric constant tensor:
#      x y z
#    x 1.752980 0.000000 -0.004550 
#    y 0.000000 1.759290 0.000000 
#    z -0.004550 0.000000 1.674710 
# 
# From -- ./inp_files/295921.got.cif
#   From: 2010.06.25/outbox.cif.g09.slc.cpg/sg12_148_cif.got.tgz:295921.got - 2010.06.28 00:19:55.
