data_PCOD8081583
_publ_section_title
;
Structure prediction by ZEFSAII (Michael W. Deem and Ramdas Pophale) SiO2 
 PCOD8081583
Probable space group: C 2/M
;
_chemical_formula_sum "Si O2"
_cell_formula_units_Z 64
_cell_length_a 31.261144
_cell_length_b 8.945403
_cell_length_c 14.659850
_cell_angle_alpha 90.000000
_cell_angle_beta 118.323451
_cell_angle_gamma 90.000000
_cell_volume 3608.749494
_symmetry_space_group_name_H-M "C 2/M"
_symmetry_group_IT_number 12
_symmetry_cell_setting 'monoclinic'
loop_
_space_group_symop_operation_xyz
x,y,z
-x,y,-z
-x,-y,-z
x,-y,z
1/2+x,1/2+y,z
1/2-x,1/2+y,-z
1/2-x,1/2-y,-z
1/2+x,1/2-y,z
loop_
_atom_site_type_symbol
_atom_site_label
_atom_site_fract_x
_atom_site_fract_y
_atom_site_fract_z
Si Si1 0.362643 0.676679 0.093832
Si Si2 0.220447 0.173872 0.125983
Si Si3 0.829315 0.177025 0.425163
Si Si4 0.831345 0.323715 0.239343
Si Si5 0.718603 0.824736 0.308162
Si Si6 0.945446 0.824312 0.044165
Si Si7 0.863645 0.323119 0.637392
Si Si8 0.555579 0.323447 0.161770
O O1 0.366697 0.500000 0.114757
O O2 0.364717 0.760841 0.192200
O O3 0.407245 0.740237 0.078538
O O4 0.312457 0.720107 0.992899
O O5 0.275670 0.221851 0.161386
O O6 0.200100 0.253462 0.195479
O O7 0.216171 0.000000 0.142051
O O8 0.848363 0.246184 0.349891
O O9 0.773485 0.226585 0.385941
O O10 0.862244 0.244024 0.538229
O O11 0.835292 0.000000 0.427810
O O12 0.838247 0.500000 0.255306
O O13 0.683609 0.770121 0.353631
O O14 0.715548 0.000000 0.291872
O O15 0.999875 0.784319 0.130295
O O16 0.939042 0.000000 0.032210
O O17 0.934040 0.765337 0.930616
O O18 0.864675 0.500000 0.625083
O O19 0.912001 0.270552 0.736614
O O20 0.565873 0.500000 0.182602
#
# Coordination Sequence:
#
# PCOD8081583 Si02
#       8
#     8   8   8   8   8   8   8   8
#     4  10  18  30  49  73  98 129 167 203 237 283
#     4   9  18  30  47  71 100 131 165 201 238 281
#     4  10  20  35  52  69  92 130 171 204 237 281
#     4  10  20  33  47  69 100 132 163 202 246 286
#     4   9  19  32  47  70 101 131 162 198 239 285
#     4   8  16  31  53  77 100 126 163 204 237 276
#     4  11  21  32  48  74 103 129 158 199 245 291
#     4   9  17  33  54  75  99 130 163 197 238 287
#
# _framework density 17.734674999999999
#
# number of rings (size 3 to 8) (size 9 to 14) (size 15 to 20)
#    0.000    2.500    0.000    3.375    0.000    3.500 
#    0.000    2.500    0.000    0.750    0.000    5.250 
#    0.000    0.000    0.000    0.000    0.000    0.000 
#
# Total GULP energy -396833.659875 kJ/mol
# GULP energy per Si atom -12401.051871 kJ/mol
# Density = 1.769431 g / cm^3
# Si number density = 17.734675 Si / 1000 Ang^3
#
#
#
# Elastic Constant Matrix: (Units=GPa)
#
#
# Indices 1 2 3 4 5 6 
#
# 1 102.7007 31.5499 59.6246 0.0000 -18.2491 0.0000
# 2 31.5499 51.0996 41.9358 0.0000 -8.2674 0.0000
# 3 59.6246 41.9358 124.2659 0.0000 -15.9088 0.0000
# 4 0.0000 0.0000 0.0000 30.6677 0.0000 -3.9176
# 5 -18.2491 -8.2674 -15.9088 0.0000 24.8913 0.0000
# 6 0.0000 0.0000 0.0000 -3.9176 0.0000 23.0847
#
#
#
# Elastic Compliance Matrix: (Units=1/GPa)
#
#
# Indices 1 2 3 4 5 6 
#
# 1 0.015064 -0.004152 -0.004999 0.000000 0.006471 0.000000
# 2 -0.004152 0.028482 -0.007404 0.000000 0.001684 0.000000
# 3 -0.004999 -0.007404 0.013244 0.000000 0.002341 0.000000
# 4 0.000000 0.000000 0.000000 0.033330 0.000000 0.005656
# 5 0.006471 0.001684 0.002341 0.000000 0.046974 0.000000
# 6 0.000000 0.000000 0.000000 0.005656 0.000000 0.044279
#
#
# Mechanical properties :
#
#
# Convention : Reuss Voigt Hill
#
# Bulk Modulus (GPa) = 42.22785 60.47634 51.35210
# Shear Modulus (GPa) = 22.48449 25.39244 23.93847
#
# Velocity S-wave (km/s) = 3.56452 3.78801 3.67796
# Velocity P-wave (km/s) = 6.38777 7.30114 6.85968
#
# Compressibility (1/GPa) = 0.02368105
#
# Stress axis : x y z
#
# Youngs Moduli (GPa) = 66.38215 35.11018 75.50656
#
# Poissons Ratio (x) = 0.14578 0.37742
# Poissons Ratio (y) = 0.27562 0.55905
# Poissons Ratio (z) = 0.33181 0.25995
#
# Static dielectric constant tensor:
#      x y z
#    x 3.476580 0.000000 -0.082060 
#    y 0.000000 3.085240 0.000000 
#    z -0.082060 0.000000 3.224120 
# 
# 
# High freq. dielectric constant tensor:
#      x y z
#    x 1.672630 0.000000 -0.010420 
#    y 0.000000 1.674920 0.000000 
#    z -0.010420 0.000000 1.681350 
# 
# From -- ./inp_files/249079.got.cif
#   From: 2010.06.25/outbox.cif.g09.slc.cpg/sg12_125_cif.got.tgz:249079.got - 2010.06.28 00:19:55.
