data_PCOD8081995
_publ_section_title
;
Structure prediction by ZEFSAII (Michael W. Deem and Ramdas Pophale) SiO2 
 PCOD8081995
Probable space group: C 2/M
;
_chemical_formula_sum "Si O2"
_cell_formula_units_Z 56
_cell_length_a 29.767265
_cell_length_b 8.930463
_cell_length_c 12.559158
_cell_angle_alpha 90.000000
_cell_angle_beta 74.298966
_cell_angle_gamma 90.000000
_cell_volume 3214.093294
_symmetry_space_group_name_H-M "C 2/M"
_symmetry_group_IT_number 12
_symmetry_cell_setting 'monoclinic'
loop_
_space_group_symop_operation_xyz
x,y,z
-x,y,-z
-x,-y,-z
x,-y,z
1/2+x,1/2+y,z
1/2-x,1/2+y,-z
1/2-x,1/2-y,-z
1/2+x,1/2-y,z
loop_
_atom_site_type_symbol
_atom_site_label
_atom_site_fract_x
_atom_site_fract_y
_atom_site_fract_z
Si Si1 0.698578 0.326125 0.143468
Si Si2 0.452996 0.177561 0.479163
Si Si3 0.383387 0.173815 0.703153
Si Si4 0.391348 0.323530 0.103001
Si Si5 0.804385 0.673945 0.078122
Si Si6 0.941357 0.672337 0.876214
Si Si7 0.547484 0.824390 0.760389
O O1 0.691169 0.500000 0.121421
O O2 0.663561 0.271991 0.257914
O O3 0.751324 0.295389 0.148523
O O4 0.686804 0.230935 0.046779
O O5 0.500000 0.247203 0.500000
O O6 0.408588 0.224859 0.578412
O O7 0.446424 0.236609 0.363610
O O8 0.458628 0.000000 0.473573
O O9 0.418446 0.207347 0.777414
O O10 0.369508 0.000000 0.708493
O O11 0.389110 0.500000 0.108688
O O12 0.338667 0.259814 0.136053
O O13 0.415903 0.264171 0.192515
O O14 0.418786 0.275156 0.980026
O O15 0.817034 0.500000 0.071471
O O16 0.933658 0.500000 0.913852
O O17 0.995755 0.710957 0.834912
O O18 0.558238 0.000000 0.760991
#
# Coordination Sequence:
#
# PCOD8081995 Si02
#       7
#     8   8   8   8   8   8   8
#     4  10  20  33  52  80 108 135 167 211 266 317
#     4   9  16  31  55  81 103 133 180 223 253 293
#     4  10  18  30  54  82 109 138 171 214 258 306
#     4  12  24  35  50  75 109 143 177 217 264 314
#     4  10  20  35  54  75 103 137 175 214 258 314
#     4  10  19  32  52  78 106 142 178 210 256 312
#     4  10  20  35  55  76 105 143 183 219 254 305
#
# _framework density 17.423265000000001
#
# number of rings (size 3 to 8) (size 9 to 14) (size 15 to 20)
#    0.000    1.857    2.857    2.571    0.000    4.000 
#    0.000    0.714    0.000    1.714    0.000    0.000 
#    0.000    0.000    0.000    0.000    0.000    0.000 
#
# Total GULP energy -347268.567583 kJ/mol
# GULP energy per Si atom -12402.448842 kJ/mol
# Density = 1.738361 g / cm^3
# Si number density = 17.423265 Si / 1000 Ang^3
#
#
#
# Elastic Constant Matrix: (Units=GPa)
#
#
# Indices 1 2 3 4 5 6 
#
# 1 133.0894 61.7537 55.6859 0.0000 -0.9243 0.0000
# 2 61.7537 84.3128 40.0406 0.0000 2.4603 0.0000
# 3 55.6859 40.0406 78.1395 0.0000 3.7409 0.0000
# 4 0.0000 0.0000 0.0000 12.7588 0.0000 -5.1659
# 5 -0.9243 2.4603 3.7409 0.0000 23.9793 0.0000
# 6 0.0000 0.0000 0.0000 -5.1659 0.0000 25.3707
#
#
#
# Elastic Compliance Matrix: (Units=1/GPa)
#
#
# Indices 1 2 3 4 5 6 
#
# 1 0.013249 -0.006917 -0.006001 0.000000 0.002157 0.000000
# 2 -0.006917 0.019290 -0.004884 0.000000 -0.001484 0.000000
# 3 -0.006001 -0.004884 0.019711 0.000000 -0.002805 0.000000
# 4 0.000000 0.000000 0.000000 0.085419 0.000000 0.017393
# 5 0.002157 -0.001484 -0.002805 0.000000 0.042376 0.000000
# 6 0.000000 0.000000 0.000000 0.017393 0.000000 0.042957
#
#
# Mechanical properties :
#
#
# Convention : Reuss Voigt Hill
#
# Bulk Modulus (GPa) = 60.07406 67.83356 63.95381
# Shear Modulus (GPa) = 18.92837 21.62587 20.27712
#
# Velocity S-wave (km/s) = 3.29961 3.52690 3.41515
# Velocity P-wave (km/s) = 7.00504 7.45672 7.23441
#
# Compressibility (1/GPa) = 0.01664612
#
# Stress axis : x y z
#
# Youngs Moduli (GPa) = 75.47713 51.84096 50.73349
#
# Poissons Ratio (x) = 0.35860 0.30443
# Poissons Ratio (y) = 0.52210 0.24778
# Poissons Ratio (z) = 0.45290 0.25319
#
# Static dielectric constant tensor:
#      x y z
#    x 3.381740 0.000000 -0.076830 
#    y 0.000000 3.091470 0.000000 
#    z -0.076830 0.000000 3.246090 
# 
# 
# High freq. dielectric constant tensor:
#      x y z
#    x 1.677930 0.000000 -0.009570 
#    y 0.000000 1.659710 0.000000 
#    z -0.009570 0.000000 1.657030 
# 
# From -- ./inp_files/186441.got.cif
#   From: 2010.06.25/outbox.cif.g09.slc.cpg/sg12_94_cif.got.tgz:186441.got - 2010.06.28 00:19:55.
