data_PCOD8081670
_publ_section_title
;
Structure prediction by ZEFSAII (Michael W. Deem and Ramdas Pophale) SiO2 
 PCOD8081670
Probable space group: C 2/M
;
_chemical_formula_sum "Si O2"
_cell_formula_units_Z 48
_cell_length_a 18.294107
_cell_length_b 8.778310
_cell_length_c 16.320628
_cell_angle_alpha 90.000000
_cell_angle_beta 92.511856
_cell_angle_gamma 90.000000
_cell_volume 2618.433282
_symmetry_space_group_name_H-M "C 2/M"
_symmetry_group_IT_number 12
_symmetry_cell_setting 'monoclinic'
loop_
_space_group_symop_operation_xyz
x,y,z
-x,y,-z
-x,-y,-z
x,-y,z
1/2+x,1/2+y,z
1/2-x,1/2+y,-z
1/2-x,1/2-y,-z
1/2+x,1/2-y,z
loop_
_atom_site_type_symbol
_atom_site_label
_atom_site_fract_x
_atom_site_fract_y
_atom_site_fract_z
Si Si1 0.210865 0.818457 0.577322
Si Si2 0.584454 0.821392 0.490017
Si Si3 0.339848 0.680596 0.662325
Si Si4 0.043229 0.671641 0.917646
Si Si5 0.912516 0.178693 0.835414
Si Si6 0.671271 0.320904 0.006627
O O1 0.250000 0.750000 0.500000
O O2 0.128290 0.752307 0.569593
O O3 0.258473 0.755966 0.656008
O O4 0.209636 0.000000 0.576831
O O5 0.500000 0.786724 0.500000
O O6 0.608412 0.743267 0.406714
O O7 0.601651 0.000000 0.485791
O O8 0.332437 0.500000 0.653290
O O9 0.374942 0.730441 0.749707
O O10 0.062609 0.500000 0.893629
O O11 0.992271 0.743473 0.844677
O O12 0.118828 0.763623 0.930662
O O13 0.000000 0.681218 0.000000
O O14 0.860586 0.231931 0.907258
O O15 0.925889 0.000000 0.839830
O O16 0.677886 0.500000 0.000838
O O17 0.750000 0.250000 0.000000
#
# Coordination Sequence:
#
# PCOD8081670 Si02
#       6
#     8   8   8   8   8   8
#     4  10  18  30  50  73  98 129 165 201 240 290
#     4  10  20  34  52  74 100 130 164 202 245 291
#     4  10  19  33  53  75 100 129 164 203 244 291
#     4   9  17  30  50  74  98 128 166 203 241 291
#     4   9  19  34  52  74 100 131 163 201 247 292
#     4  10  19  33  52  74 101 131 166 204 245 292
#
# _framework density 18.331574
#
# number of rings (size 3 to 8) (size 9 to 14) (size 15 to 20)
#    0.000    2.333    0.000    5.500    0.000    5.333 
#    0.000    1.667    0.000    2.000    0.000    0.000 
#    0.000    0.000    0.000    0.000    0.000    0.000 
#
# Total GULP energy -297547.741031 kJ/mol
# GULP energy per Si atom -12397.822543 kJ/mol
# Density = 1.828985 g / cm^3
# Si number density = 18.331574 Si / 1000 Ang^3
#
#
#
# Elastic Constant Matrix: (Units=GPa)
#
#
# Indices 1 2 3 4 5 6 
#
# 1 149.2132 67.2494 63.6510 0.0000 39.9237 0.0000
# 2 67.2494 108.1344 48.2373 0.0000 23.8741 0.0000
# 3 63.6510 48.2373 103.5295 0.0000 38.6389 0.0000
# 4 0.0000 0.0000 0.0000 24.9153 0.0000 8.0884
# 5 39.9237 23.8741 38.6389 0.0000 34.2083 0.0000
# 6 0.0000 0.0000 0.0000 8.0884 0.0000 36.2611
#
#
#
# Elastic Compliance Matrix: (Units=1/GPa)
#
#
# Indices 1 2 3 4 5 6 
#
# 1 0.011897 -0.004650 -0.002035 0.000000 -0.008342 0.000000
# 2 -0.004650 0.013734 -0.003437 0.000000 -0.000276 0.000000
# 3 -0.002035 -0.003437 0.018550 0.000000 -0.016179 0.000000
# 4 0.000000 0.000000 0.000000 0.043269 0.000000 -0.009652
# 5 -0.008342 -0.000276 -0.016179 0.000000 0.057434 0.000000
# 6 0.000000 0.000000 0.000000 -0.009652 0.000000 0.029731
#
#
# Mechanical properties :
#
#
# Convention : Reuss Voigt Hill
#
# Bulk Modulus (GPa) = 41.77644 79.90583 60.84113
# Shear Modulus (GPa) = 24.65023 31.19289 27.92156
#
# Velocity S-wave (km/s) = 3.67098 4.12951 3.90698
# Velocity P-wave (km/s) = 6.38803 8.14991 7.32215
#
# Compressibility (1/GPa) = 0.02393694
#
# Stress axis : x y z
#
# Youngs Moduli (GPa) = 84.05264 72.81430 53.90867
#
# Poissons Ratio (x) = 0.33855 0.10971
# Poissons Ratio (y) = 0.39081 0.18530
# Poissons Ratio (z) = 0.17105 0.25029
#
# Static dielectric constant tensor:
#      x y z
#    x 3.676280 0.000000 0.518330 
#    y 0.000000 3.485300 0.000000 
#    z 0.518330 0.000000 3.373540 
# 
# 
# High freq. dielectric constant tensor:
#      x y z
#    x 1.711130 0.000000 0.036350 
#    y 0.000000 1.725880 0.000000 
#    z 0.036350 0.000000 1.685150 
# 
# From -- ./inp_files/273711.got.cif
#   From: 2010.06.25/outbox.cif.g09.slc.cpg/sg12_137_cif.got.tgz:273711.got - 2010.06.28 00:19:55.
