data_PCOD8081966
_publ_section_title
;
Structure prediction by ZEFSAII (Michael W. Deem and Ramdas Pophale) SiO2 
 PCOD8081966
Probable space group: C 2/M
;
_chemical_formula_sum "Si O2"
_cell_formula_units_Z 64
_cell_length_a 24.078794
_cell_length_b 9.348223
_cell_length_c 30.521941
_cell_angle_alpha 90.000000
_cell_angle_beta 151.305624
_cell_angle_gamma 90.000000
_cell_volume 3298.689797
_symmetry_space_group_name_H-M "C 2/M"
_symmetry_group_IT_number 12
_symmetry_cell_setting 'monoclinic'
loop_
_space_group_symop_operation_xyz
x,y,z
-x,y,-z
-x,-y,-z
x,-y,z
1/2+x,1/2+y,z
1/2-x,1/2+y,-z
1/2-x,1/2-y,-z
1/2+x,1/2-y,z
loop_
_atom_site_type_symbol
_atom_site_label
_atom_site_fract_x
_atom_site_fract_y
_atom_site_fract_z
Si Si1 0.854455 0.338624 0.805848
Si Si2 0.221458 0.829400 0.889938
Si Si3 0.345518 0.158439 0.362195
Si Si4 0.874754 0.664042 0.917457
Si Si5 0.079491 0.661546 0.486298
Si Si6 0.757705 0.329404 0.551829
Si Si7 0.995999 0.669115 0.234372
Si Si8 0.424707 0.168114 0.089418
O O1 0.845699 0.500000 0.783392
O O2 0.765965 0.255359 0.715015
O O3 0.816220 0.322027 0.829604
O O4 0.985224 0.285408 0.886486
O O5 0.290426 0.769823 0.895264
O O6 0.099045 0.750012 0.802274
O O7 0.201460 0.000000 0.874777
O O8 0.296797 0.780790 0.985043
O O9 0.445167 0.211022 0.397046
O O10 0.381780 0.159500 0.437193
O O11 0.310117 0.000000 0.322967
O O12 0.896735 0.500000 0.946999
O O13 0.000000 0.740908 0.000000
O O14 0.091272 0.500000 0.474777
O O15 0.150581 0.773954 0.506628
O O16 0.746816 0.500000 0.537657
O O17 0.750000 0.250000 0.500000
O O18 0.876833 0.289747 0.659681
O O19 0.976992 0.500000 0.224602
O O20 0.971661 0.728954 0.168244
O O21 0.418225 0.000000 0.089488
#
# Coordination Sequence:
#
# PCOD8081966 Si02
#       8
#     8   8   8   8   8   8   8   8
#     4  10  18  30  53  81 108 141 184 228 268 319
#     4  10  19  33  56  82 108 144 186 224 265 321
#     4   9  19  35  55  82 114 145 179 224 284 340
#     4   9  16  30  51  75 103 137 176 216 260 309
#     4   9  19  38  60  80 109 147 182 224 280 339
#     4  11  24  41  61  83 111 148 189 234 284 338
#     4  10  22  38  54  78 110 142 178 226 279 325
#     4   9  17  32  55  80 109 144 182 224 272 321
#
# _framework density 19.401641000000001
#
# number of rings (size 3 to 8) (size 9 to 14) (size 15 to 20)
#    0.000    2.375    1.250    2.250    0.000    4.000 
#    0.000    5.625    0.000    0.750    0.000    0.000 
#    0.000    0.000    0.000    0.000    0.000    0.000 
#
# Total GULP energy -396505.598809 kJ/mol
# GULP energy per Si atom -12390.799963 kJ/mol
# Density = 1.935748 g / cm^3
# Si number density = 19.401641 Si / 1000 Ang^3
#
#
#
# Elastic Constant Matrix: (Units=GPa)
#
#
# Indices 1 2 3 4 5 6 
#
# 1 100.6230 28.9809 9.8539 -0.0004 6.6505 -0.0001
# 2 28.9809 51.1225 26.9662 -0.0001 7.3773 0.0003
# 3 9.8539 26.9662 58.8953 -0.0019 8.8033 -0.0005
# 4 -0.0004 -0.0001 -0.0019 22.1863 -0.0004 0.7675
# 5 6.6505 7.3773 8.8033 -0.0004 26.5364 -0.0001
# 6 -0.0001 0.0003 -0.0005 0.7675 -0.0001 27.4128
#
#
#
# Elastic Compliance Matrix: (Units=1/GPa)
#
#
# Indices 1 2 3 4 5 6 
#
# 1 0.012026 -0.007461 0.001625 0.000000 -0.001479 0.000000
# 2 -0.007461 0.030717 -0.012436 -0.000001 -0.002544 -0.000001
# 3 0.001625 -0.012436 0.023090 0.000002 -0.004610 0.000000
# 4 0.000000 -0.000001 0.000002 0.045117 0.000000 -0.001263
# 5 -0.001479 -0.002544 -0.004610 0.000000 0.040291 0.000000
# 6 0.000000 -0.000001 0.000000 -0.001263 0.000000 0.036515
#
#
# Mechanical properties :
#
#
# Convention : Reuss Voigt Hill
#
# Bulk Modulus (GPa) = 34.14148 38.02701 36.08425
# Shear Modulus (GPa) = 21.36181 24.88308 23.12244
#
# Velocity S-wave (km/s) = 3.32178 3.58512 3.45596
# Velocity P-wave (km/s) = 5.68750 6.06464 5.87910
#
# Compressibility (1/GPa) = 0.02928988
#
# Stress axis : x y z
#
# Youngs Moduli (GPa) = 83.15623 32.55497 43.30802
#
# Poissons Ratio (x) = 0.24289 -0.07038
# Poissons Ratio (y) = 0.62043 0.53857
# Poissons Ratio (z) = -0.13514 0.40485
#
# Static dielectric constant tensor:
#      x y z
#    x 3.986310 0.000000 0.330180 
#    y 0.000000 3.273750 0.000000 
#    z 0.330180 0.000000 3.863140 
# 
# 
# High freq. dielectric constant tensor:
#      x y z
#    x 1.765910 0.000000 0.005050 
#    y 0.000000 1.718090 0.000000 
#    z 0.005050 0.000000 1.756950 
# 
# From -- ./inp_files/382406.got.cif
#   From: 2010.06.25/outbox.cif.g09.slc.cpg/sg12_192_cif.got.tgz:382406.got - 2010.06.28 00:19:55.
