data_PCOD8081177
_publ_section_title
;
Structure prediction by ZEFSAII (Michael W. Deem and Ramdas Pophale) SiO2 
 PCOD8081177
Probable space group: C 2/M
;
_chemical_formula_sum "Si O2"
_cell_formula_units_Z 56
_cell_length_a 30.970697
_cell_length_b 13.443885
_cell_length_c 9.375133
_cell_angle_alpha 90.000000
_cell_angle_beta 45.906327
_cell_angle_gamma 90.000000
_cell_volume 2803.499647
_symmetry_space_group_name_H-M "C 2/M"
_symmetry_group_IT_number 12
_symmetry_cell_setting 'monoclinic'
loop_
_space_group_symop_operation_xyz
x,y,z
-x,y,-z
-x,-y,-z
x,-y,z
1/2+x,1/2+y,z
1/2-x,1/2+y,-z
1/2-x,1/2-y,-z
1/2+x,1/2-y,z
loop_
_atom_site_type_symbol
_atom_site_label
_atom_site_fract_x
_atom_site_fract_y
_atom_site_fract_z
Si Si1 0.711995 0.804449 0.252029
Si Si2 0.030626 0.611600 0.729226
Si Si3 0.888831 0.388296 0.717047
Si Si4 0.587647 0.782149 0.044362
Si Si5 0.685186 0.615550 0.158783
Si Si6 0.643435 0.117846 0.664654
Si Si7 0.062485 0.113747 0.289030
O O1 0.670306 0.857905 0.231893
O O2 0.703356 0.684544 0.253505
O O3 0.698443 0.840079 0.443898
O O4 0.779202 0.841517 0.061224
O O5 0.008494 0.500000 0.809988
O O6 0.052980 0.622586 0.516349
O O7 0.083075 0.640632 0.716640
O O8 0.973638 0.680249 0.886588
O O9 0.880218 0.500000 0.789633
O O10 0.899337 0.323343 0.829853
O O11 0.579718 0.665431 0.097393
O O12 0.641197 0.816283 0.814916
O O13 0.701018 0.500000 0.154275
O O14 0.614526 0.628105 0.288082
O O15 0.651951 0.000000 0.675917
O O16 0.000000 0.155245 0.500000
O O17 0.054517 0.000000 0.264391
#
# Coordination Sequence:
#
# PCOD8081177 Si02
#       7
#     8   8   8   8   8   8   8
#     4  10  20  37  60  86 111 148 188 227 290 341
#     4   9  18  31  48  74 111 153 188 222 274 337
#     4  10  18  29  50  81 111 139 185 237 275 325
#     4  12  20  31  52  80 112 151 187 231 284 333
#     4  10  20  38  64  85 108 146 196 244 283 333
#     4  10  21  35  52  82 122 156 182 221 286 359
#     4  10  22  39  59  84 111 147 198 247 288 327
#
# _framework density 19.975034999999998
#
# number of rings (size 3 to 8) (size 9 to 14) (size 15 to 20)
#    0.000    1.857    1.429    5.143    2.000    2.286 
#    0.000    1.429    0.000    1.714    0.000    0.000 
#    0.000    0.000    0.000    0.000    0.000    0.000 
#
# Total GULP energy -347088.494994 kJ/mol
# GULP energy per Si atom -12396.017678 kJ/mol
# Density = 1.992957 g / cm^3
# Si number density = 19.975035 Si / 1000 Ang^3
#
#
#
# Elastic Constant Matrix: (Units=GPa)
#
#
# Indices 1 2 3 4 5 6 
#
# 1 23.4661 8.0239 18.5038 0.0000 -5.4245 0.0000
# 2 8.0239 106.5291 53.7263 0.0000 3.6779 0.0000
# 3 18.5038 53.7263 116.5688 0.0000 10.1890 0.0000
# 4 0.0000 0.0000 0.0000 14.7571 0.0000 -30.5874
# 5 -5.4245 3.6779 10.1890 0.0000 33.3200 0.0000
# 6 0.0000 0.0000 0.0000 -30.5874 0.0000 -34.9321
#
#
#
# Elastic Compliance Matrix: (Units=1/GPa)
#
#
# Indices 1 2 3 4 5 6 
#
# 1 0.052650 0.000467 -0.009574 0.000000 0.011447 0.000000
# 2 0.000467 0.012239 -0.005758 0.000000 0.000486 0.000000
# 3 -0.009574 -0.005758 0.013185 0.000000 -0.004955 0.000000
# 4 0.000000 0.000000 0.000000 0.024073 0.000000 -0.021079
# 5 0.011447 0.000486 -0.004955 0.000000 0.033337 0.000000
# 6 0.000000 0.000000 0.000000 -0.021079 0.000000 -0.010170
#
#
# Mechanical properties :
#
#
# Convention : Reuss Voigt Hill
#
# Bulk Modulus (GPa) = 20.68391 45.23021 32.95706
# Shear Modulus (GPa) = 29.21282 13.71634 21.46458
#
# Velocity S-wave (km/s) = 3.82837 2.62329 3.28162
# Velocity P-wave (km/s) = 5.46985 5.64518 5.55821
#
# Compressibility (1/GPa) = 0.04834675
#
# Stress axis : x y z
#
# Youngs Moduli (GPa) = 18.99326 81.70708 75.84352
#
# Poissons Ratio (x) = -0.03819 0.72609
# Poissons Ratio (y) = -0.00888 0.43667
# Poissons Ratio (z) = 0.18183 0.47043
#
# Static dielectric constant tensor:
#      x y z
#    x 3.367610 0.000000 -0.070540 
#    y 0.000000 3.913380 0.000000 
#    z -0.070540 0.000000 3.977300 
# 
# 
# High freq. dielectric constant tensor:
#      x y z
#    x 1.754680 0.000000 -0.014680 
#    y 0.000000 1.782450 0.000000 
#    z -0.014680 0.000000 1.774970 
# 
# From -- ./inp_files/111549.got.cif
#   From: 2010.06.25/outbox.cif.g09.slc.cpg/sg12_56_cif.got.tgz:111549.got - 2010.06.28 00:19:55.
