data_PCOD8081942
_publ_section_title
;
Structure prediction by ZEFSAII (Michael W. Deem and Ramdas Pophale) SiO2 
 PCOD8081942
Probable space group: C 2/M
;
_chemical_formula_sum "Si O2"
_cell_formula_units_Z 64
_cell_length_a 20.145474
_cell_length_b 12.531349
_cell_length_c 13.142669
_cell_angle_alpha 90.000000
_cell_angle_beta 108.823718
_cell_angle_gamma 90.000000
_cell_volume 3140.412825
_symmetry_space_group_name_H-M "C 2/M"
_symmetry_group_IT_number 12
_symmetry_cell_setting 'monoclinic'
loop_
_space_group_symop_operation_xyz
x,y,z
-x,y,-z
-x,-y,-z
x,-y,z
1/2+x,1/2+y,z
1/2-x,1/2+y,-z
1/2-x,1/2-y,-z
1/2+x,1/2-y,z
loop_
_atom_site_type_symbol
_atom_site_label
_atom_site_fract_x
_atom_site_fract_y
_atom_site_fract_z
Si Si1 0.579002 0.376795 0.249102
Si Si2 0.421869 0.197015 0.260401
Si Si3 0.189333 0.876584 0.799876
Si Si4 0.959377 0.754879 0.075243
Si Si5 0.779154 0.207465 0.755915
Si Si6 0.951963 0.224313 0.565539
Si Si7 0.177704 0.879353 0.022799
Si Si8 0.152184 0.617756 0.595908
O O1 0.594668 0.500000 0.230028
O O2 0.507063 0.340478 0.160037
O O3 0.640595 0.299129 0.239285
O O4 0.575339 0.365848 0.370288
O O5 0.383916 0.313597 0.252556
O O6 0.431803 0.168237 0.145190
O O7 0.498976 0.195436 0.347169
O O8 0.376370 0.112720 0.301401
O O9 0.250603 0.828653 0.757425
O O10 0.212887 0.862863 0.929550
O O11 0.177618 0.000000 0.764581
O O12 0.893192 0.813582 0.994604
O O13 0.000000 0.700787 0.000000
O O14 0.733853 0.148711 0.645977
O O15 0.767989 0.152885 0.861548
O O16 0.887829 0.293716 0.489827
O O17 0.000000 0.172434 0.500000
O O18 0.154390 0.000000 0.026079
O O19 0.144639 0.500000 0.543229
#
# Coordination Sequence:
#
# PCOD8081942 Si02
#       8
#     8   8   8   8   8   8   8   8
#     4  11  22  35  55  85 118 146 177 228 283 333
#     4   8  18  33  54  84 106 133 183 232 273 322
#     4   9  19  35  54  77 112 153 185 220 270 327
#     4  10  18  31  53  82 117 151 178 219 276 330
#     4  11  21  34  52  81 115 143 187 228 267 323
#     4   9  20  38  56  80 106 137 183 230 282 328
#     4  10  18  30  52  82 112 148 188 223 268 324
#     4  10  20  37  59  79 107 145 188 232 271 322
#
# _framework density 20.379486
#
# number of rings (size 3 to 8) (size 9 to 14) (size 15 to 20)
#    0.000    2.250    1.250    1.875    0.000    6.500 
#    0.000    5.625    0.000    1.125    0.000    0.000 
#    0.000    0.000    0.000    0.000    0.000    0.000 
#
# Total GULP energy -396496.382046 kJ/mol
# GULP energy per Si atom -12390.511939 kJ/mol
# Density = 2.033310 g / cm^3
# Si number density = 20.379486 Si / 1000 Ang^3
#
#
#
# Elastic Constant Matrix: (Units=GPa)
#
#
# Indices 1 2 3 4 5 6 
#
# 1 66.9966 13.1944 16.8117 0.0000 -0.0802 0.0000
# 2 13.1944 40.1151 13.3188 0.0000 -0.7782 0.0000
# 3 16.8117 13.3188 88.1616 0.0000 5.3300 0.0000
# 4 0.0000 0.0000 0.0000 19.7030 0.0000 -1.6213
# 5 -0.0802 -0.7782 5.3300 0.0000 41.5520 0.0000
# 6 0.0000 0.0000 0.0000 -1.6213 0.0000 14.5927
#
#
#
# Elastic Compliance Matrix: (Units=1/GPa)
#
#
# Indices 1 2 3 4 5 6 
#
# 1 0.016447 -0.004588 -0.002459 0.000000 0.000261 0.000000
# 2 -0.004588 0.027567 -0.003346 0.000000 0.000937 0.000000
# 3 -0.002459 -0.003346 0.012418 0.000000 -0.001660 0.000000
# 4 0.000000 0.000000 0.000000 0.051222 0.000000 0.005691
# 5 0.000261 0.000937 -0.001660 0.000000 0.024297 0.000000
# 6 0.000000 0.000000 0.000000 0.005691 0.000000 0.069160
#
#
# Mechanical properties :
#
#
# Convention : Reuss Voigt Hill
#
# Bulk Modulus (GPa) = 28.05486 31.32479 29.68982
# Shear Modulus (GPa) = 21.38774 25.29941 23.34358
#
# Velocity S-wave (km/s) = 3.24307 3.52720 3.38811
# Velocity P-wave (km/s) = 5.27442 5.65617 5.46863
#
# Compressibility (1/GPa) = 0.03564445
#
# Stress axis : x y z
#
# Youngs Moduli (GPa) = 60.80107 36.27583 80.53077
#
# Poissons Ratio (x) = 0.16644 0.19802
# Poissons Ratio (y) = 0.27897 0.26948
# Poissons Ratio (z) = 0.14951 0.12139
#
# Static dielectric constant tensor:
#      x y z
#    x 3.662470 0.000000 -0.100260 
#    y 0.000000 3.249860 0.000000 
#    z -0.100260 0.000000 3.964530 
# 
# 
# High freq. dielectric constant tensor:
#      x y z
#    x 1.795530 0.000000 0.004930 
#    y 0.000000 1.746970 0.000000 
#    z 0.004930 0.000000 1.806970 
# 
# From -- ./inp_files/232529.got.cif
#   From: 2010.06.25/outbox.cif.g09.slc.cpg/sg12_117_cif.got.tgz:232529.got - 2010.06.28 00:19:55.
