data_PCOD8081733
_publ_section_title
;
Structure prediction by ZEFSAII (Michael W. Deem and Ramdas Pophale) SiO2 
 PCOD8081733
Probable space group: C 2/M
;
_chemical_formula_sum "Si O2"
_cell_formula_units_Z 40
_cell_length_a 27.516340
_cell_length_b 8.939645
_cell_length_c 19.429578
_cell_angle_alpha 90.000000
_cell_angle_beta 27.670969
_cell_angle_gamma 90.000000
_cell_volume 2219.526415
_symmetry_space_group_name_H-M "C 2/M"
_symmetry_group_IT_number 12
_symmetry_cell_setting 'monoclinic'
loop_
_space_group_symop_operation_xyz
x,y,z
-x,y,-z
-x,-y,-z
x,-y,z
1/2+x,1/2+y,z
1/2-x,1/2+y,-z
1/2-x,1/2-y,-z
1/2+x,1/2-y,z
loop_
_atom_site_type_symbol
_atom_site_label
_atom_site_fract_x
_atom_site_fract_y
_atom_site_fract_z
Si Si1 0.196973 0.675831 0.837589
Si Si2 0.176394 0.324829 0.710319
Si Si3 0.089934 0.325550 0.441521
Si Si4 0.413155 0.676097 0.410580
Si Si5 0.003548 0.676286 0.824200
O O1 0.222359 0.500000 0.802615
O O2 0.157182 0.731533 0.812435
O O3 0.302590 0.761858 0.725043
O O4 0.109762 0.714592 0.003059
O O5 0.157110 0.500000 0.732966
O O6 0.293761 0.282456 0.539882
O O7 0.092290 0.253534 0.763476
O O8 0.103219 0.500000 0.439789
O O9 0.058242 0.244476 0.551739
O O10 0.000000 0.291390 0.500000
O O11 0.429806 0.500000 0.394060
O O12 0.490012 0.744568 0.257460
O O13 0.018718 0.500000 0.795201
#
# Coordination Sequence:
#
# PCOD8081733 Si02
#       5
#     8   8   8   8   8
#     4   9  18  32  52  78 104 133 169 205 245 294
#     4   8  15  29  49  73 103 140 174 200 234 287
#     4  10  21  38  58  75  93 123 165 212 260 307
#     4  10  20  33  51  76 104 134 170 207 244 291
#     4  10  18  30  50  76 109 141 166 199 243 290
#
# _framework density 18.021863
#
# number of rings (size 3 to 8) (size 9 to 14) (size 15 to 20)
#    0.000    2.600    0.000    3.600    0.000    4.800 
#    0.000    5.000    0.000    6.000    0.000    0.000 
#    0.000    0.000    0.000    0.000    0.000    0.000 
#
# Total GULP energy -247996.347487 kJ/mol
# GULP energy per Si atom -12399.817374 kJ/mol
# Density = 1.798084 g / cm^3
# Si number density = 18.021863 Si / 1000 Ang^3
#
#
#
# Elastic Constant Matrix: (Units=GPa)
#
#
# Indices 1 2 3 4 5 6 
#
# 1 109.6765 54.0282 77.1329 -0.0021 0.8416 0.0006
# 2 54.0282 63.9700 64.5466 -0.0019 6.7784 0.0024
# 3 77.1329 64.5466 143.3027 0.0007 18.8768 0.0006
# 4 -0.0021 -0.0019 0.0007 30.3173 0.0026 3.2897
# 5 0.8416 6.7784 18.8768 0.0026 21.5988 -0.0014
# 6 0.0006 0.0024 0.0006 3.2897 -0.0014 23.4809
#
#
#
# Elastic Compliance Matrix: (Units=1/GPa)
#
#
# Indices 1 2 3 4 5 6 
#
# 1 0.018580 -0.009864 -0.006633 0.000000 0.008169 0.000001
# 2 -0.009864 0.034022 -0.009785 0.000002 -0.001741 -0.000003
# 3 -0.006633 -0.009785 0.016406 -0.000001 -0.011009 0.000000
# 4 0.000000 0.000002 -0.000001 0.033494 -0.000005 -0.004692
# 5 0.008169 -0.001741 -0.011009 -0.000005 0.056149 0.000004
# 6 0.000001 -0.000003 0.000000 -0.004692 0.000004 0.043245
#
#
# Mechanical properties :
#
#
# Convention : Reuss Voigt Hill
#
# Bulk Modulus (GPa) = 60.82223 78.70718 69.76470
# Shear Modulus (GPa) = 19.23509 23.16217 21.19863
#
# Velocity S-wave (km/s) = 3.27053 3.58889 3.43340
# Velocity P-wave (km/s) = 6.93428 7.80651 7.38328
#
# Compressibility (1/GPa) = 0.01644136
#
# Stress axis : x y z
#
# Youngs Moduli (GPa) = 53.82273 29.39311 60.95197
#
# Poissons Ratio (x) = 0.28995 0.40432
# Poissons Ratio (y) = 0.53093 0.59643
# Poissons Ratio (z) = 0.35703 0.28762
#
# Static dielectric constant tensor:
#      x y z
#    x 3.276650 0.000000 0.035230 
#    y 0.000000 3.143390 0.000000 
#    z 0.035230 0.000000 3.372330 
# 
# 
# High freq. dielectric constant tensor:
#      x y z
#    x 1.687930 0.000000 0.007160 
#    y 0.000000 1.681310 0.000000 
#    z 0.007160 0.000000 1.700270 
# 
# From -- ./inp_files/151947.got.cif
#   From: 2010.06.25/outbox.cif.g09.slc.cpg/sg12_76_cif.got.tgz:151947.got - 2010.06.28 00:19:55.
