data_PCOD8081874
_publ_section_title
;
Structure prediction by ZEFSAII (Michael W. Deem and Ramdas Pophale) SiO2 
 PCOD8081874
Probable space group: C 2/M
;
_chemical_formula_sum "Si O2"
_cell_formula_units_Z 64
_cell_length_a 24.005167
_cell_length_b 8.897050
_cell_length_c 19.753508
_cell_angle_alpha 90.000000
_cell_angle_beta 57.399579
_cell_angle_gamma 90.000000
_cell_volume 3554.171049
_symmetry_space_group_name_H-M "C 2/M"
_symmetry_group_IT_number 12
_symmetry_cell_setting 'monoclinic'
loop_
_space_group_symop_operation_xyz
x,y,z
-x,y,-z
-x,-y,-z
x,-y,z
1/2+x,1/2+y,z
1/2-x,1/2+y,-z
1/2-x,1/2-y,-z
1/2+x,1/2-y,z
loop_
_atom_site_type_symbol
_atom_site_label
_atom_site_fract_x
_atom_site_fract_y
_atom_site_fract_z
Si Si1 0.458373 0.673758 0.226277
Si Si2 0.796910 0.823282 0.846506
Si Si3 0.659934 0.325552 0.963935
Si Si4 0.140388 0.170905 0.823727
Si Si5 0.797540 0.675708 0.561591
Si Si6 0.726625 0.326272 0.290274
Si Si7 0.343221 0.675208 0.404315
Si Si8 0.595712 0.822859 0.131571
O O1 0.480336 0.500000 0.218918
O O2 0.426901 0.702505 0.172794
O O3 0.405928 0.718660 0.318138
O O4 0.519864 0.783236 0.195293
O O5 0.734092 0.737314 0.918299
O O6 0.805155 0.787738 0.761600
O O7 0.861715 0.762700 0.840233
O O8 0.787515 0.000000 0.865872
O O9 0.661653 0.500000 0.984012
O O10 0.627272 0.302677 0.911672
O O11 0.614579 0.233330 0.044707
O O12 0.196790 0.279878 0.759466
O O13 0.164568 0.000000 0.794143
O O14 0.807108 0.500000 0.557502
O O15 0.814186 0.739916 0.625017
O O16 0.722939 0.725706 0.591728
O O17 0.848340 0.740953 0.472915
O O18 0.722276 0.500000 0.310084
O O19 0.340549 0.500000 0.421262
O O20 0.606900 0.000000 0.130188
#
# Coordination Sequence:
#
# PCOD8081874 Si02
#       8
#     8   8   8   8   8   8   8   8
#     4  10  20  37  56  75 107 145 180 216 258 316
#     4  10  21  38  58  80 105 136 177 225 271 313
#     4  10  20  36  59  82 106 136 173 223 271 315
#     4   9  18  34  55  79 106 139 177 213 263 319
#     4  10  18  30  51  80 112 142 175 212 256 312
#     4  10  19  31  53  82 110 137 171 218 268 314
#     4   9  18  32  51  77 109 143 176 213 255 308
#     4  12  25  38  53  76 105 141 183 222 265 317
#
# _framework density 18.007013000000001
#
# number of rings (size 3 to 8) (size 9 to 14) (size 15 to 20)
#    0.000    2.000    1.250    3.000    0.000    4.000 
#    0.000    2.500    0.000    0.750    0.000    5.250 
#    0.000    0.000    0.000    0.000    0.000    0.000 
#
# Total GULP energy -396893.893779 kJ/mol
# GULP energy per Si atom -12402.934181 kJ/mol
# Density = 1.796603 g / cm^3
# Si number density = 18.007013 Si / 1000 Ang^3
#
#
#
# Elastic Constant Matrix: (Units=GPa)
#
#
# Indices 1 2 3 4 5 6 
#
# 1 61.1688 20.7768 51.2203 -0.0003 -6.1603 -0.0002
# 2 20.7768 54.9047 41.3029 0.0000 5.7121 -0.0008
# 3 51.2203 41.3029 108.6421 -0.0003 15.2226 -0.0002
# 4 -0.0003 0.0000 -0.0003 34.0926 -0.0001 0.0896
# 5 -6.1603 5.7121 15.2226 -0.0001 19.1798 0.0002
# 6 -0.0002 -0.0008 -0.0002 0.0896 0.0002 26.1951
#
#
#
# Elastic Compliance Matrix: (Units=1/GPa)
#
#
# Indices 1 2 3 4 5 6 
#
# 1 0.037670 -0.001197 -0.021434 0.000000 0.029467 0.000000
# 2 -0.001197 0.025547 -0.009033 0.000000 -0.000824 0.000001
# 3 -0.021434 -0.009033 0.026251 0.000000 -0.025029 0.000000
# 4 0.000000 0.000000 0.000000 0.029332 0.000000 -0.000100
# 5 0.029467 -0.000824 -0.025029 0.000000 0.081713 -0.000001
# 6 0.000000 0.000001 0.000000 -0.000100 -0.000001 0.038175
#
#
# Mechanical properties :
#
#
# Convention : Reuss Voigt Hill
#
# Bulk Modulus (GPa) = 38.25366 50.14617 44.19992
# Shear Modulus (GPa) = 16.09129 23.32121 19.70625
#
# Velocity S-wave (km/s) = 2.99258 3.60268 3.31171
# Velocity P-wave (km/s) = 5.76460 6.72416 6.26278
#
# Compressibility (1/GPa) = 0.02614129
#
# Stress axis : x y z
#
# Youngs Moduli (GPa) = 26.54639 39.14376 38.09448
#
# Poissons Ratio (x) = 0.04684 0.81650
# Poissons Ratio (y) = 0.03177 0.34409
# Poissons Ratio (z) = 0.56899 0.35357
#
# Static dielectric constant tensor:
#      x y z
#    x 3.203190 0.000000 0.256080 
#    y 0.000000 3.378730 0.000000 
#    z 0.256080 0.000000 3.375350 
# 
# 
# High freq. dielectric constant tensor:
#      x y z
#    x 1.676060 0.000000 0.022270 
#    y 0.000000 1.705100 0.000000 
#    z 0.022270 0.000000 1.697230 
# 
# From -- ./inp_files/324079.got.cif
#   From: 2010.06.25/outbox.cif.g09.slc.cpg/sg12_163_cif.got.tgz:324079.got - 2010.06.28 00:19:55.
