data_PCOD8081138
_publ_section_title
;
Structure prediction by ZEFSAII (Michael W. Deem and Ramdas Pophale) SiO2 
 PCOD8081138
Probable space group: C 2/M
;
_chemical_formula_sum "Si O2"
_cell_formula_units_Z 44
_cell_length_a 21.834682
_cell_length_b 20.355147
_cell_length_c 17.985967
_cell_angle_alpha 90.000000
_cell_angle_beta 162.049723
_cell_angle_gamma 90.000000
_cell_volume 2463.630631
_symmetry_space_group_name_H-M "C 2/M"
_symmetry_group_IT_number 12
_symmetry_cell_setting 'monoclinic'
loop_
_space_group_symop_operation_xyz
x,y,z
-x,y,-z
-x,-y,-z
x,-y,z
1/2+x,1/2+y,z
1/2-x,1/2+y,-z
1/2-x,1/2-y,-z
1/2+x,1/2-y,z
loop_
_atom_site_type_symbol
_atom_site_label
_atom_site_fract_x
_atom_site_fract_y
_atom_site_fract_z
Si Si1 0.051354 0.500000 0.446673
Si Si2 0.134229 0.682495 0.366939
Si Si3 0.070695 0.362331 0.728547
Si Si4 0.000000 0.715004 0.500000
Si Si5 0.509883 0.372169 0.851627
Si Si6 0.337294 0.500000 0.901967
Si Si7 0.425296 0.237880 0.994861
O O1 0.026745 0.434036 0.369751
O O2 0.271222 0.500000 0.738973
O O3 0.870652 0.500000 0.295831
O O4 0.250000 0.750000 0.500000
O O5 0.984684 0.681363 0.264374
O O6 0.301670 0.624992 0.565392
O O7 0.004276 0.680602 0.141498
O O8 0.978572 0.332244 0.546742
O O9 0.309350 0.365201 0.997899
O O10 0.187135 0.763003 0.722361
O O11 0.498550 0.310235 0.894214
O O12 0.532022 0.436663 0.927261
O O13 0.500000 0.219402 0.000000
#
# Coordination Sequence:
#
# PCOD8081138 Si02
#       7
#     4   8   8   4   8   4   8
#     4   9  16  29  49  73 104 130 156 190 226 285
#     4  10  21  33  46  67  98 131 166 202 234 278
#     4  10  19  32  49  73 101 132 160 190 234 284
#     4  10  18  29  50  72  96 129 162 192 236 288
#     4   9  19  32  49  72 101 131 157 190 235 289
#     4   9  16  29  49  75 102 131 158 185 229 286
#     4  10  20  33  48  68  96 127 164 206 240 276
#
# _framework density 17.859819000000002
#
# number of rings (size 3 to 8) (size 9 to 14) (size 15 to 20)
#    0.000    2.364    0.000    5.455    0.000    8.727 
#    0.000    1.364    0.000    0.000    0.000    2.545 
#    0.000    7.273    0.000    0.000    0.000    0.000 
#
# Total GULP energy -272725.704639 kJ/mol
# GULP energy per Si atom -12396.622938 kJ/mol
# Density = 1.781917 g / cm^3
# Si number density = 17.859819 Si / 1000 Ang^3
#
#
#
# Elastic Constant Matrix: (Units=GPa)
#
#
# Indices 1 2 3 4 5 6 
#
# 1 129.2427 39.5847 45.3699 0.0005 -7.6906 0.0011
# 2 39.5847 48.7090 36.0051 -0.0010 -7.3109 -0.0019
# 3 45.3699 36.0051 129.7477 0.0011 -10.6015 0.0050
# 4 0.0005 -0.0010 0.0011 25.8741 0.0014 0.9969
# 5 -7.6906 -7.3109 -10.6015 0.0014 21.5728 0.0033
# 6 0.0011 -0.0019 0.0050 0.9969 0.0033 18.4513
#
#
#
# Elastic Compliance Matrix: (Units=1/GPa)
#
#
# Indices 1 2 3 4 5 6 
#
# 1 0.010581 -0.007322 -0.001628 0.000000 0.000491 -0.000001
# 2 -0.007322 0.031524 -0.005759 0.000001 0.005243 0.000004
# 3 -0.001628 -0.005759 0.010072 -0.000001 0.002418 -0.000004
# 4 0.000000 0.000001 -0.000001 0.038729 -0.000002 -0.002093
# 5 0.000491 0.005243 0.002418 -0.000002 0.049494 -0.000009
# 6 -0.000001 0.000004 -0.000004 -0.002093 -0.000009 0.054310
#
#
# Mechanical properties :
#
#
# Convention : Reuss Voigt Hill
#
# Bulk Modulus (GPa) = 43.93809 61.06875 52.50342
# Shear Modulus (GPa) = 21.57824 25.62896 23.60360
#
# Velocity S-wave (km/s) = 3.47969 3.79226 3.63933
# Velocity P-wave (km/s) = 6.38744 7.31044 6.86447
#
# Compressibility (1/GPa) = 0.02275930
#
# Stress axis : x y z
#
# Youngs Moduli (GPa) = 94.51339 31.72150 99.28196
#
# Poissons Ratio (x) = 0.23225 0.16163
# Poissons Ratio (y) = 0.69198 0.57181
# Poissons Ratio (z) = 0.15386 0.18270
#
# Static dielectric constant tensor:
#      x y z
#    x 3.205650 0.000000 -0.139620 
#    y 0.000000 3.284050 0.000000 
#    z -0.139620 0.000000 3.927380 
# 
# 
# High freq. dielectric constant tensor:
#      x y z
#    x 1.674700 0.000000 0.018110 
#    y 0.000000 1.653710 0.000000 
#    z 0.018110 0.000000 1.705420 
# 
# From -- ./inp_files/285819.got.cif
#   From: 2010.06.25/outbox.cif.g09.slc.cpg/sg12_143_cif.got.tgz:285819.got - 2010.06.28 00:19:55.
