data_PCOD8081886
_publ_section_title
;
Structure prediction by ZEFSAII (Michael W. Deem and Ramdas Pophale) SiO2 
 PCOD8081886
Probable space group: C 2/M
;
_chemical_formula_sum "Si O2"
_cell_formula_units_Z 64
_cell_length_a 9.622207
_cell_length_b 20.345004
_cell_length_c 23.009343
_cell_angle_alpha 90.000000
_cell_angle_beta 50.137281
_cell_angle_gamma 90.000000
_cell_volume 3457.495964
_symmetry_space_group_name_H-M "C 2/M"
_symmetry_group_IT_number 12
_symmetry_cell_setting 'monoclinic'
loop_
_space_group_symop_operation_xyz
x,y,z
-x,y,-z
-x,-y,-z
x,-y,z
1/2+x,1/2+y,z
1/2-x,1/2+y,-z
1/2-x,1/2-y,-z
1/2+x,1/2-y,z
loop_
_atom_site_type_symbol
_atom_site_label
_atom_site_fract_x
_atom_site_fract_y
_atom_site_fract_z
Si Si1 0.920146 0.286955 0.582746
Si Si2 0.661794 0.927509 0.358150
Si Si3 0.947288 0.427512 0.183995
Si Si4 0.112717 0.577018 0.023318
Si Si5 0.067328 0.106449 0.249081
Si Si6 0.979612 0.077551 0.867946
Si Si7 0.986862 0.241250 0.322395
Si Si8 0.139048 0.625514 0.239003
O O1 0.935777 0.366808 0.583027
O O2 0.716372 0.261740 0.647181
O O3 0.000000 0.264198 0.500000
O O4 0.031321 0.249331 0.602989
O O5 0.624712 0.920935 0.299317
O O6 0.875237 0.926255 0.315949
O O7 0.588131 0.000000 0.397328
O O8 0.029432 0.500000 0.170604
O O9 0.732896 0.434975 0.230512
O O10 0.045936 0.392147 0.102457
O O11 0.985516 0.388721 0.232860
O O12 0.066407 0.500000 0.038128
O O13 0.326177 0.589934 0.957501
O O14 0.000000 0.608394 0.000000
O O15 0.085287 0.110977 0.174649
O O16 0.089611 0.176763 0.273713
O O17 0.161741 0.113288 0.841722
O O18 0.011846 0.000000 0.848980
O O19 0.110183 0.299739 0.265184
#
# Coordination Sequence:
#
# PCOD8081886 Si02
#       8
#     8   8   8   8   8   8   8   8
#     4  10  20  35  56  77 101 132 162 199 240 291
#     4   9  18  33  51  75 103 129 160 200 249 296
#     4  11  19  28  48  76  99 125 164 209 258 297
#     4   9  17  29  46  71 100 128 165 209 250 298
#     4  10  18  30  52  71  95 131 167 209 241 285
#     4  10  18  32  52  72  98 131 165 207 258 299
#     4  10  21  36  52  75 101 130 169 202 239 284
#     4  10  20  32  48  70 103 134 162 205 252 291
#
# _framework density 18.510505999999999
#
# number of rings (size 3 to 8) (size 9 to 14) (size 15 to 20)
#    0.000    2.125    1.250    4.875    0.000    0.750 
#    0.000    1.875    0.000    4.500    0.000    0.000 
#    0.000   23.000    0.000    0.000    0.000    0.000 
#
# Total GULP energy -396664.658767 kJ/mol
# GULP energy per Si atom -12395.770586 kJ/mol
# Density = 1.846838 g / cm^3
# Si number density = 18.510506 Si / 1000 Ang^3
#
#
#
# Elastic Constant Matrix: (Units=GPa)
#
#
# Indices 1 2 3 4 5 6 
#
# 1 84.8771 14.7464 11.9346 -0.0016 10.6665 0.0016
# 2 14.7464 88.7352 20.4534 -0.0008 8.0162 0.0007
# 3 11.9346 20.4534 57.4786 -0.0026 8.9588 0.0021
# 4 -0.0016 -0.0008 -0.0026 15.0121 0.0015 -1.2738
# 5 10.6665 8.0162 8.9588 0.0015 26.3887 -0.0012
# 6 0.0016 0.0007 0.0021 -1.2738 -0.0012 25.0474
#
#
#
# Elastic Compliance Matrix: (Units=1/GPa)
#
#
# Indices 1 2 3 4 5 6 
#
# 1 0.012766 -0.001395 -0.001495 0.000001 -0.004229 -0.000001
# 2 -0.001395 0.012571 -0.003882 0.000000 -0.001937 0.000000
# 3 -0.001495 -0.003882 0.019863 0.000003 -0.004960 -0.000002
# 4 0.000001 0.000000 0.000003 0.066901 -0.000005 0.003402
# 5 -0.004229 -0.001937 -0.004960 -0.000005 0.041877 0.000003
# 6 -0.000001 0.000000 -0.000002 0.003402 0.000003 0.040097
#
#
# Mechanical properties :
#
#
# Convention : Reuss Voigt Hill
#
# Bulk Modulus (GPa) = 31.58980 36.15106 33.87043
# Shear Modulus (GPa) = 22.91790 25.55342 24.23566
#
# Velocity S-wave (km/s) = 3.52248 3.71951 3.62234
# Velocity P-wave (km/s) = 5.80059 6.16594 5.98605
#
# Compressibility (1/GPa) = 0.03165579
#
# Stress axis : x y z
#
# Youngs Moduli (GPa) = 78.33473 79.54809 50.34594
#
# Poissons Ratio (x) = 0.11095 0.07528
# Poissons Ratio (y) = 0.10926 0.19543
# Poissons Ratio (z) = 0.11712 0.30879
#
# Static dielectric constant tensor:
#      x y z
#    x 3.449860 0.000000 0.040580 
#    y 0.000000 3.227650 0.000000 
#    z 0.040580 0.000000 3.255550 
# 
# 
# High freq. dielectric constant tensor:
#      x y z
#    x 1.723540 0.000000 0.000300 
#    y 0.000000 1.693720 0.000000 
#    z 0.000300 0.000000 1.702950 
# 
# From -- ./inp_files/301420.got.cif
#   From: 2010.06.25/outbox.cif.g09.slc.cpg/sg12_151_cif.got.tgz:301420.got - 2010.06.28 00:19:55.
