data_PCOD8081008
_publ_section_title
;
Structure prediction by ZEFSAII (Michael W. Deem and Ramdas Pophale) SiO2 
 PCOD8081008
Probable space group: C 2/M
;
_chemical_formula_sum "Si O2"
_cell_formula_units_Z 64
_cell_length_a 20.762102
_cell_length_b 9.180837
_cell_length_c 19.951163
_cell_angle_alpha 90.000000
_cell_angle_beta 103.710955
_cell_angle_gamma 90.000000
_cell_volume 3694.590642
_symmetry_space_group_name_H-M "C 2/M"
_symmetry_group_IT_number 12
_symmetry_cell_setting 'monoclinic'
loop_
_space_group_symop_operation_xyz
x,y,z
-x,y,-z
-x,-y,-z
x,-y,z
1/2+x,1/2+y,z
1/2-x,1/2+y,-z
1/2-x,1/2-y,-z
1/2+x,1/2-y,z
loop_
_atom_site_type_symbol
_atom_site_label
_atom_site_fract_x
_atom_site_fract_y
_atom_site_fract_z
Si Si1 0.563622 0.326906 0.777639
Si Si2 0.315710 0.671415 0.281658
Si Si3 0.948479 0.173193 0.078332
Si Si4 0.682599 0.671675 0.211070
Si Si5 0.655685 0.830104 0.433241
Si Si6 0.080772 0.171751 0.302668
Si Si7 0.695604 0.331821 0.569072
Si Si8 0.091674 0.172802 0.071924
O O1 0.563610 0.500000 0.777217
O O2 0.620950 0.267682 0.743085
O O3 0.577770 0.267579 0.856672
O O4 0.492112 0.271675 0.735254
O O5 0.305661 0.500000 0.269687
O O6 0.251378 0.748246 0.237040
O O7 0.327493 0.710014 0.362208
O O8 0.022591 0.233960 0.084408
O O9 0.951395 0.000000 0.081301
O O10 0.901218 0.223047 0.004431
O O11 0.695379 0.500000 0.214481
O O12 0.631600 0.715965 0.256795
O O13 0.652480 0.727657 0.132611
O O14 0.599749 0.752164 0.375764
O O15 0.653375 0.766021 0.507704
O O16 0.726617 0.796105 0.417481
O O17 0.640128 0.000000 0.432812
O O18 0.081833 0.000000 0.315932
O O19 0.681954 0.500000 0.548632
O O20 0.088985 0.000000 0.075882
#
# Coordination Sequence:
#
# PCOD8081008 Si02
#       8
#     8   8   8   8   8   8   8   8
#     4   9  17  30  48  70  97 130 165 199 237 284
#     4  10  20  34  50  70  99 131 161 195 239 291
#     4   8  12  22  42  69  98 125 158 200 242 276
#     4  10  18  29  48  74 100 125 160 203 242 281
#     4  10  19  31  50  74  97 122 157 200 242 284
#     4  10  18  30  50  75  98 122 160 204 241 279
#     4   9  18  32  48  69  96 125 159 196 237 284
#     4   8  13  22  41  71 101 123 153 204 247 273
#
# _framework density 17.322621999999999
#
# number of rings (size 3 to 8) (size 9 to 14) (size 15 to 20)
#    0.000    2.750    2.500    1.125    0.000    1.000 
#    0.000    1.875    0.000    3.750    0.000    2.625 
#    0.000    0.000    0.000    0.000    0.000    0.000 
#
# Total GULP energy -396661.051741 kJ/mol
# GULP energy per Si atom -12395.657867 kJ/mol
# Density = 1.728320 g / cm^3
# Si number density = 17.322622 Si / 1000 Ang^3
#
#
#
# Elastic Constant Matrix: (Units=GPa)
#
#
# Indices 1 2 3 4 5 6 
#
# 1 109.3673 26.4424 80.5442 0.0000 0.4696 0.0000
# 2 26.4424 28.2286 40.6414 0.0000 6.0173 0.0000
# 3 80.5442 40.6414 174.4361 0.0000 4.4184 0.0000
# 4 0.0000 0.0000 0.0000 15.4234 0.0000 5.2319
# 5 0.4696 6.0173 4.4184 0.0000 28.6618 0.0000
# 6 0.0000 0.0000 0.0000 5.2319 0.0000 17.8717
#
#
#
# Elastic Compliance Matrix: (Units=1/GPa)
#
#
# Indices 1 2 3 4 5 6 
#
# 1 0.014587 -0.006483 -0.005274 0.000000 0.001935 0.000000
# 2 -0.006483 0.058784 -0.010433 0.000000 -0.010627 0.000000
# 3 -0.005274 -0.010433 0.010582 0.000000 0.000645 0.000000
# 4 0.000000 0.000000 0.000000 0.071985 0.000000 -0.021074
# 5 0.001935 -0.010627 0.000645 0.000000 0.036989 0.000000
# 6 0.000000 0.000000 0.000000 -0.021074 0.000000 0.062124
#
#
# Mechanical properties :
#
#
# Convention : Reuss Voigt Hill
#
# Bulk Modulus (GPa) = 25.27003 67.47643 46.37323
# Shear Modulus (GPa) = 15.99373 23.35165 19.67269
#
# Velocity S-wave (km/s) = 3.04186 3.67555 3.37362
# Velocity P-wave (km/s) = 5.19199 7.55316 6.48101
#
# Compressibility (1/GPa) = 0.03957257
#
# Stress axis : x y z
#
# Youngs Moduli (GPa) = 68.55625 17.01136 94.49781
#
# Poissons Ratio (x) = 0.11029 0.49835
# Poissons Ratio (y) = 0.44448 0.98591
# Poissons Ratio (z) = 0.36154 0.17748
#
# Static dielectric constant tensor:
#      x y z
#    x 3.128720 0.000000 -0.012550 
#    y 0.000000 2.813080 0.000000 
#    z -0.012550 0.000000 3.606340 
# 
# 
# High freq. dielectric constant tensor:
#      x y z
#    x 1.643620 0.000000 0.006770 
#    y 0.000000 1.625820 0.000000 
#    z 0.006770 0.000000 1.689340 
# 
# From -- ./inp_files/287784.got.cif
#   From: 2010.06.25/outbox.cif.g09.slc.cpg/sg12_144_cif.got.tgz:287784.got - 2010.06.28 00:19:55.
