data_PCOD8081115
_publ_section_title
;
Structure prediction by ZEFSAII (Michael W. Deem and Ramdas Pophale) SiO2 
 PCOD8081115
Probable space group: C 2/M
;
_chemical_formula_sum "Si O2"
_cell_formula_units_Z 56
_cell_length_a 20.020580
_cell_length_b 8.622356
_cell_length_c 26.232094
_cell_angle_alpha 90.000000
_cell_angle_beta 39.613509
_cell_angle_gamma 90.000000
_cell_volume 2887.272109
_symmetry_space_group_name_H-M "C 2/M"
_symmetry_group_IT_number 12
_symmetry_cell_setting 'monoclinic'
loop_
_space_group_symop_operation_xyz
x,y,z
-x,y,-z
-x,-y,-z
x,-y,z
1/2+x,1/2+y,z
1/2-x,1/2+y,-z
1/2-x,1/2-y,-z
1/2+x,1/2-y,z
loop_
_atom_site_type_symbol
_atom_site_label
_atom_site_fract_x
_atom_site_fract_y
_atom_site_fract_z
Si Si1 0.288823 0.679049 0.831700
Si Si2 0.413851 0.681365 0.091816
Si Si3 0.545596 0.680925 0.816639
Si Si4 0.828892 0.681496 0.913236
Si Si5 0.672410 0.816607 0.503373
Si Si6 0.018495 0.819607 0.663069
Si Si7 0.169290 0.317878 0.658461
O O1 0.282783 0.500000 0.852013
O O2 0.191951 0.721850 0.852768
O O3 0.281965 0.787441 0.885191
O O4 0.394910 0.712408 0.738135
O O5 0.388986 0.500000 0.100660
O O6 0.457635 0.722585 0.121870
O O7 0.500000 0.734984 0.000000
O O8 0.560549 0.500000 0.798537
O O9 0.438756 0.732963 0.853290
O O10 0.641476 0.768026 0.732422
O O11 0.843643 0.500000 0.913700
O O12 0.750000 0.750000 0.000000
O O13 0.750000 0.750000 0.500000
O O14 0.558340 0.747406 0.584971
O O15 0.718430 0.759217 0.422185
O O16 0.667365 0.000000 0.507761
O O17 0.075701 0.734890 0.676238
O O18 0.046239 0.000000 0.650827
O O19 0.182067 0.500000 0.647230
#
# Coordination Sequence:
#
# PCOD8081115 Si02
#       7
#     8   8   8   8   8   8   8
#     4  11  23  38  60  86 117 152 191 239 287 343
#     4  10  23  42  62  83 112 153 196 240 291 349
#     4  11  22  38  59  85 117 151 192 241 291 344
#     4  12  24  38  59  85 115 148 188 238 292 346
#     4  10  18  29  49  78 114 151 187 232 283 339
#     4  10  19  33  53  81 117 151 188 234 285 341
#     4  11  20  32  53  82 115 153 192 234 286 342
#
# _framework density 19.395468999999999
#
# number of rings (size 3 to 8) (size 9 to 14) (size 15 to 20)
#    0.000    1.286    1.429    7.714    0.000    4.286 
#    0.000    0.000    0.000    0.857    0.000    6.000 
#    0.000    0.000    0.000    0.000    0.000    0.000 
#
# Total GULP energy -347277.383895 kJ/mol
# GULP energy per Si atom -12402.763711 kJ/mol
# Density = 1.935132 g / cm^3
# Si number density = 19.395469 Si / 1000 Ang^3
#
#
#
# Elastic Constant Matrix: (Units=GPa)
#
#
# Indices 1 2 3 4 5 6 
#
# 1 46.8007 17.3465 19.1606 0.0070 0.2659 -0.0247
# 2 17.3465 108.1935 46.9007 0.0089 -0.0952 -0.0318
# 3 19.1606 46.9007 144.7363 -0.0011 10.0569 -0.0054
# 4 0.0070 0.0089 -0.0011 38.0790 0.0010 1.0852
# 5 0.2659 -0.0952 10.0569 0.0010 27.6627 0.0047
# 6 -0.0247 -0.0318 -0.0054 1.0852 0.0047 25.0605
#
#
#
# Elastic Compliance Matrix: (Units=1/GPa)
#
#
# Indices 1 2 3 4 5 6 
#
# 1 0.023302 -0.002770 -0.002227 -0.000004 0.000576 0.000019
# 2 -0.002770 0.011131 -0.003329 -0.000003 0.001275 0.000011
# 3 -0.002227 -0.003329 0.008497 0.000002 -0.003079 -0.000004
# 4 -0.000004 -0.000003 0.000002 0.026294 -0.000001 -0.001139
# 5 0.000576 0.001275 -0.003079 -0.000001 0.037268 -0.000005
# 6 0.000019 0.000011 -0.000004 -0.001139 -0.000005 0.039953
#
#
# Mechanical properties :
#
#
# Convention : Reuss Voigt Hill
#
# Bulk Modulus (GPa) = 38.05493 51.83845 44.94669
# Shear Modulus (GPa) = 29.09414 32.58196 30.83805
#
# Velocity S-wave (km/s) = 3.87725 4.10307 3.99176
# Velocity P-wave (km/s) = 6.30136 7.01656 6.66855
#
# Compressibility (1/GPa) = 0.02627781
#
# Stress axis : x y z
#
# Youngs Moduli (GPa) = 42.91386 89.83977 117.69446
#
# Poissons Ratio (x) = 0.24886 0.26214
# Poissons Ratio (y) = 0.11887 0.39178
# Poissons Ratio (z) = 0.09558 0.29906
#
# Static dielectric constant tensor:
#      x y z
#    x 3.192730 0.000000 0.086550 
#    y 0.000000 3.616020 0.000000 
#    z 0.086550 0.000000 4.239430 
# 
# 
# High freq. dielectric constant tensor:
#      x y z
#    x 1.708010 0.000000 0.008670 
#    y 0.000000 1.769930 0.000000 
#    z 0.008670 0.000000 1.780970 
# 
# From -- ./inp_files/362994.got.cif
#   From: 2010.06.25/outbox.cif.g09.slc.cpg/sg12_182_cif.got.tgz:362994.got - 2010.06.28 00:19:55.
