data_PCOD8081500
_publ_section_title
;
Structure prediction by ZEFSAII (Michael W. Deem and Ramdas Pophale) SiO2 
 PCOD8081500
Probable space group: C 2/M
;
_chemical_formula_sum "Si O2"
_cell_formula_units_Z 44
_cell_length_a 23.314685
_cell_length_b 9.544557
_cell_length_c 16.486588
_cell_angle_alpha 90.000000
_cell_angle_beta 42.993958
_cell_angle_gamma 90.000000
_cell_volume 2501.786971
_symmetry_space_group_name_H-M "C 2/M"
_symmetry_group_IT_number 12
_symmetry_cell_setting 'monoclinic'
loop_
_space_group_symop_operation_xyz
x,y,z
-x,y,-z
-x,-y,-z
x,-y,z
1/2+x,1/2+y,z
1/2-x,1/2+y,-z
1/2-x,1/2-y,-z
1/2+x,1/2-y,z
loop_
_atom_site_type_symbol
_atom_site_label
_atom_site_fract_x
_atom_site_fract_y
_atom_site_fract_z
Si Si1 0.726215 0.343276 0.642470
Si Si2 0.000000 0.745080 0.500000
Si Si3 0.683925 0.842365 0.287034
Si Si4 0.302480 0.661789 0.881983
Si Si5 0.875400 0.657705 0.360581
Si Si6 0.495851 0.346285 0.681721
O O1 0.689487 0.500000 0.688768
O O2 0.765935 0.291776 0.685500
O O3 0.798573 0.341257 0.501207
O O4 0.650552 0.240694 0.694261
O O5 0.916124 0.651521 0.592586
O O6 0.006587 0.839308 0.573556
O O7 0.710696 0.731143 0.192016
O O8 0.710451 0.000000 0.234139
O O9 0.272208 0.500000 0.910294
O O10 0.399408 0.671613 0.807163
O O11 0.250000 0.750000 0.000000
O O12 0.900702 0.500000 0.310128
O O13 0.954790 0.727529 0.321541
O O14 0.529074 0.500000 0.673470
#
# Coordination Sequence:
#
# PCOD8081500 Si02
#       6
#     8   4   8   8   8   8
#     4   9  18  32  47  72 106 142 174 205 250 304
#     4  10  18  30  48  78 106 136 172 206 250 312
#     4  10  19  32  53  77 106 138 170 212 256 305
#     4  10  22  38  55  77 102 135 176 214 262 308
#     4  10  19  31  48  74 104 140 177 209 250 302
#     4  10  20  33  51  75 105 137 169 212 258 309
#
# _framework density 17.587430000000001
#
# number of rings (size 3 to 8) (size 9 to 14) (size 15 to 20)
#    0.000    2.182    1.818    1.636    0.000    5.818 
#    0.000    0.000    0.000    1.091    0.000    7.636 
#    0.000    0.000    0.000    0.000    0.000    0.000 
#
# Total GULP energy -272752.496378 kJ/mol
# GULP energy per Si atom -12397.840744 kJ/mol
# Density = 1.754740 g / cm^3
# Si number density = 17.587430 Si / 1000 Ang^3
#
#
#
# Elastic Constant Matrix: (Units=GPa)
#
#
# Indices 1 2 3 4 5 6 
#
# 1 134.5830 76.2398 30.4287 -0.0002 6.5770 0.0001
# 2 76.2398 145.5538 39.3949 -0.0019 4.1386 0.0010
# 3 30.4287 39.3949 65.3535 -0.0009 8.9465 0.0005
# 4 -0.0002 -0.0019 -0.0009 18.8451 0.0006 1.3699
# 5 6.5770 4.1386 8.9465 0.0006 14.3778 -0.0002
# 6 0.0001 0.0010 0.0005 1.3699 -0.0002 34.5388
#
#
#
# Elastic Compliance Matrix: (Units=1/GPa)
#
#
# Indices 1 2 3 4 5 6 
#
# 1 0.010845 -0.005181 -0.001587 0.000000 -0.002482 0.000000
# 2 -0.005181 0.010692 -0.004303 0.000001 0.001969 0.000000
# 3 -0.001587 -0.004303 0.020075 0.000001 -0.010527 0.000000
# 4 0.000000 0.000001 0.000001 0.053218 -0.000003 -0.002111
# 5 -0.002482 0.001969 -0.010527 -0.000003 0.076671 0.000001
# 6 0.000000 0.000000 0.000000 -0.002111 0.000001 0.029037
#
#
# Mechanical properties :
#
#
# Convention : Reuss Voigt Hill
#
# Bulk Modulus (GPa) = 51.35560 70.84633 61.10096
# Shear Modulus (GPa) = 21.81794 26.84746 24.33270
#
# Velocity S-wave (km/s) = 3.52595 3.91130 3.72362
# Velocity P-wave (km/s) = 6.77053 7.79535 7.30094
#
# Compressibility (1/GPa) = 0.01947207
#
# Stress axis : x y z
#
# Youngs Moduli (GPa) = 92.20695 93.52407 49.81283
#
# Poissons Ratio (x) = 0.48450 0.07905
# Poissons Ratio (y) = 0.47768 0.21434
# Poissons Ratio (z) = 0.14632 0.40243
#
# Static dielectric constant tensor:
#      x y z
#    x 3.351400 0.000000 0.008320 
#    y 0.000000 3.454700 0.000000 
#    z 0.008320 0.000000 2.951570 
# 
# 
# High freq. dielectric constant tensor:
#      x y z
#    x 1.683950 0.000000 0.000850 
#    y 0.000000 1.693230 0.000000 
#    z 0.000850 0.000000 1.638600 
# 
# From -- ./inp_files/237142.got.cif
#   From: 2010.06.25/outbox.cif.g09.slc.cpg/sg12_119_cif.got.tgz:237142.got - 2010.06.28 00:19:55.
