data_PCOD8081781
_publ_section_title
;
Structure prediction by ZEFSAII (Michael W. Deem and Ramdas Pophale) SiO2 
 PCOD8081781
Probable space group: C 2/M
;
_chemical_formula_sum "Si O2"
_cell_formula_units_Z 64
_cell_length_a 25.210831
_cell_length_b 8.762297
_cell_length_c 33.977488
_cell_angle_alpha 90.000000
_cell_angle_beta 149.724134
_cell_angle_gamma 90.000000
_cell_volume 3784.148276
_symmetry_space_group_name_H-M "C 2/M"
_symmetry_group_IT_number 12
_symmetry_cell_setting 'monoclinic'
loop_
_space_group_symop_operation_xyz
x,y,z
-x,y,-z
-x,-y,-z
x,-y,z
1/2+x,1/2+y,z
1/2-x,1/2+y,-z
1/2-x,1/2-y,-z
1/2+x,1/2-y,z
loop_
_atom_site_type_symbol
_atom_site_label
_atom_site_fract_x
_atom_site_fract_y
_atom_site_fract_z
Si Si1 0.563584 0.828272 0.500525
Si Si2 0.747766 0.679304 0.659221
Si Si3 0.699132 0.319234 0.077393
Si Si4 0.966060 0.180680 0.810613
Si Si5 0.375924 0.679570 0.341821
Si Si6 0.976922 0.818704 0.906967
Si Si7 0.822465 0.680978 0.080209
Si Si8 0.265689 0.318656 0.812716
O O1 0.500000 0.826681 0.500000
O O2 0.669463 0.730272 0.574144
O O3 0.491354 0.752721 0.420708
O O4 0.593159 0.000000 0.506891
O O5 0.766955 0.500000 0.668954
O O6 0.856316 0.767272 0.721553
O O7 0.700713 0.728069 0.671459
O O8 0.689936 0.500000 0.071788
O O9 0.778008 0.264578 0.093898
O O10 0.741455 0.263032 0.146705
O O11 0.582406 0.252142 0.994595
O O12 0.971647 0.240565 0.858932
O O13 0.059431 0.257938 0.846133
O O14 0.977671 0.000000 0.815400
O O15 0.390108 0.500000 0.349496
O O16 0.329524 0.740693 0.271359
O O17 0.876212 0.758165 0.866180
O O18 0.978282 0.000000 0.908369
O O19 0.819914 0.500000 0.074413
O O20 0.750000 0.750000 0.000000
O O21 0.255924 0.500000 0.802076
#
# Coordination Sequence:
#
# PCOD8081781 Si02
#       8
#     8   8   8   8   8   8   8   8
#     4   9  17  29  47  70  97 131 169 202 237 289
#     4  10  19  31  47  71 103 134 163 200 250 298
#     4   9  18  32  50  72  95 126 171 214 250 292
#     4  11  20  32  51  74  98 131 171 209 249 296
#     4  10  19  30  45  69 104 136 162 197 247 300
#     4   9  16  28  48  72  96 123 163 208 248 289
#     4  11  21  35  52  72  97 129 169 213 257 299
#     4  10  18  30  51  73  96 130 170 208 245 293
#
# _framework density 16.912655999999998
#
# number of rings (size 3 to 8) (size 9 to 14) (size 15 to 20)
#    0.000    2.125    2.500    2.250    0.000    4.000 
#    0.000    1.250    0.000    0.750    0.000    0.875 
#    0.000    0.000    0.000    0.000    0.000    0.000 
#
# Total GULP energy -396831.533627 kJ/mol
# GULP energy per Si atom -12400.985426 kJ/mol
# Density = 1.687416 g / cm^3
# Si number density = 16.912656 Si / 1000 Ang^3
#
#
#
# Elastic Constant Matrix: (Units=GPa)
#
#
# Indices 1 2 3 4 5 6 
#
# 1 95.2908 24.3378 58.6587 -0.0002 -6.4541 0.0001
# 2 24.3378 51.8506 30.5428 -0.0005 -1.7490 0.0002
# 3 58.6587 30.5428 145.2730 0.0010 -2.6748 0.0002
# 4 -0.0002 -0.0005 0.0010 27.7320 -0.0001 3.8121
# 5 -6.4541 -1.7490 -2.6748 -0.0001 18.2749 -0.0001
# 6 0.0001 0.0002 0.0002 3.8121 -0.0001 17.9068
#
#
#
# Elastic Compliance Matrix: (Units=1/GPa)
#
#
# Indices 1 2 3 4 5 6 
#
# 1 0.014920 -0.003834 -0.005142 0.000000 0.004150 0.000000
# 2 -0.003834 0.023035 -0.003288 0.000001 0.000369 0.000000
# 3 -0.005142 -0.003288 0.009638 0.000000 -0.000720 0.000000
# 4 0.000000 0.000001 0.000000 0.037147 0.000000 -0.007908
# 5 0.004150 0.000369 -0.000720 0.000000 0.056115 0.000000
# 6 0.000000 0.000000 0.000000 -0.007908 0.000000 0.057528
#
#
# Mechanical properties :
#
#
# Convention : Reuss Voigt Hill
#
# Bulk Modulus (GPa) = 43.35661 57.72145 50.53903
# Shear Modulus (GPa) = 21.68264 24.70773 23.19519
#
# Velocity S-wave (km/s) = 3.58444 3.82632 3.70735
# Velocity P-wave (km/s) = 6.54387 7.32968 6.94789
#
# Compressibility (1/GPa) = 0.02306453
#
# Stress axis : x y z
#
# Youngs Moduli (GPa) = 67.02555 43.41189 103.75844
#
# Poissons Ratio (x) = 0.16645 0.53350
# Poissons Ratio (y) = 0.25699 0.34116
# Poissons Ratio (z) = 0.34463 0.14274
#
# Static dielectric constant tensor:
#      x y z
#    x 3.069790 0.000000 0.021080 
#    y 0.000000 3.016120 0.000000 
#    z 0.021080 0.000000 3.310350 
# 
# 
# High freq. dielectric constant tensor:
#      x y z
#    x 1.615690 0.000000 0.005880 
#    y 0.000000 1.641360 0.000000 
#    z 0.005880 0.000000 1.660950 
# 
# From -- ./inp_files/382560.got.cif
#   From: 2010.06.25/outbox.cif.g09.slc.cpg/sg12_192_cif.got.tgz:382560.got - 2010.06.28 00:19:55.
