data_PCOD8081978
_publ_section_title
;
Structure prediction by ZEFSAII (Michael W. Deem and Ramdas Pophale) SiO2 
 PCOD8081978
Probable space group: C 2/M
;
_chemical_formula_sum "Si O2"
_cell_formula_units_Z 48
_cell_length_a 13.971024
_cell_length_b 16.712545
_cell_length_c 11.535391
_cell_angle_alpha 90.000000
_cell_angle_beta 66.696878
_cell_angle_gamma 90.000000
_cell_volume 2473.698486
_symmetry_space_group_name_H-M "C 2/M"
_symmetry_group_IT_number 12
_symmetry_cell_setting 'monoclinic'
loop_
_space_group_symop_operation_xyz
x,y,z
-x,y,-z
-x,-y,-z
x,-y,z
1/2+x,1/2+y,z
1/2-x,1/2+y,-z
1/2-x,1/2-y,-z
1/2+x,1/2-y,z
loop_
_atom_site_type_symbol
_atom_site_label
_atom_site_fract_x
_atom_site_fract_y
_atom_site_fract_z
Si Si1 0.604582 0.406379 0.504076
Si Si2 0.911681 0.141483 0.914564
Si Si3 0.632212 0.595105 0.746177
Si Si4 0.214916 0.093896 0.224767
Si Si5 0.110363 0.679193 0.000084
Si Si6 0.778207 0.588093 0.863618
O O1 0.500000 0.367735 0.500000
O O2 0.584565 0.500000 0.532818
O O3 0.631618 0.368242 0.616754
O O4 0.700176 0.392002 0.369416
O O5 0.890683 0.125833 0.787441
O O6 0.035399 0.127559 0.872081
O O7 0.879279 0.227394 0.980436
O O8 0.830561 0.080493 0.012819
O O9 0.624218 0.500000 0.749051
O O10 0.741126 0.622193 0.755334
O O11 0.308431 0.149063 0.134649
O O12 0.236381 0.000000 0.188850
O O13 0.133364 0.639350 0.114414
O O14 0.000000 0.654210 0.000000
O O15 0.826226 0.500000 0.826864
#
# Coordination Sequence:
#
# PCOD8081978 Si02
#       6
#     8   8   8   8   8   8
#     4   9  16  29  52  82 111 133 159 205 265 322
#     4  11  19  31  52  77 110 137 166 209 268 318
#     4  10  18  30  53  84 111 132 160 207 271 326
#     4  10  19  33  56  82 105 135 174 214 256 306
#     4  11  23  36  51  70 103 147 184 215 250 296
#     4  10  20  32  50  76 103 133 172 218 263 306
#
# _framework density 19.404143999999999
#
# number of rings (size 3 to 8) (size 9 to 14) (size 15 to 20)
#    0.000    1.833    1.667    6.500    0.000    2.667 
#    0.000    0.000    0.000   12.000    0.000    4.667 
#    0.000    0.000    0.000    0.333    0.000    0.000 
#
# Total GULP energy -297352.872493 kJ/mol
# GULP energy per Si atom -12389.703021 kJ/mol
# Density = 1.935998 g / cm^3
# Si number density = 19.404144 Si / 1000 Ang^3
#
#
#
# Elastic Constant Matrix: (Units=GPa)
#
#
# Indices 1 2 3 4 5 6 
#
# 1 105.3683 32.8861 32.7298 0.0000 24.9146 0.0000
# 2 32.8861 66.1632 28.5406 0.0000 2.9156 0.0000
# 3 32.7298 28.5406 89.6254 0.0000 22.3819 0.0000
# 4 0.0000 0.0000 0.0000 11.5354 0.0000 -1.4051
# 5 24.9146 2.9156 22.3819 0.0000 29.8866 0.0000
# 6 0.0000 0.0000 0.0000 -1.4051 0.0000 26.6361
#
#
#
# Elastic Compliance Matrix: (Units=1/GPa)
#
#
# Indices 1 2 3 4 5 6 
#
# 1 0.014192 -0.006389 -0.000430 0.000000 -0.010886 0.000000
# 2 -0.006389 0.020624 -0.006227 0.000000 0.007977 0.000000
# 3 -0.000430 -0.006227 0.016060 0.000000 -0.011061 0.000000
# 4 0.000000 0.000000 0.000000 0.087250 0.000000 0.004603
# 5 -0.010886 0.007977 -0.011061 0.000000 0.050040 0.000000
# 6 0.000000 0.000000 0.000000 0.004603 0.000000 0.037786
#
#
# Mechanical properties :
#
#
# Convention : Reuss Voigt Hill
#
# Bulk Modulus (GPa) = 40.34652 49.94111 45.14381
# Shear Modulus (GPa) = 19.20829 24.74499 21.97664
#
# Velocity S-wave (km/s) = 3.14969 3.57493 3.36903
# Velocity P-wave (km/s) = 5.83655 6.54472 6.20075
#
# Compressibility (1/GPa) = 0.02478529
#
# Stress axis : x y z
#
# Youngs Moduli (GPa) = 70.46190 48.48677 62.26823
#
# Poissons Ratio (x) = 0.30978 0.02675
# Poissons Ratio (y) = 0.45018 0.38772
# Poissons Ratio (z) = 0.03027 0.30191
#
# Static dielectric constant tensor:
#      x y z
#    x 3.681910 0.000000 0.537310 
#    y 0.000000 3.209460 0.000000 
#    z 0.537310 0.000000 3.702140 
# 
# 
# High freq. dielectric constant tensor:
#      x y z
#    x 1.748380 0.000000 0.033990 
#    y 0.000000 1.727760 0.000000 
#    z 0.033990 0.000000 1.747080 
# 
# From -- ./inp_files/144797.got.cif
#   From: 2010.06.25/outbox.cif.g09.slc.cpg/sg12_73_cif.got.tgz:144797.got - 2010.06.28 00:19:55.
