data_PCOD8081110
_publ_section_title
;
Structure prediction by ZEFSAII (Michael W. Deem and Ramdas Pophale) SiO2 
 PCOD8081110
Probable space group: C 2/M
;
_chemical_formula_sum "Si O2"
_cell_formula_units_Z 64
_cell_length_a 19.010155
_cell_length_b 23.086873
_cell_length_c 11.406156
_cell_angle_alpha 90.000000
_cell_angle_beta 133.474332
_cell_angle_gamma 90.000000
_cell_volume 3632.761060
_symmetry_space_group_name_H-M "C 2/M"
_symmetry_group_IT_number 12
_symmetry_cell_setting 'monoclinic'
loop_
_space_group_symop_operation_xyz
x,y,z
-x,y,-z
-x,-y,-z
x,-y,z
1/2+x,1/2+y,z
1/2-x,1/2+y,-z
1/2-x,1/2-y,-z
1/2+x,1/2-y,z
loop_
_atom_site_type_symbol
_atom_site_label
_atom_site_fract_x
_atom_site_fract_y
_atom_site_fract_z
Si Si1 0.475324 0.432843 0.600449
Si Si2 0.111811 0.844661 0.099083
Si Si3 0.804535 0.146917 0.394270
Si Si4 0.246325 0.341936 0.074879
Si Si5 0.566084 0.758531 0.463143
Si Si6 0.732268 0.812126 0.534648
Si Si7 0.661496 0.568001 0.971127
Si Si8 0.887858 0.240270 0.111984
O O1 0.500000 0.408702 0.500000
O O2 0.451982 0.500000 0.569983
O O3 0.377817 0.401450 0.526546
O O4 0.562671 0.418451 0.787700
O O5 0.174373 0.832270 0.285324
O O6 0.148722 0.905263 0.085473
O O7 0.126860 0.790930 0.028810
O O8 0.000000 0.852112 0.000000
O O9 0.750477 0.132058 0.211084
O O10 0.862484 0.205631 0.431136
O O11 0.725552 0.149031 0.408921
O O12 0.252189 0.397797 0.996092
O O13 0.331766 0.295479 0.148189
O O14 0.147181 0.306938 0.938495
O O15 0.500000 0.775196 0.500000
O O16 0.634665 0.812960 0.502513
O O17 0.499720 0.741971 0.276378
O O18 0.750000 0.750000 0.500000
O O19 0.685712 0.500000 0.006115
#
# Coordination Sequence:
#
# PCOD8081110 Si02
#       8
#     8   8   8   8   8   8   8   8
#     4  10  18  29  49  78 106 133 171 213 258 315
#     4  11  21  36  53  76 113 150 175 217 271 326
#     4  11  18  33  50  74 105 139 170 212 264 317
#     4  10  19  31  51  75 103 135 173 225 269 319
#     4  11  20  31  50  75 106 140 172 215 262 319
#     4  10  22  34  50  76 106 140 181 214 257 324
#     4  10  21  34  51  77 108 142 184 220 261 326
#     4  10  20  31  49  76 102 134 178 216 273 323
#
# _framework density 17.617455
#
# number of rings (size 3 to 8) (size 9 to 14) (size 15 to 20)
#    0.000    1.625    2.500    5.625    3.500    0.250 
#    0.000    0.625    0.000    0.000    0.000    2.625 
#    0.000    2.500    0.000    0.000    0.000    0.000 
#
# Total GULP energy -396658.017648 kJ/mol
# GULP energy per Si atom -12395.563051 kJ/mol
# Density = 1.757736 g / cm^3
# Si number density = 17.617455 Si / 1000 Ang^3
#
#
#
# Elastic Constant Matrix: (Units=GPa)
#
#
# Indices 1 2 3 4 5 6 
#
# 1 104.0190 27.5585 19.0308 0.0000 -12.1004 0.0000
# 2 27.5585 78.8123 14.8184 0.0000 -6.2074 0.0000
# 3 19.0308 14.8184 51.9843 0.0000 -17.4088 0.0000
# 4 0.0000 0.0000 0.0000 22.4412 0.0000 1.8025
# 5 -12.1004 -6.2074 -17.4088 0.0000 24.6871 0.0000
# 6 0.0000 0.0000 0.0000 1.8025 0.0000 24.0438
#
#
#
# Elastic Compliance Matrix: (Units=1/GPa)
#
#
# Indices 1 2 3 4 5 6 
#
# 1 0.011241 -0.003282 -0.002109 0.000000 0.003197 0.000000
# 2 -0.003282 0.014380 -0.002913 0.000000 -0.000048 0.000000
# 3 -0.002109 -0.002913 0.026507 0.000000 0.016926 0.000000
# 4 0.000000 0.000000 0.000000 0.044831 0.000000 -0.003361
# 5 0.003197 -0.000048 0.016926 0.000000 0.053998 0.000000
# 6 0.000000 0.000000 0.000000 -0.003361 0.000000 0.041843
#
#
# Mechanical properties :
#
#
# Convention : Reuss Voigt Hill
#
# Bulk Modulus (GPa) = 28.15355 39.73678 33.94517
# Shear Modulus (GPa) = 22.59892 25.79494 24.19693
#
# Velocity S-wave (km/s) = 3.58545 3.83060 3.71005
# Velocity P-wave (km/s) = 5.75810 6.49376 6.13697
#
# Compressibility (1/GPa) = 0.03551950
#
# Stress axis : x y z
#
# Youngs Moduli (GPa) = 88.96002 69.54024 37.72527
#
# Poissons Ratio (x) = 0.22826 0.07955
# Poissons Ratio (y) = 0.29200 0.10991
# Poissons Ratio (z) = 0.18760 0.20260
#
# Static dielectric constant tensor:
#      x y z
#    x 3.676390 0.000000 -0.151080 
#    y 0.000000 3.180230 0.000000 
#    z -0.151080 0.000000 3.172990 
# 
# 
# High freq. dielectric constant tensor:
#      x y z
#    x 1.678250 0.000000 -0.022440 
#    y 0.000000 1.651630 0.000000 
#    z -0.022440 0.000000 1.673920 
# 
# From -- ./inp_files/160321.got.cif
#   From: 2010.06.25/outbox.cif.g09.slc.cpg/sg12_81_cif.got.tgz:160321.got - 2010.06.28 00:19:55.
