data_PCOD8081770
_publ_section_title
;
Structure prediction by ZEFSAII (Michael W. Deem and Ramdas Pophale) SiO2 
 PCOD8081770
Probable space group: C 2/M
;
_chemical_formula_sum "Si O2"
_cell_formula_units_Z 64
_cell_length_a 20.753186
_cell_length_b 9.094035
_cell_length_c 19.044466
_cell_angle_alpha 90.000000
_cell_angle_beta 89.839230
_cell_angle_gamma 90.000000
_cell_volume 3594.251725
_symmetry_space_group_name_H-M "C 2/M"
_symmetry_group_IT_number 12
_symmetry_cell_setting 'monoclinic'
loop_
_space_group_symop_operation_xyz
x,y,z
-x,y,-z
-x,-y,-z
x,-y,z
1/2+x,1/2+y,z
1/2-x,1/2+y,-z
1/2-x,1/2-y,-z
1/2+x,1/2-y,z
loop_
_atom_site_type_symbol
_atom_site_label
_atom_site_fract_x
_atom_site_fract_y
_atom_site_fract_z
Si Si1 0.128597 0.674670 0.923752
Si Si2 0.626132 0.825086 0.083237
Si Si3 0.244504 0.829794 0.846284
Si Si4 0.440642 0.171879 0.294658
Si Si5 0.312212 0.667241 0.296754
Si Si6 0.998454 0.674318 0.154093
Si Si7 0.805410 0.826214 0.455238
Si Si8 0.559830 0.173657 0.547512
O O1 0.133120 0.500000 0.920102
O O2 0.188698 0.739467 0.882943
O O3 0.062988 0.733501 0.888731
O O4 0.129892 0.732072 0.003676
O O5 0.687703 0.768006 0.126272
O O6 0.563066 0.756686 0.120995
O O7 0.622557 0.000000 0.084792
O O8 0.243182 0.808634 0.761517
O O9 0.235660 0.000000 0.866649
O O10 0.372651 0.238025 0.272693
O O11 0.493217 0.221727 0.236408
O O12 0.460794 0.218634 0.373178
O O13 0.430344 0.000000 0.290464
O O14 0.336105 0.500000 0.298383
O O15 0.287744 0.711167 0.374359
O O16 0.001132 0.500000 0.147056
O O17 0.750000 0.750000 0.500000
O O18 0.875319 0.759197 0.474923
O O19 0.806423 0.000000 0.470330
O O20 0.500000 0.224173 0.500000
O O21 0.573204 0.000000 0.539902
#
# Coordination Sequence:
#
# PCOD8081770 Si02
#       8
#     8   8   8   8   8   8   8   8
#     4  10  18  30  51  72  92 125 165 204 241 286
#     4   9  18  30  45  70 100 126 158 202 248 288
#     4  10  19  32  49  71  98 128 160 198 244 293
#     4   9  16  29  51  75  95 125 164 200 240 286
#     4   9  18  32  50  72  97 129 164 197 239 290
#     4   9  16  28  47  72  95 121 161 203 239 279
#     4  10  20  35  54  77 103 135 171 209 252 301
#     4   9  18  33  52  78 107 132 164 208 254 302
#
# _framework density 17.806208999999999
#
# number of rings (size 3 to 8) (size 9 to 14) (size 15 to 20)
#    0.000    2.625    1.250    1.125    0.000    2.250 
#    2.250    0.000    0.000    3.750    0.000    0.000 
#    0.000    0.000    0.000    0.000    0.000    0.000 
#
# Total GULP energy -396680.709389 kJ/mol
# GULP energy per Si atom -12396.272168 kJ/mol
# Density = 1.776568 g / cm^3
# Si number density = 17.806209 Si / 1000 Ang^3
#
#
#
# Elastic Constant Matrix: (Units=GPa)
#
#
# Indices 1 2 3 4 5 6 
#
# 1 152.0680 32.8991 90.5052 0.0000 1.4059 0.0000
# 2 32.8991 29.4149 31.0141 0.0000 -2.4485 0.0000
# 3 90.5052 31.0141 137.4733 0.0000 1.0788 0.0000
# 4 0.0000 0.0000 0.0000 17.4590 0.0000 -1.0447
# 5 1.4059 -2.4485 1.0788 0.0000 32.4023 0.0000
# 6 0.0000 0.0000 0.0000 -1.0447 0.0000 22.7849
#
#
#
# Elastic Compliance Matrix: (Units=1/GPa)
#
#
# Indices 1 2 3 4 5 6 
#
# 1 0.011712 -0.006617 -0.006211 0.000000 -0.000801 0.000000
# 2 -0.006617 0.048794 -0.006685 0.000000 0.004197 0.000000
# 3 -0.006211 -0.006685 0.012877 0.000000 -0.000664 0.000000
# 4 0.000000 0.000000 0.000000 0.057435 0.000000 0.002634
# 5 -0.000801 0.004197 -0.000664 0.000000 0.031236 0.000000
# 6 0.000000 0.000000 0.000000 0.002634 0.000000 0.044009
#
#
# Mechanical properties :
#
#
# Convention : Reuss Voigt Hill
#
# Bulk Modulus (GPa) = 29.10614 69.75477 49.43045
# Shear Modulus (GPa) = 19.49005 25.49842 22.49424
#
# Velocity S-wave (km/s) = 3.31201 3.78828 3.55812
# Velocity P-wave (km/s) = 5.56843 7.64161 6.68587
#
# Compressibility (1/GPa) = 0.03435702
#
# Stress axis : x y z
#
# Youngs Moduli (GPa) = 85.38525 20.49412 77.65961
#
# Poissons Ratio (x) = 0.13560 0.48237
# Poissons Ratio (y) = 0.56496 0.51915
# Poissons Ratio (z) = 0.53036 0.13700
#
# Static dielectric constant tensor:
#      x y z
#    x 3.399660 0.000000 0.020530 
#    y 0.000000 3.043330 0.000000 
#    z 0.020530 0.000000 3.674660 
# 
# 
# High freq. dielectric constant tensor:
#      x y z
#    x 1.680040 0.000000 0.001080 
#    y 0.000000 1.658870 0.000000 
#    z 0.001080 0.000000 1.704820 
# 
# From -- ./inp_files/281330.got.cif
#   From: 2010.06.25/outbox.cif.g09.slc.cpg/sg12_141_cif.got.tgz:281330.got - 2010.06.28 00:19:55.
