data_PCOD8081941
_publ_section_title
;
Structure prediction by ZEFSAII (Michael W. Deem and Ramdas Pophale) SiO2 
 PCOD8081941
Probable space group: C 2/M
;
_chemical_formula_sum "Si O2"
_cell_formula_units_Z 56
_cell_length_a 32.646248
_cell_length_b 9.105288
_cell_length_c 11.230804
_cell_angle_alpha 90.000000
_cell_angle_beta 61.161528
_cell_angle_gamma 90.000000
_cell_volume 2924.377878
_symmetry_space_group_name_H-M "C 2/M"
_symmetry_group_IT_number 12
_symmetry_cell_setting 'monoclinic'
loop_
_space_group_symop_operation_xyz
x,y,z
-x,y,-z
-x,-y,-z
x,-y,z
1/2+x,1/2+y,z
1/2-x,1/2+y,-z
1/2-x,1/2-y,-z
1/2+x,1/2-y,z
loop_
_atom_site_type_symbol
_atom_site_label
_atom_site_fract_x
_atom_site_fract_y
_atom_site_fract_z
Si Si1 0.425388 0.831248 0.368537
Si Si2 0.161009 0.174339 0.608937
Si Si3 0.481823 0.169933 0.895765
Si Si4 0.206785 0.328066 0.328910
Si Si5 0.810662 0.826830 0.171609
Si Si6 0.614890 0.168572 0.323622
Si Si7 0.396558 0.673991 0.900879
O O1 0.391660 0.728779 0.338646
O O2 0.478453 0.798064 0.258166
O O3 0.419077 0.798621 0.517396
O O4 0.411796 0.000000 0.360362
O O5 0.196640 0.240393 0.463349
O O6 0.177058 0.233865 0.714892
O O7 0.162331 0.000000 0.597558
O O8 0.437489 0.268381 0.927920
O O9 0.466781 0.000000 0.915341
O O10 0.500000 0.216117 0.000000
O O11 0.204806 0.500000 0.363717
O O12 0.257898 0.280393 0.209342
O O13 0.168305 0.290201 0.282869
O O14 0.815468 0.000000 0.168736
O O15 0.847306 0.766121 0.022933
O O16 0.597419 0.268555 0.241009
O O17 0.611133 0.000000 0.288740
O O18 0.398943 0.500000 0.895636
#
# Coordination Sequence:
#
# PCOD8081941 Si02
#       7
#     8   8   8   8   8   8   8
#     4   9  19  36  57  78 105 142 175 211 263 315
#     4  10  18  30  52  82 111 135 169 218 265 313
#     4  10  21  38  60  84 107 134 173 216 257 311
#     4   9  18  35  56  75 103 143 180 214 258 313
#     4   9  19  34  51  75 108 144 176 212 265 317
#     4   9  19  36  55  75 101 137 180 220 258 305
#     4  11  23  37  54  77 108 142 175 217 265 311
#
# _framework density 19.149373000000001
#
# number of rings (size 3 to 8) (size 9 to 14) (size 15 to 20)
#    0.000    2.429    0.000    3.000    0.000    4.286 
#    0.000    7.143    0.000    0.000    0.000    0.000 
#    0.000    0.000    0.000    0.000    0.000    0.000 
#
# Total GULP energy -347226.547367 kJ/mol
# GULP energy per Si atom -12400.948120 kJ/mol
# Density = 1.910579 g / cm^3
# Si number density = 19.149373 Si / 1000 Ang^3
#
#
#
# Elastic Constant Matrix: (Units=GPa)
#
#
# Indices 1 2 3 4 5 6 
#
# 1 93.5722 37.1347 62.2378 0.0000 -2.9223 0.0000
# 2 37.1347 59.0663 37.6306 0.0000 2.5063 0.0000
# 3 62.2378 37.6306 111.0011 0.0000 -4.7596 0.0000
# 4 0.0000 0.0000 0.0000 24.9677 0.0000 2.0089
# 5 -2.9223 2.5063 -4.7596 0.0000 34.6583 0.0000
# 6 0.0000 0.0000 0.0000 2.0089 0.0000 31.2095
#
#
#
# Elastic Compliance Matrix: (Units=1/GPa)
#
#
# Indices 1 2 3 4 5 6 
#
# 1 0.018854 -0.006611 -0.008290 0.000000 0.000929 0.000000
# 2 -0.006611 0.024144 -0.004604 0.000000 -0.002936 0.000000
# 3 -0.008290 -0.004604 0.015292 0.000000 0.001734 0.000000
# 4 0.000000 0.000000 0.000000 0.040260 0.000000 -0.002592
# 5 0.000929 -0.002936 0.001734 0.000000 0.029382 0.000000
# 6 0.000000 0.000000 0.000000 -0.002592 0.000000 0.032208
#
#
# Mechanical properties :
#
#
# Convention : Reuss Voigt Hill
#
# Bulk Modulus (GPa) = 51.86848 59.73841 55.80344
# Shear Modulus (GPa) = 24.32165 26.60953 25.46559
#
# Velocity S-wave (km/s) = 3.56771 3.73175 3.65065
# Velocity P-wave (km/s) = 6.64203 7.05915 6.85376
#
# Compressibility (1/GPa) = 0.01927953
#
# Stress axis : x y z
#
# Youngs Moduli (GPa) = 53.04040 41.41748 65.39205
#
# Poissons Ratio (x) = 0.27381 0.54210
# Poissons Ratio (y) = 0.35065 0.30108
# Poissons Ratio (z) = 0.43971 0.19070
#
# Static dielectric constant tensor:
#      x y z
#    x 3.546840 0.000000 -0.201670 
#    y 0.000000 3.303190 0.000000 
#    z -0.201670 0.000000 3.678070 
# 
# 
# High freq. dielectric constant tensor:
#      x y z
#    x 1.746580 0.000000 -0.006880 
#    y 0.000000 1.727790 0.000000 
#    z -0.006880 0.000000 1.749510 
# 
# From -- ./inp_files/186467.got.cif
#   From: 2010.06.25/outbox.cif.g09.slc.cpg/sg12_94_cif.got.tgz:186467.got - 2010.06.28 00:19:55.
