data_PCOD8081702
_publ_section_title
;
Structure prediction by ZEFSAII (Michael W. Deem and Ramdas Pophale) SiO2 
 PCOD8081702
Probable space group: C 2/M
;
_chemical_formula_sum "Si O2"
_cell_formula_units_Z 56
_cell_length_a 28.632165
_cell_length_b 8.691237
_cell_length_c 17.810020
_cell_angle_alpha 90.000000
_cell_angle_beta 136.626391
_cell_angle_gamma 90.000000
_cell_volume 3043.691337
_symmetry_space_group_name_H-M "C 2/M"
_symmetry_group_IT_number 12
_symmetry_cell_setting 'monoclinic'
loop_
_space_group_symop_operation_xyz
x,y,z
-x,y,-z
-x,-y,-z
x,-y,z
1/2+x,1/2+y,z
1/2-x,1/2+y,-z
1/2-x,1/2-y,-z
1/2+x,1/2-y,z
loop_
_atom_site_type_symbol
_atom_site_label
_atom_site_fract_x
_atom_site_fract_y
_atom_site_fract_z
Si Si1 0.935712 0.682833 0.635792
Si Si2 0.690066 0.816996 0.075519
Si Si3 0.412610 0.182419 0.168739
Si Si4 0.789308 0.681533 0.736841
Si Si5 0.861936 0.182427 0.413076
Si Si6 0.319674 0.182668 0.611352
Si Si7 0.836291 0.317474 0.227897
O O1 0.933671 0.500000 0.628114
O O2 0.918662 0.750625 0.534516
O O3 0.882882 0.745102 0.636672
O O4 0.010238 0.743639 0.746030
O O5 0.674187 0.765293 0.143198
O O6 0.759672 0.741467 0.129245
O O7 0.699198 0.000000 0.080615
O O8 0.628887 0.755816 0.952033
O O9 0.377403 0.241687 0.203479
O O10 0.412310 0.000000 0.167329
O O11 0.785978 0.500000 0.731432
O O12 0.711729 0.742669 0.644847
O O13 0.829042 0.739584 0.708983
O O14 0.874489 0.246145 0.344310
O O15 0.866712 0.000000 0.417094
O O16 0.250000 0.250000 0.500000
O O17 0.315518 0.000000 0.601708
O O18 0.836376 0.500000 0.234879
#
# Coordination Sequence:
#
# PCOD8081702 Si02
#       7
#     8   8   8   8   8   8   8
#     4  10  20  33  50  73 102 135 171 205 245 300
#     4   9  17  33  54  73  99 133 168 206 249 294
#     4   9  19  34  50  71 102 138 168 205 252 293
#     4   8  15  28  48  73  98 122 156 202 248 285
#     4  10  19  33  51  73 103 131 163 208 257 303
#     4  10  18  30  50  75 100 128 165 205 245 296
#     4  10  19  32  52  75  99 128 170 213 250 295
#
# _framework density 18.398710999999999
#
# number of rings (size 3 to 8) (size 9 to 14) (size 15 to 20)
#    0.000    2.571    1.429    2.143    0.000    0.571 
#    0.000    6.429    0.000    4.286    0.000    0.000 
#    0.000    4.857    0.000    0.000    0.000    0.000 
#
# Total GULP energy -347093.866805 kJ/mol
# GULP energy per Si atom -12396.209529 kJ/mol
# Density = 1.835684 g / cm^3
# Si number density = 18.398711 Si / 1000 Ang^3
#
#
#
# Elastic Constant Matrix: (Units=GPa)
#
#
# Indices 1 2 3 4 5 6 
#
# 1 133.8180 16.8153 101.1974 0.0000 -11.6187 0.0000
# 2 16.8153 27.4842 22.3716 0.0000 0.2786 0.0000
# 3 101.1974 22.3716 167.7822 0.0000 -8.1572 0.0000
# 4 0.0000 0.0000 0.0000 23.0330 0.0000 -0.0444
# 5 -11.6187 0.2786 -8.1572 0.0000 28.1584 0.0000
# 6 0.0000 0.0000 0.0000 -0.0444 0.0000 17.8634
#
#
#
# Elastic Compliance Matrix: (Units=1/GPa)
#
#
# Indices 1 2 3 4 5 6 
#
# 1 0.014161 -0.002116 -0.008088 0.000000 0.003521 0.000000
# 2 -0.002116 0.041243 -0.004346 0.000000 -0.002540 0.000000
# 3 -0.008088 -0.004346 0.011418 0.000000 0.000014 0.000000
# 4 0.000000 0.000000 0.000000 0.043416 0.000000 0.000108
# 5 0.003521 -0.002540 0.000014 0.000000 0.036995 0.000000
# 6 0.000000 0.000000 0.000000 0.000108 0.000000 0.055981
#
#
# Mechanical properties :
#
#
# Convention : Reuss Voigt Hill
#
# Bulk Modulus (GPa) = 26.51008 67.76146 47.13577
# Shear Modulus (GPa) = 20.41753 26.39097 23.40425
#
# Velocity S-wave (km/s) = 3.33487 3.79145 3.57046
# Velocity P-wave (km/s) = 5.41003 7.48840 6.53240
#
# Compressibility (1/GPa) = 0.03772150
#
# Stress axis : x y z
#
# Youngs Moduli (GPa) = 70.61897 24.24661 87.57898
#
# Poissons Ratio (x) = 0.05131 0.70830
# Poissons Ratio (y) = 0.14945 0.38065
# Poissons Ratio (z) = 0.57113 0.10538
#
# Static dielectric constant tensor:
#      x y z
#    x 3.874620 0.000000 -0.316220 
#    y 0.000000 3.086820 0.000000 
#    z -0.316220 0.000000 3.659470 
# 
# 
# High freq. dielectric constant tensor:
#      x y z
#    x 1.712010 0.000000 -0.018600 
#    y 0.000000 1.685410 0.000000 
#    z -0.018600 0.000000 1.714580 
# 
# From -- ./inp_files/280910.got.cif
#   From: 2010.06.25/outbox.cif.g09.slc.cpg/sg12_141_cif.got.tgz:280910.got - 2010.06.28 00:19:55.
