data_PCOD8081442
_publ_section_title
;
Structure prediction by ZEFSAII (Michael W. Deem and Ramdas Pophale) SiO2 
 PCOD8081442
Probable space group: C 2/M
;
_chemical_formula_sum "Si O2"
_cell_formula_units_Z 48
_cell_length_a 24.481621
_cell_length_b 13.169854
_cell_length_c 17.647014
_cell_angle_alpha 90.000000
_cell_angle_beta 149.743364
_cell_angle_gamma 90.000000
_cell_volume 2866.911787
_symmetry_space_group_name_H-M "C 2/M"
_symmetry_group_IT_number 12
_symmetry_cell_setting 'monoclinic'
loop_
_space_group_symop_operation_xyz
x,y,z
-x,y,-z
-x,-y,-z
x,-y,z
1/2+x,1/2+y,z
1/2-x,1/2+y,-z
1/2-x,1/2-y,-z
1/2+x,1/2-y,z
loop_
_atom_site_type_symbol
_atom_site_label
_atom_site_fract_x
_atom_site_fract_y
_atom_site_fract_z
Si Si1 0.641121 0.615398 0.390046
Si Si2 0.729279 0.616317 0.211755
Si Si3 0.020633 0.615633 0.763063
Si Si4 0.801201 0.384931 0.140062
Si Si5 0.792646 0.306153 0.445481
Si Si6 0.085556 0.805748 0.917608
O O1 0.673296 0.500000 0.448258
O O2 0.691116 0.650643 0.370137
O O3 0.686909 0.687629 0.511545
O O4 0.511683 0.623630 0.228314
O O5 0.710009 0.500000 0.214990
O O6 0.821232 0.621337 0.255525
O O7 0.766848 0.685459 0.326039
O O8 0.617484 0.662626 0.042064
O O9 0.043769 0.500000 0.814733
O O10 0.896424 0.626200 0.590511
O O11 0.093678 0.653106 0.779369
O O12 0.049044 0.687690 0.868549
O O13 0.776727 0.500000 0.086780
O O14 0.690770 0.322500 0.989024
#
# Coordination Sequence:
#
# PCOD8081442 Si02
#       6
#     8   8   8   8   8   8
#     4  10  19  34  52  68  93 125 158 192 228 278
#     4   9  17  31  48  71  97 119 153 198 237 273
#     4  10  18  30  48  70  97 127 157 190 230 281
#     4   8  16  29  48  71  94 121 155 194 236 272
#     4  10  21  32  48  74  95 122 155 191 237 277
#     4   9  18  31  48  71  93 124 159 192 231 271
#
# _framework density 16.742754999999999
#
# number of rings (size 3 to 8) (size 9 to 14) (size 15 to 20)
#    1.000    1.667    0.000    3.000    0.000    1.333 
#    0.000    5.000    0.000    0.000    0.000    9.333 
#    0.000    0.000    0.000    0.000    0.000    0.000 
#
# Total GULP energy -297363.901763 kJ/mol
# GULP energy per Si atom -12390.162573 kJ/mol
# Density = 1.670465 g / cm^3
# Si number density = 16.742755 Si / 1000 Ang^3
#
#
#
# Elastic Constant Matrix: (Units=GPa)
#
#
# Indices 1 2 3 4 5 6 
#
# 1 48.4212 23.2452 25.6236 0.0000 2.8370 0.0000
# 2 23.2452 107.3880 33.6852 0.0000 -13.6284 0.0000
# 3 25.6236 33.6852 63.2984 0.0000 -5.8354 0.0000
# 4 0.0000 0.0000 0.0000 18.6125 0.0000 -1.8262
# 5 2.8370 -13.6284 -5.8354 0.0000 29.9142 0.0000
# 6 0.0000 0.0000 0.0000 -1.8262 0.0000 21.6951
#
#
#
# Elastic Compliance Matrix: (Units=1/GPa)
#
#
# Indices 1 2 3 4 5 6 
#
# 1 0.028096 -0.003761 -0.009954 0.000000 -0.006320 0.000000
# 2 -0.003761 0.012173 -0.004492 0.000000 0.005026 0.000000
# 3 -0.009954 -0.004492 0.022522 0.000000 0.003291 0.000000
# 4 0.000000 0.000000 0.000000 0.054175 0.000000 0.004560
# 5 -0.006320 0.005026 0.003291 0.000000 0.036960 0.000000
# 6 0.000000 0.000000 0.000000 0.004560 0.000000 0.046477
#
#
# Mechanical properties :
#
#
# Convention : Reuss Voigt Hill
#
# Bulk Modulus (GPa) = 37.91460 42.69064 40.30262
# Shear Modulus (GPa) = 20.35749 23.14794 21.75272
#
# Velocity S-wave (km/s) = 3.49076 3.72232 3.60840
# Velocity P-wave (km/s) = 6.24033 6.63533 6.44086
#
# Compressibility (1/GPa) = 0.02637507
#
# Stress axis : x y z
#
# Youngs Moduli (GPa) = 35.59264 82.14801 44.40151
#
# Poissons Ratio (x) = 0.30897 0.44199
# Poissons Ratio (y) = 0.13387 0.19946
# Poissons Ratio (z) = 0.35430 0.36903
#
# Static dielectric constant tensor:
#      x y z
#    x 3.068380 0.000000 0.208400 
#    y 0.000000 3.100050 0.000000 
#    z 0.208400 0.000000 2.971820 
# 
# 
# High freq. dielectric constant tensor:
#      x y z
#    x 1.630560 0.000000 0.020200 
#    y 0.000000 1.643800 0.000000 
#    z 0.020200 0.000000 1.632080 
# 
# From -- ./inp_files/289644.got.cif
#   From: 2010.06.25/outbox.cif.g09.slc.cpg/sg12_145_cif.got.tgz:289644.got - 2010.06.28 00:19:55.
