data_PCOD8081816
_publ_section_title
;
Structure prediction by ZEFSAII (Michael W. Deem and Ramdas Pophale) SiO2 
 PCOD8081816
Probable space group: C 2/M
;
_chemical_formula_sum "Si O2"
_cell_formula_units_Z 40
_cell_length_a 18.747593
_cell_length_b 13.174178
_cell_length_c 10.599337
_cell_angle_alpha 90.000000
_cell_angle_beta 126.490606
_cell_angle_gamma 90.000000
_cell_volume 2104.646430
_symmetry_space_group_name_H-M "C 2/M"
_symmetry_group_IT_number 12
_symmetry_cell_setting 'monoclinic'
loop_
_space_group_symop_operation_xyz
x,y,z
-x,y,-z
-x,-y,-z
x,-y,z
1/2+x,1/2+y,z
1/2-x,1/2+y,-z
1/2-x,1/2-y,-z
1/2+x,1/2-y,z
loop_
_atom_site_type_symbol
_atom_site_label
_atom_site_fract_x
_atom_site_fract_y
_atom_site_fract_z
Si Si1 0.216290 0.713049 0.829561
Si Si2 0.125676 0.303274 0.346776
Si Si3 0.437402 0.881742 0.201111
Si Si4 0.716501 0.382176 0.328486
Si Si5 0.808743 0.388690 0.833081
O O1 0.119424 0.663164 0.741185
O O2 0.281080 0.633624 0.822148
O O3 0.222840 0.814876 0.750471
O O4 0.250000 0.750000 0.000000
O O5 0.188236 0.340404 0.525650
O O6 0.141856 0.186258 0.319861
O O7 0.142240 0.378884 0.248089
O O8 0.025342 0.314561 0.287047
O O9 0.458848 0.000000 0.248394
O O10 0.382373 0.865810 0.015796
O O11 0.699311 0.500000 0.343168
O O12 0.768991 0.500000 0.807787
#
# Coordination Sequence:
#
# PCOD8081816 Si02
#       5
#     8   8   8   8   8
#     4   9  19  33  49  71 100 131 167 207 251 303
#     4  10  20  32  51  78 103 131 169 211 251 301
#     4  10  18  30  51  76 102 132 169 215 257 294
#     4  10  20  35  53  73 103 139 170 207 256 305
#     4   9  17  31  51  72  98 134 170 207 252 301
#
# _framework density 19.005568
#
# number of rings (size 3 to 8) (size 9 to 14) (size 15 to 20)
#    0.000    2.400    0.000    3.000    0.000    3.200 
#    0.000    3.000    0.000   16.800    0.000    8.400 
#    0.000    0.000    0.000    0.000    0.000    0.000 
#
# Total GULP energy -247789.700812 kJ/mol
# GULP energy per Si atom -12389.485041 kJ/mol
# Density = 1.896231 g / cm^3
# Si number density = 19.005568 Si / 1000 Ang^3
#
#
#
# Elastic Constant Matrix: (Units=GPa)
#
#
# Indices 1 2 3 4 5 6 
#
# 1 117.8875 63.0326 15.0689 0.0000 16.9902 0.0000
# 2 63.0326 144.6600 31.1729 0.0000 19.3769 0.0000
# 3 15.0689 31.1729 29.3472 0.0000 3.5982 0.0000
# 4 0.0000 0.0000 0.0000 20.3134 0.0000 1.9518
# 5 16.9902 19.3769 3.5982 0.0000 15.4069 0.0000
# 6 0.0000 0.0000 0.0000 1.9518 0.0000 26.6970
#
#
#
# Elastic Compliance Matrix: (Units=1/GPa)
#
#
# Indices 1 2 3 4 5 6 
#
# 1 0.011825 -0.003879 -0.000979 0.000000 -0.007933 0.000000
# 2 -0.003879 0.011757 -0.009479 0.000000 -0.008295 0.000000
# 3 -0.000979 -0.009479 0.044321 0.000000 0.002650 0.000000
# 4 0.000000 0.000000 0.000000 0.049577 0.000000 -0.003624
# 5 -0.007933 -0.008295 0.002650 0.000000 0.083467 0.000000
# 6 0.000000 0.000000 0.000000 -0.003624 0.000000 0.037722
#
#
# Mechanical properties :
#
#
# Convention : Reuss Voigt Hill
#
# Bulk Modulus (GPa) = 25.49140 56.71594 41.10367
# Shear Modulus (GPa) = 17.83035 24.65815 21.24425
#
# Velocity S-wave (km/s) = 3.06627 3.60588 3.34696
# Velocity P-wave (km/s) = 5.09684 6.87335 6.05065
#
# Compressibility (1/GPa) = 0.03922891
#
# Stress axis : x y z
#
# Youngs Moduli (GPa) = 84.56531 85.05786 22.56245
#
# Poissons Ratio (x) = 0.32994 0.02209
# Poissons Ratio (y) = 0.32803 0.21388
# Poissons Ratio (z) = 0.08278 0.80629
#
# Static dielectric constant tensor:
#      x y z
#    x 3.688500 0.000000 -0.322690 
#    y 0.000000 3.678480 0.000000 
#    z -0.322690 0.000000 3.422780 
# 
# 
# High freq. dielectric constant tensor:
#      x y z
#    x 1.732870 0.000000 -0.029890 
#    y 0.000000 1.743770 0.000000 
#    z -0.029890 0.000000 1.720530 
# 
# From -- ./inp_files/153286.got.cif
#   From: 2010.06.25/outbox.cif.g09.slc.cpg/sg12_77_cif.got.tgz:153286.got - 2010.06.28 00:19:55.
