data_PCOD8081814
_publ_section_title
;
Structure prediction by ZEFSAII (Michael W. Deem and Ramdas Pophale) SiO2 
 PCOD8081814
Probable space group: C 2/M
;
_chemical_formula_sum "Si O2"
_cell_formula_units_Z 56
_cell_length_a 28.775218
_cell_length_b 13.216451
_cell_length_c 26.523113
_cell_angle_alpha 90.000000
_cell_angle_beta 19.642883
_cell_angle_gamma 90.000000
_cell_volume 3390.779562
_symmetry_space_group_name_H-M "C 2/M"
_symmetry_group_IT_number 12
_symmetry_cell_setting 'monoclinic'
loop_
_space_group_symop_operation_xyz
x,y,z
-x,y,-z
-x,-y,-z
x,-y,z
1/2+x,1/2+y,z
1/2-x,1/2+y,-z
1/2-x,1/2-y,-z
1/2+x,1/2-y,z
loop_
_atom_site_type_symbol
_atom_site_label
_atom_site_fract_x
_atom_site_fract_y
_atom_site_fract_z
Si Si1 0.776161 0.880352 0.855942
Si Si2 0.358191 0.617941 0.662815
Si Si3 0.102536 0.221390 0.174265
Si Si4 0.892091 0.617377 0.150697
Si Si5 0.075458 0.114860 0.721905
Si Si6 0.967875 0.308702 0.179754
Si Si7 0.382816 0.116311 0.370850
O O1 0.805043 0.837699 0.770154
O O2 0.877750 0.820293 0.789482
O O3 0.801746 0.000000 0.835078
O O4 0.618751 0.856469 0.029574
O O5 0.500000 0.670241 0.500000
O O6 0.380248 0.500000 0.649881
O O7 0.257004 0.637195 0.719844
O O8 0.029581 0.132531 0.217002
O O9 0.000772 0.318342 0.278497
O O10 0.250000 0.250000 0.000000
O O11 0.926084 0.500000 0.125939
O O12 0.898136 0.674248 0.197278
O O13 0.000000 0.661757 0.000000
O O14 0.029303 0.187730 0.814805
O O15 0.231386 0.142601 0.546469
O O16 0.062905 0.000000 0.753388
O O17 0.879138 0.360390 0.314844
O O18 0.420010 0.000000 0.342634
#
# Coordination Sequence:
#
# PCOD8081814 Si02
#       7
#     8   8   8   8   8   8   8
#     4  11  20  32  50  76 109 137 168 211 255 304
#     4   9  19  32  46  71 104 132 161 204 255 303
#     4  11  20  32  52  79 104 137 175 212 253 309
#     4  10  18  30  51  76 101 131 167 209 257 311
#     4  10  22  38  52  74 108 139 174 218 258 301
#     4  11  19  32  54  78  99 135 178 209 251 309
#     4  10  21  36  53  76 108 140 171 213 259 306
#
# _framework density 16.515376
#
# number of rings (size 3 to 8) (size 9 to 14) (size 15 to 20)
#    0.000    1.714    4.286    3.429    0.000    2.857 
#    0.000    2.857    0.000    0.429    0.000    0.000 
#    0.000    4.000    0.000    0.000    0.000    0.000 
#
# Total GULP energy -347138.988827 kJ/mol
# GULP energy per Si atom -12397.821030 kJ/mol
# Density = 1.647779 g / cm^3
# Si number density = 16.515376 Si / 1000 Ang^3
#
#
#
# Elastic Constant Matrix: (Units=GPa)
#
#
# Indices 1 2 3 4 5 6 
#
# 1 117.6683 47.4825 29.6752 0.0040 11.2895 -0.0013
# 2 47.4825 71.8413 26.2219 0.0086 0.1548 -0.0043
# 3 29.6752 26.2219 69.7138 0.0163 -9.5549 -0.0086
# 4 0.0040 0.0086 0.0163 22.7035 -0.0066 -1.7039
# 5 11.2895 0.1548 -9.5549 -0.0066 22.2328 0.0024
# 6 -0.0013 -0.0043 -0.0086 -1.7039 0.0024 22.2741
#
#
#
# Elastic Compliance Matrix: (Units=1/GPa)
#
#
# Indices 1 2 3 4 5 6 
#
# 1 0.013265 -0.007264 -0.004071 0.000001 -0.008435 -0.000001
# 2 -0.007264 0.020289 -0.004307 -0.000003 0.001696 0.000001
# 3 -0.004071 -0.004307 0.019110 -0.000008 0.010310 0.000005
# 4 0.000001 -0.000003 -0.000008 0.044300 0.000009 0.003389
# 5 -0.008435 0.001696 0.010310 0.000009 0.053681 -0.000001
# 6 -0.000001 0.000001 0.000005 0.003389 -0.000001 0.045155
#
#
# Mechanical properties :
#
#
# Convention : Reuss Voigt Hill
#
# Bulk Modulus (GPa) = 46.76860 51.77584 49.27222
# Shear Modulus (GPa) = 21.34839 23.83165 22.59002
#
# Velocity S-wave (km/s) = 3.59923 3.80280 3.70241
# Velocity P-wave (km/s) = 6.75665 7.12038 6.94090
#
# Compressibility (1/GPa) = 0.02138187
#
# Stress axis : x y z
#
# Youngs Moduli (GPa) = 75.38413 49.28843 52.32806
#
# Poissons Ratio (x) = 0.35801 0.21301
# Poissons Ratio (y) = 0.54756 0.22538
# Poissons Ratio (z) = 0.30686 0.21228
#
# Static dielectric constant tensor:
#      x y z
#    x 3.208850 0.000000 -0.010070 
#    y 0.000000 2.984320 0.000000 
#    z -0.010070 0.000000 3.270300 
# 
# 
# High freq. dielectric constant tensor:
#      x y z
#    x 1.635410 0.000000 -0.008220 
#    y 0.000000 1.609250 0.000000 
#    z -0.008220 0.000000 1.646610 
# 
# From -- ./inp_files/110909.got.cif
#   From: 2010.06.25/outbox.cif.g09.slc.cpg/sg12_56_cif.got.tgz:110909.got - 2010.06.28 00:19:55.
