data_PCOD8081607
_publ_section_title
;
Structure prediction by ZEFSAII (Michael W. Deem and Ramdas Pophale) SiO2 
 PCOD8081607
Probable space group: C 2/M
;
_chemical_formula_sum "Si O2"
_cell_formula_units_Z 64
_cell_length_a 20.569130
_cell_length_b 8.999396
_cell_length_c 24.417904
_cell_angle_alpha 90.000000
_cell_angle_beta 52.830339
_cell_angle_gamma 90.000000
_cell_volume 3601.755414
_symmetry_space_group_name_H-M "C 2/M"
_symmetry_group_IT_number 12
_symmetry_cell_setting 'monoclinic'
loop_
_space_group_symop_operation_xyz
x,y,z
-x,y,-z
-x,-y,-z
x,-y,z
1/2+x,1/2+y,z
1/2-x,1/2+y,-z
1/2-x,1/2-y,-z
1/2+x,1/2-y,z
loop_
_atom_site_type_symbol
_atom_site_label
_atom_site_fract_x
_atom_site_fract_y
_atom_site_fract_z
Si Si1 0.155104 0.673943 0.284388
Si Si2 0.683422 0.173545 0.496553
Si Si3 0.197575 0.174694 0.154129
Si Si4 0.186827 0.329820 0.994648
Si Si5 0.565740 0.175113 0.142316
Si Si6 0.922195 0.824082 0.268770
Si Si7 0.529937 0.171468 0.644698
Si Si8 0.237464 0.676131 0.352553
O O1 0.173227 0.500000 0.267868
O O2 0.201453 0.761186 0.212893
O O3 0.190904 0.737596 0.322992
O O4 0.059092 0.707535 0.333241
O O5 0.750000 0.250000 0.500000
O O6 0.593004 0.209500 0.564124
O O7 0.691401 0.234483 0.430455
O O8 0.702839 0.000000 0.488315
O O9 0.288248 0.205267 0.081091
O O10 0.127135 0.257344 0.156002
O O11 0.177166 0.000000 0.165593
O O12 0.202242 0.500000 0.998930
O O13 0.250000 0.250000 0.000000
O O14 0.096306 0.289784 0.063889
O O15 0.477717 0.250353 0.193441
O O16 0.558737 0.000000 0.157300
O O17 0.952925 0.775074 0.312540
O O18 0.830503 0.766660 0.305742
O O19 0.928877 0.000000 0.260970
O O20 0.537543 0.000000 0.659308
O O21 0.235610 0.500000 0.352379
#
# Coordination Sequence:
#
# PCOD8081607 Si02
#       8
#     8   8   8   8   8   8   8   8
#     4  10  20  35  52  74 105 139 174 211 255 307
#     4  10  19  34  54  77 102 133 171 214 259 305
#     4  10  18  30  49  75 104 136 170 207 256 305
#     4   8  16  28  44  69 102 133 165 207 252 299
#     4  10  18  30  49  75 104 134 170 212 254 299
#     4  11  20  32  52  76 104 136 171 213 256 303
#     4  10  20  32  53  79 101 130 172 215 256 305
#     4   9  20  36  53  74 103 139 174 210 257 308
#
# _framework density 17.769113999999998
#
# number of rings (size 3 to 8) (size 9 to 14) (size 15 to 20)
#    0.000    2.250    2.500    1.125    0.000    1.500 
#    0.000    4.375    0.000    0.750    0.000    7.875 
#    0.000    0.000    0.000    0.000    0.000    0.000 
#
# Total GULP energy -396592.467053 kJ/mol
# GULP energy per Si atom -12393.514595 kJ/mol
# Density = 1.772867 g / cm^3
# Si number density = 17.769114 Si / 1000 Ang^3
#
#
#
# Elastic Constant Matrix: (Units=GPa)
#
#
# Indices 1 2 3 4 5 6 
#
# 1 95.6532 30.4313 69.8143 -0.0002 -2.8719 0.0000
# 2 30.4313 55.9796 48.8212 -0.0005 -6.3418 -0.0001
# 3 69.8143 48.8212 182.9940 0.0000 -16.6549 0.0000
# 4 -0.0002 -0.0005 0.0000 25.4419 0.0000 -1.5832
# 5 -2.8719 -6.3418 -16.6549 0.0000 26.0032 -0.0001
# 6 0.0000 -0.0001 0.0000 -1.5832 -0.0001 19.5594
#
#
#
# Elastic Compliance Matrix: (Units=1/GPa)
#
#
# Indices 1 2 3 4 5 6 
#
# 1 0.015357 -0.004332 -0.004932 0.000000 -0.002520 0.000000
# 2 -0.004332 0.024582 -0.004676 0.000000 0.002522 0.000000
# 3 -0.004932 -0.004676 0.008963 0.000000 0.004056 0.000000
# 4 0.000000 0.000000 0.000000 0.039504 0.000000 0.003198
# 5 -0.002520 0.002522 0.004056 0.000000 0.041391 0.000000
# 6 0.000000 0.000000 0.000000 0.003198 0.000000 0.051385
#
#
# Mechanical properties :
#
#
# Convention : Reuss Voigt Hill
#
# Bulk Modulus (GPa) = 47.57066 70.30670 58.93868
# Shear Modulus (GPa) = 23.14050 26.57158 24.85604
#
# Velocity S-wave (km/s) = 3.61264 3.87121 3.74416
# Velocity P-wave (km/s) = 6.65065 7.72233 7.20644
#
# Compressibility (1/GPa) = 0.02102136
#
# Stress axis : x y z
#
# Youngs Moduli (GPa) = 65.11683 40.67943 111.56829
#
# Poissons Ratio (x) = 0.17622 0.55031
# Poissons Ratio (y) = 0.28209 0.52171
# Poissons Ratio (z) = 0.32119 0.19022
#
# Static dielectric constant tensor:
#      x y z
#    x 3.134380 0.000000 -0.212450 
#    y 0.000000 3.207650 0.000000 
#    z -0.212450 0.000000 4.074670 
# 
# 
# High freq. dielectric constant tensor:
#      x y z
#    x 1.650650 0.000000 -0.017300 
#    y 0.000000 1.680100 0.000000 
#    z -0.017300 0.000000 1.711200 
# 
# From -- ./inp_files/319953.got.cif
#   From: 2010.06.25/outbox.cif.g09.slc.cpg/sg12_160_cif.got.tgz:319953.got - 2010.06.28 00:19:55.
