data_PCOD8081414
_publ_section_title
;
Structure prediction by ZEFSAII (Michael W. Deem and Ramdas Pophale) SiO2 
 PCOD8081414
Probable space group: C 2/M
;
_chemical_formula_sum "Si O2"
_cell_formula_units_Z 56
_cell_length_a 25.414785
_cell_length_b 9.480959
_cell_length_c 14.411608
_cell_angle_alpha 90.000000
_cell_angle_beta 90.571656
_cell_angle_gamma 90.000000
_cell_volume 3472.398282
_symmetry_space_group_name_H-M "C 2/M"
_symmetry_group_IT_number 12
_symmetry_cell_setting 'monoclinic'
loop_
_space_group_symop_operation_xyz
x,y,z
-x,y,-z
-x,-y,-z
x,-y,z
1/2+x,1/2+y,z
1/2-x,1/2+y,-z
1/2-x,1/2-y,-z
1/2+x,1/2-y,z
loop_
_atom_site_type_symbol
_atom_site_label
_atom_site_fract_x
_atom_site_fract_y
_atom_site_fract_z
Si Si1 0.442873 0.165988 0.597993
Si Si2 0.061948 0.332955 0.605610
Si Si3 0.904676 0.164784 0.223816
Si Si4 0.692953 0.162150 0.090311
Si Si5 0.311928 0.663643 0.088631
Si Si6 0.403626 0.164606 0.790278
Si Si7 0.993237 0.835404 0.892678
O O1 0.420314 0.216811 0.497904
O O2 0.501972 0.219675 0.617997
O O3 0.406348 0.215555 0.682855
O O4 0.446744 0.000000 0.590535
O O5 0.068635 0.500000 0.620874
O O6 0.097012 0.251567 0.680904
O O7 0.851367 0.208510 0.170391
O O8 0.954123 0.208044 0.161138
O O9 0.905831 0.000000 0.247555
O O10 0.752620 0.200684 0.120076
O O11 0.655622 0.194841 0.177110
O O12 0.688863 0.000000 0.059750
O O13 0.673065 0.253062 0.003665
O O14 0.318815 0.500000 0.064580
O O15 0.444312 0.248846 0.853539
O O16 0.418367 0.000000 0.798182
O O17 0.980748 0.000000 0.880514
O O18 0.000000 0.795066 0.000000
#
# Coordination Sequence:
#
# PCOD8081414 Si02
#       7
#     8   8   8   8   8   8   8
#     4   8  15  28  46  67  90 117 147 184 228 269
#     4   9  16  29  48  66  88 119 152 184 223 269
#     4  10  19  30  45  66  92 121 151 183 222 267
#     4   9  18  31  49  71  89 114 156 194 222 259
#     4   9  18  33  49  65  91 124 153 185 224 264
#     4  10  18  30  48  69  91 114 147 190 228 263
#     4  10  20  31  42  62  93 125 150 173 216 276
#
# _framework density 16.127181
#
# number of rings (size 3 to 8) (size 9 to 14) (size 15 to 20)
#    0.000    2.714    1.429    1.714    0.000    2.571 
#    0.000    2.143    0.000    0.857    0.000    0.000 
#    0.000    0.000    0.000    0.000    0.000    0.000 
#
# Total GULP energy -347122.425685 kJ/mol
# GULP energy per Si atom -12397.229489 kJ/mol
# Density = 1.609048 g / cm^3
# Si number density = 16.127181 Si / 1000 Ang^3
#
#
#
# Elastic Constant Matrix: (Units=GPa)
#
#
# Indices 1 2 3 4 5 6 
#
# 1 84.5568 30.6674 66.1323 0.0000 -1.6480 0.0000
# 2 30.6674 34.2356 43.1586 0.0000 1.6309 0.0000
# 3 66.1323 43.1586 148.5386 0.0000 -3.4613 0.0000
# 4 0.0000 0.0000 0.0000 25.4948 0.0000 5.0411
# 5 -1.6480 1.6309 -3.4613 0.0000 25.5078 0.0000
# 6 0.0000 0.0000 0.0000 5.0411 0.0000 20.2467
#
#
#
# Elastic Compliance Matrix: (Units=1/GPa)
#
#
# Indices 1 2 3 4 5 6 
#
# 1 0.020417 -0.010926 -0.005887 0.000000 0.001219 0.000000
# 2 -0.010926 0.052527 -0.010526 0.000000 -0.005493 0.000000
# 3 -0.005887 -0.010526 0.012458 0.000000 0.001983 0.000000
# 4 0.000000 0.000000 0.000000 0.041255 0.000000 -0.010272
# 5 0.001219 -0.005493 0.001983 0.000000 0.039903 0.000000
# 6 0.000000 0.000000 0.000000 -0.010272 0.000000 0.051948
#
#
# Mechanical properties :
#
#
# Convention : Reuss Voigt Hill
#
# Bulk Modulus (GPa) = 32.54686 60.80528 46.67607
# Shear Modulus (GPa) = 17.64131 22.74139 20.19135
#
# Velocity S-wave (km/s) = 3.31098 3.75924 3.54221
# Velocity P-wave (km/s) = 5.90271 7.52516 6.76276
#
# Compressibility (1/GPa) = 0.03072493
#
# Stress axis : x y z
#
# Youngs Moduli (GPa) = 48.97863 19.03790 80.27074
#
# Poissons Ratio (x) = 0.20800 0.47257
# Poissons Ratio (y) = 0.53512 0.84490
# Poissons Ratio (z) = 0.28835 0.20039
#
# Static dielectric constant tensor:
#      x y z
#    x 3.038460 0.000000 -0.117780 
#    y 0.000000 2.911950 0.000000 
#    z -0.117780 0.000000 3.273610 
# 
# 
# High freq. dielectric constant tensor:
#      x y z
#    x 1.604290 0.000000 -0.004110 
#    y 0.000000 1.606250 0.000000 
#    z -0.004110 0.000000 1.623460 
# 
# From -- ./inp_files/173936.got.cif
#   From: 2010.06.25/outbox.cif.g09.slc.cpg/sg12_87_cif.got.tgz:173936.got - 2010.06.28 00:19:55.
