data_PCOD8081309
_publ_section_title
;
Structure prediction by ZEFSAII (Michael W. Deem and Ramdas Pophale) SiO2 
 PCOD8081309
Probable space group: C 2/M
;
_chemical_formula_sum "Si O2"
_cell_formula_units_Z 64
_cell_length_a 23.823180
_cell_length_b 8.653400
_cell_length_c 21.777838
_cell_angle_alpha 90.000000
_cell_angle_beta 52.778173
_cell_angle_gamma 90.000000
_cell_volume 3575.013920
_symmetry_space_group_name_H-M "C 2/M"
_symmetry_group_IT_number 12
_symmetry_cell_setting 'monoclinic'
loop_
_space_group_symop_operation_xyz
x,y,z
-x,y,-z
-x,-y,-z
x,-y,z
1/2+x,1/2+y,z
1/2-x,1/2+y,-z
1/2-x,1/2-y,-z
1/2+x,1/2-y,z
loop_
_atom_site_type_symbol
_atom_site_label
_atom_site_fract_x
_atom_site_fract_y
_atom_site_fract_z
Si Si1 0.425576 0.684220 0.791969
Si Si2 0.674818 0.316748 0.032136
Si Si3 0.137120 0.178920 0.808656
Si Si4 0.830162 0.683312 0.094362
Si Si5 0.822210 0.816874 0.759088
Si Si6 0.575884 0.678648 0.725040
Si Si7 0.725131 0.681809 0.579996
Si Si8 0.726013 0.320955 0.335050
O O1 0.429288 0.500000 0.788666
O O2 0.380689 0.738557 0.880085
O O3 0.388383 0.748097 0.754366
O O4 0.504752 0.755050 0.744423
O O5 0.680137 0.500000 0.024839
O O6 0.750000 0.250000 0.000000
O O7 0.647503 0.247939 0.986223
O O8 0.116924 0.239885 0.889975
O O9 0.074345 0.198503 0.800449
O O10 0.198558 0.291080 0.744908
O O11 0.161893 0.000000 0.793726
O O12 0.837835 0.500000 0.090364
O O13 0.750727 0.741865 0.162186
O O14 0.829352 0.768554 0.682101
O O15 0.820527 0.000000 0.764851
O O16 0.576266 0.500000 0.707149
O O17 0.647461 0.750286 0.648264
O O18 0.723161 0.500000 0.576298
O O19 0.750000 0.750000 0.500000
O O20 0.781047 0.726974 0.596667
O O21 0.716710 0.500000 0.357294
#
# Coordination Sequence:
#
# PCOD8081309 Si02
#       8
#     8   8   8   8   8   8   8   8
#     4   9  16  29  48  70  95 127 161 201 244 285
#     4  11  20  30  47  69  96 127 163 206 251 292
#     4   9  16  28  46  70  94 123 162 206 248 288
#     4  10  18  30  46  67  93 125 165 210 250 289
#     4   8  14  25  44  69  93 120 158 198 236 274
#     4   8  16  30  49  72  98 123 158 199 237 287
#     4  10  19  32  52  78 101 124 156 196 238 286
#     4   9  16  27  46  73 101 127 155 194 237 285
#
# _framework density 17.902027
#
# number of rings (size 3 to 8) (size 9 to 14) (size 15 to 20)
#    0.000    2.750    1.250    3.375    0.000    0.000 
#    0.000    0.625    0.000   13.500    0.000    5.250 
#    0.000    0.000    0.000    0.000    0.000    0.000 
#
# Total GULP energy -396464.096421 kJ/mol
# GULP energy per Si atom -12389.503013 kJ/mol
# Density = 1.786128 g / cm^3
# Si number density = 17.902027 Si / 1000 Ang^3
#
#
#
# Elastic Constant Matrix: (Units=GPa)
#
#
# Indices 1 2 3 4 5 6 
#
# 1 136.7041 28.6387 73.2463 -0.0001 24.8882 0.0002
# 2 28.6387 46.3680 27.4808 0.0004 7.0305 0.0009
# 3 73.2463 27.4808 108.0837 -0.0001 30.0395 0.0001
# 4 -0.0001 0.0004 -0.0001 24.1928 0.0001 9.0338
# 5 24.8882 7.0305 30.0395 0.0001 31.8080 -0.0002
# 6 0.0002 0.0009 0.0001 9.0338 -0.0002 19.6352
#
#
#
# Elastic Compliance Matrix: (Units=1/GPa)
#
#
# Indices 1 2 3 4 5 6 
#
# 1 0.011964 -0.003080 -0.006660 0.000000 -0.002390 0.000000
# 2 -0.003080 0.026196 -0.004927 0.000000 0.001273 -0.000001
# 3 -0.006660 -0.004927 0.017989 0.000000 -0.010688 0.000000
# 4 0.000000 0.000000 0.000000 0.049909 0.000000 -0.022962
# 5 -0.002390 0.001273 -0.010688 0.000000 0.043122 0.000001
# 6 0.000000 -0.000001 0.000000 -0.022962 0.000001 0.061493
#
#
# Mechanical properties :
#
#
# Convention : Reuss Voigt Hill
#
# Bulk Modulus (GPa) = 37.29311 61.09860 49.19586
# Shear Modulus (GPa) = 20.08467 25.91321 22.99894
#
# Velocity S-wave (km/s) = 3.35314 3.80873 3.58818
# Velocity P-wave (km/s) = 5.98903 7.31748 6.68632
#
# Compressibility (1/GPa) = 0.02681460
#
# Stress axis : x y z
#
# Youngs Moduli (GPa) = 83.58309 38.17391 55.58911
#
# Poissons Ratio (x) = 0.11756 0.37025
# Poissons Ratio (y) = 0.25740 0.27390
# Poissons Ratio (z) = 0.55670 0.18809
#
# Static dielectric constant tensor:
#      x y z
#    x 3.874820 0.000000 0.275060 
#    y 0.000000 3.100240 0.000000 
#    z 0.275060 0.000000 3.361830 
# 
# 
# High freq. dielectric constant tensor:
#      x y z
#    x 1.690210 0.000000 0.037820 
#    y 0.000000 1.670760 0.000000 
#    z 0.037820 0.000000 1.664830 
# 
# From -- ./inp_files/323698.got.cif
#   From: 2010.06.25/outbox.cif.g09.slc.cpg/sg12_162_cif.got.tgz:323698.got - 2010.06.28 00:19:55.
