data_PCOD8081198
_publ_section_title
;
Structure prediction by ZEFSAII (Michael W. Deem and Ramdas Pophale) SiO2 
 PCOD8081198
Probable space group: C 2/M
;
_chemical_formula_sum "Si O2"
_cell_formula_units_Z 56
_cell_length_a 16.814071
_cell_length_b 19.179567
_cell_length_c 13.501890
_cell_angle_alpha 90.000000
_cell_angle_beta 45.064532
_cell_angle_gamma 90.000000
_cell_volume 3082.334991
_symmetry_space_group_name_H-M "C 2/M"
_symmetry_group_IT_number 12
_symmetry_cell_setting 'monoclinic'
loop_
_space_group_symop_operation_xyz
x,y,z
-x,y,-z
-x,-y,-z
x,-y,z
1/2+x,1/2+y,z
1/2-x,1/2+y,-z
1/2-x,1/2-y,-z
1/2+x,1/2-y,z
loop_
_atom_site_type_symbol
_atom_site_label
_atom_site_fract_x
_atom_site_fract_y
_atom_site_fract_z
Si Si1 0.750597 0.420234 0.196495
Si Si2 0.028379 0.080728 0.087680
Si Si3 0.970280 0.837973 0.630978
Si Si4 0.862651 0.579127 0.308264
Si Si5 0.630964 0.287613 0.091686
Si Si6 0.445755 0.159550 0.941946
Si Si7 0.144096 0.920488 0.594800
O O1 0.762952 0.500000 0.154231
O O2 0.621641 0.398470 0.301930
O O3 0.793212 0.406665 0.269401
O O4 0.822315 0.375543 0.053073
O O5 0.122411 0.133054 0.053829
O O6 0.910018 0.090629 0.249414
O O7 0.070999 0.000000 0.059311
O O8 0.000000 0.100377 0.000000
O O9 0.925474 0.782519 0.750218
O O10 0.000000 0.800963 0.500000
O O11 0.084096 0.872596 0.567720
O O12 0.904075 0.500000 0.278105
O O13 0.777843 0.598058 0.474063
O O14 0.975351 0.625078 0.211790
O O15 0.560543 0.241083 0.076750
O O16 0.750000 0.250000 0.000000
O O17 0.500000 0.146718 0.000000
O O18 0.130579 0.000000 0.570912
#
# Coordination Sequence:
#
# PCOD8081198 Si02
#       7
#     8   8   8   8   8   8   8
#     4  10  18  29  51  79 108 141 170 207 259 322
#     4   9  19  37  58  80 103 137 189 235 272 317
#     4  11  20  32  50  75 109 140 177 219 270 322
#     4   9  17  30  49  76 109 139 172 209 257 325
#     4  11  22  38  53  77 107 144 180 224 274 327
#     4  10  20  35  53  75 108 145 181 212 265 322
#     4   9  17  29  50  79 108 135 171 223 272 313
#
# _framework density 18.168044999999999
#
# number of rings (size 3 to 8) (size 9 to 14) (size 15 to 20)
#    0.000    2.143    2.857    1.286    0.000    2.857 
#    0.000    4.286    0.000    0.000    0.000    0.000 
#    0.000    6.286    0.000    0.000    0.000    0.000 
#
# Total GULP energy -346961.084961 kJ/mol
# GULP energy per Si atom -12391.467320 kJ/mol
# Density = 1.812669 g / cm^3
# Si number density = 18.168045 Si / 1000 Ang^3
#
#
#
# Elastic Constant Matrix: (Units=GPa)
#
#
# Indices 1 2 3 4 5 6 
#
# 1 38.8006 22.4035 29.1607 0.0000 5.7705 0.0000
# 2 22.4035 86.3795 42.3031 0.0000 -0.9576 0.0000
# 3 29.1607 42.3031 119.0222 0.0000 3.3633 0.0000
# 4 0.0000 0.0000 0.0000 25.0388 0.0000 -2.8086
# 5 5.7705 -0.9576 3.3633 0.0000 25.9456 0.0000
# 6 0.0000 0.0000 0.0000 -2.8086 0.0000 21.9549
#
#
#
# Elastic Compliance Matrix: (Units=1/GPa)
#
#
# Indices 1 2 3 4 5 6 
#
# 1 0.035049 -0.006132 -0.006204 0.000000 -0.007217 0.000000
# 2 -0.006132 0.015125 -0.003942 0.000000 0.002433 0.000000
# 3 -0.006204 -0.003942 0.011329 0.000000 -0.000234 0.000000
# 4 0.000000 0.000000 0.000000 0.040519 0.000000 0.005183
# 5 -0.007217 0.002433 -0.000234 0.000000 0.040268 0.000000
# 6 0.000000 0.000000 0.000000 0.005183 0.000000 0.046211
#
#
# Mechanical properties :
#
#
# Convention : Reuss Voigt Hill
#
# Bulk Modulus (GPa) = 34.54520 47.99300 41.26910
# Shear Modulus (GPa) = 21.67254 24.61020 23.14137
#
# Velocity S-wave (km/s) = 3.45758 3.68446 3.57282
# Velocity P-wave (km/s) = 5.91568 6.67637 6.30750
#
# Compressibility (1/GPa) = 0.02894758
#
# Stress axis : x y z
#
# Youngs Moduli (GPa) = 28.53122 66.11652 88.26581
#
# Poissons Ratio (x) = 0.40545 0.54757
# Poissons Ratio (y) = 0.17496 0.34794
# Poissons Ratio (z) = 0.17700 0.26063
#
# Static dielectric constant tensor:
#      x y z
#    x 3.111960 0.000000 0.017670 
#    y 0.000000 3.309710 0.000000 
#    z 0.017670 0.000000 3.772680 
# 
# 
# High freq. dielectric constant tensor:
#      x y z
#    x 1.672320 0.000000 -0.002340 
#    y 0.000000 1.690110 0.000000 
#    z -0.002340 0.000000 1.717300 
# 
# From -- ./inp_files/159161.got.cif
#   From: 2010.06.25/outbox.cif.g09.slc.cpg/sg12_80_cif.got.tgz:159161.got - 2010.06.28 00:19:55.
