data_PCOD8081193
_publ_section_title
;
Structure prediction by ZEFSAII (Michael W. Deem and Ramdas Pophale) SiO2 
 PCOD8081193
Probable space group: C 2/M
;
_chemical_formula_sum "Si O2"
_cell_formula_units_Z 44
_cell_length_a 7.713959
_cell_length_b 21.181340
_cell_length_c 20.070674
_cell_angle_alpha 90.000000
_cell_angle_beta 45.415306
_cell_angle_gamma 90.000000
_cell_volume 2335.624237
_symmetry_space_group_name_H-M "C 2/M"
_symmetry_group_IT_number 12
_symmetry_cell_setting 'monoclinic'
loop_
_space_group_symop_operation_xyz
x,y,z
-x,y,-z
-x,-y,-z
x,-y,z
1/2+x,1/2+y,z
1/2-x,1/2+y,-z
1/2-x,1/2-y,-z
1/2+x,1/2-y,z
loop_
_atom_site_type_symbol
_atom_site_label
_atom_site_fract_x
_atom_site_fract_y
_atom_site_fract_z
Si Si1 0.695812 0.574033 0.896459
Si Si2 0.500000 0.732784 0.500000
Si Si3 0.925526 0.070421 0.443045
Si Si4 0.266158 0.074102 0.235920
Si Si5 0.053991 0.340553 0.583167
Si Si6 0.857690 0.073796 0.241789
O O1 0.710670 0.500000 0.906012
O O2 0.603812 0.587412 0.846401
O O3 0.962864 0.604425 0.839452
O O4 0.500000 0.604777 0.000000
O O5 0.727225 0.685925 0.430530
O O6 0.457187 0.777444 0.574902
O O7 0.684015 0.112041 0.495419
O O8 0.000000 0.069794 0.500000
O O9 0.135500 0.098711 0.338585
O O10 0.863101 0.000000 0.435464
O O11 0.106562 0.090986 0.213588
O O12 0.301339 0.000000 0.232633
O O13 0.854292 0.379382 0.677347
O O14 0.783810 0.000000 0.273662
#
# Coordination Sequence:
#
# PCOD8081193 Si02
#       6
#     8   4   8   8   8   8
#     4   9  18  32  50  77 113 143 168 208 270 336
#     4  10  24  34  50  68 108 148 184 216 256 302
#     4  10  18  29  51  78 107 143 178 220 264 307
#     4   9  18  30  46  75 108 141 177 209 255 317
#     4  11  20  37  49  75 105 142 182 217 258 314
#     4  10  20  34  56  82 108 140 177 220 270 319
#
# _framework density 18.838646000000001
#
# number of rings (size 3 to 8) (size 9 to 14) (size 15 to 20)
#    0.000    2.182    0.909    2.727    0.000    3.636 
#    0.000    7.273    0.000    0.000    0.000    1.273 
#    0.000    0.000    0.000    0.000    0.000    0.000 
#
# Total GULP energy -272537.029611 kJ/mol
# GULP energy per Si atom -12388.046800 kJ/mol
# Density = 1.879577 g / cm^3
# Si number density = 18.838646 Si / 1000 Ang^3
#
#
#
# Elastic Constant Matrix: (Units=GPa)
#
#
# Indices 1 2 3 4 5 6 
#
# 1 132.1199 22.5752 72.7092 0.0000 -3.6801 0.0000
# 2 22.5752 63.7307 32.2376 0.0000 -4.9377 0.0000
# 3 72.7092 32.2376 159.8444 0.0000 -4.5581 0.0000
# 4 0.0000 0.0000 0.0000 12.4547 0.0000 -7.0326
# 5 -3.6801 -4.9377 -4.5581 0.0000 23.6661 0.0000
# 6 0.0000 0.0000 0.0000 -7.0326 0.0000 15.3116
#
#
#
# Elastic Compliance Matrix: (Units=1/GPa)
#
#
# Indices 1 2 3 4 5 6 
#
# 1 0.010214 -0.001380 -0.004355 0.000000 0.000462 0.000000
# 2 -0.001380 0.017872 -0.002893 0.000000 0.002957 0.000000
# 3 -0.004355 -0.002893 0.008832 0.000000 0.000420 0.000000
# 4 0.000000 0.000000 0.000000 0.108405 0.000000 0.049790
# 5 0.000462 0.002957 0.000420 0.000000 0.043024 0.000000
# 6 0.000000 0.000000 0.000000 0.049790 0.000000 0.088178
#
#
# Mechanical properties :
#
#
# Convention : Reuss Voigt Hill
#
# Bulk Modulus (GPa) = 50.85275 67.85990 59.35632
# Shear Modulus (GPa) = 16.64812 25.49803 21.07308
#
# Velocity S-wave (km/s) = 2.97597 3.68298 3.34819
# Velocity P-wave (km/s) = 6.23386 7.36109 6.82080
#
# Compressibility (1/GPa) = 0.01966462
#
# Stress axis : x y z
#
# Youngs Moduli (GPa) = 97.90521 55.95350 113.22096
#
# Poissons Ratio (x) = 0.07719 0.49304
# Poissons Ratio (y) = 0.13506 0.32750
# Poissons Ratio (z) = 0.42635 0.16185
#
# Static dielectric constant tensor:
#      x y z
#    x 3.705370 0.000000 -0.161260 
#    y 0.000000 3.382270 0.000000 
#    z -0.161260 0.000000 3.544430 
# 
# 
# High freq. dielectric constant tensor:
#      x y z
#    x 1.746800 0.000000 -0.002990 
#    y 0.000000 1.695790 0.000000 
#    z -0.002990 0.000000 1.712450 
# 
# From -- ./inp_files/301578.got.cif
#   From: 2010.06.25/outbox.cif.g09.slc.cpg/sg12_151_cif.got.tgz:301578.got - 2010.06.28 00:19:55.
