data_PCOD8081108
_publ_section_title
;
Structure prediction by ZEFSAII (Michael W. Deem and Ramdas Pophale) SiO2 
 PCOD8081108
Probable space group: C 2/M
;
_chemical_formula_sum "Si O2"
_cell_formula_units_Z 64
_cell_length_a 25.679888
_cell_length_b 9.557418
_cell_length_c 15.087379
_cell_angle_alpha 90.000000
_cell_angle_beta 77.182178
_cell_angle_gamma 90.000000
_cell_volume 3610.671102
_symmetry_space_group_name_H-M "C 2/M"
_symmetry_group_IT_number 12
_symmetry_cell_setting 'monoclinic'
loop_
_space_group_symop_operation_xyz
x,y,z
-x,y,-z
-x,-y,-z
x,-y,z
1/2+x,1/2+y,z
1/2-x,1/2+y,-z
1/2-x,1/2-y,-z
1/2+x,1/2-y,z
loop_
_atom_site_type_symbol
_atom_site_label
_atom_site_fract_x
_atom_site_fract_y
_atom_site_fract_z
Si Si1 0.446235 0.159258 0.795968
Si Si2 0.735131 0.344745 0.248427
Si Si3 0.057503 0.665530 0.505180
Si Si4 0.793821 0.846271 0.941929
Si Si5 0.364531 0.165789 0.679450
Si Si6 0.119050 0.659286 0.017852
Si Si7 0.644540 0.834299 0.811127
Si Si8 0.439294 0.833049 0.297906
O O1 0.397554 0.219652 0.753781
O O2 0.503173 0.230719 0.753105
O O3 0.451068 0.000000 0.761858
O O4 0.436881 0.166557 0.906629
O O5 0.734345 0.500000 0.293978
O O6 0.717435 0.364538 0.155558
O O7 0.692937 0.240629 0.309811
O O8 0.795072 0.278030 0.226733
O O9 0.052570 0.500000 0.506321
O O10 0.102388 0.713646 0.419343
O O11 0.073495 0.717025 0.597550
O O12 0.000000 0.729900 0.500000
O O13 0.794640 0.000000 0.986841
O O14 0.750000 0.750000 0.000000
O O15 0.848701 0.768028 0.935836
O O16 0.353891 0.000000 0.686965
O O17 0.142091 0.500000 0.014411
O O18 0.118518 0.709319 0.916029
O O19 0.606388 0.771185 0.749487
O O20 0.647079 0.000000 0.805647
O O21 0.439578 0.000000 0.289034
#
# Coordination Sequence:
#
# PCOD8081108 Si02
#       8
#     8   8   8   8   8   8   8   8
#     4   9  16  25  44  74 102 123 152 202 253 288
#     4  10  20  33  47  68 100 135 166 198 239 290
#     4   9  15  26  47  75 103 123 151 202 256 299
#     4  11  20  30  47  70  97 129 168 207 243 281
#     4  10  18  29  49  78 102 121 154 207 257 289
#     4  10  18  30  46  71 104 130 162 203 241 288
#     4   9  18  31  45  63  97 139 170 195 235 294
#     4   9  16  28  46  71 100 130 161 199 252 300
#
# _framework density 17.725235999999999
#
# number of rings (size 3 to 8) (size 9 to 14) (size 15 to 20)
#    0.000    2.375    3.750    0.375    0.000    1.000 
#    0.000    3.125    0.000    0.375    0.000    5.250 
#    0.000    0.000    0.000    0.000    0.000    0.000 
#
# Total GULP energy -396440.638565 kJ/mol
# GULP energy per Si atom -12388.769955 kJ/mol
# Density = 1.768489 g / cm^3
# Si number density = 17.725236 Si / 1000 Ang^3
#
#
#
# Elastic Constant Matrix: (Units=GPa)
#
#
# Indices 1 2 3 4 5 6 
#
# 1 113.1172 22.5379 77.3037 0.0000 -2.1500 0.0000
# 2 22.5379 42.4998 20.4181 0.0000 -6.9947 0.0000
# 3 77.3037 20.4181 133.9851 0.0000 -10.6662 0.0000
# 4 0.0000 0.0000 0.0000 12.0914 0.0000 -4.1358
# 5 -2.1500 -6.9947 -10.6662 0.0000 32.8608 0.0000
# 6 0.0000 0.0000 0.0000 -4.1358 0.0000 16.8906
#
#
#
# Elastic Compliance Matrix: (Units=1/GPa)
#
#
# Indices 1 2 3 4 5 6 
#
# 1 0.015475 -0.004595 -0.008443 0.000000 -0.002706 0.000000
# 2 -0.004595 0.027347 -0.001105 0.000000 0.005162 0.000000
# 3 -0.008443 -0.001105 0.012771 0.000000 0.003358 0.000000
# 4 0.000000 0.000000 0.000000 0.090263 0.000000 0.022101
# 5 -0.002706 0.005162 0.003358 0.000000 0.032443 0.000000
# 6 0.000000 0.000000 0.000000 0.022101 0.000000 0.064616
#
#
# Mechanical properties :
#
#
# Convention : Reuss Voigt Hill
#
# Bulk Modulus (GPa) = 36.62402 58.90239 47.76320
# Shear Modulus (GPa) = 17.83782 23.65806 20.74794
#
# Velocity S-wave (km/s) = 3.17575 3.65733 3.42501
# Velocity P-wave (km/s) = 5.84415 7.15106 6.53038
#
# Compressibility (1/GPa) = 0.02730449
#
# Stress axis : x y z
#
# Youngs Moduli (GPa) = 64.62154 36.56718 78.30415
#
# Poissons Ratio (x) = 0.16804 0.66115
# Poissons Ratio (y) = 0.29695 0.08654
# Poissons Ratio (z) = 0.54563 0.04042
#
# Static dielectric constant tensor:
#      x y z
#    x 2.680240 0.000000 -0.178300 
#    y 0.000000 2.842650 0.000000 
#    z -0.178300 0.000000 3.356320 
# 
# 
# High freq. dielectric constant tensor:
#      x y z
#    x 1.681390 0.000000 -0.013290 
#    y 0.000000 1.626180 0.000000 
#    z -0.013290 0.000000 1.686400 
# 
# From -- ./inp_files/243973.got.cif
#   From: 2010.06.25/outbox.cif.g09.slc.cpg/sg12_122_cif.got.tgz:243973.got - 2010.06.28 00:19:55.
