data_PCOD8081252
_publ_section_title
;
Structure prediction by ZEFSAII (Michael W. Deem and Ramdas Pophale) SiO2 
 PCOD8081252
Probable space group: C 2/M
;
_chemical_formula_sum "Si O2"
_cell_formula_units_Z 48
_cell_length_a 8.472785
_cell_length_b 26.388561
_cell_length_c 13.344738
_cell_angle_alpha 90.000000
_cell_angle_beta 104.251898
_cell_angle_gamma 90.000000
_cell_volume 2891.848571
_symmetry_space_group_name_H-M "C 2/M"
_symmetry_group_IT_number 12
_symmetry_cell_setting 'monoclinic'
loop_
_space_group_symop_operation_xyz
x,y,z
-x,y,-z
-x,-y,-z
x,-y,z
1/2+x,1/2+y,z
1/2-x,1/2+y,-z
1/2-x,1/2-y,-z
1/2+x,1/2-y,z
loop_
_atom_site_type_symbol
_atom_site_label
_atom_site_fract_x
_atom_site_fract_y
_atom_site_fract_z
Si Si1 0.132943 0.556167 0.606787
Si Si2 0.764858 0.201982 0.691120
Si Si3 0.455539 0.139033 0.678622
Si Si4 0.170574 0.135872 0.474766
Si Si5 0.669896 0.795813 0.183479
Si Si6 0.985944 0.202610 0.109438
O O1 0.190516 0.500000 0.649225
O O2 0.286995 0.588505 0.591762
O O3 0.000000 0.551824 0.500000
O O4 0.047393 0.584832 0.687555
O O5 0.580835 0.182927 0.667586
O O6 0.838974 0.186983 0.594299
O O7 0.758659 0.262671 0.710703
O O8 0.879792 0.176800 0.796351
O O9 0.307518 0.141741 0.579068
O O10 0.392836 0.150651 0.781513
O O11 0.000000 0.124538 0.500000
O O12 0.521711 0.763579 0.111439
O O13 0.804943 0.807141 0.121302
O O14 0.000000 0.179611 0.000000
#
# Coordination Sequence:
#
# PCOD8081252 Si02
#       6
#     8   8   8   8   8   8
#     4   8  16  31  48  66  92 126 159 193 232 273
#     4   9  18  31  42  65  93 128 159 195 219 278
#     4  10  18  31  48  67  97 128 159 191 231 275
#     4  10  19  29  46  69  96 129 159 193 231 275
#     4  10  18  30  44  66  93 127 156 197 221 279
#     4  10  19  31  47  65  93 125 157 198 234 268
#
# _framework density 16.598379999999999
#
# number of rings (size 3 to 8) (size 9 to 14) (size 15 to 20)
#    1.000    1.500    1.667    3.000    0.000    1.000 
#    0.000    2.500    0.000    0.000    0.000    0.000 
#    0.000   28.000    0.000    0.000    0.000    0.000 
#
# Total GULP energy -297323.865893 kJ/mol
# GULP energy per Si atom -12388.494412 kJ/mol
# Density = 1.656060 g / cm^3
# Si number density = 16.598380 Si / 1000 Ang^3
#
#
#
# Elastic Constant Matrix: (Units=GPa)
#
#
# Indices 1 2 3 4 5 6 
#
# 1 115.6189 26.6873 39.3824 0.0000 -28.5011 0.0000
# 2 26.6873 57.1643 11.3706 0.0000 -20.5324 0.0000
# 3 39.3824 11.3706 56.2703 0.0000 -17.9134 0.0000
# 4 0.0000 0.0000 0.0000 9.2301 0.0000 -3.0190
# 5 -28.5011 -20.5324 -17.9134 0.0000 31.3232 0.0000
# 6 0.0000 0.0000 0.0000 -3.0190 0.0000 15.5111
#
#
#
# Elastic Compliance Matrix: (Units=1/GPa)
#
#
# Indices 1 2 3 4 5 6 
#
# 1 0.013059 -0.002448 -0.006569 0.000000 0.006521 0.000000
# 2 -0.002448 0.023341 0.001416 0.000000 0.013883 0.000000
# 3 -0.006569 0.001416 0.025033 0.000000 0.009267 0.000000
# 4 0.000000 0.000000 0.000000 0.115708 0.000000 0.022521
# 5 0.006521 0.013883 0.009267 0.000000 0.052259 0.000000
# 6 0.000000 0.000000 0.000000 0.022521 0.000000 0.068854
#
#
# Mechanical properties :
#
#
# Convention : Reuss Voigt Hill
#
# Bulk Modulus (GPa) = 21.63039 42.65933 32.14486
# Shear Modulus (GPa) = 15.20380 21.32043 18.26211
#
# Velocity S-wave (km/s) = 3.02980 3.58786 3.32058
# Velocity P-wave (km/s) = 5.02986 6.55137 5.84037
#
# Compressibility (1/GPa) = 0.04623125
#
# Stress axis : x y z
#
# Youngs Moduli (GPa) = 76.57384 42.84326 39.94732
#
# Poissons Ratio (x) = 0.10487 0.26243
# Poissons Ratio (y) = 0.18743 -0.05657
# Poissons Ratio (z) = 0.50303 -0.06067
#
# Static dielectric constant tensor:
#      x y z
#    x 3.151920 0.000000 -0.098370 
#    y 0.000000 3.080150 0.000000 
#    z -0.098370 0.000000 2.958930 
# 
# 
# High freq. dielectric constant tensor:
#      x y z
#    x 1.651760 0.000000 -0.007430 
#    y 0.000000 1.591260 0.000000 
#    z -0.007430 0.000000 1.615510 
# 
# From -- ./inp_files/200316.got.cif
#   From: 2010.06.25/outbox.cif.g09.slc.cpg/sg12_101_cif.got.tgz:200316.got - 2010.06.28 00:19:55.
