data_PCOD8081060
_publ_section_title
;
Structure prediction by ZEFSAII (Michael W. Deem and Ramdas Pophale) SiO2 
 PCOD8081060
Probable space group: C 2/M
;
_chemical_formula_sum "Si O2"
_cell_formula_units_Z 64
_cell_length_a 23.715281
_cell_length_b 9.099869
_cell_length_c 21.351929
_cell_angle_alpha 90.000000
_cell_angle_beta 52.580674
_cell_angle_gamma 90.000000
_cell_volume 3659.617724
_symmetry_space_group_name_H-M "C 2/M"
_symmetry_group_IT_number 12
_symmetry_cell_setting 'monoclinic'
loop_
_space_group_symop_operation_xyz
x,y,z
-x,y,-z
-x,-y,-z
x,-y,z
1/2+x,1/2+y,z
1/2-x,1/2+y,-z
1/2-x,1/2-y,-z
1/2+x,1/2-y,z
loop_
_atom_site_type_symbol
_atom_site_label
_atom_site_fract_x
_atom_site_fract_y
_atom_site_fract_z
Si Si1 0.821414 0.172913 0.593116
Si Si2 0.075730 0.329790 0.715974
Si Si3 0.221609 0.332802 0.078714
Si Si4 0.822783 0.327912 0.468598
Si Si5 0.072335 0.327188 0.236125
Si Si6 0.124157 0.831364 0.313286
Si Si7 0.821967 0.830827 0.268050
Si Si8 0.240447 0.165559 0.815054
O O1 0.853576 0.251947 0.510456
O O2 0.879223 0.198500 0.609575
O O3 0.745168 0.244015 0.659350
O O4 0.808840 0.000000 0.589598
O O5 0.077857 0.500000 0.733344
O O6 0.120698 0.298986 0.623590
O O7 0.105801 0.237270 0.753882
O O8 0.995463 0.275033 0.757981
O O9 0.214475 0.500000 0.062730
O O10 0.143976 0.274188 0.152591
O O11 0.277738 0.313329 0.098865
O O12 0.250000 0.250000 0.000000
O O13 0.809710 0.500000 0.488701
O O14 0.750000 0.250000 0.500000
O O15 0.070663 0.500000 0.246464
O O16 0.068405 0.260254 0.309212
O O17 0.203402 0.788880 0.240335
O O18 0.110590 0.000000 0.306943
O O19 0.824901 0.817564 0.189611
O O20 0.815689 0.000000 0.293204
O O21 0.273430 0.000000 0.785191
#
# Coordination Sequence:
#
# PCOD8081060 Si02
#       8
#     8   8   8   8   8   8   8   8
#     4  10  19  31  47  69  98 128 163 208 254 295
#     4  10  21  35  50  69  97 132 167 204 248 293
#     4   9  17  31  53  78 102 125 155 195 239 288
#     4  11  21  32  48  70  97 128 167 212 255 294
#     4   9  19  36  53  70  98 134 164 195 241 299
#     4   9  17  29  48  72  95 123 162 209 248 283
#     4  10  18  29  49  73  96 127 167 206 246 286
#     4   8  16  30  47  71 101 130 159 195 239 290
#
# _framework density 17.488164999999999
#
# number of rings (size 3 to 8) (size 9 to 14) (size 15 to 20)
#    0.000    2.500    1.250    2.250    0.000    5.000 
#    0.000    0.625    0.000    4.500    0.000    5.250 
#    0.000    0.000    0.000    0.000    0.000    0.000 
#
# Total GULP energy -396551.261516 kJ/mol
# GULP energy per Si atom -12392.226922 kJ/mol
# Density = 1.744836 g / cm^3
# Si number density = 17.488165 Si / 1000 Ang^3
#
#
#
# Elastic Constant Matrix: (Units=GPa)
#
#
# Indices 1 2 3 4 5 6 
#
# 1 142.4862 54.5722 53.1198 0.0001 19.4150 0.0002
# 2 54.5722 74.8454 38.0803 -0.0007 11.7686 0.0007
# 3 53.1198 38.0803 70.7987 -0.0001 19.0220 0.0001
# 4 0.0001 -0.0007 -0.0001 24.1000 0.0003 6.8529
# 5 19.4150 11.7686 19.0220 0.0003 25.7425 -0.0001
# 6 0.0002 0.0007 0.0001 6.8529 -0.0001 30.2912
#
#
#
# Elastic Compliance Matrix: (Units=1/GPa)
#
#
# Indices 1 2 3 4 5 6 
#
# 1 0.011204 -0.005291 -0.004916 0.000000 -0.002399 0.000000
# 2 -0.005291 0.020932 -0.007224 0.000001 -0.000241 -0.000001
# 3 -0.004916 -0.007224 0.024724 0.000000 -0.011259 0.000000
# 4 0.000000 0.000001 0.000000 0.044347 -0.000001 -0.010033
# 5 -0.002399 -0.000241 -0.011259 -0.000001 0.049085 0.000000
# 6 0.000000 -0.000001 0.000000 -0.010033 0.000000 0.035283
#
#
# Mechanical properties :
#
#
# Convention : Reuss Voigt Hill
#
# Bulk Modulus (GPa) = 45.45986 64.40830 54.93408
# Shear Modulus (GPa) = 21.95199 25.51726 23.73463
#
# Velocity S-wave (km/s) = 3.54679 3.82398 3.68799
# Velocity P-wave (km/s) = 6.54401 7.51044 7.04382
#
# Compressibility (1/GPa) = 0.02199743
#
# Stress axis : x y z
#
# Youngs Moduli (GPa) = 89.25147 47.77340 40.44679
#
# Poissons Ratio (x) = 0.25277 0.19885
# Poissons Ratio (y) = 0.47222 0.29220
# Poissons Ratio (z) = 0.43878 0.34513
#
# Static dielectric constant tensor:
#      x y z
#    x 3.616930 0.000000 0.308230 
#    y 0.000000 3.344510 0.000000 
#    z 0.308230 0.000000 3.111610 
# 
# 
# High freq. dielectric constant tensor:
#      x y z
#    x 1.680050 0.000000 0.033190 
#    y 0.000000 1.683970 0.000000 
#    z 0.033190 0.000000 1.631870 
# 
# From -- ./inp_files/323699.got.cif
#   From: 2010.06.25/outbox.cif.g09.slc.cpg/sg12_162_cif.got.tgz:323699.got - 2010.06.28 00:19:55.
