data_PCOD8081454
_publ_section_title
;
Structure prediction by ZEFSAII (Michael W. Deem and Ramdas Pophale) SiO2 
 PCOD8081454
Probable space group: C 2/M
;
_chemical_formula_sum "Si O2"
_cell_formula_units_Z 60
_cell_length_a 20.994974
_cell_length_b 9.504722
_cell_length_c 16.958584
_cell_angle_alpha 90.000000
_cell_angle_beta 68.680230
_cell_angle_gamma 90.000000
_cell_volume 3152.520344
_symmetry_space_group_name_H-M "C 2/M"
_symmetry_group_IT_number 12
_symmetry_cell_setting 'monoclinic'
loop_
_space_group_symop_operation_xyz
x,y,z
-x,y,-z
-x,-y,-z
x,-y,z
1/2+x,1/2+y,z
1/2-x,1/2+y,-z
1/2-x,1/2-y,-z
1/2+x,1/2-y,z
loop_
_atom_site_type_symbol
_atom_site_label
_atom_site_fract_x
_atom_site_fract_y
_atom_site_fract_z
Si Si1 0.256491 0.661929 0.300230
Si Si2 0.467531 0.844688 0.346892
Si Si3 0.426590 0.659908 0.992993
Si Si4 0.000000 0.244441 0.500000
Si Si5 0.150812 0.156559 0.416569
Si Si6 0.515342 0.840507 0.162472
Si Si7 0.658075 0.656989 0.586541
Si Si8 0.867970 0.665505 0.154659
O O1 0.251846 0.500000 0.272194
O O2 0.180949 0.733766 0.338413
O O3 0.281131 0.669004 0.379118
O O4 0.305126 0.754459 0.223635
O O5 0.497460 0.836014 0.421475
O O6 0.523927 0.815256 0.252948
O O7 0.405023 0.746111 0.355322
O O8 0.438243 0.000000 0.347683
O O9 0.398152 0.500000 0.997355
O O10 0.434262 0.731646 0.903644
O O11 0.500000 0.656933 0.000000
O O12 0.376143 0.757681 0.066565
O O13 0.068481 0.153460 0.460121
O O14 0.181855 0.201069 0.488020
O O15 0.174912 0.000000 0.381933
O O16 0.436306 0.813606 0.174845
O O17 0.535790 0.000000 0.129303
O O18 0.628979 0.500000 0.594981
O O19 0.851086 0.500000 0.150501
#
# Coordination Sequence:
#
# PCOD8081454 Si02
#       8
#     8   8   8   4   8   8   8   8
#     4  11  21  32  49  76 105 133 169 211 258 310
#     4  10  19  32  52  76 102 136 176 218 259 302
#     4   9  17  28  44  69 102 137 170 206 250 300
#     4  10  22  38  56  76 100 132 176 226 264 298
#     4  10  21  37  54  71  96 133 174 215 261 311
#     4   9  17  29  46  71 101 136 175 209 249 303
#     4   9  19  33  49  71 101 134 168 210 258 308
#     4  10  18  30  48  71 104 140 171 205 250 306
#
# _framework density 19.032389999999999
#
# number of rings (size 3 to 8) (size 9 to 14) (size 15 to 20)
#    0.000    2.267    1.333    2.000    0.000    6.400 
#    0.000    0.000    0.000    0.000    0.000    0.933 
#    0.000    0.000    0.000    0.000    0.000    0.000 
#
# Total GULP energy -371745.796626 kJ/mol
# GULP energy per Si atom -12391.526554 kJ/mol
# Density = 1.898907 g / cm^3
# Si number density = 19.032390 Si / 1000 Ang^3
#
#
#
# Elastic Constant Matrix: (Units=GPa)
#
#
# Indices 1 2 3 4 5 6 
#
# 1 33.6040 18.7001 29.0641 0.0000 -8.1791 0.0000
# 2 18.7001 134.6156 83.6533 0.0000 -17.9232 0.0001
# 3 29.0641 83.6533 131.7027 0.0000 -8.9658 0.0000
# 4 0.0000 0.0000 0.0000 36.1049 0.0000 -8.2410
# 5 -8.1791 -17.9232 -8.9658 0.0000 24.2533 0.0000
# 6 0.0000 0.0001 0.0000 -8.2410 0.0000 14.0143
#
#
#
# Elastic Compliance Matrix: (Units=1/GPa)
#
#
# Indices 1 2 3 4 5 6 
#
# 1 0.039298 0.001552 -0.008901 0.000000 0.011109 0.000000
# 2 0.001552 0.013367 -0.008334 0.000000 0.007320 0.000000
# 3 -0.008901 -0.008334 0.014594 0.000000 -0.003766 0.000000
# 4 0.000000 0.000000 0.000000 0.031991 0.000000 0.018812
# 5 0.011109 0.007320 -0.003766 0.000000 0.048995 0.000000
# 6 0.000000 0.000000 0.000000 0.018812 0.000000 0.082418
#
#
# Mechanical properties :
#
#
# Convention : Reuss Voigt Hill
#
# Bulk Modulus (GPa) = 27.86233 62.52859 45.19546
# Shear Modulus (GPa) = 18.24850 26.10816 22.17833
#
# Velocity S-wave (km/s) = 3.09983 3.70777 3.41734
# Velocity P-wave (km/s) = 5.24244 7.15927 6.27448
#
# Compressibility (1/GPa) = 0.03589075
#
# Stress axis : x y z
#
# Youngs Moduli (GPa) = 25.44681 74.81262 68.51905
#
# Poissons Ratio (x) = -0.11608 0.60992
# Poissons Ratio (y) = -0.03948 0.57105
# Poissons Ratio (z) = 0.22651 0.62350
#
# Static dielectric constant tensor:
#      x y z
#    x 3.010570 0.000000 0.111840 
#    y 0.000000 3.650880 0.000000 
#    z 0.111840 0.000000 3.643330 
# 
# 
# High freq. dielectric constant tensor:
#      x y z
#    x 1.679100 0.000000 -0.005900 
#    y 0.000000 1.753160 0.000000 
#    z -0.005900 0.000000 1.746220 
# 
# From -- ./inp_files/288332.got.cif
#   From: 2010.06.25/outbox.cif.g09.slc.cpg/sg12_145_cif.got.tgz:288332.got - 2010.06.28 00:19:55.
