data_PCOD8081449
_publ_section_title
;
Structure prediction by ZEFSAII (Michael W. Deem and Ramdas Pophale) SiO2 
 PCOD8081449
Probable space group: C 2/M
;
_chemical_formula_sum "Si O2"
_cell_formula_units_Z 64
_cell_length_a 24.470224
_cell_length_b 8.974518
_cell_length_c 31.259888
_cell_angle_alpha 90.000000
_cell_angle_beta 150.135138
_cell_angle_gamma 90.000000
_cell_volume 3418.436099
_symmetry_space_group_name_H-M "C 2/M"
_symmetry_group_IT_number 12
_symmetry_cell_setting 'monoclinic'
loop_
_space_group_symop_operation_xyz
x,y,z
-x,y,-z
-x,-y,-z
x,-y,z
1/2+x,1/2+y,z
1/2-x,1/2+y,-z
1/2-x,1/2-y,-z
1/2+x,1/2-y,z
loop_
_atom_site_type_symbol
_atom_site_label
_atom_site_fract_x
_atom_site_fract_y
_atom_site_fract_z
Si Si1 0.881136 0.661309 0.932141
Si Si2 0.841310 0.827377 0.141251
Si Si3 0.889609 0.823741 0.788528
Si Si4 0.928709 0.171000 0.293007
Si Si5 0.358283 0.827388 0.589889
Si Si6 0.121897 0.173605 0.986040
Si Si7 0.941202 0.325794 0.738915
Si Si8 0.249038 0.172944 0.761981
O O1 0.825694 0.500000 0.910090
O O2 0.825151 0.725466 0.852182
O O3 0.885285 0.793876 0.968705
O O4 0.000000 0.613124 0.000000
O O5 0.846902 0.795235 0.196756
O O6 0.938074 0.742455 0.182796
O O7 0.854871 0.000000 0.139273
O O8 0.728424 0.767461 0.043294
O O9 0.874661 0.752103 0.731876
O O10 0.785364 0.769171 0.745811
O O11 0.008584 0.771331 0.887353
O O12 0.883510 0.000000 0.781473
O O13 0.872733 0.203120 0.301333
O O14 0.036172 0.271334 0.364420
O O15 0.966120 0.000000 0.315218
O O16 0.250000 0.750000 0.500000
O O17 0.372273 0.792584 0.649450
O O18 0.346772 0.000000 0.572744
O O19 0.141934 0.000000 0.991118
O O20 0.952596 0.500000 0.755731
O O21 0.264492 0.000000 0.760641
#
# Coordination Sequence:
#
# PCOD8081449 Si02
#       8
#     8   8   8   8   8   8   8   8
#     4  10  18  30  48  70  99 140 191 238 280 318
#     4  10  19  34  55  77 104 142 186 234 282 325
#     4  11  24  37  50  74 108 152 195 230 273 321
#     4   9  18  33  55  84 114 142 176 220 272 322
#     4  10  21  38  64  94 116 136 166 208 265 326
#     4  11  22  32  46  72 106 144 191 239 281 320
#     4  10  22  40  59  81 108 141 180 222 269 326
#     4  10  19  33  53  77 107 146 188 229 274 322
#
# _framework density 18.722011999999999
#
# number of rings (size 3 to 8) (size 9 to 14) (size 15 to 20)
#    0.000    1.875    2.500    1.875    0.000    5.250 
#    0.000    0.000    0.000    0.750    0.000    5.250 
#    0.000    0.000    0.000    0.000    0.000    0.000 
#
# Total GULP energy -396625.127558 kJ/mol
# GULP energy per Si atom -12394.535236 kJ/mol
# Density = 1.867940 g / cm^3
# Si number density = 18.722012 Si / 1000 Ang^3
#
#
#
# Elastic Constant Matrix: (Units=GPa)
#
#
# Indices 1 2 3 4 5 6 
#
# 1 128.4217 59.2520 40.2874 0.0001 -0.6689 0.0005
# 2 59.2520 92.6332 50.3952 0.0002 2.9104 0.0008
# 3 40.2874 50.3952 81.1775 0.0010 13.4017 0.0001
# 4 0.0001 0.0002 0.0010 28.2876 0.0000 3.6153
# 5 -0.6689 2.9104 13.4017 0.0000 15.0819 0.0000
# 6 0.0005 0.0008 0.0001 3.6153 0.0000 35.7930
#
#
#
# Elastic Compliance Matrix: (Units=1/GPa)
#
#
# Indices 1 2 3 4 5 6 
#
# 1 0.011387 -0.006007 -0.002574 0.000000 0.003952 0.000000
# 2 -0.006007 0.020097 -0.010326 0.000000 0.005031 0.000000
# 3 -0.002574 -0.010326 0.023082 -0.000001 -0.018632 0.000000
# 4 0.000000 0.000000 -0.000001 0.035813 0.000001 -0.003617
# 5 0.003952 0.005031 -0.018632 0.000001 0.082066 0.000000
# 6 0.000000 0.000000 0.000000 -0.003617 0.000000 0.028304
#
#
# Mechanical properties :
#
#
# Convention : Reuss Voigt Hill
#
# Bulk Modulus (GPa) = 59.69298 66.90017 63.29658
# Shear Modulus (GPa) = 20.47951 25.98570 23.23261
#
# Velocity S-wave (km/s) = 3.31096 3.72960 3.52650
# Velocity P-wave (km/s) = 6.82420 7.37276 7.10377
#
# Compressibility (1/GPa) = 0.01675239
#
# Stress axis : x y z
#
# Youngs Moduli (GPa) = 87.82300 49.75883 43.32307
#
# Poissons Ratio (x) = 0.29890 0.11152
# Poissons Ratio (y) = 0.52755 0.44733
# Poissons Ratio (z) = 0.22607 0.51379
#
# Static dielectric constant tensor:
#      x y z
#    x 3.508210 0.000000 0.106000 
#    y 0.000000 3.387980 0.000000 
#    z 0.106000 0.000000 3.230700 
# 
# 
# High freq. dielectric constant tensor:
#      x y z
#    x 1.729820 0.000000 0.013550 
#    y 0.000000 1.732030 0.000000 
#    z 0.013550 0.000000 1.692990 
# 
# From -- ./inp_files/382523.got.cif
#   From: 2010.06.25/outbox.cif.g09.slc.cpg/sg12_192_cif.got.tgz:382523.got - 2010.06.28 00:19:55.
