data_PCOD8081805
_publ_section_title
;
Structure prediction by ZEFSAII (Michael W. Deem and Ramdas Pophale) SiO2 
 PCOD8081805
Probable space group: C 2/M
;
_chemical_formula_sum "Si O2"
_cell_formula_units_Z 56
_cell_length_a 15.108152
_cell_length_b 16.844131
_cell_length_c 17.692575
_cell_angle_alpha 90.000000
_cell_angle_beta 40.778320
_cell_angle_gamma 90.000000
_cell_volume 2940.717954
_symmetry_space_group_name_H-M "C 2/M"
_symmetry_group_IT_number 12
_symmetry_cell_setting 'monoclinic'
loop_
_space_group_symop_operation_xyz
x,y,z
-x,y,-z
-x,-y,-z
x,-y,z
1/2+x,1/2+y,z
1/2-x,1/2+y,-z
1/2-x,1/2-y,-z
1/2+x,1/2-y,z
loop_
_atom_site_type_symbol
_atom_site_label
_atom_site_fract_x
_atom_site_fract_y
_atom_site_fract_z
Si Si1 0.689836 0.138391 0.093517
Si Si2 0.826884 0.091213 0.321452
Si Si3 0.288136 0.148703 0.758548
Si Si4 0.080998 0.593733 0.586742
Si Si5 0.431994 0.302577 0.854591
Si Si6 0.092977 0.714554 0.871015
Si Si7 0.411022 0.086760 0.247125
O O1 0.744430 0.107057 0.139233
O O2 0.619916 0.225090 0.156360
O O3 0.574588 0.080944 0.135407
O O4 0.805333 0.140717 0.955579
O O5 0.785806 0.101637 0.260575
O O6 0.703507 0.118857 0.453625
O O7 0.954901 0.146050 0.262578
O O8 0.865786 0.000000 0.311018
O O9 0.451153 0.144453 0.642734
O O10 0.231111 0.239010 0.802644
O O11 0.047209 0.500000 0.601891
O O12 0.124419 0.615527 0.644692
O O13 0.492488 0.275486 0.895387
O O14 0.144344 0.645550 0.781239
O O15 0.000000 0.681095 0.000000
O O16 0.348594 0.000000 0.271780
#
# Coordination Sequence:
#
# PCOD8081805 Si02
#       7
#     8   8   8   8   8   8   8
#     4   9  17  32  51  70 100 133 162 201 245 292
#     4  10  20  32  50  75 104 134 163 201 246 291
#     4  10  18  30  51  75  98 131 165 199 250 296
#     4   9  18  35  52  70 101 135 165 201 243 289
#     4   9  18  32  50  72 100 136 165 193 245 297
#     4  10  18  31  50  74 101 130 159 203 259 294
#     4   9  19  33  51  74  97 129 169 203 244 296
#
# _framework density 19.04297
#
# number of rings (size 3 to 8) (size 9 to 14) (size 15 to 20)
#    0.000    2.571    1.429    0.857    0.000    2.571 
#    0.000   13.571    0.000    0.000    0.000    0.000 
#    0.000   24.000    0.000    0.000    0.000    0.000 
#
# Total GULP energy -346928.033575 kJ/mol
# GULP energy per Si atom -12390.286913 kJ/mol
# Density = 1.899963 g / cm^3
# Si number density = 19.042970 Si / 1000 Ang^3
#
#
#
# Elastic Constant Matrix: (Units=GPa)
#
#
# Indices 1 2 3 4 5 6 
#
# 1 49.6061 19.2180 23.2356 0.0000 0.3196 0.0000
# 2 19.2180 58.1887 37.7116 0.0001 -4.9209 -0.0001
# 3 23.2356 37.7116 106.1443 0.0002 -8.1988 0.0000
# 4 0.0000 0.0001 0.0002 27.7724 0.0000 0.4965
# 5 0.3196 -4.9209 -8.1988 0.0000 22.5964 0.0000
# 6 0.0000 -0.0001 0.0000 0.4965 0.0000 19.8814
#
#
#
# Elastic Compliance Matrix: (Units=1/GPa)
#
#
# Indices 1 2 3 4 5 6 
#
# 1 0.024081 -0.006023 -0.003353 0.000000 -0.002869 0.000000
# 2 -0.006023 0.023924 -0.006968 0.000000 0.002767 0.000000
# 3 -0.003353 -0.006968 0.012878 0.000000 0.003203 0.000000
# 4 0.000000 0.000000 0.000000 0.036023 0.000000 -0.000900
# 5 -0.002869 0.002767 0.003203 0.000000 0.046060 0.000000
# 6 0.000000 0.000000 0.000000 -0.000900 0.000000 0.050321
#
#
# Mechanical properties :
#
#
# Convention : Reuss Voigt Hill
#
# Bulk Modulus (GPa) = 35.46596 41.58551 38.52573
# Shear Modulus (GPa) = 21.24277 22.96830 22.10553
#
# Velocity S-wave (km/s) = 3.34356 3.47671 3.41078
# Velocity P-wave (km/s) = 5.79400 6.16456 5.98215
#
# Compressibility (1/GPa) = 0.02819605
#
# Stress axis : x y z
#
# Youngs Moduli (GPa) = 41.52605 41.79834 77.65065
#
# Poissons Ratio (x) = 0.25174 0.26039
# Poissons Ratio (y) = 0.25010 0.54106
# Poissons Ratio (z) = 0.13925 0.29125
#
# Static dielectric constant tensor:
#      x y z
#    x 3.385470 0.000000 -0.014470 
#    y 0.000000 3.334280 0.000000 
#    z -0.014470 0.000000 3.504440 
# 
# 
# High freq. dielectric constant tensor:
#      x y z
#    x 1.724860 0.000000 0.006110 
#    y 0.000000 1.716950 0.000000 
#    z 0.006110 0.000000 1.735390 
# 
# From -- ./inp_files/271405.got.cif
#   From: 2010.06.25/outbox.cif.g09.slc.cpg/sg12_136_cif.got.tgz:271405.got - 2010.06.28 00:19:55.
