data_PCOD8081895
_publ_section_title
;
Structure prediction by ZEFSAII (Michael W. Deem and Ramdas Pophale) SiO2 
 PCOD8081895
Probable space group: C 2/M
;
_chemical_formula_sum "Si O2"
_cell_formula_units_Z 48
_cell_length_a 20.638456
_cell_length_b 9.143633
_cell_length_c 14.900953
_cell_angle_alpha 90.000000
_cell_angle_beta 108.516793
_cell_angle_gamma 90.000000
_cell_volume 2666.392063
_symmetry_space_group_name_H-M "C 2/M"
_symmetry_group_IT_number 12
_symmetry_cell_setting 'monoclinic'
loop_
_space_group_symop_operation_xyz
x,y,z
-x,y,-z
-x,-y,-z
x,-y,z
1/2+x,1/2+y,z
1/2-x,1/2+y,-z
1/2-x,1/2-y,-z
1/2+x,1/2-y,z
loop_
_atom_site_type_symbol
_atom_site_label
_atom_site_fract_x
_atom_site_fract_y
_atom_site_fract_z
Si Si1 0.064259 0.325819 0.787881
Si Si2 0.929493 0.673449 0.008466
Si Si3 0.815043 0.328652 0.488595
Si Si4 0.186004 0.672957 0.716685
Si Si5 0.585682 0.827460 0.314999
Si Si6 0.825280 0.326564 0.812534
O O1 0.062304 0.500000 0.784967
O O2 0.081722 0.268332 0.895473
O O3 0.121635 0.268056 0.744945
O O4 0.990585 0.261435 0.725350
O O5 0.935375 0.500000 0.011182
O O6 0.866171 0.722837 0.919286
O O7 0.000000 0.739010 0.000000
O O8 0.801259 0.500000 0.490859
O O9 0.750000 0.250000 0.500000
O O10 0.827222 0.280455 0.391836
O O11 0.881889 0.283053 0.575107
O O12 0.195284 0.500000 0.730315
O O13 0.252530 0.749720 0.785262
O O14 0.633442 0.767535 0.255918
O O15 0.580672 0.000000 0.301224
O O16 0.814729 0.500000 0.803354
#
# Coordination Sequence:
#
# PCOD8081895 Si02
#       6
#     8   8   8   8   8   8
#     4   9  17  30  47  72 103 126 155 204 249 281
#     4   9  15  26  48  76  97 120 162 207 239 273
#     4  10  19  31  49  73  97 126 162 197 238 287
#     4  10  21  33  47  72 105 132 153 193 251 295
#     4   9  16  28  49  73  94 121 162 205 237 272
#     4  10  18  30  52  76  95 124 166 204 234 278
#
# _framework density 18.001853000000001
#
# number of rings (size 3 to 8) (size 9 to 14) (size 15 to 20)
#    0.000    2.500    3.333    0.000    0.000    1.333 
#    0.000    3.333    0.000    2.500    0.000    2.333 
#    0.000    0.000    0.000    0.000    0.000    0.000 
#
# Total GULP energy -297556.356483 kJ/mol
# GULP energy per Si atom -12398.181520 kJ/mol
# Density = 1.796088 g / cm^3
# Si number density = 18.001853 Si / 1000 Ang^3
#
#
#
# Elastic Constant Matrix: (Units=GPa)
#
#
# Indices 1 2 3 4 5 6 
#
# 1 166.1521 20.7421 91.5835 0.0000 0.2839 0.0000
# 2 20.7421 12.1767 21.0681 0.0000 1.5756 0.0000
# 3 91.5835 21.0681 174.7961 0.0000 3.9454 0.0000
# 4 0.0000 0.0000 0.0000 15.4005 0.0000 4.2949
# 5 0.2839 1.5756 3.9454 0.0000 37.5512 0.0000
# 6 0.0000 0.0000 0.0000 4.2949 0.0000 22.5103
#
#
#
# Elastic Compliance Matrix: (Units=1/GPa)
#
#
# Indices 1 2 3 4 5 6 
#
# 1 0.009244 -0.009390 -0.003728 0.000000 0.000716 0.000000
# 2 -0.009390 0.113648 -0.008693 0.000000 -0.003784 0.000000
# 3 -0.003728 -0.008693 0.008734 0.000000 -0.000525 0.000000
# 4 0.000000 0.000000 0.000000 0.068582 0.000000 -0.013085
# 5 0.000716 -0.003784 -0.000525 0.000000 0.026839 0.000000
# 6 0.000000 0.000000 0.000000 -0.013085 0.000000 0.046921
#
#
# Mechanical properties :
#
#
# Convention : Reuss Voigt Hill
#
# Bulk Modulus (GPa) = 11.36291 68.87915 40.12103
# Shear Modulus (GPa) = 14.41235 29.74116 22.07675
#
# Velocity S-wave (km/s) = 2.83256 4.06903 3.50574
# Velocity P-wave (km/s) = 4.12598 7.77312 6.22274
#
# Compressibility (1/GPa) = 0.08800562
#
# Stress axis : x y z
#
# Youngs Moduli (GPa) = 108.17348 8.79906 114.49740
#
# Poissons Ratio (x) = 0.08262 0.42685
# Poissons Ratio (y) = 1.01570 0.99532
# Poissons Ratio (z) = 0.40327 0.07649
#
# Static dielectric constant tensor:
#      x y z
#    x 3.560540 0.000000 0.049850 
#    y 0.000000 2.771610 0.000000 
#    z 0.049850 0.000000 3.699660 
# 
# 
# High freq. dielectric constant tensor:
#      x y z
#    x 1.700790 0.000000 0.004930 
#    y 0.000000 1.634050 0.000000 
#    z 0.004930 0.000000 1.716440 
# 
# From -- ./inp_files/222384.got.cif
#   From: 2010.06.25/outbox.cif.g09.slc.cpg/sg12_112_cif.got.tgz:222384.got - 2010.06.28 00:19:55.
