data_PCOD8081146
_publ_section_title
;
Structure prediction by ZEFSAII (Michael W. Deem and Ramdas Pophale) SiO2 
 PCOD8081146
Probable space group: C 2/M
;
_chemical_formula_sum "Si O2"
_cell_formula_units_Z 48
_cell_length_a 12.849032
_cell_length_b 22.467256
_cell_length_c 11.919458
_cell_angle_alpha 90.000000
_cell_angle_beta 128.063417
_cell_angle_gamma 90.000000
_cell_volume 2709.150361
_symmetry_space_group_name_H-M "C 2/M"
_symmetry_group_IT_number 12
_symmetry_cell_setting 'monoclinic'
loop_
_space_group_symop_operation_xyz
x,y,z
-x,y,-z
-x,-y,-z
x,-y,z
1/2+x,1/2+y,z
1/2-x,1/2+y,-z
1/2-x,1/2-y,-z
1/2+x,1/2-y,z
loop_
_atom_site_type_symbol
_atom_site_label
_atom_site_fract_x
_atom_site_fract_y
_atom_site_fract_z
Si Si1 0.976732 0.113838 0.821305
Si Si2 0.103672 0.068868 0.470246
Si Si3 0.285152 0.714367 0.691063
Si Si4 0.304856 0.566697 0.894459
Si Si5 0.572004 0.859805 0.661996
Si Si6 0.313250 0.833968 0.608385
O O1 0.967564 0.095165 0.686451
O O2 0.922436 0.180627 0.811576
O O3 0.887696 0.068147 0.834073
O O4 0.127646 0.108606 0.965244
O O5 0.237483 0.105099 0.589502
O O6 0.000000 0.077513 0.500000
O O7 0.143091 0.000000 0.480116
O O8 0.167482 0.696576 0.698476
O O9 0.300592 0.785874 0.701252
O O10 0.251358 0.692134 0.545239
O O11 0.299763 0.500000 0.937925
O O12 0.156508 0.586706 0.769227
O O13 0.500000 0.881382 0.500000
O O14 0.468140 0.843795 0.689567
#
# Coordination Sequence:
#
# PCOD8081146 Si02
#       6
#     8   8   8   8   8   8
#     4   9  17  31  49  73 100 128 165 205 243 286
#     4  10  20  32  49  73  99 131 171 207 235 278
#     4   8  16  29  47  69  95 124 160 202 243 290
#     4  10  18  29  50  75 101 133 161 196 248 297
#     4   9  18  30  46  73 101 125 160 204 249 295
#     4   9  17  30  48  69  95 127 158 198 248 288
#
# _framework density 17.717731000000001
#
# number of rings (size 3 to 8) (size 9 to 14) (size 15 to 20)
#    0.000    2.833    0.000    3.000    0.000    5.667 
#    0.000    0.833    0.000    5.000    0.000    3.500 
#    0.000    0.000    0.000    0.000    0.000    0.000 
#
# Total GULP energy -297466.596501 kJ/mol
# GULP energy per Si atom -12394.441521 kJ/mol
# Density = 1.767740 g / cm^3
# Si number density = 17.717731 Si / 1000 Ang^3
#
#
#
# Elastic Constant Matrix: (Units=GPa)
#
#
# Indices 1 2 3 4 5 6 
#
# 1 88.0265 42.9523 34.0069 0.0000 10.2961 0.0000
# 2 42.9523 101.1815 43.6624 0.0000 12.2863 0.0000
# 3 34.0069 43.6624 89.2043 0.0000 17.4529 0.0000
# 4 0.0000 0.0000 0.0000 21.3508 0.0000 -3.0718
# 5 10.2961 12.2863 17.4529 0.0000 26.9353 0.0000
# 6 0.0000 0.0000 0.0000 -3.0718 0.0000 17.6059
#
#
#
# Elastic Compliance Matrix: (Units=1/GPa)
#
#
# Indices 1 2 3 4 5 6 
#
# 1 0.015119 -0.004910 -0.003055 0.000000 -0.001560 0.000000
# 2 -0.004910 0.014219 -0.004794 0.000000 -0.001503 0.000000
# 3 -0.003055 -0.004794 0.016107 0.000000 -0.007082 0.000000
# 4 0.000000 0.000000 0.000000 0.048043 0.000000 0.008382
# 5 -0.001560 -0.001503 -0.007082 0.000000 0.042997 0.000000
# 6 0.000000 0.000000 0.000000 0.008382 0.000000 0.058262
#
#
# Mechanical properties :
#
#
# Convention : Reuss Voigt Hill
#
# Bulk Modulus (GPa) = 50.18470 57.73949 53.96209
# Shear Modulus (GPa) = 22.03560 23.69778 22.86669
#
# Velocity S-wave (km/s) = 3.53044 3.66118 3.59640
# Velocity P-wave (km/s) = 6.70856 7.10856 6.91145
#
# Compressibility (1/GPa) = 0.01992639
#
# Stress axis : x y z
#
# Youngs Moduli (GPa) = 66.14235 70.32973 62.08549
#
# Poissons Ratio (x) = 0.34534 0.18968
# Poissons Ratio (y) = 0.32478 0.29761
# Poissons Ratio (z) = 0.20207 0.33713
#
# Static dielectric constant tensor:
#      x y z
#    x 3.162940 0.000000 0.108670 
#    y 0.000000 3.422840 0.000000 
#    z 0.108670 0.000000 3.257020 
# 
# 
# High freq. dielectric constant tensor:
#      x y z
#    x 1.669030 0.000000 0.012050 
#    y 0.000000 1.676640 0.000000 
#    z 0.012050 0.000000 1.666490 
# 
# From -- ./inp_files/135540.got.cif
#   From: 2010.06.25/outbox.cif.g09.slc.cpg/sg12_68_cif.got.tgz:135540.got - 2010.06.28 00:19:55.
