data_PCOD8081000
_publ_section_title
;
Structure prediction by ZEFSAII (Michael W. Deem and Ramdas Pophale) SiO2 
 PCOD8081000
Probable space group: C 2/M
;
_chemical_formula_sum "Si O2"
_cell_formula_units_Z 48
_cell_length_a 28.097543
_cell_length_b 9.051587
_cell_length_c 11.291790
_cell_angle_alpha 90.000000
_cell_angle_beta 103.103268
_cell_angle_gamma 90.000000
_cell_volume 2797.037848
_symmetry_space_group_name_H-M "C 2/M"
_symmetry_group_IT_number 12
_symmetry_cell_setting 'monoclinic'
loop_
_space_group_symop_operation_xyz
x,y,z
-x,y,-z
-x,-y,-z
x,-y,z
1/2+x,1/2+y,z
1/2-x,1/2+y,-z
1/2-x,1/2-y,-z
1/2+x,1/2-y,z
loop_
_atom_site_type_symbol
_atom_site_label
_atom_site_fract_x
_atom_site_fract_y
_atom_site_fract_z
Si Si1 0.975332 0.670100 0.168955
Si Si2 0.424749 0.829509 0.896394
Si Si3 0.045696 0.175434 0.602269
Si Si4 0.246751 0.172847 0.623649
Si Si5 0.160907 0.174956 0.275207
Si Si6 0.640735 0.671752 0.528176
O O1 0.974128 0.500000 0.206854
O O2 0.957970 0.769936 0.266431
O O3 0.029968 0.715442 0.161595
O O4 0.938474 0.698427 0.040159
O O5 0.379120 0.725670 0.841728
O O6 0.410803 0.000000 0.867784
O O7 0.094849 0.243422 0.570737
O O8 0.000000 0.233167 0.500000
O O9 0.047229 0.000000 0.606622
O O10 0.250000 0.250000 0.500000
O O11 0.286780 0.250983 0.730871
O O12 0.190399 0.197952 0.633178
O O13 0.258608 0.000000 0.619258
O O14 0.145484 0.234706 0.397055
O O15 0.167154 0.000000 0.274565
O O16 0.630102 0.500000 0.507410
#
# Coordination Sequence:
#
# PCOD8081000 Si02
#       6
#     8   8   8   8   8   8
#     4   9  19  34  49  68  94 124 157 191 230 277
#     4   9  18  33  50  67  93 125 154 190 236 280
#     4  10  19  31  48  70  97 127 155 185 226 275
#     4   9  16  28  45  66  95 127 158 193 233 275
#     4  10  18  29  48  73  96 119 156 198 235 279
#     4   8  16  29  44  66  97 128 153 183 228 278
#
# _framework density 17.161013000000001
#
# number of rings (size 3 to 8) (size 9 to 14) (size 15 to 20)
#    0.000    2.833    0.000    4.000    0.000    3.000 
#    0.000    6.667    0.000    1.000    0.000    0.000 
#    0.000    0.000    0.000    0.000    0.000    0.000 
#
# Total GULP energy -297472.450493 kJ/mol
# GULP energy per Si atom -12394.685437 kJ/mol
# Density = 1.712195 g / cm^3
# Si number density = 17.161013 Si / 1000 Ang^3
#
#
#
# Elastic Constant Matrix: (Units=GPa)
#
#
# Indices 1 2 3 4 5 6 
#
# 1 132.7899 46.6295 51.3299 0.0000 18.9743 0.0000
# 2 46.6295 60.3506 28.7614 0.0000 11.7376 0.0000
# 3 51.3299 28.7614 69.3880 0.0000 8.3060 0.0000
# 4 0.0000 0.0000 0.0000 27.9058 0.0000 2.9852
# 5 18.9743 11.7376 8.3060 0.0000 30.6979 0.0000
# 6 0.0000 0.0000 0.0000 2.9852 0.0000 23.9131
#
#
#
# Elastic Compliance Matrix: (Units=1/GPa)
#
#
# Indices 1 2 3 4 5 6 
#
# 1 0.012658 -0.005976 -0.006432 0.000000 -0.003799 0.000000
# 2 -0.005976 0.024507 -0.005227 0.000000 -0.004262 0.000000
# 3 -0.006432 -0.005227 0.021312 0.000000 0.000208 0.000000
# 4 0.000000 0.000000 0.000000 0.036320 0.000000 -0.004534
# 5 -0.003799 -0.004262 0.000208 0.000000 0.036497 0.000000
# 6 0.000000 0.000000 0.000000 -0.004534 0.000000 0.042384
#
#
# Mechanical properties :
#
#
# Convention : Reuss Voigt Hill
#
# Bulk Modulus (GPa) = 43.09173 57.33001 50.21087
# Shear Modulus (GPa) = 23.07494 25.55721 24.31607
#
# Velocity S-wave (km/s) = 3.67088 3.86328 3.76831
# Velocity P-wave (km/s) = 6.56749 7.30613 6.94663
#
# Compressibility (1/GPa) = 0.02320631
#
# Stress axis : x y z
#
# Youngs Moduli (GPa) = 78.99873 40.80393 46.92248
#
# Poissons Ratio (x) = 0.24385 0.30182
# Poissons Ratio (y) = 0.47211 0.24527
# Poissons Ratio (z) = 0.50814 0.21329
#
# Static dielectric constant tensor:
#      x y z
#    x 3.609770 0.000000 0.128590 
#    y 0.000000 3.071770 0.000000 
#    z 0.128590 0.000000 2.912480 
# 
# 
# High freq. dielectric constant tensor:
#      x y z
#    x 1.668860 0.000000 0.021510 
#    y 0.000000 1.652050 0.000000 
#    z 0.021510 0.000000 1.634330 
# 
# From -- ./inp_files/179313.got.cif
#   From: 2010.06.25/outbox.cif.g09.slc.cpg/sg12_90_cif.got.tgz:179313.got - 2010.06.28 00:19:55.
