data_PCOD8081523
_publ_section_title
;
Structure prediction by ZEFSAII (Michael W. Deem and Ramdas Pophale) SiO2 
 PCOD8081523
Probable space group: C 2/M
;
_chemical_formula_sum "Si O2"
_cell_formula_units_Z 64
_cell_length_a 19.135726
_cell_length_b 8.839310
_cell_length_c 23.129068
_cell_angle_alpha 90.000000
_cell_angle_beta 114.416665
_cell_angle_gamma 90.000000
_cell_volume 3562.309621
_symmetry_space_group_name_H-M "C 2/M"
_symmetry_group_IT_number 12
_symmetry_cell_setting 'monoclinic'
loop_
_space_group_symop_operation_xyz
x,y,z
-x,y,-z
-x,-y,-z
x,-y,z
1/2+x,1/2+y,z
1/2-x,1/2+y,-z
1/2-x,1/2-y,-z
1/2+x,1/2-y,z
loop_
_atom_site_type_symbol
_atom_site_label
_atom_site_fract_x
_atom_site_fract_y
_atom_site_fract_z
Si Si1 0.327053 0.181285 0.999856
Si Si2 0.238519 0.820379 0.126719
Si Si3 0.890900 0.818959 0.127234
Si Si4 0.897284 0.330599 0.633223
Si Si5 0.771704 0.170993 0.372129
Si Si6 0.543652 0.322435 0.241700
Si Si7 0.676659 0.177775 0.504034
Si Si8 0.797269 0.177819 0.754800
O O1 0.330036 0.247185 0.935655
O O2 0.327058 0.000000 0.999803
O O3 0.250000 0.250000 0.000000
O O4 0.394622 0.247059 0.063721
O O5 0.319493 0.745939 0.138543
O O6 0.219463 0.776056 0.185515
O O7 0.242049 0.000000 0.117914
O O8 0.967142 0.760099 0.185385
O O9 0.884976 0.000000 0.121284
O O10 0.927943 0.500000 0.651945
O O11 0.811084 0.315283 0.626993
O O12 0.953757 0.224974 0.689785
O O13 0.895554 0.288145 0.563948
O O14 0.834243 0.252196 0.435563
O O15 0.768315 0.249503 0.308216
O O16 0.798689 0.000000 0.372760
O O17 0.542308 0.500000 0.237987
O O18 0.618365 0.258996 0.233492
O O19 0.750000 0.250000 0.500000
O O20 0.690223 0.000000 0.514271
O O21 0.793768 0.000000 0.744053
#
# Coordination Sequence:
#
# PCOD8081523 Si02
#       8
#     8   8   8   8   8   8   8   8
#     4  10  18  30  49  70  92 118 150 189 229 267
#     4  10  19  32  51  72  93 119 152 189 228 270
#     4  10  19  32  50  71  94 119 151 189 227 270
#     4   8  15  25  38  59  87 118 150 186 226 266
#     4   9  16  25  39  61  88 119 152 187 229 271
#     4   9  18  31  47  67  92 123 154 186 226 270
#     4   9  15  23  36  57  85 117 153 190 228 269
#     4   9  18  32  48  67  93 124 155 187 226 272
#
# _framework density 17.965872000000001
#
# number of rings (size 3 to 8) (size 9 to 14) (size 15 to 20)
#    0.000    2.750    0.000    4.875    0.000    5.500 
#    0.000    0.625    0.000    3.750    0.000    0.875 
#    0.000    7.000    0.000    0.000    0.000    0.000 
#
# Total GULP energy -396527.333663 kJ/mol
# GULP energy per Si atom -12391.479177 kJ/mol
# Density = 1.792498 g / cm^3
# Si number density = 17.965872 Si / 1000 Ang^3
#
#
#
# Elastic Constant Matrix: (Units=GPa)
#
#
# Indices 1 2 3 4 5 6 
#
# 1 34.1622 21.9299 47.0548 0.0000 -1.4406 0.0000
# 2 21.9299 86.3566 67.8449 0.0000 -4.4674 0.0000
# 3 47.0548 67.8449 205.1070 0.0000 -8.5420 0.0000
# 4 0.0000 0.0000 0.0000 37.4819 0.0000 -1.3659
# 5 -1.4406 -4.4674 -8.5420 0.0000 4.8992 0.0000
# 6 0.0000 0.0000 0.0000 -1.3659 0.0000 14.4528
#
#
#
# Elastic Compliance Matrix: (Units=1/GPa)
#
#
# Indices 1 2 3 4 5 6 
#
# 1 0.044190 -0.004573 -0.008904 0.000000 -0.006701 0.000000
# 2 -0.004573 0.016266 -0.004065 0.000000 0.006400 0.000000
# 3 -0.008904 -0.004065 0.008626 0.000000 0.008715 0.000000
# 4 0.000000 0.000000 0.000000 0.026772 0.000000 0.002530
# 5 -0.006701 0.006400 0.008715 0.000000 0.223178 0.000000
# 6 0.000000 0.000000 0.000000 0.002530 0.000000 0.069430
#
#
# Mechanical properties :
#
#
# Convention : Reuss Voigt Hill
#
# Bulk Modulus (GPa) = 29.41403 66.58722 48.00062
# Shear Modulus (GPa) = 11.49752 23.95320 17.72536
#
# Velocity S-wave (km/s) = 2.53250 3.65535 3.14445
# Velocity P-wave (km/s) = 4.99591 7.41344 6.32132
#
# Compressibility (1/GPa) = 0.03399739
#
# Stress axis : x y z
#
# Youngs Moduli (GPa) = 22.62966 61.47944 115.93217
#
# Poissons Ratio (x) = 0.28114 1.03230
# Poissons Ratio (y) = 0.10348 0.47122
# Poissons Ratio (z) = 0.20150 0.24989
#
# Static dielectric constant tensor:
#      x y z
#    x 2.819660 0.000000 -0.016700 
#    y 0.000000 3.366670 0.000000 
#    z -0.016700 0.000000 4.220710 
# 
# 
# High freq. dielectric constant tensor:
#      x y z
#    x 1.619790 0.000000 -0.003950 
#    y 0.000000 1.703130 0.000000 
#    z -0.003950 0.000000 1.726560 
# 
# From -- ./inp_files/345590.got.cif
#   From: 2010.06.25/outbox.cif.g09.slc.cpg/sg12_173_cif.got.tgz:345590.got - 2010.06.28 00:19:55.
