data_PCOD8081204
_publ_section_title
;
Structure prediction by ZEFSAII (Michael W. Deem and Ramdas Pophale) SiO2 
 PCOD8081204
Probable space group: C 2/M
;
_chemical_formula_sum "Si O2"
_cell_formula_units_Z 56
_cell_length_a 19.716791
_cell_length_b 8.987843
_cell_length_c 30.444925
_cell_angle_alpha 90.000000
_cell_angle_beta 149.241687
_cell_angle_gamma 90.000000
_cell_volume 2759.195253
_symmetry_space_group_name_H-M "C 2/M"
_symmetry_group_IT_number 12
_symmetry_cell_setting 'monoclinic'
loop_
_space_group_symop_operation_xyz
x,y,z
-x,y,-z
-x,-y,-z
x,-y,z
1/2+x,1/2+y,z
1/2-x,1/2+y,-z
1/2-x,1/2-y,-z
1/2+x,1/2-y,z
loop_
_atom_site_type_symbol
_atom_site_label
_atom_site_fract_x
_atom_site_fract_y
_atom_site_fract_z
Si Si1 0.648007 0.175440 0.094833
Si Si2 0.934829 0.167866 0.643951
Si Si3 0.608439 0.825832 0.246424
Si Si4 0.115676 0.325660 0.810695
Si Si5 0.494104 0.171371 0.593371
Si Si6 0.705573 0.326650 0.218986
Si Si7 0.291078 0.166446 0.412657
O O1 0.743895 0.239962 0.109883
O O2 0.687139 0.245243 0.162924
O O3 0.664844 0.000000 0.106892
O O4 0.500000 0.222675 0.000000
O O5 0.796476 0.175083 0.592021
O O6 0.041977 0.277282 0.725322
O O7 0.915698 0.223694 0.583708
O O8 0.991590 0.000000 0.675947
O O9 0.473863 0.781613 0.197219
O O10 0.602435 0.739820 0.196973
O O11 0.738018 0.780083 0.346801
O O12 0.616686 0.000000 0.242074
O O13 0.142767 0.500000 0.823762
O O14 0.649584 0.206599 0.680699
O O15 0.438965 0.204401 0.513117
O O16 0.465545 0.000000 0.589736
O O17 0.677582 0.500000 0.196691
O O18 0.285595 0.000000 0.388974
#
# Coordination Sequence:
#
# PCOD8081204 Si02
#       7
#     8   8   8   8   8   8   8
#     4  11  24  42  66  95 122 146 181 235 293 350
#     4  10  18  29  51  80 112 152 196 244 292 342
#     4  10  22  39  59  84 119 159 201 246 288 337
#     4  10  20  37  61  87 116 154 195 237 289 347
#     4  10  20  33  51  78 115 155 198 247 293 341
#     4  11  23  39  61  87 118 158 197 238 292 350
#     4   9  19  34  51  77 114 157 202 244 291 342
#
# _framework density 20.295774000000002
#
# number of rings (size 3 to 8) (size 9 to 14) (size 15 to 20)
#    0.000    1.857    1.429    2.571    0.000    5.143 
#    0.000    3.571    0.000    0.000    0.000    0.000 
#    0.000    0.000    0.000    0.000    0.000    0.000 
#
# Total GULP energy -347231.397694 kJ/mol
# GULP energy per Si atom -12401.121346 kJ/mol
# Density = 2.024958 g / cm^3
# Si number density = 20.295774 Si / 1000 Ang^3
#
#
#
# Elastic Constant Matrix: (Units=GPa)
#
#
# Indices 1 2 3 4 5 6 
#
# 1 76.2507 37.2346 28.0095 0.0000 -2.6994 0.0000
# 2 37.2346 80.8024 32.2704 -0.0002 8.3178 -0.0001
# 3 28.0095 32.2704 80.9484 -0.0002 24.3877 -0.0001
# 4 0.0000 -0.0002 -0.0002 28.9976 0.0000 -0.4657
# 5 -2.6994 8.3178 24.3877 0.0000 16.8430 0.0000
# 6 0.0000 -0.0001 -0.0001 -0.4657 0.0000 30.0017
#
#
#
# Elastic Compliance Matrix: (Units=1/GPa)
#
#
# Indices 1 2 3 4 5 6 
#
# 1 0.022377 -0.008068 -0.012074 0.000000 0.025054 0.000000
# 2 -0.008068 0.017674 -0.002190 0.000000 -0.006850 0.000000
# 3 -0.012074 -0.002190 0.031328 0.000000 -0.046214 0.000000
# 4 0.000000 0.000000 0.000000 0.034494 0.000000 0.000535
# 5 0.025054 -0.006850 -0.046214 0.000000 0.133685 0.000000
# 6 0.000000 0.000000 0.000000 0.000535 0.000000 0.033340
#
#
# Mechanical properties :
#
#
# Convention : Reuss Voigt Hill
#
# Bulk Modulus (GPa) = 37.43560 48.11450 42.77505
# Shear Modulus (GPa) = 15.31546 24.53427 19.92487
#
# Velocity S-wave (km/s) = 2.75000 3.48060 3.13665
# Velocity P-wave (km/s) = 5.34494 6.31751 5.85147
#
# Compressibility (1/GPa) = 0.02671254
#
# Stress axis : x y z
#
# Youngs Moduli (GPa) = 44.68922 56.58140 31.92044
#
# Poissons Ratio (x) = 0.45651 0.38542
# Poissons Ratio (y) = 0.36056 0.06992
# Poissons Ratio (z) = 0.53959 0.12393
#
# Static dielectric constant tensor:
#      x y z
#    x 3.769400 0.000000 0.178290 
#    y 0.000000 3.684010 0.000000 
#    z 0.178290 0.000000 3.577280 
# 
# 
# High freq. dielectric constant tensor:
#      x y z
#    x 1.797920 0.000000 0.007080 
#    y 0.000000 1.796750 0.000000 
#    z 0.007080 0.000000 1.770400 
# 
# From -- ./inp_files/380748.got.cif
#   From: 2010.06.25/outbox.cif.g09.slc.cpg/sg12_191_cif.got.tgz:380748.got - 2010.06.28 00:19:55.
