data_PCOD8081479
_publ_section_title
;
Structure prediction by ZEFSAII (Michael W. Deem and Ramdas Pophale) SiO2 
 PCOD8081479
Probable space group: C 2/M
;
_chemical_formula_sum "Si O2"
_cell_formula_units_Z 64
_cell_length_a 24.748634
_cell_length_b 8.645663
_cell_length_c 23.962479
_cell_angle_alpha 90.000000
_cell_angle_beta 134.081233
_cell_angle_gamma 90.000000
_cell_volume 3683.154343
_symmetry_space_group_name_H-M "C 2/M"
_symmetry_group_IT_number 12
_symmetry_cell_setting 'monoclinic'
loop_
_space_group_symop_operation_xyz
x,y,z
-x,y,-z
-x,-y,-z
x,-y,z
1/2+x,1/2+y,z
1/2-x,1/2+y,-z
1/2-x,1/2-y,-z
1/2+x,1/2-y,z
loop_
_atom_site_type_symbol
_atom_site_label
_atom_site_fract_x
_atom_site_fract_y
_atom_site_fract_z
Si Si1 0.298193 0.818138 0.667959
Si Si2 0.027243 0.818742 0.910560
Si Si3 0.558174 0.822770 0.814736
Si Si4 0.807427 0.820637 0.498993
Si Si5 0.358459 0.680781 0.819082
Si Si6 0.584347 0.680701 0.333326
Si Si7 0.770463 0.320679 0.073845
Si Si8 0.845872 0.318981 0.927109
O O1 0.217344 0.767933 0.581315
O O2 0.303349 0.722867 0.728667
O O3 0.367113 0.775565 0.676622
O O4 0.302203 0.000000 0.684056
O O5 0.056361 0.731236 0.877164
O O6 0.942741 0.768102 0.863805
O O7 0.032176 0.000000 0.902603
O O8 0.080059 0.772640 0.999969
O O9 0.502569 0.725332 0.735356
O O10 0.641433 0.799446 0.850534
O O11 0.533245 0.000000 0.794637
O O12 0.750000 0.750000 0.500000
O O13 0.890364 0.781527 0.583764
O O14 0.792448 0.000000 0.489857
O O15 0.353444 0.500000 0.829002
O O16 0.330761 0.777013 0.852228
O O17 0.595234 0.500000 0.327772
O O18 0.746673 0.500000 0.057139
O O19 0.726990 0.230008 0.090550
O O20 0.750000 0.250000 0.000000
O O21 0.860001 0.500000 0.944674
#
# Coordination Sequence:
#
# PCOD8081479 Si02
#       8
#     8   8   8   8   8   8   8   8
#     4  10  18  30  49  73 104 139 175 214 254 303
#     4  11  22  36  55  76 105 140 175 215 260 308
#     4  11  22  34  53  79 105 136 176 218 261 306
#     4   8  16  28  44  69 101 137 172 207 251 304
#     4  11  23  37  53  76 106 141 178 214 258 312
#     4  10  18  30  48  73 106 140 173 210 257 311
#     4  11  23  39  58  77 101 134 175 221 267 311
#     4  12  25  39  56  77 102 136 178 221 262 309
#
# _framework density 17.376411000000001
#
# number of rings (size 3 to 8) (size 9 to 14) (size 15 to 20)
#    0.000    1.500    2.500    3.750    0.000    5.500 
#    0.000    0.000    0.000    0.000    0.000    0.875 
#    0.000    7.000    0.000    0.000    0.000    0.000 
#
# Total GULP energy -396704.581736 kJ/mol
# GULP energy per Si atom -12397.018179 kJ/mol
# Density = 1.733686 g / cm^3
# Si number density = 17.376411 Si / 1000 Ang^3
#
#
#
# Elastic Constant Matrix: (Units=GPa)
#
#
# Indices 1 2 3 4 5 6 
#
# 1 60.0990 23.4503 35.0219 0.0000 -11.6141 0.0000
# 2 23.4503 40.7091 18.8301 -0.0001 1.2601 0.0001
# 3 35.0219 18.8301 133.8439 0.0000 -1.3034 0.0000
# 4 0.0000 -0.0001 0.0000 27.8493 0.0000 -0.7100
# 5 -11.6141 1.2601 -1.3034 0.0000 16.4640 0.0000
# 6 0.0000 0.0001 0.0000 -0.7100 0.0000 22.9454
#
#
#
# Elastic Compliance Matrix: (Units=1/GPa)
#
#
# Indices 1 2 3 4 5 6 
#
# 1 0.030145 -0.015506 -0.005492 0.000000 0.022017 0.000000
# 2 -0.015506 0.034338 -0.000906 0.000000 -0.013638 0.000000
# 3 -0.005492 -0.000906 0.009006 0.000000 -0.003092 0.000000
# 4 0.000000 0.000000 0.000000 0.035936 0.000000 0.001112
# 5 0.022017 -0.013638 -0.003092 0.000000 0.077069 0.000000
# 6 0.000000 0.000000 0.000000 0.001112 0.000000 0.043616
#
#
# Mechanical properties :
#
#
# Convention : Reuss Voigt Hill
#
# Bulk Modulus (GPa) = 33.69257 43.25072 38.47165
# Shear Modulus (GPa) = 17.61738 23.94172 20.77955
#
# Velocity S-wave (km/s) = 3.18758 3.71594 3.46186
# Velocity P-wave (km/s) = 5.74278 6.58449 6.17798
#
# Compressibility (1/GPa) = 0.02968014
#
# Stress axis : x y z
#
# Youngs Moduli (GPa) = 33.17352 29.12219 111.03961
#
# Poissons Ratio (x) = 0.45157 0.60981
# Poissons Ratio (y) = 0.51439 0.10065
# Poissons Ratio (z) = 0.18218 0.02640
#
# Static dielectric constant tensor:
#      x y z
#    x 2.981360 0.000000 0.147430 
#    y 0.000000 3.334510 0.000000 
#    z 0.147430 0.000000 3.756080 
# 
# 
# High freq. dielectric constant tensor:
#      x y z
#    x 1.626340 0.000000 0.005660 
#    y 0.000000 1.687900 0.000000 
#    z 0.005660 0.000000 1.686070 
# 
# From -- ./inp_files/320127.got.cif
#   From: 2010.06.25/outbox.cif.g09.slc.cpg/sg12_161_cif.got.tgz:320127.got - 2010.06.28 00:19:55.
