data_PCOD8081316
_publ_section_title
;
Structure prediction by ZEFSAII (Michael W. Deem and Ramdas Pophale) SiO2 
 PCOD8081316
Probable space group: C 2/M
;
_chemical_formula_sum "Si O2"
_cell_formula_units_Z 64
_cell_length_a 5.250360
_cell_length_b 26.641418
_cell_length_c 25.312634
_cell_angle_alpha 90.000000
_cell_angle_beta 107.344547
_cell_angle_gamma 90.000000
_cell_volume 3379.660102
_symmetry_space_group_name_H-M "C 2/M"
_symmetry_group_IT_number 12
_symmetry_cell_setting 'monoclinic'
loop_
_space_group_symop_operation_xyz
x,y,z
-x,y,-z
-x,-y,-z
x,-y,z
1/2+x,1/2+y,z
1/2-x,1/2+y,-z
1/2-x,1/2-y,-z
1/2+x,1/2-y,z
loop_
_atom_site_type_symbol
_atom_site_label
_atom_site_fract_x
_atom_site_fract_y
_atom_site_fract_z
Si Si1 0.797085 0.612442 0.535381
Si Si2 0.139464 0.162981 0.762597
Si Si3 0.993489 0.577361 0.652399
Si Si4 0.426824 0.553956 0.285283
Si Si5 0.114027 0.722426 0.417048
Si Si6 0.894212 0.199539 0.935940
Si Si7 0.557853 0.185830 0.699677
Si Si8 0.672470 0.809760 0.110376
O O1 0.500000 0.597780 0.500000
O O2 0.795015 0.668046 0.559095
O O3 0.000000 0.607737 0.500000
O O4 0.887886 0.573141 0.585983
O O5 0.113118 0.102382 0.754966
O O6 0.343101 0.186807 0.733331
O O7 0.254918 0.174648 0.826585
O O8 0.859024 0.192670 0.740295
O O9 0.271667 0.548588 0.675281
O O10 0.057953 0.634316 0.668656
O O11 0.768883 0.556303 0.677082
O O12 0.366701 0.500000 0.252471
O O13 0.372167 0.758390 0.438947
O O14 0.021334 0.726121 0.349773
O O15 0.619811 0.167951 0.921942
O O16 0.828421 0.249811 0.898825
O O17 0.112070 0.166929 0.917258
O O18 0.000000 0.214589 0.000000
#
# Coordination Sequence:
#
# PCOD8081316 Si02
#       8
#     8   8   8   8   8   8   8   8
#     4  11  22  36  56  74  94 128 163 206 259 298
#     4  10  19  33  50  73 105 126 166 208 251 306
#     4   9  19  35  55  73  99 125 165 191 236 314
#     4  10  19  34  58  80  99 131 160 195 246 311
#     4  11  22  36  48  70  97 127 172 208 244 297
#     4  10  19  33  48  67 100 140 183 217 239 280
#     4   9  19  35  47  65  95 138 160 199 244 299
#     4  10  18  30  46  70  98 132 169 215 252 278
#
# _framework density 18.936817000000001
#
# number of rings (size 3 to 8) (size 9 to 14) (size 15 to 20)
#    0.000    2.000    0.000    5.250    0.000    5.500 
#   13.500    0.000    0.000    7.500    0.000    0.000 
#    0.000    5.500    0.000    0.000    0.000    0.000 
#
# Total GULP energy -396584.543043 kJ/mol
# GULP energy per Si atom -12393.266970 kJ/mol
# Density = 1.889372 g / cm^3
# Si number density = 18.936817 Si / 1000 Ang^3
#
#
#
# Elastic Constant Matrix: (Units=GPa)
#
#
# Indices 1 2 3 4 5 6 
#
# 1 160.9253 0.7317 30.5726 0.0000 10.7586 0.0000
# 2 0.7317 31.5052 18.0294 0.0000 4.1027 0.0000
# 3 30.5726 18.0294 103.4579 0.0000 14.8133 0.0000
# 4 0.0000 0.0000 0.0000 12.8437 0.0000 -4.4803
# 5 10.7586 4.1027 14.8133 0.0000 24.1298 0.0000
# 6 0.0000 0.0000 0.0000 -4.4803 0.0000 37.8069
#
#
#
# Elastic Compliance Matrix: (Units=1/GPa)
#
#
# Indices 1 2 3 4 5 6 
#
# 1 0.006705 0.001195 -0.001899 0.000000 -0.002027 0.000000
# 2 0.001195 0.035601 -0.006155 0.000000 -0.002807 0.000000
# 3 -0.001899 -0.006155 0.012091 0.000000 -0.005530 0.000000
# 4 0.000000 0.000000 0.000000 0.081216 0.000000 0.009624
# 5 -0.002027 -0.002807 -0.005530 0.000000 0.046218 0.000000
# 6 0.000000 0.000000 0.000000 0.009624 0.000000 0.027591
#
#
# Mechanical properties :
#
#
# Convention : Reuss Voigt Hill
#
# Bulk Modulus (GPa) = 24.58314 43.83952 34.21133
# Shear Modulus (GPa) = 21.12367 31.39306 26.25837
#
# Velocity S-wave (km/s) = 3.34351 4.07600 3.72779
# Velocity P-wave (km/s) = 5.28349 6.73442 6.05259
#
# Compressibility (1/GPa) = 0.04067829
#
# Stress axis : x y z
#
# Youngs Moduli (GPa) = 149.14284 28.08898 82.70278
#
# Poissons Ratio (x) = -0.03357 0.15709
# Poissons Ratio (y) = -0.17825 0.50907
# Poissons Ratio (z) = 0.28329 0.17290
#
# Static dielectric constant tensor:
#      x y z
#    x 4.516670 0.000000 0.047470 
#    y 0.000000 3.196140 0.000000 
#    z 0.047470 0.000000 3.364870 
# 
# 
# High freq. dielectric constant tensor:
#      x y z
#    x 1.772610 0.000000 0.001320 
#    y 0.000000 1.688730 0.000000 
#    z 0.001320 0.000000 1.721530 
# 
# From -- ./inp_files/298533.got.cif
#   From: 2010.06.25/outbox.cif.g09.slc.cpg/sg12_150_cif.got.tgz:298533.got - 2010.06.28 00:19:55.
