data_PCOD8081828
_publ_section_title
;
Structure prediction by ZEFSAII (Michael W. Deem and Ramdas Pophale) SiO2 
 PCOD8081828
Probable space group: C 2/M
;
_chemical_formula_sum "Si O2"
_cell_formula_units_Z 64
_cell_length_a 20.327112
_cell_length_b 9.203136
_cell_length_c 23.568689
_cell_angle_alpha 90.000000
_cell_angle_beta 123.956677
_cell_angle_gamma 90.000000
_cell_volume 3657.147491
_symmetry_space_group_name_H-M "C 2/M"
_symmetry_group_IT_number 12
_symmetry_cell_setting 'monoclinic'
loop_
_space_group_symop_operation_xyz
x,y,z
-x,y,-z
-x,-y,-z
x,-y,z
1/2+x,1/2+y,z
1/2-x,1/2+y,-z
1/2-x,1/2-y,-z
1/2+x,1/2-y,z
loop_
_atom_site_type_symbol
_atom_site_label
_atom_site_fract_x
_atom_site_fract_y
_atom_site_fract_z
Si Si1 0.729381 0.671039 0.178644
Si Si2 0.221854 0.830529 0.569749
Si Si3 0.032514 0.166190 0.669443
Si Si4 0.128018 0.329937 0.430373
Si Si5 0.693412 0.329861 0.684731
Si Si6 0.139817 0.835069 0.823191
Si Si7 0.413693 0.327992 0.966606
Si Si8 0.831619 0.831925 0.038180
O O1 0.739192 0.500000 0.191306
O O2 0.743069 0.747321 0.245577
O O3 0.792245 0.724009 0.162396
O O4 0.642597 0.713757 0.113364
O O5 0.158672 0.742652 0.502612
O O6 0.311363 0.795576 0.592112
O O7 0.210045 0.779529 0.628664
O O8 0.202406 0.000000 0.553293
O O9 0.103591 0.209404 0.660419
O O10 0.061156 0.190286 0.747954
O O11 0.958307 0.269848 0.625139
O O12 0.006467 0.000000 0.646304
O O13 0.120975 0.500000 0.437868
O O14 0.708379 0.500000 0.699813
O O15 0.120053 0.809170 0.879774
O O16 0.170567 0.000000 0.827427
O O17 0.420439 0.500000 0.974742
O O18 0.500000 0.257105 0.000000
O O19 0.381966 0.265351 0.010895
O O20 0.812761 0.000000 0.018254
O O21 0.750000 0.750000 0.000000
#
# Coordination Sequence:
#
# PCOD8081828 Si02
#       8
#     8   8   8   8   8   8   8   8
#     4  10  18  30  51  77 101 131 166 209 261 298
#     4   9  19  37  57  74  99 138 174 201 241 300
#     4   9  18  33  51  74 102 134 169 207 251 296
#     4  10  20  34  54  79 105 133 164 207 255 292
#     4   9  19  36  56  75  99 135 174 206 243 299
#     4   9  18  32  51  74  99 134 174 208 247 300
#     4   9  18  32  48  71 104 135 165 206 257 305
#     4  10  18  31  53  75  97 131 173 213 251 296
#
# _framework density 17.499977999999999
#
# number of rings (size 3 to 8) (size 9 to 14) (size 15 to 20)
#    0.000    2.625    1.250    1.500    0.000    3.500 
#    2.250    2.500    0.000    3.375    0.000    0.000 
#    0.000    0.000    0.000    0.000    0.000    0.000 
#
# Total GULP energy -396742.725212 kJ/mol
# GULP energy per Si atom -12398.210163 kJ/mol
# Density = 1.746015 g / cm^3
# Si number density = 17.499978 Si / 1000 Ang^3
#
#
#
# Elastic Constant Matrix: (Units=GPa)
#
#
# Indices 1 2 3 4 5 6 
#
# 1 120.3403 40.3858 93.2170 0.0000 -6.0510 0.0000
# 2 40.3858 55.5844 57.4799 0.0000 1.9206 0.0000
# 3 93.2170 57.4799 150.2073 0.0000 -5.6623 0.0000
# 4 0.0000 0.0000 0.0000 29.0618 0.0000 1.3730
# 5 -6.0510 1.9206 -5.6623 0.0000 33.3546 0.0000
# 6 0.0000 0.0000 0.0000 1.3730 0.0000 22.9515
#
#
#
# Elastic Compliance Matrix: (Units=1/GPa)
#
#
# Indices 1 2 3 4 5 6 
#
# 1 0.016252 -0.002469 -0.009082 0.000000 0.001549 0.000000
# 2 -0.002469 0.030601 -0.010327 0.000000 -0.003963 0.000000
# 3 -0.009082 -0.010327 0.016310 0.000000 0.001716 0.000000
# 4 0.000000 0.000000 0.000000 0.034507 0.000000 -0.002064
# 5 0.001549 -0.003963 0.001716 0.000000 0.030781 0.000000
# 6 0.000000 0.000000 0.000000 -0.002064 0.000000 0.043694
#
#
# Mechanical properties :
#
#
# Convention : Reuss Voigt Hill
#
# Bulk Modulus (GPa) = 51.53160 78.69972 65.11566
# Shear Modulus (GPa) = 22.48505 26.07689 24.28097
#
# Velocity S-wave (km/s) = 3.58839 3.86438 3.72894
# Velocity P-wave (km/s) = 6.83222 8.06103 7.47193
#
# Compressibility (1/GPa) = 0.01940557
#
# Stress axis : x y z
#
# Youngs Moduli (GPa) = 61.53276 32.67879 61.31124
#
# Poissons Ratio (x) = 0.08070 0.55684
# Poissons Ratio (y) = 0.15195 0.63316
# Poissons Ratio (z) = 0.55885 0.33747
#
# Static dielectric constant tensor:
#      x y z
#    x 3.428080 0.000000 -0.266410 
#    y 0.000000 3.155420 0.000000 
#    z -0.266410 0.000000 3.574180 
# 
# 
# High freq. dielectric constant tensor:
#      x y z
#    x 1.664760 0.000000 -0.007990 
#    y 0.000000 1.665950 0.000000 
#    z -0.007990 0.000000 1.684540 
# 
# From -- ./inp_files/346294.got.cif
#   From: 2010.06.25/outbox.cif.g09.slc.cpg/sg12_174_cif.got.tgz:346294.got - 2010.06.28 00:19:55.
