data_PCOD8081788
_publ_section_title
;
Structure prediction by ZEFSAII (Michael W. Deem and Ramdas Pophale) SiO2 
 PCOD8081788
Probable space group: C 2/M
;
_chemical_formula_sum "Si O2"
_cell_formula_units_Z 56
_cell_length_a 20.623093
_cell_length_b 9.225866
_cell_length_c 17.835300
_cell_angle_alpha 90.000000
_cell_angle_beta 63.927181
_cell_angle_gamma 90.000000
_cell_volume 3048.118915
_symmetry_space_group_name_H-M "C 2/M"
_symmetry_group_IT_number 12
_symmetry_cell_setting 'monoclinic'
loop_
_space_group_symop_operation_xyz
x,y,z
-x,y,-z
-x,-y,-z
x,-y,z
1/2+x,1/2+y,z
1/2-x,1/2+y,-z
1/2-x,1/2-y,-z
1/2+x,1/2-y,z
loop_
_atom_site_type_symbol
_atom_site_label
_atom_site_fract_x
_atom_site_fract_y
_atom_site_fract_z
Si Si1 0.398144 0.827865 0.756904
Si Si2 0.324578 0.828284 0.947063
Si Si3 0.558918 0.171327 0.680735
Si Si4 0.320294 0.831760 0.492040
Si Si5 0.348024 0.828721 0.226220
Si Si6 0.200481 0.668026 0.328061
Si Si7 0.919452 0.328190 0.038637
O O1 0.355983 0.773541 0.851985
O O2 0.478841 0.760592 0.714182
O O3 0.355916 0.773322 0.704841
O O4 0.403146 0.000000 0.756209
O O5 0.311904 0.000000 0.954832
O O6 0.250000 0.750000 0.000000
O O7 0.380984 0.779136 0.981990
O O8 0.609947 0.229180 0.587703
O O9 0.591919 0.217331 0.743774
O O10 0.552646 0.000000 0.678206
O O11 0.250000 0.750000 0.500000
O O12 0.334581 0.806774 0.572696
O O13 0.308092 0.000000 0.479333
O O14 0.273507 0.756249 0.285693
O O15 0.374097 0.769718 0.132490
O O16 0.335844 0.000000 0.232279
O O17 0.218364 0.500000 0.304921
O O18 0.924448 0.500000 0.041556
O O19 0.000000 0.261758 0.000000
#
# Coordination Sequence:
#
# PCOD8081788 Si02
#       7
#     8   8   8   8   8   8   8
#     4   9  18  32  49  72 100 129 163 201 242 286
#     4  10  19  32  51  72  98 131 163 200 243 288
#     4   9  17  30  50  73  96 126 163 202 241 282
#     4  10  19  32  51  75  99 125 159 200 244 289
#     4  10  18  30  51  74  96 126 164 204 241 283
#     4  10  20  32  49  73 100 128 158 197 243 291
#     4   9  17  29  48  74  97 122 164 210 243 276
#
# _framework density 18.371986
#
# number of rings (size 3 to 8) (size 9 to 14) (size 15 to 20)
#    0.000    2.429    1.429    1.714    0.000    4.000 
#    0.000    2.857    0.000    6.857    0.000    2.000 
#    0.000    0.000    0.000    0.000    0.000    0.000 
#
# Total GULP energy -347194.207229 kJ/mol
# GULP energy per Si atom -12399.793115 kJ/mol
# Density = 1.833017 g / cm^3
# Si number density = 18.371986 Si / 1000 Ang^3
#
#
#
# Elastic Constant Matrix: (Units=GPa)
#
#
# Indices 1 2 3 4 5 6 
#
# 1 137.2127 30.0084 60.3308 0.0000 -3.5527 0.0000
# 2 30.0084 21.4985 25.0380 0.0000 -1.2000 0.0001
# 3 60.3308 25.0380 140.4327 0.0000 1.4009 0.0000
# 4 0.0000 0.0000 0.0000 20.3084 0.0000 -4.2667
# 5 -3.5527 -1.2000 1.4009 0.0000 41.0536 0.0000
# 6 0.0000 0.0001 0.0000 -4.2667 0.0000 17.2397
#
#
#
# Elastic Compliance Matrix: (Units=1/GPa)
#
#
# Indices 1 2 3 4 5 6 
#
# 1 0.011188 -0.012586 -0.002569 0.000000 0.000688 0.000000
# 2 -0.012586 0.073040 -0.007629 0.000000 0.001306 -0.000001
# 3 -0.002569 -0.007629 0.009592 0.000000 -0.000773 0.000000
# 4 0.000000 0.000000 0.000000 0.051942 0.000000 0.012855
# 5 0.000688 0.001306 -0.000773 0.000000 0.024482 0.000000
# 6 0.000000 -0.000001 0.000000 0.012855 0.000000 0.061187
#
#
# Mechanical properties :
#
#
# Convention : Reuss Voigt Hill
#
# Bulk Modulus (GPa) = 20.72408 58.87759 39.80084
# Shear Modulus (GPa) = 17.05999 27.97147 22.51573
#
# Velocity S-wave (km/s) = 3.05058 3.90616 3.50458
# Velocity P-wave (km/s) = 4.86958 7.24301 6.17147
#
# Compressibility (1/GPa) = 0.04825304
#
# Stress axis : x y z
#
# Youngs Moduli (GPa) = 89.38153 13.69113 104.24842
#
# Poissons Ratio (x) = 0.17231 0.26785
# Poissons Ratio (y) = 1.12494 0.79526
# Poissons Ratio (z) = 0.22965 0.10444
#
# Static dielectric constant tensor:
#      x y z
#    x 3.770660 0.000000 0.121180 
#    y 0.000000 2.914160 0.000000 
#    z 0.121180 0.000000 3.766390 
# 
# 
# High freq. dielectric constant tensor:
#      x y z
#    x 1.723510 0.000000 0.003980 
#    y 0.000000 1.656040 0.000000 
#    z 0.003980 0.000000 1.732760 
# 
# From -- ./inp_files/268630.got.cif
#   From: 2010.06.25/outbox.cif.g09.slc.cpg/sg12_135_cif.got.tgz:268630.got - 2010.06.28 00:19:55.
