data_PCOD8081404
_publ_section_title
;
Structure prediction by ZEFSAII (Michael W. Deem and Ramdas Pophale) SiO2 
 PCOD8081404
Probable space group: C 2/M
;
_chemical_formula_sum "Si O2"
_cell_formula_units_Z 56
_cell_length_a 28.425363
_cell_length_b 9.218220
_cell_length_c 19.349174
_cell_angle_alpha 90.000000
_cell_angle_beta 137.814314
_cell_angle_gamma 90.000000
_cell_volume 3404.744223
_symmetry_space_group_name_H-M "C 2/M"
_symmetry_group_IT_number 12
_symmetry_cell_setting 'monoclinic'
loop_
_space_group_symop_operation_xyz
x,y,z
-x,y,-z
-x,-y,-z
x,-y,z
1/2+x,1/2+y,z
1/2-x,1/2+y,-z
1/2-x,1/2-y,-z
1/2+x,1/2-y,z
loop_
_atom_site_type_symbol
_atom_site_label
_atom_site_fract_x
_atom_site_fract_y
_atom_site_fract_z
Si Si1 0.292314 0.669588 0.797524
Si Si2 0.644452 0.668951 0.394881
Si Si3 0.360048 0.831171 0.109186
Si Si4 0.986706 0.828443 0.194022
Si Si5 0.750219 0.166804 0.899360
Si Si6 0.744101 0.829997 0.599003
Si Si7 0.554254 0.672825 0.002833
O O1 0.301958 0.500000 0.794706
O O2 0.242495 0.701125 0.809348
O O3 0.258212 0.735251 0.690946
O O4 0.369160 0.736065 0.895670
O O5 0.648430 0.500000 0.416007
O O6 0.565183 0.720597 0.297250
O O7 0.675461 0.752899 0.494258
O O8 0.687953 0.706316 0.373230
O O9 0.434381 0.749808 0.190616
O O10 0.324068 0.804273 0.144717
O O11 0.371550 0.000000 0.106989
O O12 0.310478 0.767716 0.995689
O O13 0.968823 0.772825 0.097712
O O14 0.977274 0.000000 0.190724
O O15 0.774477 0.000000 0.936721
O O16 0.728296 0.000000 0.583403
O O17 0.554419 0.500000 0.004054
O O18 0.500000 0.734712 0.000000
#
# Coordination Sequence:
#
# PCOD8081404 Si02
#       7
#     8   8   8   8   8   8   8
#     4   9  15  26  46  69  91 116 151 190 227 269
#     4   9  18  31  47  69  94 122 156 190 226 273
#     4  10  19  29  45  69  96 122 153 190 231 280
#     4  10  18  30  48  68  93 124 156 189 228 275
#     4   9  17  31  48  67  92 123 156 191 229 272
#     4   9  17  30  49  71  92 118 155 195 230 267
#     4   9  15  23  41  69  93 114 146 188 225 262
#
# _framework density 16.447638000000001
#
# number of rings (size 3 to 8) (size 9 to 14) (size 15 to 20)
#    0.000    2.714    1.429    1.286    0.000    4.571 
#    0.000    0.714    0.000    1.286    0.000    6.000 
#    0.000    0.000    0.000    0.000    0.000    0.000 
#
# Total GULP energy -347153.739511 kJ/mol
# GULP energy per Si atom -12398.347840 kJ/mol
# Density = 1.641020 g / cm^3
# Si number density = 16.447638 Si / 1000 Ang^3
#
#
#
# Elastic Constant Matrix: (Units=GPa)
#
#
# Indices 1 2 3 4 5 6 
#
# 1 121.6068 35.2973 77.9009 0.0000 -2.1492 0.0000
# 2 35.2973 35.6357 37.6338 0.0000 3.6335 0.0000
# 3 77.9009 37.6338 145.7013 0.0000 -3.7338 0.0000
# 4 0.0000 0.0000 0.0000 22.8642 0.0000 3.3539
# 5 -2.1492 3.6335 -3.7338 0.0000 26.4990 0.0000
# 6 0.0000 0.0000 0.0000 3.3539 0.0000 22.4665
#
#
#
# Elastic Compliance Matrix: (Units=1/GPa)
#
#
# Indices 1 2 3 4 5 6 
#
# 1 0.014134 -0.008556 -0.005307 0.000000 0.001572 0.000000
# 2 -0.008556 0.044997 -0.007250 0.000000 -0.007885 0.000000
# 3 -0.005307 -0.007250 0.011630 0.000000 0.002202 0.000000
# 4 0.000000 0.000000 0.000000 0.044716 0.000000 -0.006675
# 5 0.001572 -0.007885 0.002202 0.000000 0.039256 0.000000
# 6 0.000000 0.000000 0.000000 -0.006675 0.000000 0.045507
#
#
# Mechanical properties :
#
#
# Convention : Reuss Voigt Hill
#
# Bulk Modulus (GPa) = 35.04404 67.17865 51.11135
# Shear Modulus (GPa) = 19.84313 24.50670 22.17492
#
# Velocity S-wave (km/s) = 3.47716 3.86422 3.67579
# Velocity P-wave (km/s) = 6.12156 7.80014 7.01127
#
# Compressibility (1/GPa) = 0.02853552
#
# Stress axis : x y z
#
# Youngs Moduli (GPa) = 70.75260 22.22379 85.98660
#
# Poissons Ratio (x) = 0.19014 0.45630
# Poissons Ratio (y) = 0.60533 0.62341
# Poissons Ratio (z) = 0.37546 0.16113
#
# Static dielectric constant tensor:
#      x y z
#    x 3.259030 0.000000 -0.040800 
#    y 0.000000 2.836250 0.000000 
#    z -0.040800 0.000000 3.092310 
# 
# 
# High freq. dielectric constant tensor:
#      x y z
#    x 1.637040 0.000000 -0.002080 
#    y 0.000000 1.603190 0.000000 
#    z -0.002080 0.000000 1.618210 
# 
# From -- ./inp_files/288881.got.cif
#   From: 2010.06.25/outbox.cif.g09.slc.cpg/sg12_145_cif.got.tgz:288881.got - 2010.06.28 00:19:55.
