data_PCOD8081043
_publ_section_title
;
Structure prediction by ZEFSAII (Michael W. Deem and Ramdas Pophale) SiO2 
 PCOD8081043
Probable space group: C 2/M
;
_chemical_formula_sum "Si O2"
_cell_formula_units_Z 64
_cell_length_a 20.144172
_cell_length_b 17.798431
_cell_length_c 12.950892
_cell_angle_alpha 90.000000
_cell_angle_beta 37.200378
_cell_angle_gamma 90.000000
_cell_volume 2807.385831
_symmetry_space_group_name_H-M "C 2/M"
_symmetry_group_IT_number 12
_symmetry_cell_setting 'monoclinic'
loop_
_space_group_symop_operation_xyz
x,y,z
-x,y,-z
-x,-y,-z
x,-y,z
1/2+x,1/2+y,z
1/2-x,1/2+y,-z
1/2-x,1/2-y,-z
1/2+x,1/2-y,z
loop_
_atom_site_type_symbol
_atom_site_label
_atom_site_fract_x
_atom_site_fract_y
_atom_site_fract_z
Si Si1 0.173337 0.210871 0.936142
Si Si2 0.247496 0.324234 0.693288
Si Si3 0.754774 0.087009 0.483422
Si Si4 0.993857 0.140229 0.399243
Si Si5 0.890518 0.711413 0.785627
Si Si6 0.004453 0.083786 0.168388
Si Si7 0.074911 0.415997 0.995723
Si Si8 0.539668 0.916852 0.642578
O O1 0.203303 0.242208 0.784542
O O2 0.279210 0.181781 0.869565
O O3 0.118125 0.274570 0.079145
O O4 0.089272 0.143077 0.015631
O O5 0.212550 0.354516 0.623301
O O6 0.377100 0.321043 0.531229
O O7 0.195811 0.378564 0.844996
O O8 0.670595 0.097596 0.492254
O O9 0.879150 0.105028 0.292941
O O10 0.749449 0.000000 0.530516
O O11 0.000000 0.094999 0.500000
O O12 0.080726 0.208280 0.299700
O O13 0.017320 0.083960 0.276866
O O14 0.983163 0.648554 0.645216
O O15 0.033699 0.000000 0.092490
O O16 0.096179 0.500000 0.932626
O O17 0.017248 0.413316 0.176321
O O18 0.000000 0.375509 0.000000
O O19 0.520276 0.000000 0.617582
#
# Coordination Sequence:
#
# PCOD8081043 Si02
#       8
#     8   8   8   8   8   8   8   8
#     4  10  20  33  53  75 108 153 184 221 272 325
#     4  11  18  31  53  79 107 147 182 219 270 333
#     4   9  18  34  56  84 118 147 174 222 284 335
#     4  10  20  35  54  75 104 149 180 219 283 323
#     4  10  20  36  50  74 111 147 187 224 269 331
#     4   9  20  36  54  80 111 141 182 230 280 334
#     4  10  18  29  48  79 116 144 169 213 273 331
#     4  10  19  32  55  81 108 146 183 223 273 326
#
# _framework density 22.797008999999999
#
# number of rings (size 3 to 8) (size 9 to 14) (size 15 to 20)
#    0.000    2.125    3.750    0.375    0.000    1.250 
#    0.000    8.125    0.000    1.125    0.000    0.000 
#    0.000   15.500    0.000    0.000    0.000    0.000 
#
# Total GULP energy -396463.550655 kJ/mol
# GULP energy per Si atom -12389.485958 kJ/mol
# Density = 2.274512 g / cm^3
# Si number density = 22.797009 Si / 1000 Ang^3
#
#
#
# Elastic Constant Matrix: (Units=GPa)
#
#
# Indices 1 2 3 4 5 6 
#
# 1 42.3132 33.6814 14.0064 0.0000 -19.9987 0.0000
# 2 33.6814 101.2142 32.8557 0.0000 -23.5761 0.0000
# 3 14.0064 32.8557 68.0063 0.0000 -26.5900 0.0000
# 4 0.0000 0.0000 0.0000 33.3115 0.0000 -8.3679
# 5 -19.9987 -23.5761 -26.5900 0.0000 33.9005 0.0000
# 6 0.0000 0.0000 0.0000 -8.3679 0.0000 23.6040
#
#
#
# Elastic Compliance Matrix: (Units=1/GPa)
#
#
# Indices 1 2 3 4 5 6 
#
# 1 0.039463 -0.009951 0.004437 0.000000 0.019840 0.000000
# 2 -0.009951 0.014941 -0.004906 0.000000 0.000672 0.000000
# 3 0.004437 -0.004906 0.022861 0.000000 0.017137 0.000000
# 4 0.000000 0.000000 0.000000 0.032954 0.000000 0.011683
# 5 0.019840 0.000672 0.017137 0.000000 0.055111 0.000000
# 6 0.000000 0.000000 0.000000 0.011683 0.000000 0.046507
#
#
# Mechanical properties :
#
#
# Convention : Reuss Voigt Hill
#
# Bulk Modulus (GPa) = 17.72268 41.40228 29.56248
# Shear Modulus (GPa) = 19.88189 26.89590 23.38889
#
# Velocity S-wave (km/s) = 2.95638 3.43855 3.20654
# Velocity P-wave (km/s) = 4.40960 5.82799 5.16769
#
# Compressibility (1/GPa) = 0.05642487
#
# Stress axis : x y z
#
# Youngs Moduli (GPa) = 25.34045 66.93164 43.74188
#
# Poissons Ratio (x) = 0.66605 -0.19410
# Poissons Ratio (y) = 0.25217 0.21460
# Poissons Ratio (z) = -0.11244 0.32836
#
# Static dielectric constant tensor:
#      x y z
#    x 3.878500 0.000000 -0.255860 
#    y 0.000000 4.001690 0.000000 
#    z -0.255860 0.000000 4.168920 
# 
# 
# High freq. dielectric constant tensor:
#      x y z
#    x 1.874720 0.000000 -0.017900 
#    y 0.000000 1.881320 0.000000 
#    z -0.017900 0.000000 1.900640 
# 
# From -- ./inp_files/241475.got.cif
#   From: 2010.06.25/outbox.cif.g09.slc.cpg/sg12_121_cif.got.tgz:241475.got - 2010.06.28 00:19:55.
