data_PCOD8081426
_publ_section_title
;
Structure prediction by ZEFSAII (Michael W. Deem and Ramdas Pophale) SiO2 
 PCOD8081426
Probable space group: C 2/M
;
_chemical_formula_sum "Si O2"
_cell_formula_units_Z 48
_cell_length_a 27.278521
_cell_length_b 8.683322
_cell_length_c 12.036114
_cell_angle_alpha 90.000000
_cell_angle_beta 107.355491
_cell_angle_gamma 90.000000
_cell_volume 2721.174344
_symmetry_space_group_name_H-M "C 2/M"
_symmetry_group_IT_number 12
_symmetry_cell_setting 'monoclinic'
loop_
_space_group_symop_operation_xyz
x,y,z
-x,y,-z
-x,-y,-z
x,-y,z
1/2+x,1/2+y,z
1/2-x,1/2+y,-z
1/2-x,1/2-y,-z
1/2+x,1/2-y,z
loop_
_atom_site_type_symbol
_atom_site_label
_atom_site_fract_x
_atom_site_fract_y
_atom_site_fract_z
Si Si1 0.696509 0.324092 0.501232
Si Si2 0.865042 0.318111 0.088256
Si Si3 0.218987 0.679475 0.135022
Si Si4 0.558624 0.183106 0.045634
Si Si5 0.358827 0.678273 0.756369
Si Si6 0.321339 0.820711 0.279216
O O1 0.710551 0.500000 0.527983
O O2 0.750000 0.250000 0.500000
O O3 0.650877 0.300323 0.381503
O O4 0.673149 0.263943 0.600627
O O5 0.866890 0.500000 0.083473
O O6 0.864886 0.266117 0.218151
O O7 0.811208 0.265690 0.995837
O O8 0.913337 0.256679 0.048902
O O9 0.234729 0.500000 0.144048
O O10 0.181488 0.708983 0.212874
O O11 0.267669 0.787525 0.183177
O O12 0.584255 0.265355 0.170060
O O13 0.563418 0.000000 0.063107
O O14 0.500000 0.237045 0.000000
O O15 0.350634 0.500000 0.785292
O O16 0.325895 0.000000 0.307290
#
# Coordination Sequence:
#
# PCOD8081426 Si02
#       6
#     8   8   8   8   8   8
#     4  11  22  34  49  70 101 139 177 211 244 291
#     4   8  17  31  47  72 101 129 163 207 254 301
#     4  10  18  30  48  69  99 135 171 207 246 296
#     4   9  18  35  59  81 100 125 161 209 262 309
#     4  10  20  33  50  74 102 131 168 211 253 298
#     4  11  20  30  46  69 102 138 170 203 246 299
#
# _framework density 17.639443
#
# number of rings (size 3 to 8) (size 9 to 14) (size 15 to 20)
#    0.000    2.167    1.667    3.500    0.000    2.333 
#    0.000    7.500    0.000    1.000    0.000    7.000 
#    0.000    0.000    0.000    0.000    0.000    0.000 
#
# Total GULP energy -297414.887234 kJ/mol
# GULP energy per Si atom -12392.286968 kJ/mol
# Density = 1.759929 g / cm^3
# Si number density = 17.639443 Si / 1000 Ang^3
#
#
#
# Elastic Constant Matrix: (Units=GPa)
#
#
# Indices 1 2 3 4 5 6 
#
# 1 79.5609 16.3776 66.7718 0.0000 5.5018 0.0000
# 2 16.3776 59.6443 45.2141 0.0000 -1.1216 0.0000
# 3 66.7718 45.2141 136.2339 0.0000 -18.3940 0.0000
# 4 0.0000 0.0000 0.0000 28.7459 0.0000 0.4445
# 5 5.5018 -1.1216 -18.3940 0.0000 22.7401 0.0000
# 6 0.0000 0.0000 0.0000 0.4445 0.0000 14.6401
#
#
#
# Elastic Compliance Matrix: (Units=1/GPa)
#
#
# Indices 1 2 3 4 5 6 
#
# 1 0.029057 0.006261 -0.019339 0.000000 -0.022365 0.000000
# 2 0.006261 0.024384 -0.012577 0.000000 -0.010485 0.000000
# 3 -0.019339 -0.012577 0.024182 0.000000 0.023619 0.000000
# 4 0.000000 0.000000 0.000000 0.034804 0.000000 -0.001057
# 5 -0.022365 -0.010485 0.023619 0.000000 0.067974 0.000000
# 6 0.000000 0.000000 0.000000 -0.001057 0.000000 0.068338
#
#
# Mechanical properties :
#
#
# Convention : Reuss Voigt Hill
#
# Bulk Modulus (GPa) = 38.00455 59.12958 48.56707
# Shear Modulus (GPa) = 16.19064 23.03027 19.61046
#
# Velocity S-wave (km/s) = 3.03292 3.61725 3.33789
# Velocity P-wave (km/s) = 5.81866 7.14423 6.51524
#
# Compressibility (1/GPa) = 0.02631264
#
# Stress axis : x y z
#
# Youngs Moduli (GPa) = 34.41474 41.01072 41.35275
#
# Poissons Ratio (x) = -0.25677 0.79973
# Poissons Ratio (y) = -0.21547 0.52010
# Poissons Ratio (z) = 0.66556 0.51580
#
# Static dielectric constant tensor:
#      x y z
#    x 3.287880 0.000000 -0.170530 
#    y 0.000000 3.229980 0.000000 
#    z -0.170530 0.000000 3.504910 
# 
# 
# High freq. dielectric constant tensor:
#      x y z
#    x 1.649560 0.000000 -0.015120 
#    y 0.000000 1.679220 0.000000 
#    z -0.015120 0.000000 1.683680 
# 
# From -- ./inp_files/179164.got.cif
#   From: 2010.06.25/outbox.cif.g09.slc.cpg/sg12_90_cif.got.tgz:179164.got - 2010.06.28 00:19:55.
