data_PCOD8081909
_publ_section_title
;
Structure prediction by ZEFSAII (Michael W. Deem and Ramdas Pophale) SiO2 
 PCOD8081909
Probable space group: C 2/M
;
_chemical_formula_sum "Si O2"
_cell_formula_units_Z 48
_cell_length_a 20.632043
_cell_length_b 9.247972
_cell_length_c 23.416944
_cell_angle_alpha 90.000000
_cell_angle_beta 38.338927
_cell_angle_gamma 90.000000
_cell_volume 2771.591297
_symmetry_space_group_name_H-M "C 2/M"
_symmetry_group_IT_number 12
_symmetry_cell_setting 'monoclinic'
loop_
_space_group_symop_operation_xyz
x,y,z
-x,y,-z
-x,-y,-z
x,-y,z
1/2+x,1/2+y,z
1/2-x,1/2+y,-z
1/2-x,1/2-y,-z
1/2+x,1/2-y,z
loop_
_atom_site_type_symbol
_atom_site_label
_atom_site_fract_x
_atom_site_fract_y
_atom_site_fract_z
Si Si1 0.048281 0.664234 0.232634
Si Si2 0.603581 0.170325 0.955932
Si Si3 0.516223 0.829389 0.423568
Si Si4 0.349934 0.166978 0.952068
Si Si5 0.854987 0.665562 0.439173
Si Si6 0.828020 0.170058 0.761084
O O1 0.079724 0.500000 0.228369
O O2 0.057426 0.687030 0.158339
O O3 0.124962 0.773851 0.211828
O O4 0.929154 0.692971 0.333337
O O5 0.704499 0.205934 0.847277
O O6 0.588162 0.000000 0.971876
O O7 0.500000 0.241345 0.000000
O O8 0.614135 0.234262 0.012539
O O9 0.500000 0.780810 0.500000
O O10 0.415859 0.783246 0.454654
O O11 0.619457 0.749552 0.329031
O O12 0.535476 0.000000 0.405035
O O13 0.318727 0.000000 0.980970
O O14 0.250000 0.250000 0.000000
O O15 0.823012 0.500000 0.467908
O O16 0.750000 0.750000 0.500000
O O17 0.849210 0.000000 0.741590
#
# Coordination Sequence:
#
# PCOD8081909 Si02
#       6
#     8   8   8   8   8   8
#     4   9  18  32  51  74  99 134 172 201 244 302
#     4   9  18  32  48  72 106 137 163 199 252 301
#     4   9  19  37  57  73  97 135 172 203 245 303
#     4  10  18  31  53  75  98 131 170 208 242 291
#     4   9  18  33  51  74 100 130 163 203 254 297
#     4  10  18  30  52  79 101 128 167 210 250 289
#
# _framework density 17.318570999999999
#
# number of rings (size 3 to 8) (size 9 to 14) (size 15 to 20)
#    0.000    2.667    1.667    1.500    0.000    3.000 
#    3.000    0.000    0.000    4.500    0.000    0.000 
#    0.000    0.000    0.000    0.000    0.000    0.000 
#
# Total GULP energy -297517.815029 kJ/mol
# GULP energy per Si atom -12396.575626 kJ/mol
# Density = 1.727915 g / cm^3
# Si number density = 17.318571 Si / 1000 Ang^3
#
#
#
# Elastic Constant Matrix: (Units=GPa)
#
#
# Indices 1 2 3 4 5 6 
#
# 1 131.4008 37.8949 91.1736 -0.0001 0.0900 0.0001
# 2 37.8949 48.3805 46.5038 -0.0004 -4.7330 0.0004
# 3 91.1736 46.5038 141.1195 -0.0001 4.9961 0.0001
# 4 -0.0001 -0.0004 -0.0001 26.5384 0.0001 -1.4353
# 5 0.0900 -4.7330 4.9961 0.0001 34.9622 -0.0001
# 6 0.0001 0.0004 0.0001 -1.4353 -0.0001 21.7975
#
#
#
# Elastic Compliance Matrix: (Units=1/GPa)
#
#
# Indices 1 2 3 4 5 6 
#
# 1 0.014174 -0.003234 -0.008116 0.000000 0.000686 0.000000
# 2 -0.003234 0.032100 -0.008687 0.000000 0.005595 -0.000001
# 3 -0.008116 -0.008687 0.015311 0.000000 -0.003343 0.000000
# 4 0.000000 0.000000 0.000000 0.037816 0.000000 0.002490
# 5 0.000686 0.005595 -0.003343 0.000000 0.029836 0.000000
# 6 0.000000 -0.000001 0.000000 0.002490 0.000000 0.046041
#
#
# Mechanical properties :
#
#
# Convention : Reuss Voigt Hill
#
# Bulk Modulus (GPa) = 46.48767 74.67172 60.57969
# Shear Modulus (GPa) = 22.46993 26.34816 24.40904
#
# Velocity S-wave (km/s) = 3.60592 3.90472 3.75829
# Velocity P-wave (km/s) = 6.65115 7.97115 7.34088
#
# Compressibility (1/GPa) = 0.02151108
#
# Stress axis : x y z
#
# Youngs Moduli (GPa) = 70.55315 31.15307 65.31392
#
# Poissons Ratio (x) = 0.10074 0.53008
# Poissons Ratio (y) = 0.22814 0.56737
# Poissons Ratio (z) = 0.57261 0.27062
#
# Static dielectric constant tensor:
#      x y z
#    x 3.359740 0.000000 0.253160 
#    y 0.000000 3.091860 0.000000 
#    z 0.253160 0.000000 3.570180 
# 
# 
# High freq. dielectric constant tensor:
#      x y z
#    x 1.652340 0.000000 0.007960 
#    y 0.000000 1.652650 0.000000 
#    z 0.007960 0.000000 1.680240 
# 
# From -- ./inp_files/345391.got.cif
#   From: 2010.06.25/outbox.cif.g09.slc.cpg/sg12_173_cif.got.tgz:345391.got - 2010.06.28 00:19:55.
