data_PCOD8081847
_publ_section_title
;
Structure prediction by ZEFSAII (Michael W. Deem and Ramdas Pophale) SiO2 
 PCOD8081847
Probable space group: C 2/M
;
_chemical_formula_sum "Si O2"
_cell_formula_units_Z 64
_cell_length_a 26.538618
_cell_length_b 12.879703
_cell_length_c 21.344856
_cell_angle_alpha 90.000000
_cell_angle_beta 28.848910
_cell_angle_gamma 90.000000
_cell_volume 3520.270962
_symmetry_space_group_name_H-M "C 2/M"
_symmetry_group_IT_number 12
_symmetry_cell_setting 'monoclinic'
loop_
_space_group_symop_operation_xyz
x,y,z
-x,y,-z
-x,-y,-z
x,-y,z
1/2+x,1/2+y,z
1/2-x,1/2+y,-z
1/2-x,1/2-y,-z
1/2+x,1/2-y,z
loop_
_atom_site_type_symbol
_atom_site_label
_atom_site_fract_x
_atom_site_fract_y
_atom_site_fract_z
Si Si1 0.399227 0.770738 0.290126
Si Si2 0.008444 0.382158 0.059117
Si Si3 0.116045 0.750387 0.109754
Si Si4 0.795341 0.615055 0.892565
Si Si5 0.709275 0.121239 0.478911
Si Si6 0.413057 0.122949 0.514070
Si Si7 0.138332 0.698620 0.300485
Si Si8 0.725839 0.881074 0.885177
O O1 0.432071 0.825731 0.190591
O O2 0.501831 0.721338 0.210065
O O3 0.352969 0.853189 0.389783
O O4 0.319051 0.680567 0.360144
O O5 0.968236 0.500000 0.101090
O O6 0.000000 0.329624 0.000000
O O7 0.129811 0.375797 0.942395
O O8 0.114488 0.692588 0.178790
O O9 0.180240 0.857488 0.044384
O O10 0.184459 0.669706 0.994114
O O11 0.825746 0.500000 0.879855
O O12 0.792078 0.626513 0.820949
O O13 0.643605 0.154466 0.488931
O O14 0.734182 0.000000 0.449986
O O15 0.518772 0.188222 0.407964
O O16 0.341551 0.156493 0.651096
O O17 0.437724 0.000000 0.488927
O O18 0.176940 0.817923 0.250813
O O19 0.761246 0.000000 0.858537
#
# Coordination Sequence:
#
# PCOD8081847 Si02
#       8
#     8   8   8   8   8   8   8   8
#     4  10  20  36  56  76 105 137 175 219 257 314
#     4   9  18  32  54  80 103 133 170 212 260 307
#     4   9  19  32  49  77 105 136 168 209 264 312
#     4  10  18  30  51  78 105 134 171 212 258 312
#     4  10  22  37  56  77 102 141 179 219 264 307
#     4  10  20  35  52  74 102 134 176 220 259 302
#     4  10  19  31  52  75 102 135 174 215 259 308
#     4   9  18  32  49  74 104 134 166 208 260 314
#
# _framework density 18.180420000000002
#
# number of rings (size 3 to 8) (size 9 to 14) (size 15 to 20)
#    0.000    2.375    0.000    3.000    1.750    3.000 
#    0.000    1.250    0.000    8.625    0.000    0.000 
#    0.000    0.000    0.000    0.000    0.000    0.000 
#
# Total GULP energy -396630.404245 kJ/mol
# GULP energy per Si atom -12394.700133 kJ/mol
# Density = 1.813904 g / cm^3
# Si number density = 18.180420 Si / 1000 Ang^3
#
#
#
# Elastic Constant Matrix: (Units=GPa)
#
#
# Indices 1 2 3 4 5 6 
#
# 1 112.2786 38.9831 53.0933 0.0000 5.3799 0.0000
# 2 38.9831 78.5585 43.0264 0.0000 -0.9857 0.0000
# 3 53.0933 43.0264 92.7473 0.0000 1.7076 0.0000
# 4 0.0000 0.0000 0.0000 21.6984 0.0000 -2.2084
# 5 5.3799 -0.9857 1.7076 0.0000 31.3707 0.0000
# 6 0.0000 0.0000 0.0000 -2.2084 0.0000 25.0778
#
#
#
# Elastic Compliance Matrix: (Units=1/GPa)
#
#
# Indices 1 2 3 4 5 6 
#
# 1 0.012883 -0.003216 -0.005846 0.000000 -0.001992 0.000000
# 2 -0.003216 0.017898 -0.006489 0.000000 0.001467 0.000000
# 3 -0.005846 -0.006489 0.017141 0.000000 -0.000134 0.000000
# 4 0.000000 0.000000 0.000000 0.046503 0.000000 0.004095
# 5 -0.001992 0.001467 -0.000134 0.000000 0.032272 0.000000
# 6 0.000000 0.000000 0.000000 0.004095 0.000000 0.040237
#
#
# Mechanical properties :
#
#
# Convention : Reuss Voigt Hill
#
# Bulk Modulus (GPa) = 59.45395 61.53223 60.49309
# Shear Modulus (GPa) = 24.55283 25.52817 25.04050
#
# Velocity S-wave (km/s) = 3.67891 3.75127 3.71527
# Velocity P-wave (km/s) = 7.12875 7.25821 7.19377
#
# Compressibility (1/GPa) = 0.01681974
#
# Stress axis : x y z
#
# Youngs Moduli (GPa) = 77.62178 55.87352 58.33808
#
# Poissons Ratio (x) = 0.17968 0.34106
# Poissons Ratio (y) = 0.24962 0.37855
# Poissons Ratio (z) = 0.45380 0.36256
#
# Static dielectric constant tensor:
#      x y z
#    x 3.557450 0.000000 0.184800 
#    y 0.000000 3.254030 0.000000 
#    z 0.184800 0.000000 3.388820 
# 
# 
# High freq. dielectric constant tensor:
#      x y z
#    x 1.715680 0.000000 0.013180 
#    y 0.000000 1.688530 0.000000 
#    z 0.013180 0.000000 1.698490 
# 
# From -- ./inp_files/327793.got.cif
#   From: 2010.06.25/outbox.cif.g09.slc.cpg/sg12_164_cif.got.tgz:327793.got - 2010.06.28 00:19:55.
