data_PCOD8081122
_publ_section_title
;
Structure prediction by ZEFSAII (Michael W. Deem and Ramdas Pophale) SiO2 
 PCOD8081122
Probable space group: C 2/M
;
_chemical_formula_sum "Si O2"
_cell_formula_units_Z 64
_cell_length_a 30.737046
_cell_length_b 9.076789
_cell_length_c 16.494115
_cell_angle_alpha 90.000000
_cell_angle_beta 135.560298
_cell_angle_gamma 90.000000
_cell_volume 3221.955940
_symmetry_space_group_name_H-M "C 2/M"
_symmetry_group_IT_number 12
_symmetry_cell_setting 'monoclinic'
loop_
_space_group_symop_operation_xyz
x,y,z
-x,y,-z
-x,-y,-z
x,-y,z
1/2+x,1/2+y,z
1/2-x,1/2+y,-z
1/2-x,1/2-y,-z
1/2+x,1/2-y,z
loop_
_atom_site_type_symbol
_atom_site_label
_atom_site_fract_x
_atom_site_fract_y
_atom_site_fract_z
Si Si1 0.405717 0.173730 0.987767
Si Si2 0.120565 0.171877 0.375175
Si Si3 0.690683 0.331821 0.035637
Si Si4 0.403470 0.334371 0.231703
Si Si5 0.229112 0.830100 0.639641
Si Si6 0.308504 0.669709 0.231438
Si Si7 0.643059 0.674049 0.221887
Si Si8 0.496898 0.826664 0.250174
O O1 0.341054 0.226272 0.940341
O O2 0.410014 0.252392 0.905805
O O3 0.404389 0.000000 0.973532
O O4 0.462285 0.223637 0.121141
O O5 0.183625 0.211533 0.505676
O O6 0.128441 0.224914 0.293509
O O7 0.064655 0.257871 0.342907
O O8 0.105382 0.000000 0.360762
O O9 0.688937 0.500000 0.064731
O O10 0.760890 0.275752 0.120866
O O11 0.656805 0.316595 0.905109
O O12 0.430220 0.500000 0.262453
O O13 0.377794 0.297253 0.287864
O O14 0.458373 0.226073 0.277573
O O15 0.191951 0.798328 0.673326
O O16 0.288940 0.727838 0.713310
O O17 0.250442 0.000000 0.662851
O O18 0.291063 0.500000 0.189452
O O19 0.640028 0.500000 0.208338
O O20 0.502358 0.000000 0.262140
#
# Coordination Sequence:
#
# PCOD8081122 Si02
#       8
#     8   8   8   8   8   8   8   8
#     4  10  20  35  55  81 114 147 180 226 280 337
#     4  10  23  41  59  80 109 149 190 230 278 333
#     4  10  18  29  49  79 114 147 180 222 275 328
#     4   9  19  34  53  79 112 149 184 223 272 332
#     4  10  21  38  59  83 114 149 185 227 275 328
#     4  10  19  32  53  81 112 147 185 222 272 333
#     4  11  22  36  58  87 114 142 182 229 283 336
#     4  10  22  39  59  82 109 146 191 234 276 326
#
# _framework density 19.863710000000001
#
# number of rings (size 3 to 8) (size 9 to 14) (size 15 to 20)
#    0.000    2.000    1.250    2.250    0.000    4.500 
#    0.000    3.125    0.000    3.750    0.000    0.000 
#    0.000    0.000    0.000    0.000    0.000    0.000 
#
# Total GULP energy -396847.902650 kJ/mol
# GULP energy per Si atom -12401.496958 kJ/mol
# Density = 1.981850 g / cm^3
# Si number density = 19.863710 Si / 1000 Ang^3
#
#
#
# Elastic Constant Matrix: (Units=GPa)
#
#
# Indices 1 2 3 4 5 6 
#
# 1 74.2457 18.1794 4.1087 0.0000 -3.5085 0.0000
# 2 18.1794 58.7152 15.1096 0.0000 2.3399 0.0000
# 3 4.1087 15.1096 23.7420 0.0000 6.5799 0.0000
# 4 0.0000 0.0000 0.0000 27.5590 0.0000 2.3838
# 5 -3.5085 2.3399 6.5799 0.0000 22.0550 0.0000
# 6 0.0000 0.0000 0.0000 2.3838 0.0000 28.1683
#
#
#
# Elastic Compliance Matrix: (Units=1/GPa)
#
#
# Indices 1 2 3 4 5 6 
#
# 1 0.014753 -0.004565 -0.000472 0.000000 0.002972 0.000000
# 2 -0.004565 0.021850 -0.013378 0.000000 0.000947 0.000000
# 3 -0.000472 -0.013378 0.054880 0.000000 -0.015029 0.000000
# 4 0.000000 0.000000 0.000000 0.036553 0.000000 -0.003093
# 5 0.002972 0.000947 -0.015029 0.000000 0.050197 0.000000
# 6 0.000000 0.000000 0.000000 -0.003093 0.000000 0.035763
#
#
# Mechanical properties :
#
#
# Convention : Reuss Voigt Hill
#
# Bulk Modulus (GPa) = 18.29695 25.72206 22.00950
# Shear Modulus (GPa) = 18.58447 23.51014 21.04730
#
# Velocity S-wave (km/s) = 3.06207 3.44404 3.25866
# Velocity P-wave (km/s) = 4.66186 5.36587 5.02621
#
# Compressibility (1/GPa) = 0.05465392
#
# Stress axis : x y z
#
# Youngs Moduli (GPa) = 67.78248 45.76745 18.22169
#
# Poissons Ratio (x) = 0.20893 0.00859
# Poissons Ratio (y) = 0.30942 0.24376
# Poissons Ratio (z) = 0.03197 0.61226
#
# Static dielectric constant tensor:
#      x y z
#    x 3.700530 0.000000 -0.235820 
#    y 0.000000 3.553750 0.000000 
#    z -0.235820 0.000000 3.531770 
# 
# 
# High freq. dielectric constant tensor:
#      x y z
#    x 1.777170 0.000000 -0.008960 
#    y 0.000000 1.773220 0.000000 
#    z -0.008960 0.000000 1.757060 
# 
# From -- ./inp_files/250051.got.cif
#   From: 2010.06.25/outbox.cif.g09.slc.cpg/sg12_126_cif.got.tgz:250051.got - 2010.06.28 00:19:55.
