data_PCOD8081735
_publ_section_title
;
Structure prediction by ZEFSAII (Michael W. Deem and Ramdas Pophale) SiO2 
 PCOD8081735
Probable space group: C 2/M
;
_chemical_formula_sum "Si O2"
_cell_formula_units_Z 56
_cell_length_a 22.603427
_cell_length_b 12.593218
_cell_length_c 12.316366
_cell_angle_alpha 90.000000
_cell_angle_beta 73.127294
_cell_angle_gamma 90.000000
_cell_volume 3354.932077
_symmetry_space_group_name_H-M "C 2/M"
_symmetry_group_IT_number 12
_symmetry_cell_setting 'monoclinic'
loop_
_space_group_symop_operation_xyz
x,y,z
-x,y,-z
-x,-y,-z
x,-y,z
1/2+x,1/2+y,z
1/2-x,1/2+y,-z
1/2-x,1/2-y,-z
1/2+x,1/2-y,z
loop_
_atom_site_type_symbol
_atom_site_label
_atom_site_fract_x
_atom_site_fract_y
_atom_site_fract_z
Si Si1 0.234615 0.743734 0.173923
Si Si2 0.857803 0.377654 0.637295
Si Si3 0.348761 0.123560 0.191785
Si Si4 0.462759 0.877656 0.759579
Si Si5 0.093547 0.623715 0.614736
Si Si6 0.323241 0.623754 0.975751
Si Si7 0.565548 0.751942 0.009549
O O1 0.201239 0.688877 0.292796
O O2 0.284939 0.824989 0.190946
O O3 0.184674 0.808962 0.130217
O O4 0.266209 0.651647 0.085278
O O5 0.837557 0.500000 0.635100
O O6 0.912649 0.365738 0.693001
O O7 0.879530 0.327322 0.510818
O O8 0.358530 0.145918 0.313956
O O9 0.406616 0.168944 0.094656
O O10 0.344825 0.000000 0.167683
O O11 0.526692 0.827575 0.680477
O O12 0.472176 0.000000 0.789088
O O13 0.440795 0.814506 0.875578
O O14 0.083017 0.500000 0.598946
O O15 0.321987 0.500000 0.949369
O O16 0.388635 0.652647 0.996696
O O17 0.500000 0.709100 0.000000
#
# Coordination Sequence:
#
# PCOD8081735 Si02
#       7
#     8   8   8   8   8   8   8
#     4  10  20  34  52  74  97 135 171 201 245 296
#     4  10  19  32  51  75 102 133 167 203 245 295
#     4  10  20  32  49  76 107 134 163 204 247 291
#     4  10  18  30  50  77 105 130 161 205 252 298
#     4   9  18  31  48  74 106 133 161 204 250 289
#     4  10  21  36  51  73 103 130 163 209 249 293
#     4  11  20  32  53  78 101 129 166 199 255 304
#
# _framework density 16.691842999999999
#
# number of rings (size 3 to 8) (size 9 to 14) (size 15 to 20)
#    0.000    2.000    2.857    1.714    0.000    3.143 
#    0.000    0.000    0.000    0.000    0.000    4.000 
#    0.000    0.000    0.000    0.000    0.000    0.000 
#
# Total GULP energy -347237.847188 kJ/mol
# GULP energy per Si atom -12401.351685 kJ/mol
# Density = 1.665385 g / cm^3
# Si number density = 16.691843 Si / 1000 Ang^3
#
#
#
# Elastic Constant Matrix: (Units=GPa)
#
#
# Indices 1 2 3 4 5 6 
#
# 1 84.7985 32.5102 23.2921 0.0000 -3.2233 0.0000
# 2 32.5102 65.9254 33.4237 0.0000 -5.5351 0.0000
# 3 23.2921 33.4237 112.4531 0.0000 -5.5786 0.0000
# 4 0.0000 0.0000 0.0000 20.9453 0.0000 -0.6603
# 5 -3.2233 -5.5351 -5.5786 0.0000 22.6837 0.0000
# 6 0.0000 0.0000 0.0000 -0.6603 0.0000 13.1323
#
#
#
# Elastic Compliance Matrix: (Units=1/GPa)
#
#
# Indices 1 2 3 4 5 6 
#
# 1 0.014646 -0.006680 -0.001039 0.000000 0.000196 0.000000
# 2 -0.006680 0.021123 -0.004744 0.000000 0.003038 0.000000
# 3 -0.001039 -0.004744 0.010582 0.000000 0.001297 0.000000
# 4 0.000000 0.000000 0.000000 0.047819 0.000000 0.002404
# 5 0.000196 0.003038 0.001297 0.000000 0.045173 0.000000
# 6 0.000000 0.000000 0.000000 0.002404 0.000000 0.076269
#
#
# Mechanical properties :
#
#
# Convention : Reuss Voigt Hill
#
# Bulk Modulus (GPa) = 46.67028 49.06990 47.87009
# Shear Modulus (GPa) = 20.18746 22.94900 21.56823
#
# Velocity S-wave (km/s) = 3.48145 3.71194 3.59854
# Velocity P-wave (km/s) = 6.64690 6.91612 6.78284
#
# Compressibility (1/GPa) = 0.02142691
#
# Stress axis : x y z
#
# Youngs Moduli (GPa) = 68.27707 47.34207 94.49927
#
# Poissons Ratio (x) = 0.31622 0.09815
# Poissons Ratio (y) = 0.45606 0.44830
# Poissons Ratio (z) = 0.07091 0.22459
#
# Static dielectric constant tensor:
#      x y z
#    x 3.205210 0.000000 -0.011920 
#    y 0.000000 2.820950 0.000000 
#    z -0.011920 0.000000 3.316540 
# 
# 
# High freq. dielectric constant tensor:
#      x y z
#    x 1.654060 0.000000 0.002200 
#    y 0.000000 1.608680 0.000000 
#    z 0.002200 0.000000 1.650090 
# 
# From -- ./inp_files/164830.got.cif
#   From: 2010.06.25/outbox.cif.g09.slc.cpg/sg12_83_cif.got.tgz:164830.got - 2010.06.28 00:19:55.
