data_PCOD8081086
_publ_section_title
;
Structure prediction by ZEFSAII (Michael W. Deem and Ramdas Pophale) SiO2 
 PCOD8081086
Probable space group: C 2/M
;
_chemical_formula_sum "Si O2"
_cell_formula_units_Z 64
_cell_length_a 27.520126
_cell_length_b 15.122707
_cell_length_c 9.158773
_cell_angle_alpha 90.000000
_cell_angle_beta 66.064139
_cell_angle_gamma 90.000000
_cell_volume 3483.882845
_symmetry_space_group_name_H-M "C 2/M"
_symmetry_group_IT_number 12
_symmetry_cell_setting 'monoclinic'
loop_
_space_group_symop_operation_xyz
x,y,z
-x,y,-z
-x,-y,-z
x,-y,z
1/2+x,1/2+y,z
1/2-x,1/2+y,-z
1/2-x,1/2-y,-z
1/2+x,1/2-y,z
loop_
_atom_site_type_symbol
_atom_site_label
_atom_site_fract_x
_atom_site_fract_y
_atom_site_fract_z
Si Si1 0.741907 0.810823 0.870377
Si Si2 0.870695 0.229102 0.435317
Si Si3 0.320435 0.904158 0.481998
Si Si4 0.647326 0.398919 0.293843
Si Si5 0.643903 0.900311 0.889557
Si Si6 0.438656 0.754801 0.082629
Si Si7 0.383167 0.600211 0.995903
Si Si8 0.288567 0.663014 0.301513
O O1 0.790411 0.877639 0.791261
O O2 0.687175 0.866600 0.955379
O O3 0.738002 0.751140 0.730629
O O4 0.750000 0.750000 0.000000
O O5 0.853247 0.325364 0.519988
O O6 0.883191 0.163965 0.553921
O O7 0.922708 0.240447 0.271245
O O8 0.822698 0.188821 0.400132
O O9 0.327084 0.894861 0.300904
O O10 0.257934 0.902706 0.594375
O O11 0.342361 0.000000 0.507777
O O12 0.641018 0.500000 0.353013
O O13 0.619563 0.383136 0.172950
O O14 0.593232 0.835774 0.952106
O O15 0.625464 0.000000 0.950271
O O16 0.500000 0.779364 0.000000
O O17 0.427354 0.665010 0.008018
O O18 0.400585 0.500000 0.009503
O O19 0.325189 0.617363 0.134946
#
# Coordination Sequence:
#
# PCOD8081086 Si02
#       8
#     8   8   8   8   8   8   8   8
#     4  12  19  32  53  78 117 155 179 210 258 317
#     4  10  20  35  52  77 105 138 181 225 266 321
#     4  10  18  29  49  75 106 143 178 216 259 306
#     4  11  22  34  54  81 114 151 178 211 264 324
#     4  10  20  35  54  81 112 142 181 228 268 316
#     4  10  21  40  62  80 101 136 181 235 287 325
#     4  10  21  37  54  79 112 143 179 221 267 322
#     4  11  18  32  50  74 110 149 181 215 248 311
#
# _framework density 18.370307
#
# number of rings (size 3 to 8) (size 9 to 14) (size 15 to 20)
#    0.000    1.500    6.250    1.875    0.000    4.000 
#    0.000    0.625    0.000    1.500    0.000    0.000 
#    0.000    6.000    0.000    0.000    0.000    0.000 
#
# Total GULP energy -396802.754300 kJ/mol
# GULP energy per Si atom -12400.086072 kJ/mol
# Density = 1.832850 g / cm^3
# Si number density = 18.370307 Si / 1000 Ang^3
#
#
#
# Elastic Constant Matrix: (Units=GPa)
#
#
# Indices 1 2 3 4 5 6 
#
# 1 67.1191 37.5383 28.4771 0.0000 -18.5683 0.0000
# 2 37.5383 144.8205 42.4328 0.0000 0.7056 0.0000
# 3 28.4771 42.4328 67.3870 0.0000 -5.8580 0.0000
# 4 0.0000 0.0000 0.0000 24.7190 0.0000 4.4880
# 5 -18.5683 0.7056 -5.8580 0.0000 23.8230 0.0000
# 6 0.0000 0.0000 0.0000 4.4880 0.0000 15.5544
#
#
#
# Elastic Compliance Matrix: (Units=1/GPa)
#
#
# Indices 1 2 3 4 5 6 
#
# 1 0.025249 -0.004874 -0.006006 0.000000 0.018347 0.000000
# 2 -0.004874 0.009468 -0.004350 0.000000 -0.005149 0.000000
# 3 -0.006006 -0.004350 0.020152 0.000000 0.000403 0.000000
# 4 0.000000 0.000000 0.000000 0.042691 0.000000 -0.012318
# 5 0.018347 -0.005149 0.000403 0.000000 0.056528 0.000000
# 6 0.000000 0.000000 0.000000 -0.012318 0.000000 0.067845
#
#
# Mechanical properties :
#
#
# Convention : Reuss Voigt Hill
#
# Bulk Modulus (GPa) = 40.96837 55.13590 48.05213
# Shear Modulus (GPa) = 19.19176 24.21117 21.70147
#
# Velocity S-wave (km/s) = 3.23571 3.63430 3.44078
# Velocity P-wave (km/s) = 6.02575 6.90576 6.48071
#
# Compressibility (1/GPa) = 0.02440908
#
# Stress axis : x y z
#
# Youngs Moduli (GPa) = 39.60593 105.61738 49.62389
#
# Poissons Ratio (x) = 0.51482 0.29802
# Poissons Ratio (y) = 0.19305 0.21585
# Poissons Ratio (z) = 0.23786 0.45941
#
# Static dielectric constant tensor:
#      x y z
#    x 3.019600 0.000000 0.092110 
#    y 0.000000 3.750090 0.000000 
#    z 0.092110 0.000000 3.335130 
# 
# 
# High freq. dielectric constant tensor:
#      x y z
#    x 1.670880 0.000000 0.006070 
#    y 0.000000 1.730510 0.000000 
#    z 0.006070 0.000000 1.700600 
# 
# From -- ./inp_files/111621.got.cif
#   From: 2010.06.25/outbox.cif.g09.slc.cpg/sg12_56_cif.got.tgz:111621.got - 2010.06.28 00:19:55.
