data_PCOD8081945
_publ_section_title
;
Structure prediction by ZEFSAII (Michael W. Deem and Ramdas Pophale) SiO2 
 PCOD8081945
Probable space group: C 2/M
;
_chemical_formula_sum "Si O2"
_cell_formula_units_Z 56
_cell_length_a 17.884384
_cell_length_b 13.407806
_cell_length_c 12.816228
_cell_angle_alpha 90.000000
_cell_angle_beta 73.648013
_cell_angle_gamma 90.000000
_cell_volume 2948.897280
_symmetry_space_group_name_H-M "C 2/M"
_symmetry_group_IT_number 12
_symmetry_cell_setting 'monoclinic'
loop_
_space_group_symop_operation_xyz
x,y,z
-x,y,-z
-x,-y,-z
x,-y,z
1/2+x,1/2+y,z
1/2-x,1/2+y,-z
1/2-x,1/2-y,-z
1/2+x,1/2-y,z
loop_
_atom_site_type_symbol
_atom_site_label
_atom_site_fract_x
_atom_site_fract_y
_atom_site_fract_z
Si Si1 0.386754 0.613258 0.959758
Si Si2 0.703349 0.111771 0.005716
Si Si3 0.546630 0.116493 0.732612
Si Si4 0.365377 0.755618 0.142263
Si Si5 0.726709 0.766990 0.340078
Si Si6 0.301371 0.112808 0.455239
Si Si7 0.393291 0.770859 0.789559
O O1 0.419470 0.500000 0.946763
O O2 0.418029 0.672294 0.845806
O O3 0.293779 0.614894 0.995765
O O4 0.410916 0.670429 0.057654
O O5 0.657434 0.154342 0.121578
O O6 0.674423 0.000000 0.995393
O O7 0.688983 0.176732 0.909369
O O8 0.571195 0.172756 0.829343
O O9 0.610783 0.131327 0.618047
O O10 0.468883 0.169192 0.721181
O O11 0.532535 0.000000 0.763221
O O12 0.306875 0.705732 0.248684
O O13 0.703325 0.860737 0.420734
O O14 0.739369 0.672949 0.410606
O O15 0.655908 0.738753 0.291779
O O16 0.276068 0.000000 0.449964
#
# Coordination Sequence:
#
# PCOD8081945 Si02
#       7
#     8   8   8   8   8   8   8
#     4  10  20  33  52  81 107 144 189 224 259 310
#     4  10  18  30  52  83 112 139 181 225 262 317
#     4  10  22  37  55  81 112 145 175 221 280 327
#     4  10  18  36  54  79 112 147 181 220 265 313
#     4  10  19  35  58  79 107 141 180 221 270 315
#     4   9  21  38  57  83 107 134 182 227 271 324
#     4  11  20  35  53  82 114 145 178 218 273 324
#
# _framework density 18.99015
#
# number of rings (size 3 to 8) (size 9 to 14) (size 15 to 20)
#    0.000    2.000    2.857    1.714    0.000    5.714 
#    0.000    6.429    0.000    3.429    0.000   10.000 
#    0.000    0.000    0.000    0.000    0.000    0.000 
#
# Total GULP energy -347232.043898 kJ/mol
# GULP energy per Si atom -12401.144425 kJ/mol
# Density = 1.894693 g / cm^3
# Si number density = 18.990150 Si / 1000 Ang^3
#
#
#
# Elastic Constant Matrix: (Units=GPa)
#
#
# Indices 1 2 3 4 5 6 
#
# 1 62.7638 28.1454 31.2643 0.0000 0.9380 0.0000
# 2 28.1454 125.4348 46.7193 0.0000 -2.4848 0.0000
# 3 31.2643 46.7193 95.3769 0.0000 13.1766 0.0000
# 4 0.0000 0.0000 0.0000 24.4157 0.0000 -3.3469
# 5 0.9380 -2.4848 13.1766 0.0000 21.0343 0.0000
# 6 0.0000 0.0000 0.0000 -3.3469 0.0000 24.8475
#
#
#
# Elastic Compliance Matrix: (Units=1/GPa)
#
#
# Indices 1 2 3 4 5 6 
#
# 1 0.019750 -0.002260 -0.005702 0.000000 0.002424 0.000000
# 2 -0.002260 0.010422 -0.004979 0.000000 0.004451 0.000000
# 3 -0.005702 -0.004979 0.016245 0.000000 -0.010510 0.000000
# 4 0.000000 0.000000 0.000000 0.041728 0.000000 0.005621
# 5 0.002424 0.004451 -0.010510 0.000000 0.054543 0.000000
# 6 0.000000 0.000000 0.000000 0.005621 0.000000 0.041003
#
#
# Mechanical properties :
#
#
# Convention : Reuss Voigt Hill
#
# Bulk Modulus (GPa) = 48.69759 55.09259 51.89509
# Shear Modulus (GPa) = 23.10345 25.88928 24.49637
#
# Velocity S-wave (km/s) = 3.49177 3.69630 3.59549
# Velocity P-wave (km/s) = 6.47733 6.87684 6.68007
#
# Compressibility (1/GPa) = 0.02053490
#
# Stress axis : x y z
#
# Youngs Moduli (GPa) = 50.63230 95.94997 61.55772
#
# Poissons Ratio (x) = 0.21683 0.35100
# Poissons Ratio (y) = 0.11442 0.30652
# Poissons Ratio (z) = 0.28871 0.47777
#
# Static dielectric constant tensor:
#      x y z
#    x 3.353180 0.000000 0.082530 
#    y 0.000000 3.773150 0.000000 
#    z 0.082530 0.000000 3.500400 
# 
# 
# High freq. dielectric constant tensor:
#      x y z
#    x 1.728850 0.000000 0.004150 
#    y 0.000000 1.740160 0.000000 
#    z 0.004150 0.000000 1.732200 
# 
# From -- ./inp_files/156511.got.cif
#   From: 2010.06.25/outbox.cif.g09.slc.cpg/sg12_79_cif.got.tgz:156511.got - 2010.06.28 00:19:55.
