data_PCOD8081983
_publ_section_title
;
Structure prediction by ZEFSAII (Michael W. Deem and Ramdas Pophale) SiO2 
 PCOD8081983
Probable space group: C 2/M
;
_chemical_formula_sum "Si O2"
_cell_formula_units_Z 64
_cell_length_a 13.045813
_cell_length_b 22.390754
_cell_length_c 10.967207
_cell_angle_alpha 90.000000
_cell_angle_beta 77.711593
_cell_angle_gamma 90.000000
_cell_volume 3130.184094
_symmetry_space_group_name_H-M "C 2/M"
_symmetry_group_IT_number 12
_symmetry_cell_setting 'monoclinic'
loop_
_space_group_symop_operation_xyz
x,y,z
-x,y,-z
-x,-y,-z
x,-y,z
1/2+x,1/2+y,z
1/2-x,1/2+y,-z
1/2-x,1/2-y,-z
1/2+x,1/2-y,z
loop_
_atom_site_type_symbol
_atom_site_label
_atom_site_fract_x
_atom_site_fract_y
_atom_site_fract_z
Si Si1 0.160749 0.649895 0.718916
Si Si2 0.495530 0.431124 0.640389
Si Si3 0.294822 0.566667 0.271596
Si Si4 0.118068 0.432276 0.507269
Si Si5 0.610091 0.067158 0.940374
Si Si6 0.860901 0.168296 0.798991
Si Si7 0.034108 0.279375 0.131724
Si Si8 0.263242 0.861825 0.932628
O O1 0.159001 0.619503 0.587159
O O2 0.165313 0.595165 0.811015
O O3 0.269037 0.685499 0.723193
O O4 0.058839 0.689452 0.769389
O O5 0.500000 0.409069 0.500000
O O6 0.458203 0.500000 0.658422
O O7 0.612530 0.422010 0.657917
O O8 0.415233 0.392506 0.740399
O O9 0.305956 0.500000 0.211508
O O10 0.184703 0.572287 0.367926
O O11 0.300639 0.619944 0.171320
O O12 0.127173 0.500000 0.560040
O O13 0.000000 0.417640 0.500000
O O14 0.584891 0.000000 0.914422
O O15 0.500000 0.100789 0.000000
O O16 0.685400 0.075403 0.036803
O O17 0.947364 0.219780 0.792770
O O18 0.815353 0.163069 0.947007
O O19 0.143630 0.314775 0.111274
O O20 0.000000 0.266963 0.000000
#
# Coordination Sequence:
#
# PCOD8081983 Si02
#       8
#     8   8   8   8   8   8   8   8
#     4  11  21  40  60  89 123 165 212 260 309 371
#     4  10  23  46  69  91 123 160 203 256 313 371
#     4  10  22  38  61  92 129 167 199 250 314 366
#     4  10  21  37  63  97 130 167 206 248 307 378
#     4  10  18  30  53  86 122 159 195 250 310 370
#     4  11  26  38  67  95 115 165 213 258 304 372
#     4  12  23  42  61  88 129 165 207 258 317 363
#     4  11  21  39  59  92 126 167 205 256 308 374
#
# _framework density 20.446082000000001
#
# number of rings (size 3 to 8) (size 9 to 14) (size 15 to 20)
#    0.000    1.375    3.750    2.625    1.750    4.000 
#    0.000    3.125    0.000    5.250    0.000    0.000 
#    0.000    0.000    0.000    0.000    0.000    0.000 
#
# Total GULP energy -396645.146173 kJ/mol
# GULP energy per Si atom -12395.160818 kJ/mol
# Density = 2.039955 g / cm^3
# Si number density = 20.446082 Si / 1000 Ang^3
#
#
#
# Elastic Constant Matrix: (Units=GPa)
#
#
# Indices 1 2 3 4 5 6 
#
# 1 96.4265 40.9611 29.4667 0.0000 5.4996 0.0000
# 2 40.9611 86.4502 35.7332 0.0000 7.4823 0.0000
# 3 29.4667 35.7332 59.9677 0.0000 11.0245 0.0000
# 4 0.0000 0.0000 0.0000 23.5412 0.0000 4.7358
# 5 5.4996 7.4823 11.0245 0.0000 38.3621 0.0000
# 6 0.0000 0.0000 0.0000 4.7358 0.0000 33.2153
#
#
#
# Elastic Compliance Matrix: (Units=1/GPa)
#
#
# Indices 1 2 3 4 5 6 
#
# 1 0.013598 -0.004885 -0.003788 0.000000 0.000092 0.000000
# 2 -0.004885 0.017108 -0.007717 0.000000 -0.000419 0.000000
# 3 -0.003788 -0.007717 0.024028 0.000000 -0.004857 0.000000
# 4 0.000000 0.000000 0.000000 0.043733 0.000000 -0.006235
# 5 0.000092 -0.000419 -0.004857 0.000000 0.027532 0.000000
# 6 0.000000 0.000000 0.000000 -0.006235 0.000000 0.030996
#
#
# Mechanical properties :
#
#
# Convention : Reuss Voigt Hill
#
# Bulk Modulus (GPa) = 45.54839 50.57403 48.06121
# Shear Modulus (GPa) = 25.36892 28.13596 26.75244
#
# Velocity S-wave (km/s) = 3.52628 3.71361 3.62116
# Velocity P-wave (km/s) = 6.23740 6.57091 6.40633
#
# Compressibility (1/GPa) = 0.02195467
#
# Stress axis : x y z
#
# Youngs Moduli (GPa) = 73.54016 58.45256 41.61839
#
# Poissons Ratio (x) = 0.28556 0.15763
# Poissons Ratio (y) = 0.35926 0.32115
# Poissons Ratio (z) = 0.27854 0.45106
#
# Static dielectric constant tensor:
#      x y z
#    x 4.041030 0.000000 0.049700 
#    y 0.000000 3.668560 0.000000 
#    z 0.049700 0.000000 3.569450 
# 
# 
# High freq. dielectric constant tensor:
#      x y z
#    x 1.815250 0.000000 -0.000510 
#    y 0.000000 1.789130 0.000000 
#    z -0.000510 0.000000 1.784450 
# 
# From -- ./inp_files/135915.got.cif
#   From: 2010.06.25/outbox.cif.g09.slc.cpg/sg12_68_cif.got.tgz:135915.got - 2010.06.28 00:19:55.
