data_PCOD8081846
_publ_section_title
;
Structure prediction by ZEFSAII (Michael W. Deem and Ramdas Pophale) SiO2 
 PCOD8081846
Probable space group: C 2/M
;
_chemical_formula_sum "Si O2"
_cell_formula_units_Z 40
_cell_length_a 18.646227
_cell_length_b 19.022860
_cell_length_c 9.550162
_cell_angle_alpha 90.000000
_cell_angle_beta 139.444538
_cell_angle_gamma 90.000000
_cell_volume 2202.488605
_symmetry_space_group_name_H-M "C 2/M"
_symmetry_group_IT_number 12
_symmetry_cell_setting 'monoclinic'
loop_
_space_group_symop_operation_xyz
x,y,z
-x,y,-z
-x,-y,-z
x,-y,z
1/2+x,1/2+y,z
1/2-x,1/2+y,-z
1/2-x,1/2-y,-z
1/2+x,1/2-y,z
loop_
_atom_site_type_symbol
_atom_site_label
_atom_site_fract_x
_atom_site_fract_y
_atom_site_fract_z
Si Si1 0.722976 0.163240 0.838447
Si Si2 0.371486 0.313499 0.307741
Si Si3 0.570517 0.080597 0.814033
Si Si4 0.750565 0.080724 0.310572
Si Si5 0.319889 0.082470 0.487210
O O1 0.695972 0.243119 0.757628
O O2 0.618537 0.128501 0.761805
O O3 0.750033 0.121517 0.736492
O O4 0.831693 0.158457 0.096868
O O5 0.500000 0.297703 0.500000
O O6 0.346943 0.371525 0.389527
O O7 0.447202 0.105517 0.664169
O O8 0.574537 0.000000 0.768169
O O9 0.638350 0.090492 0.057183
O O10 0.727093 0.106109 0.433019
O O11 0.790466 0.000000 0.365377
O O12 0.306403 0.000000 0.446397
#
# Coordination Sequence:
#
# PCOD8081846 Si02
#       5
#     8   8   8   8   8
#     4  10  20  33  52  77  99 124 164 205 241 291
#     4  10  21  37  53  69  96 133 167 201 243 291
#     4   9  16  29  51  77 105 133 157 192 248 301
#     4   9  19  33  49  73 102 133 168 200 239 292
#     4  10  18  30  51  78 105 128 157 204 250 287
#
# _framework density 18.161273999999999
#
# number of rings (size 3 to 8) (size 9 to 14) (size 15 to 20)
#    0.000    2.400    0.000    3.000    0.000    6.000 
#    0.000    1.000    0.000    2.400    0.000    0.000 
#    0.000    0.000    0.000    0.000    0.000    0.000 
#
# Total GULP energy -248060.109160 kJ/mol
# GULP energy per Si atom -12403.005458 kJ/mol
# Density = 1.811994 g / cm^3
# Si number density = 18.161274 Si / 1000 Ang^3
#
#
#
# Elastic Constant Matrix: (Units=GPa)
#
#
# Indices 1 2 3 4 5 6 
#
# 1 75.3769 38.4886 44.0054 0.0000 -25.8856 0.0000
# 2 38.4886 62.4112 26.2705 0.0000 -16.5810 0.0000
# 3 44.0054 26.2705 79.9232 0.0000 -14.2119 0.0000
# 4 0.0000 0.0000 0.0000 28.7556 0.0000 -6.2892
# 5 -25.8856 -16.5810 -14.2119 0.0000 35.5586 0.0000
# 6 0.0000 0.0000 0.0000 -6.2892 0.0000 12.2543
#
#
#
# Elastic Compliance Matrix: (Units=1/GPa)
#
#
# Indices 1 2 3 4 5 6 
#
# 1 0.028510 -0.010090 -0.010256 0.000000 0.011951 0.000000
# 2 -0.010090 0.023780 -0.001717 0.000000 0.003057 0.000000
# 3 -0.010256 -0.001717 0.018573 0.000000 -0.000844 0.000000
# 4 0.000000 0.000000 0.000000 0.039173 0.000000 0.020104
# 5 0.011951 0.003057 -0.000844 0.000000 0.037911 0.000000
# 6 0.000000 0.000000 0.000000 0.020104 0.000000 0.091922
#
#
# Mechanical properties :
#
#
# Convention : Reuss Voigt Hill
#
# Bulk Modulus (GPa) = 37.40122 48.36003 42.88062
# Shear Modulus (GPa) = 17.07012 22.57682 19.82347
#
# Velocity S-wave (km/s) = 3.06914 3.52963 3.30741
# Velocity P-wave (km/s) = 5.76178 6.58004 6.18446
#
# Compressibility (1/GPa) = 0.02673710
#
# Stress axis : x y z
#
# Youngs Moduli (GPa) = 35.07487 42.05149 53.84025
#
# Poissons Ratio (x) = 0.42431 0.55219
# Poissons Ratio (y) = 0.35391 0.09246
# Poissons Ratio (z) = 0.35973 0.07222
#
# Static dielectric constant tensor:
#      x y z
#    x 3.196390 0.000000 -0.222630 
#    y 0.000000 3.381880 0.000000 
#    z -0.222630 0.000000 3.367930 
# 
# 
# High freq. dielectric constant tensor:
#      x y z
#    x 1.683450 0.000000 -0.018960 
#    y 0.000000 1.705990 0.000000 
#    z -0.018960 0.000000 1.701340 
# 
# From -- ./inp_files/46930.got.cif
#   From: 2010.06.25/outbox.cif.g09.slc.cpg/sg12_24_cif.got.tgz:46930.got - 2010.06.28 00:19:55.
