data_PCOD8081378
_publ_section_title
;
Structure prediction by ZEFSAII (Michael W. Deem and Ramdas Pophale) SiO2 
 PCOD8081378
Probable space group: C 2/M
;
_chemical_formula_sum "Si O2"
_cell_formula_units_Z 44
_cell_length_a 14.673509
_cell_length_b 34.553402
_cell_length_c 13.785015
_cell_angle_alpha 90.000000
_cell_angle_beta 20.490198
_cell_angle_gamma 90.000000
_cell_volume 2446.575168
_symmetry_space_group_name_H-M "C 2/M"
_symmetry_group_IT_number 12
_symmetry_cell_setting 'monoclinic'
loop_
_space_group_symop_operation_xyz
x,y,z
-x,y,-z
-x,-y,-z
x,-y,z
1/2+x,1/2+y,z
1/2-x,1/2+y,-z
1/2-x,1/2-y,-z
1/2+x,1/2-y,z
loop_
_atom_site_type_symbol
_atom_site_label
_atom_site_fract_x
_atom_site_fract_y
_atom_site_fract_z
Si Si1 0.500000 0.336527 0.000000
Si Si2 0.150264 0.882927 0.017725
Si Si3 0.751978 0.197917 0.682827
Si Si4 0.256188 0.956866 0.807867
Si Si5 0.129808 0.345479 0.617865
Si Si6 0.848037 0.283022 0.551029
O O1 0.701074 0.363990 0.859249
O O2 0.410171 0.307868 0.174857
O O3 0.857906 0.871476 0.342511
O O4 0.196586 0.928735 0.958373
O O5 0.363861 0.869852 0.883349
O O6 0.709043 0.163924 0.648837
O O7 0.803160 0.237952 0.573455
O O8 0.000000 0.186584 0.500000
O O9 0.500000 0.203927 0.000000
O O10 0.500000 0.942321 0.500000
O O11 0.315945 0.000000 0.789107
O O12 0.000000 0.957486 0.000000
O O13 0.039017 0.305179 0.655275
O O14 0.000000 0.288032 0.500000
#
# Coordination Sequence:
#
# PCOD8081378 Si02
#       6
#     4   8   8   8   8   8
#     4  10  18  30  47  76 102 142 176 208 249 302
#     4  11  21  33  54  76 111 136 182 210 253 306
#     4  11  23  39  54  70 102 138 183 233 281 313
#     4  10  20  33  51  79 114 150 175 197 244 313
#     4  11  23  35  54  78 102 138 184 226 266 311
#     4  10  19  33  49  75 102 138 176 219 268 315
#
# _framework density 17.984324000000001
#
# number of rings (size 3 to 8) (size 9 to 14) (size 15 to 20)
#    0.000    1.455    3.636    2.727    2.545    0.000 
#    0.000    5.455    0.000    0.000    0.000    0.000 
#    0.000   14.545    0.000    0.000    0.000    0.000 
#
# Total GULP energy -272556.573449 kJ/mol
# GULP energy per Si atom -12388.935157 kJ/mol
# Density = 1.794339 g / cm^3
# Si number density = 17.984324 Si / 1000 Ang^3
#
#
#
# Elastic Constant Matrix: (Units=GPa)
#
#
# Indices 1 2 3 4 5 6 
#
# 1 69.1633 36.3667 15.2045 -0.0005 -16.3441 0.0000
# 2 36.3667 90.7306 15.5081 -0.0006 -4.6653 0.0008
# 3 15.2045 15.5081 73.1505 -0.0016 -18.5105 -0.0026
# 4 -0.0005 -0.0006 -0.0016 28.5836 0.0001 2.2530
# 5 -16.3441 -4.6653 -18.5105 0.0001 25.7083 -0.0002
# 6 0.0000 0.0008 -0.0026 2.2530 -0.0002 27.3662
#
#
#
# Elastic Compliance Matrix: (Units=1/GPa)
#
#
# Indices 1 2 3 4 5 6 
#
# 1 0.021579 -0.008073 0.000400 0.000000 0.012542 0.000000
# 2 -0.008073 0.014460 -0.002473 0.000000 -0.004289 -0.000001
# 3 0.000400 -0.002473 0.017195 0.000001 0.012186 0.000002
# 4 0.000000 0.000000 0.000001 0.035214 0.000000 -0.002899
# 5 0.012542 -0.004289 0.012186 0.000000 0.054868 0.000002
# 6 0.000000 -0.000001 0.000002 -0.002899 0.000002 0.036780
#
#
# Mechanical properties :
#
#
# Convention : Reuss Voigt Hill
#
# Bulk Modulus (GPa) = 30.35584 40.80034 35.57809
# Shear Modulus (GPa) = 23.65544 27.39595 25.52570
#
# Velocity S-wave (km/s) = 3.63069 3.90721 3.77149
# Velocity P-wave (km/s) = 5.87295 6.56437 6.22826
#
# Compressibility (1/GPa) = 0.03294259
#
# Stress axis : x y z
#
# Youngs Moduli (GPa) = 46.34088 69.15853 58.15540
#
# Poissons Ratio (x) = 0.55831 -0.02325
# Poissons Ratio (y) = 0.37410 0.14380
# Poissons Ratio (z) = -0.01853 0.17101
#
# Static dielectric constant tensor:
#      x y z
#    x 3.111700 0.000000 0.017270 
#    y 0.000000 3.459450 0.000010 
#    z 0.017270 0.000010 3.092170 
# 
# 
# High freq. dielectric constant tensor:
#      x y z
#    x 1.666390 0.000000 -0.020960 
#    y 0.000000 1.681910 0.000000 
#    z -0.020960 0.000000 1.698360 
# 
# From -- ./inp_files/219548.got.cif
#   From: 2010.06.25/outbox.cif.g09.slc.cpg/sg12_110_cif.got.tgz:219548.got - 2010.06.28 00:19:55.
