data_PCOD8081885
_publ_section_title
;
Structure prediction by ZEFSAII (Michael W. Deem and Ramdas Pophale) SiO2 
 PCOD8081885
Probable space group: C 2/M
;
_chemical_formula_sum "Si O2"
_cell_formula_units_Z 56
_cell_length_a 9.533671
_cell_length_b 26.016766
_cell_length_c 17.252781
_cell_angle_alpha 90.000000
_cell_angle_beta 38.673087
_cell_angle_gamma 90.000000
_cell_volume 2674.030941
_symmetry_space_group_name_H-M "C 2/M"
_symmetry_group_IT_number 12
_symmetry_cell_setting 'monoclinic'
loop_
_space_group_symop_operation_xyz
x,y,z
-x,y,-z
-x,-y,-z
x,-y,z
1/2+x,1/2+y,z
1/2-x,1/2+y,-z
1/2-x,1/2-y,-z
1/2+x,1/2-y,z
loop_
_atom_site_type_symbol
_atom_site_label
_atom_site_fract_x
_atom_site_fract_y
_atom_site_fract_z
Si Si1 0.672010 0.057606 0.752436
Si Si2 0.264701 0.374257 0.573606
Si Si3 0.150201 0.941426 0.607022
Si Si4 0.169121 0.404031 0.991618
Si Si5 0.204477 0.344359 0.191888
Si Si6 0.651855 0.442394 0.782011
Si Si7 0.345298 0.693368 0.964442
O O1 0.744405 0.076103 0.636784
O O2 0.466276 0.092837 0.869069
O O3 0.880547 0.062448 0.721616
O O4 0.584983 0.000000 0.784182
O O5 0.500000 0.347188 0.500000
O O6 0.252609 0.397309 0.491878
O O7 0.058693 0.333342 0.674990
O O8 0.231724 0.929189 0.659484
O O9 0.223291 0.000000 0.552081
O O10 0.242869 0.344428 0.943110
O O11 0.383200 0.440553 0.902589
O O12 0.000000 0.424690 0.000000
O O13 0.241326 0.403589 0.201860
O O14 0.265118 0.334673 0.076979
O O15 0.381973 0.307367 0.161438
O O16 0.728704 0.500000 0.770699
O O17 0.250000 0.750000 0.000000
#
# Coordination Sequence:
#
# PCOD8081885 Si02
#       7
#     8   8   8   8   8   8   8
#     4  10  18  30  51  84 126 168 212 253 290 352
#     4  10  20  36  59  87 125 170 208 252 289 347
#     4   9  18  32  51  82 124 180 225 240 275 344
#     4  11  20  33  57  89 118 161 210 258 323 372
#     4  10  22  41  61  96 121 155 209 242 307 378
#     4  10  21  35  54  89 136 173 203 249 301 363
#     4  10  23  43  65  89 118 148 196 264 327 382
#
# _framework density 20.942166
#
# number of rings (size 3 to 8) (size 9 to 14) (size 15 to 20)
#    0.000    2.000    2.857    0.857    2.000    4.000 
#    0.000    3.571    0.000    0.857    0.000    0.000 
#    0.000    0.000    0.000    0.000    0.000    0.000 
#
# Total GULP energy -346926.330340 kJ/mol
# GULP energy per Si atom -12390.226084 kJ/mol
# Density = 2.089450 g / cm^3
# Si number density = 20.942166 Si / 1000 Ang^3
#
#
#
# Elastic Constant Matrix: (Units=GPa)
#
#
# Indices 1 2 3 4 5 6 
#
# 1 72.9738 30.1342 30.5117 0.0000 -7.3184 0.0000
# 2 30.1342 90.2303 24.8392 0.0000 -7.0163 0.0000
# 3 30.5117 24.8392 110.2841 -0.0001 -16.5554 0.0000
# 4 0.0000 0.0000 -0.0001 13.0098 0.0000 -6.6560
# 5 -7.3184 -7.0163 -16.5554 0.0000 41.0012 0.0000
# 6 0.0000 0.0000 0.0000 -6.6560 0.0000 20.4130
#
#
#
# Elastic Compliance Matrix: (Units=1/GPa)
#
#
# Indices 1 2 3 4 5 6 
#
# 1 0.017226 -0.004703 -0.003583 0.000000 0.000823 0.000000
# 2 -0.004703 0.013138 -0.001540 0.000000 0.000787 0.000000
# 3 -0.003583 -0.001540 0.010933 0.000000 0.003511 0.000000
# 4 0.000000 0.000000 0.000000 0.092255 0.000000 0.030081
# 5 0.000823 0.000787 0.003511 0.000000 0.026089 0.000000
# 6 0.000000 0.000000 0.000000 0.030081 0.000000 0.058797
#
#
# Mechanical properties :
#
#
# Convention : Reuss Voigt Hill
#
# Bulk Modulus (GPa) = 46.19796 49.38426 47.79111
# Shear Modulus (GPa) = 20.38276 27.41833 23.90054
#
# Velocity S-wave (km/s) = 3.12314 3.62227 3.38193
# Velocity P-wave (km/s) = 5.92562 6.41302 6.17414
#
# Compressibility (1/GPa) = 0.02164598
#
# Stress axis : x y z
#
# Youngs Moduli (GPa) = 58.05101 76.11266 91.46814
#
# Poissons Ratio (x) = 0.35793 0.32774
# Poissons Ratio (y) = 0.27299 0.14086
# Poissons Ratio (z) = 0.20800 0.11721
#
# Static dielectric constant tensor:
#      x y z
#    x 3.936460 0.000000 -0.289720 
#    y 0.000000 3.294260 0.000000 
#    z -0.289720 0.000000 4.013260 
# 
# 
# High freq. dielectric constant tensor:
#      x y z
#    x 1.830960 0.000000 -0.013540 
#    y 0.000000 1.766470 0.000000 
#    z -0.013540 0.000000 1.823860 
# 
# From -- ./inp_files/260095.got.cif
#   From: 2010.06.25/outbox.cif.g09.slc.cpg/sg12_131_cif.got.tgz:260095.got - 2010.06.28 00:19:55.
