data_PCOD8081084
_publ_section_title
;
Structure prediction by ZEFSAII (Michael W. Deem and Ramdas Pophale) SiO2 
 PCOD8081084
Probable space group: C 2/M
;
_chemical_formula_sum "Si O2"
_cell_formula_units_Z 56
_cell_length_a 19.220644
_cell_length_b 8.908003
_cell_length_c 30.996193
_cell_angle_alpha 90.000000
_cell_angle_beta 145.069191
_cell_angle_gamma 90.000000
_cell_volume 3038.771041
_symmetry_space_group_name_H-M "C 2/M"
_symmetry_group_IT_number 12
_symmetry_cell_setting 'monoclinic'
loop_
_space_group_symop_operation_xyz
x,y,z
-x,y,-z
-x,-y,-z
x,-y,z
1/2+x,1/2+y,z
1/2-x,1/2+y,-z
1/2-x,1/2-y,-z
1/2+x,1/2-y,z
loop_
_atom_site_type_symbol
_atom_site_label
_atom_site_fract_x
_atom_site_fract_y
_atom_site_fract_z
Si Si1 0.615770 0.324209 0.693927
Si Si2 0.844183 0.825484 0.189079
Si Si3 0.073221 0.172943 0.900871
Si Si4 0.095019 0.674278 0.300283
Si Si5 0.362928 0.825318 0.580198
Si Si6 0.188636 0.175526 0.265556
Si Si7 0.266460 0.327205 0.940293
O O1 0.599687 0.500000 0.678324
O O2 0.677107 0.288971 0.771535
O O3 0.484534 0.249377 0.623916
O O4 0.699064 0.257214 0.699314
O O5 0.729762 0.768188 0.102393
O O6 0.959548 0.737811 0.229088
O O7 0.867399 0.000000 0.193348
O O8 0.150287 0.280319 0.909476
O O9 0.931929 0.211584 0.823468
O O10 0.100660 0.000000 0.902115
O O11 0.110804 0.202542 0.969855
O O12 0.091523 0.500000 0.286301
O O13 0.151106 0.701921 0.375911
O O14 0.178397 0.762132 0.308749
O O15 0.250000 0.750000 0.500000
O O16 0.367397 0.000000 0.571126
O O17 0.215696 0.000000 0.281273
O O18 0.253640 0.500000 0.921128
#
# Coordination Sequence:
#
# PCOD8081084 Si02
#       7
#     8   8   8   8   8   8   8
#     4  10  22  38  57  80 111 147 182 223 272 323
#     4  10  19  33  52  76 105 141 185 231 274 321
#     4   9  19  32  47  73 107 142 181 228 280 325
#     4  10  20  34  56  84 110 141 181 221 263 319
#     4  10  21  39  63  89 115 142 176 217 263 319
#     4  11  21  35  55  80 112 146 182 226 275 326
#     4  10  18  29  49  75 103 139 184 233 279 323
#
# _framework density 18.428502999999999
#
# number of rings (size 3 to 8) (size 9 to 14) (size 15 to 20)
#    0.000    2.000    1.429    2.571    0.000    4.571 
#    0.000    1.429    0.000    8.571    0.000    0.000 
#    0.000    0.000    0.000    0.000    0.000    0.000 
#
# Total GULP energy -347244.696280 kJ/mol
# GULP energy per Si atom -12401.596296 kJ/mol
# Density = 1.838656 g / cm^3
# Si number density = 18.428503 Si / 1000 Ang^3
#
#
#
# Elastic Constant Matrix: (Units=GPa)
#
#
# Indices 1 2 3 4 5 6 
#
# 1 107.0669 48.1503 41.6822 0.0000 2.5255 0.0000
# 2 48.1503 97.8211 53.7572 0.0000 0.7526 -0.0002
# 3 41.6822 53.7572 102.1790 0.0000 -2.6789 0.0000
# 4 0.0000 0.0000 0.0000 32.8483 0.0000 -2.3552
# 5 2.5255 0.7526 -2.6789 0.0000 20.0264 0.0000
# 6 0.0000 -0.0002 0.0000 -2.3552 0.0000 30.1923
#
#
#
# Elastic Compliance Matrix: (Units=1/GPa)
#
#
# Indices 1 2 3 4 5 6 
#
# 1 0.012534 -0.004671 -0.002702 0.000000 -0.001767 0.000000
# 2 -0.004671 0.016170 -0.006625 0.000000 -0.000905 0.000000
# 3 -0.002702 -0.006625 0.014441 0.000000 0.002521 0.000000
# 4 0.000000 0.000000 0.000000 0.030614 0.000000 0.002388
# 5 -0.001767 -0.000905 0.002521 0.000000 0.050528 0.000000
# 6 0.000000 0.000000 0.000000 0.002388 0.000000 0.033307
#
#
# Mechanical properties :
#
#
# Convention : Reuss Voigt Hill
#
# Bulk Modulus (GPa) = 66.01546 66.02738 66.02142
# Shear Modulus (GPa) = 26.22734 27.51188 26.86961
#
# Velocity S-wave (km/s) = 3.77662 3.86800 3.82258
# Velocity P-wave (km/s) = 7.41062 7.47364 7.44220
#
# Compressibility (1/GPa) = 0.01514797
#
# Stress axis : x y z
#
# Youngs Moduli (GPa) = 79.78120 61.84303 69.24905
#
# Poissons Ratio (x) = 0.28889 0.18710
# Poissons Ratio (y) = 0.37269 0.45879
# Poissons Ratio (z) = 0.21556 0.40973
#
# Static dielectric constant tensor:
#      x y z
#    x 3.205210 0.000000 -0.248700 
#    y 0.000000 3.526140 0.000000 
#    z -0.248700 0.000000 3.490480 
# 
# 
# High freq. dielectric constant tensor:
#      x y z
#    x 1.692640 0.000000 -0.018400 
#    y 0.000000 1.731810 0.000000 
#    z -0.018400 0.000000 1.711580 
# 
# From -- ./inp_files/313296.got.cif
#   From: 2010.06.25/outbox.cif.g09.slc.cpg/sg12_157_cif.got.tgz:313296.got - 2010.06.28 00:19:55.
