data_PCOD8081556
_publ_section_title
;
Structure prediction by ZEFSAII (Michael W. Deem and Ramdas Pophale) SiO2 
 PCOD8081556
Probable space group: C 2/M
;
_chemical_formula_sum "Si O2"
_cell_formula_units_Z 48
_cell_length_a 30.529284
_cell_length_b 9.011436
_cell_length_c 9.830421
_cell_angle_alpha 90.000000
_cell_angle_beta 92.440079
_cell_angle_gamma 90.000000
_cell_volume 2702.021390
_symmetry_space_group_name_H-M "C 2/M"
_symmetry_group_IT_number 12
_symmetry_cell_setting 'monoclinic'
loop_
_space_group_symop_operation_xyz
x,y,z
-x,y,-z
-x,-y,-z
x,-y,z
1/2+x,1/2+y,z
1/2-x,1/2+y,-z
1/2-x,1/2-y,-z
1/2+x,1/2-y,z
loop_
_atom_site_type_symbol
_atom_site_label
_atom_site_fract_x
_atom_site_fract_y
_atom_site_fract_z
Si Si1 0.109180 0.823799 0.889240
Si Si2 0.713334 0.335084 0.169618
Si Si3 0.625671 0.823277 0.175832
Si Si4 0.295978 0.335879 0.153893
Si Si5 0.945520 0.324908 0.620616
Si Si6 0.956761 0.675870 0.319255
O O1 0.154183 0.780229 0.815423
O O2 0.068360 0.766563 0.798718
O O3 0.107051 0.000000 0.911442
O O4 0.107836 0.745713 0.034696
O O5 0.708569 0.500000 0.230248
O O6 0.674253 0.232693 0.220792
O O7 0.760627 0.270540 0.221823
O O8 0.711583 0.339899 0.007782
O O9 0.593528 0.764844 0.290384
O O10 0.626246 0.000000 0.162623
O O11 0.289329 0.500000 0.214122
O O12 0.945673 0.500000 0.619293
O O13 0.938798 0.272016 0.464364
O O14 0.992536 0.274455 0.685771
O O15 0.950586 0.500000 0.295593
#
# Coordination Sequence:
#
# PCOD8081556 Si02
#       6
#     8   8   8   8   8   8
#     4  10  20  32  46  72 103 126 155 196 239 280
#     4   9  16  26  42  67  96 122 153 194 236 277
#     4  10  18  30  49  72  97 127 160 193 235 282
#     4   8  15  27  42  61  91 127 157 187 227 278
#     4   8  17  33  53  73  92 121 163 201 232 280
#     4   9  17  34  55  71  91 123 162 200 237 279
#
# _framework density 17.764479000000001
#
# number of rings (size 3 to 8) (size 9 to 14) (size 15 to 20)
#    0.000    3.000    0.000    3.500    0.000    5.333 
#    0.000    8.333    0.000    1.000    0.000    0.000 
#    0.000    0.000    0.000    0.000    0.000    0.000 
#
# Total GULP energy -297471.985255 kJ/mol
# GULP energy per Si atom -12394.666052 kJ/mol
# Density = 1.772405 g / cm^3
# Si number density = 17.764479 Si / 1000 Ang^3
#
#
#
# Elastic Constant Matrix: (Units=GPa)
#
#
# Indices 1 2 3 4 5 6 
#
# 1 86.6530 33.5859 30.4002 0.0000 -31.2743 0.0000
# 2 33.5859 75.3413 23.4887 0.0000 -13.7153 0.0000
# 3 30.4002 23.4887 42.3699 0.0000 -21.5113 0.0000
# 4 0.0000 0.0000 0.0000 6.7512 0.0000 0.3734
# 5 -31.2743 -13.7153 -21.5113 0.0000 19.1575 0.0000
# 6 0.0000 0.0000 0.0000 0.3734 0.0000 28.4733
#
#
#
# Elastic Compliance Matrix: (Units=1/GPa)
#
#
# Indices 1 2 3 4 5 6 
#
# 1 0.031721 -0.006807 0.011236 0.000000 0.059528 0.000000
# 2 -0.006807 0.017608 -0.009581 0.000000 -0.009265 0.000000
# 3 0.011236 -0.009581 0.062062 0.000000 0.081172 0.000000
# 4 0.000000 0.000000 0.000000 0.148230 0.000000 -0.001944
# 5 0.059528 -0.009265 0.081172 0.000000 0.233889 0.000000
# 6 0.000000 0.000000 0.000000 -0.001944 0.000000 0.035146
#
#
# Mechanical properties :
#
#
# Convention : Reuss Voigt Hill
#
# Bulk Modulus (GPa) = 9.89242 42.14596 26.01919
# Shear Modulus (GPa) = 8.73126 18.66902 13.70014
#
# Velocity S-wave (km/s) = 2.21939 3.24530 2.78008
# Velocity P-wave (km/s) = 3.48544 6.14972 4.99837
#
# Compressibility (1/GPa) = 0.10108746
#
# Stress axis : x y z
#
# Youngs Moduli (GPa) = 31.52491 56.79276 16.11287
#
# Poissons Ratio (x) = 0.38660 -0.18105
# Poissons Ratio (y) = 0.21460 0.15438
# Poissons Ratio (z) = -0.35423 0.54413
#
# Static dielectric constant tensor:
#      x y z
#    x 3.721080 0.000000 -0.244320 
#    y 0.000000 3.238120 0.000000 
#    z -0.244320 0.000000 3.096500 
# 
# 
# High freq. dielectric constant tensor:
#      x y z
#    x 1.700950 0.000000 -0.005160 
#    y 0.000000 1.679540 0.000000 
#    z -0.005160 0.000000 1.643120 
# 
# From -- ./inp_files/185507.got.cif
#   From: 2010.06.25/outbox.cif.g09.slc.cpg/sg12_93_cif.got.tgz:185507.got - 2010.06.28 00:19:55.
