data_PCOD8081026
_publ_section_title
;
Structure prediction by ZEFSAII (Michael W. Deem and Ramdas Pophale) SiO2 
 PCOD8081026
Probable space group: C 2/M
;
_chemical_formula_sum "Si O2"
_cell_formula_units_Z 48
_cell_length_a 14.498120
_cell_length_b 15.505030
_cell_length_c 20.652933
_cell_angle_alpha 90.000000
_cell_angle_beta 38.630856
_cell_angle_gamma 90.000000
_cell_volume 2898.408803
_symmetry_space_group_name_H-M "C 2/M"
_symmetry_group_IT_number 12
_symmetry_cell_setting 'monoclinic'
loop_
_space_group_symop_operation_xyz
x,y,z
-x,y,-z
-x,-y,-z
x,-y,z
1/2+x,1/2+y,z
1/2-x,1/2+y,-z
1/2-x,1/2-y,-z
1/2+x,1/2-y,z
loop_
_atom_site_type_symbol
_atom_site_label
_atom_site_fract_x
_atom_site_fract_y
_atom_site_fract_z
Si Si1 0.408306 0.399318 0.490987
Si Si2 0.396275 0.902873 0.283283
Si Si3 0.045926 0.899786 0.283478
Si Si4 0.576043 0.751145 0.020105
Si Si5 0.868478 0.594452 0.152460
Si Si6 0.421938 0.264160 0.835001
O O1 0.500000 0.355962 0.500000
O O2 0.446113 0.500000 0.469836
O O3 0.233746 0.381993 0.594535
O O4 0.459928 0.362778 0.393326
O O5 0.323293 0.899240 0.252522
O O6 0.521768 0.830022 0.218632
O O7 0.461397 0.000000 0.260444
O O8 0.220329 0.884914 0.194993
O O9 0.998316 0.839925 0.249179
O O10 0.007446 0.000000 0.290417
O O11 0.503121 0.845300 0.059032
O O12 0.543528 0.711042 0.108889
O O13 0.500000 0.700436 0.000000
O O14 0.749054 0.760180 0.915212
O O15 0.928578 0.500000 0.103070
#
# Coordination Sequence:
#
# PCOD8081026 Si02
#       6
#     8   8   8   8   8   8
#     4   9  15  26  48  77 104 126 151 194 255 306
#     4   9  17  31  49  71 100 130 162 198 239 292
#     4  10  18  29  48  76 104 126 155 197 248 299
#     4  10  19  33  48  67  96 131 164 207 244 289
#     4   9  16  27  48  75  97 123 154 197 257 304
#     4  10  21  32  48  73  99 132 164 202 249 291
#
# _framework density 16.56081
#
# number of rings (size 3 to 8) (size 9 to 14) (size 15 to 20)
#    0.000    2.500    3.333    0.000    0.000    1.667 
#    0.000    2.500    0.000    2.000    0.000    0.000 
#    0.000    5.333    0.000    0.000    0.000    0.000 
#
# Total GULP energy -297369.471644 kJ/mol
# GULP energy per Si atom -12390.394652 kJ/mol
# Density = 1.652312 g / cm^3
# Si number density = 16.560810 Si / 1000 Ang^3
#
#
#
# Elastic Constant Matrix: (Units=GPa)
#
#
# Indices 1 2 3 4 5 6 
#
# 1 80.4328 27.8058 46.1745 -0.0001 21.5206 0.0000
# 2 27.8058 67.4950 45.8920 -0.0001 11.3298 0.0000
# 3 46.1745 45.8920 104.4583 -0.0004 15.7939 0.0003
# 4 -0.0001 -0.0001 -0.0004 22.8301 0.0002 2.8468
# 5 21.5206 11.3298 15.7939 0.0002 27.1330 -0.0001
# 6 0.0000 0.0000 0.0003 2.8468 -0.0001 22.3581
#
#
#
# Elastic Compliance Matrix: (Units=1/GPa)
#
#
# Indices 1 2 3 4 5 6 
#
# 1 0.019625 -0.002082 -0.006073 0.000000 -0.011161 0.000000
# 2 -0.002082 0.021701 -0.008216 0.000000 -0.002627 0.000000
# 3 -0.006073 -0.008216 0.016031 0.000000 -0.001084 0.000000
# 4 0.000000 0.000000 0.000000 0.044508 -0.000001 -0.005667
# 5 -0.011161 -0.002627 -0.001084 -0.000001 0.047436 0.000000
# 6 0.000000 0.000000 0.000000 -0.005667 0.000000 0.045448
#
#
# Mechanical properties :
#
#
# Convention : Reuss Voigt Hill
#
# Bulk Modulus (GPa) = 40.62575 54.68117 47.65346
# Shear Modulus (GPa) = 21.21354 23.29849 22.25601
#
# Velocity S-wave (km/s) = 3.58292 3.75486 3.66990
# Velocity P-wave (km/s) = 6.45762 7.20338 6.84067
#
# Compressibility (1/GPa) = 0.02461493
#
# Stress axis : x y z
#
# Youngs Moduli (GPa) = 50.95518 46.07995 62.37845
#
# Poissons Ratio (x) = 0.09596 0.37880
# Poissons Ratio (y) = 0.10611 0.51253
# Poissons Ratio (z) = 0.30943 0.37861
#
# Static dielectric constant tensor:
#      x y z
#    x 3.156970 0.000000 0.312370 
#    y 0.000000 2.894150 0.000000 
#    z 0.312370 0.000000 3.255490 
# 
# 
# High freq. dielectric constant tensor:
#      x y z
#    x 1.615210 0.000000 0.015730 
#    y 0.000000 1.601980 0.000000 
#    z 0.015730 0.000000 1.657510 
# 
# From -- ./inp_files/142867.got.cif
#   From: 2010.06.25/outbox.cif.g09.slc.cpg/sg12_72_cif.got.tgz:142867.got - 2010.06.28 00:19:55.
