data_PCOD8081677
_publ_section_title
;
Structure prediction by ZEFSAII (Michael W. Deem and Ramdas Pophale) SiO2 
 PCOD8081677
Probable space group: C 2/M
;
_chemical_formula_sum "Si O2"
_cell_formula_units_Z 40
_cell_length_a 12.613278
_cell_length_b 16.780242
_cell_length_c 29.284272
_cell_angle_alpha 90.000000
_cell_angle_beta 159.636831
_cell_angle_gamma 90.000000
_cell_volume 2156.759705
_symmetry_space_group_name_H-M "C 2/M"
_symmetry_group_IT_number 12
_symmetry_cell_setting 'monoclinic'
loop_
_space_group_symop_operation_xyz
x,y,z
-x,y,-z
-x,-y,-z
x,-y,z
1/2+x,1/2+y,z
1/2-x,1/2+y,-z
1/2-x,1/2-y,-z
1/2+x,1/2-y,z
loop_
_atom_site_type_symbol
_atom_site_label
_atom_site_fract_x
_atom_site_fract_y
_atom_site_fract_z
Si Si1 0.716636 0.411053 0.852402
Si Si2 0.860518 0.092479 0.791462
Si Si3 0.110206 0.337271 0.940541
Si Si4 0.840245 0.595237 0.644194
Si Si5 0.643344 0.907404 0.859760
O O1 0.633534 0.500000 0.799748
O O2 0.445740 0.373514 0.775190
O O3 0.801775 0.349619 0.846156
O O4 0.000000 0.420872 0.000000
O O5 0.551265 0.129592 0.688067
O O6 0.811200 0.000000 0.764265
O O7 0.132188 0.102310 0.937742
O O8 0.015706 0.357224 0.850757
O O9 0.250000 0.250000 0.000000
O O10 0.500000 0.628513 0.500000
O O11 0.847889 0.500000 0.646376
O O12 0.973662 0.625180 0.746268
O O13 0.572702 0.000000 0.839292
O O14 0.000000 0.890837 0.000000
#
# Coordination Sequence:
#
# PCOD8081677 Si02
#       5
#     8   8   8   8   8
#     4   8  15  28  46  65  91 129 165 197 240 294
#     4   9  16  31  50  69  96 129 166 204 247 295
#     4  11  20  28  44  73 105 130 161 206 249 298
#     4   9  17  30  52  79 101 126 165 209 254 303
#     4  10  18  30  50  74 101 129 160 207 259 299
#
# _framework density 18.546340000000001
#
# number of rings (size 3 to 8) (size 9 to 14) (size 15 to 20)
#    0.000    2.600    2.000    3.000    0.000    2.400 
#    0.000    0.000    0.000    2.400    0.000    7.000 
#    0.000    0.000    0.000    0.000    0.000    0.800 
#
# Total GULP energy -247798.089349 kJ/mol
# GULP energy per Si atom -12389.904467 kJ/mol
# Density = 1.850413 g / cm^3
# Si number density = 18.546340 Si / 1000 Ang^3
#
#
#
# Elastic Constant Matrix: (Units=GPa)
#
#
# Indices 1 2 3 4 5 6 
#
# 1 197.3362 53.9079 72.2363 0.0043 30.6008 0.0041
# 2 53.9079 41.0387 12.0352 0.0051 2.7585 -0.0054
# 3 72.2363 12.0352 95.8402 0.0652 11.2105 0.0085
# 4 0.0043 0.0051 0.0652 7.0447 -0.0066 -0.9263
# 5 30.6008 2.7585 11.2105 -0.0066 29.3663 -0.0078
# 6 0.0041 -0.0054 0.0085 -0.9263 -0.0078 8.7201
#
#
#
# Elastic Compliance Matrix: (Units=1/GPa)
#
#
# Indices 1 2 3 4 5 6 
#
# 1 0.013012 -0.014432 -0.006875 0.000056 -0.009579 -0.000011
# 2 -0.014432 0.041349 0.004586 -0.000051 0.009405 0.000031
# 3 -0.006875 0.004586 0.014918 -0.000139 0.001038 -0.000022
# 4 0.000056 -0.000051 -0.000139 0.143963 0.000036 0.015293
# 5 -0.009579 0.009405 0.001038 0.000036 0.042755 0.000051
# 6 -0.000011 0.000031 -0.000022 0.015293 0.000051 0.116302
#
#
# Mechanical properties :
#
#
# Convention : Reuss Voigt Hill
#
# Bulk Modulus (GPa) = 27.90482 67.84155 47.87319
# Shear Modulus (GPa) = 11.97067 22.09527 17.03297
#
# Velocity S-wave (km/s) = 2.54332 3.45535 3.03380
# Velocity P-wave (km/s) = 4.86860 7.25108 6.17582
#
# Compressibility (1/GPa) = 0.03583610
#
# Stress axis : x y z
#
# Youngs Moduli (GPa) = 76.85209 24.18460 67.03135
#
# Poissons Ratio (x) = 0.34904 0.46081
# Poissons Ratio (y) = 1.10917 -0.30738
# Poissons Ratio (z) = 0.52833 -0.11090
#
# Static dielectric constant tensor:
#      x y z
#    x 4.247040 0.000040 0.448090 
#    y 0.000040 3.017800 -0.000060 
#    z 0.448090 -0.000060 3.279610 
# 
# 
# High freq. dielectric constant tensor:
#      x y z
#    x 1.740330 0.000000 0.025180 
#    y 0.000000 1.679610 -0.000010 
#    z 0.025180 -0.000010 1.665560 
# 
# From -- ./inp_files/88228.got.cif
#   From: 2010.06.25/outbox.cif.g09.slc.cpg/sg12_45_cif.got.tgz:88228.got - 2010.06.28 00:19:55.
