data_PCOD8081807
_publ_section_title
;
Structure prediction by ZEFSAII (Michael W. Deem and Ramdas Pophale) SiO2 
 PCOD8081807
Probable space group: C 2/M
;
_chemical_formula_sum "Si O2"
_cell_formula_units_Z 64
_cell_length_a 18.935779
_cell_length_b 9.081340
_cell_length_c 20.817614
_cell_angle_alpha 90.000000
_cell_angle_beta 81.417294
_cell_angle_gamma 90.000000
_cell_volume 3539.754704
_symmetry_space_group_name_H-M "C 2/M"
_symmetry_group_IT_number 12
_symmetry_cell_setting 'monoclinic'
loop_
_space_group_symop_operation_xyz
x,y,z
-x,y,-z
-x,-y,-z
x,-y,z
1/2+x,1/2+y,z
1/2-x,1/2+y,-z
1/2-x,1/2-y,-z
1/2+x,1/2-y,z
loop_
_atom_site_type_symbol
_atom_site_label
_atom_site_fract_x
_atom_site_fract_y
_atom_site_fract_z
Si Si1 0.442117 0.174820 0.367594
Si Si2 0.591719 0.824634 0.401098
Si Si3 0.447803 0.176071 0.220703
Si Si4 0.826817 0.326146 0.483359
Si Si5 0.684491 0.673925 0.818350
Si Si6 0.097058 0.334497 0.161075
Si Si7 0.815324 0.334598 0.723554
Si Si8 0.729434 0.826404 0.068204
O O1 0.512119 0.236430 0.396151
O O2 0.440414 0.235506 0.294841
O O3 0.368644 0.224010 0.413055
O O4 0.446394 0.000000 0.367093
O O5 0.619194 0.777272 0.467207
O O6 0.649088 0.755238 0.342740
O O7 0.589808 0.000000 0.393855
O O8 0.386803 0.236809 0.183341
O O9 0.519518 0.241074 0.177200
O O10 0.447917 0.000000 0.221191
O O11 0.813248 0.500000 0.486894
O O12 0.750000 0.250000 0.500000
O O13 0.673201 0.500000 0.810478
O O14 0.742212 0.738498 0.759166
O O15 0.710426 0.707561 0.886940
O O16 0.086660 0.500000 0.137983
O O17 0.126713 0.334534 0.228630
O O18 0.153286 0.259985 0.103922
O O19 0.795600 0.500000 0.706416
O O20 0.723013 0.000000 0.058282
O O21 0.750000 0.750000 0.000000
#
# Coordination Sequence:
#
# PCOD8081807 Si02
#       8
#     8   8   8   8   8   8   8   8
#     4   9  17  30  48  72  98 124 164 214 250 280
#     4   9  15  27  49  71  91 122 167 207 241 284
#     4  10  18  30  51  75  99 128 161 204 252 287
#     4  10  21  33  47  71 100 129 163 206 253 299
#     4   9  19  32  48  73 105 131 157 196 241 290
#     4   8  14  28  49  73  97 122 160 203 237 274
#     4   8  13  25  46  70  91 120 162 202 235 276
#     4   9  18  34  55  76  99 130 165 200 236 281
#
# _framework density 18.080349999999999
#
# number of rings (size 3 to 8) (size 9 to 14) (size 15 to 20)
#    0.000    3.000    1.250    1.875    1.750    2.000 
#    0.000    1.250    0.000    6.750    0.000    0.000 
#    0.000    0.000    0.000    0.000    0.000    0.000 
#
# Total GULP energy -396442.335920 kJ/mol
# GULP energy per Si atom -12388.822998 kJ/mol
# Density = 1.803920 g / cm^3
# Si number density = 18.080350 Si / 1000 Ang^3
#
#
#
# Elastic Constant Matrix: (Units=GPa)
#
#
# Indices 1 2 3 4 5 6 
#
# 1 158.2501 29.2977 74.8232 0.0000 -11.0890 0.0000
# 2 29.2977 15.9738 26.9410 0.0000 -1.8902 0.0000
# 3 74.8232 26.9410 127.5231 0.0000 -20.9478 0.0000
# 4 0.0000 0.0000 0.0000 17.4023 0.0000 1.6971
# 5 -11.0890 -1.8902 -20.9478 0.0000 26.7218 0.0000
# 6 0.0000 0.0000 0.0000 1.6971 0.0000 24.9212
#
#
#
# Elastic Compliance Matrix: (Units=1/GPa)
#
#
# Indices 1 2 3 4 5 6 
#
# 1 0.010368 -0.013843 -0.002999 0.000000 0.000972 0.000000
# 2 -0.013843 0.118422 -0.018897 0.000000 -0.012182 0.000000
# 3 -0.002999 -0.018897 0.015116 0.000000 0.009269 0.000000
# 4 0.000000 0.000000 0.000000 0.057848 0.000000 -0.003939
# 5 0.000972 -0.012182 0.009269 0.000000 0.044230 0.000000
# 6 0.000000 0.000000 0.000000 -0.003939 0.000000 0.040395
#
#
# Mechanical properties :
#
#
# Convention : Reuss Voigt Hill
#
# Bulk Modulus (GPa) = 13.80678 62.65232 38.22955
# Shear Modulus (GPa) = 13.08896 25.18804 19.13850
#
# Velocity S-wave (km/s) = 2.69352 3.73650 3.25703
# Velocity P-wave (km/s) = 4.16249 7.30360 5.94428
#
# Compressibility (1/GPa) = 0.07242817
#
# Stress axis : x y z
#
# Youngs Moduli (GPa) = 96.44940 8.44435 66.15369
#
# Poissons Ratio (x) = 0.11689 0.19841
# Poissons Ratio (y) = 1.33514 1.25012
# Poissons Ratio (z) = 0.28927 0.15957
#
# Static dielectric constant tensor:
#      x y z
#    x 3.610220 0.000000 -0.281030 
#    y 0.000000 2.733850 0.000000 
#    z -0.281030 0.000000 3.460000 
# 
# 
# High freq. dielectric constant tensor:
#      x y z
#    x 1.713700 0.000000 -0.013480 
#    y 0.000000 1.632970 0.000000 
#    z -0.013480 0.000000 1.700250 
# 
# From -- ./inp_files/314015.got.cif
#   From: 2010.06.25/outbox.cif.g09.slc.cpg/sg12_158_cif.got.tgz:314015.got - 2010.06.28 00:19:55.
