data_PCOD8081578
_publ_section_title
;
Structure prediction by ZEFSAII (Michael W. Deem and Ramdas Pophale) SiO2 
 PCOD8081578
Probable space group: C 2/M
;
_chemical_formula_sum "Si O2"
_cell_formula_units_Z 64
_cell_length_a 32.840965
_cell_length_b 8.949818
_cell_length_c 25.414752
_cell_angle_alpha 90.000000
_cell_angle_beta 26.808020
_cell_angle_gamma 90.000000
_cell_volume 3368.952722
_symmetry_space_group_name_H-M "C 2/M"
_symmetry_group_IT_number 12
_symmetry_cell_setting 'monoclinic'
loop_
_space_group_symop_operation_xyz
x,y,z
-x,y,-z
-x,-y,-z
x,-y,z
1/2+x,1/2+y,z
1/2-x,1/2+y,-z
1/2-x,1/2-y,-z
1/2+x,1/2-y,z
loop_
_atom_site_type_symbol
_atom_site_label
_atom_site_fract_x
_atom_site_fract_y
_atom_site_fract_z
Si Si1 0.505830 0.838210 0.234168
Si Si2 0.673268 0.164126 0.616835
Si Si3 0.952908 0.828634 0.607973
Si Si4 0.762886 0.171118 0.782147
Si Si5 0.573293 0.822187 0.047018
Si Si6 0.734947 0.176819 0.330028
Si Si7 0.048579 0.677890 0.592689
Si Si8 0.405991 0.675517 0.195769
O O1 0.403127 0.864847 0.337347
O O2 0.556146 0.756646 0.126444
O O3 0.497452 0.753371 0.300523
O O4 0.553493 0.000000 0.187548
O O5 0.750000 0.250000 0.500000
O O6 0.642314 0.282543 0.695161
O O7 0.702146 0.000000 0.606405
O O8 0.845171 0.809334 0.727651
O O9 0.000000 0.774461 0.500000
O O10 0.985556 0.725850 0.617478
O O11 0.979865 0.000000 0.588458
O O12 0.783141 0.266145 0.707383
O O13 0.751819 0.000000 0.777204
O O14 0.672846 0.227034 0.915292
O O15 0.503461 0.757629 0.083648
O O16 0.557894 0.000000 0.066397
O O17 0.652292 0.233875 0.462920
O O18 0.835054 0.231046 0.232809
O O19 0.732900 0.000000 0.331845
O O20 0.048079 0.500000 0.598080
O O21 0.424001 0.500000 0.170574
#
# Coordination Sequence:
#
# PCOD8081578 Si02
#       8
#     8   8   8   8   8   8   8   8
#     4   8  16  32  52  73 101 136 173 214 259 308
#     4  10  18  30  49  73 105 144 184 224 266 314
#     4  10  20  36  55  78 108 136 167 215 273 320
#     4  10  21  37  57  77 102 139 179 220 266 323
#     4   9  19  37  57  76 102 142 185 218 258 315
#     4  10  21  34  51  78 110 140 174 219 271 320
#     4  10  19  33  55  80 105 135 172 214 260 317
#     4  10  20  34  51  75 108 143 179 222 268 314
#
# _framework density 18.997002999999999
#
# number of rings (size 3 to 8) (size 9 to 14) (size 15 to 20)
#    0.000    2.375    1.250    2.250    0.000    4.750 
#    0.000    7.500    0.000    0.000    0.000    0.000 
#    0.000    0.000    0.000    0.000    0.000    0.000 
#
# Total GULP energy -396426.248682 kJ/mol
# GULP energy per Si atom -12388.320271 kJ/mol
# Density = 1.895376 g / cm^3
# Si number density = 18.997003 Si / 1000 Ang^3
#
#
#
# Elastic Constant Matrix: (Units=GPa)
#
#
# Indices 1 2 3 4 5 6 
#
# 1 85.6122 17.8627 30.7333 0.0092 4.4726 0.0002
# 2 17.8627 18.6871 14.6032 0.0613 -4.1536 0.0001
# 3 30.7333 14.6032 99.6918 0.0615 -11.2646 -0.0043
# 4 0.0092 0.0613 0.0615 20.4022 0.0047 -3.0152
# 5 4.4726 -4.1536 -11.2646 0.0047 24.9382 -0.0062
# 6 0.0002 0.0001 -0.0043 -3.0152 -0.0062 26.8230
#
#
#
# Elastic Compliance Matrix: (Units=1/GPa)
#
#
# Indices 1 2 3 4 5 6 
#
# 1 0.016371 -0.014278 -0.003747 0.000049 -0.007007 0.000003
# 2 -0.014278 0.073866 -0.004994 -0.000207 0.012608 -0.000021
# 3 -0.003747 -0.004994 0.012540 -0.000022 0.005504 0.000001
# 4 0.000049 -0.000207 -0.000022 0.049843 -0.000061 0.005603
# 5 -0.007007 0.012608 0.005504 -0.000061 0.045942 0.000005
# 6 0.000003 -0.000021 0.000001 0.005603 0.000005 0.037911
#
#
# Mechanical properties :
#
#
# Convention : Reuss Voigt Hill
#
# Bulk Modulus (GPa) = 17.62455 36.70997 27.16726
# Shear Modulus (GPa) = 16.58793 23.81881 20.20337
#
# Velocity S-wave (km/s) = 2.95818 3.54477 3.26468
# Velocity P-wave (km/s) = 4.57880 6.00998 5.34254
#
# Compressibility (1/GPa) = 0.05673904
#
# Stress axis : x y z
#
# Youngs Moduli (GPa) = 61.08432 13.53796 79.74743
#
# Poissons Ratio (x) = 0.19329 0.29882
# Poissons Ratio (y) = 0.87216 0.39824
# Poissons Ratio (z) = 0.22889 0.06761
#
# Static dielectric constant tensor:
#      x y z
#    x 3.508400 0.000000 -0.022270 
#    y 0.000000 3.274810 0.000000 
#    z -0.022270 0.000000 3.577530 
# 
# 
# High freq. dielectric constant tensor:
#      x y z
#    x 1.731070 0.000000 0.002320 
#    y 0.000000 1.715780 0.000000 
#    z 0.002320 0.000000 1.740120 
# 
# From -- ./inp_files/244266.got.cif
#   From: 2010.06.25/outbox.cif.g09.slc.cpg/sg12_123_cif.got.tgz:244266.got - 2010.06.28 00:19:55.
