data_PCOD8081005
_publ_section_title
;
Structure prediction by ZEFSAII (Michael W. Deem and Ramdas Pophale) SiO2 
 PCOD8081005
Probable space group: C 2/M
;
_chemical_formula_sum "Si O2"
_cell_formula_units_Z 56
_cell_length_a 23.086391
_cell_length_b 13.569846
_cell_length_c 13.642046
_cell_angle_alpha 90.000000
_cell_angle_beta 127.125512
_cell_angle_gamma 90.000000
_cell_volume 3407.536777
_symmetry_space_group_name_H-M "C 2/M"
_symmetry_group_IT_number 12
_symmetry_cell_setting 'monoclinic'
loop_
_space_group_symop_operation_xyz
x,y,z
-x,y,-z
-x,-y,-z
x,-y,z
1/2+x,1/2+y,z
1/2-x,1/2+y,-z
1/2-x,1/2-y,-z
1/2+x,1/2-y,z
loop_
_atom_site_type_symbol
_atom_site_label
_atom_site_fract_x
_atom_site_fract_y
_atom_site_fract_z
Si Si1 0.591020 0.888041 0.894112
Si Si2 0.029783 0.284489 0.134459
Si Si3 0.669317 0.725587 0.881018
Si Si4 0.536786 0.383344 0.824974
Si Si5 0.540891 0.614687 0.449338
Si Si6 0.815570 0.113155 0.304403
Si Si7 0.847035 0.613079 0.828969
O O1 0.507801 0.852866 0.821497
O O2 0.627615 0.829760 0.841556
O O3 0.593964 0.000000 0.865850
O O4 0.635088 0.864464 0.039133
O O5 0.115112 0.311656 0.210527
O O6 0.007013 0.170544 0.131016
O O7 0.000000 0.320291 0.000000
O O8 0.621368 0.651432 0.902077
O O9 0.670368 0.683254 0.773269
O O10 0.750000 0.750000 0.000000
O O11 0.533772 0.500000 0.840299
O O12 0.491786 0.343979 0.684584
O O13 0.500000 0.663843 0.500000
O O14 0.522616 0.500000 0.428821
O O15 0.626656 0.635531 0.550112
O O16 0.737981 0.132037 0.273400
O O17 0.823288 0.000000 0.275003
O O18 0.868705 0.500000 0.826737
#
# Coordination Sequence:
#
# PCOD8081005 Si02
#       7
#     8   8   8   8   8   8   8
#     4   9  17  28  43  64  91 124 156 192 235 279
#     4   9  18  31  47  67  94 125 165 197 230 285
#     4  11  19  27  44  71 100 123 148 189 239 297
#     4  10  20  33  50  72  98 128 159 196 239 283
#     4   9  16  29  49  71  95 123 159 197 235 282
#     4  10  18  29  48  73  99 124 154 199 249 284
#     4   9  16  28  46  66  92 123 156 201 242 271
#
# _framework density 16.434158
#
# number of rings (size 3 to 8) (size 9 to 14) (size 15 to 20)
#    0.000    2.429    2.857    0.857    0.000    2.571 
#    0.000    0.714    0.000    0.000    0.000    9.000 
#    0.000    0.000    0.000    0.000    0.000    0.000 
#
# Total GULP energy -346885.403241 kJ/mol
# GULP energy per Si atom -12388.764401 kJ/mol
# Density = 1.639675 g / cm^3
# Si number density = 16.434158 Si / 1000 Ang^3
#
#
#
# Elastic Constant Matrix: (Units=GPa)
#
#
# Indices 1 2 3 4 5 6 
#
# 1 121.3861 56.1453 30.6381 0.0000 10.7836 0.0000
# 2 56.1453 104.5356 18.2898 0.0000 -1.2808 0.0000
# 3 30.6381 18.2898 37.7650 0.0000 9.1060 0.0000
# 4 0.0000 0.0000 0.0000 15.1049 0.0000 -1.9677
# 5 10.7836 -1.2808 9.1060 0.0000 21.0030 0.0000
# 6 0.0000 0.0000 0.0000 -1.9677 0.0000 27.8762
#
#
#
# Elastic Compliance Matrix: (Units=1/GPa)
#
#
# Indices 1 2 3 4 5 6 
#
# 1 0.013014 -0.005864 -0.006724 0.000000 -0.004124 0.000000
# 2 -0.005864 0.013285 -0.002902 0.000000 0.005079 0.000000
# 3 -0.006724 -0.002902 0.036350 0.000000 -0.012485 0.000000
# 4 0.000000 0.000000 0.000000 0.066818 0.000000 0.004716
# 5 -0.004124 0.005079 -0.012485 0.000000 0.055452 0.000000
# 6 0.000000 0.000000 0.000000 0.004716 0.000000 0.036206
#
#
# Mechanical properties :
#
#
# Convention : Reuss Voigt Hill
#
# Bulk Modulus (GPa) = 31.57452 52.64811 42.11132
# Shear Modulus (GPa) = 19.03599 23.37105 21.20352
#
# Velocity S-wave (km/s) = 3.40710 3.77517 3.59585
# Velocity P-wave (km/s) = 5.89341 7.14898 6.55134
#
# Compressibility (1/GPa) = 0.03167111
#
# Stress axis : x y z
#
# Youngs Moduli (GPa) = 76.84143 75.27051 27.51040
#
# Poissons Ratio (x) = 0.44137 0.18497
# Poissons Ratio (y) = 0.45058 0.07982
# Poissons Ratio (z) = 0.51665 0.21841
#
# Static dielectric constant tensor:
#      x y z
#    x 3.392260 0.000000 0.110590 
#    y 0.000000 3.026560 0.000000 
#    z 0.110590 0.000000 2.932690 
# 
# 
# High freq. dielectric constant tensor:
#      x y z
#    x 1.645340 0.000000 0.011440 
#    y 0.000000 1.617970 0.000000 
#    z 0.011440 0.000000 1.593030 
# 
# From -- ./inp_files/166793.got.cif
#   From: 2010.06.25/outbox.cif.g09.slc.cpg/sg12_84_cif.got.tgz:166793.got - 2010.06.28 00:19:55.
