data_PCOD8081621
_publ_section_title
;
Structure prediction by ZEFSAII (Michael W. Deem and Ramdas Pophale) SiO2 
 PCOD8081621
Probable space group: C 2/M
;
_chemical_formula_sum "Si O2"
_cell_formula_units_Z 64
_cell_length_a 20.628428
_cell_length_b 17.654687
_cell_length_c 20.573789
_cell_angle_alpha 90.000000
_cell_angle_beta 27.999966
_cell_angle_gamma 90.000000
_cell_volume 3517.622607
_symmetry_space_group_name_H-M "C 2/M"
_symmetry_group_IT_number 12
_symmetry_cell_setting 'monoclinic'
loop_
_space_group_symop_operation_xyz
x,y,z
-x,y,-z
-x,-y,-z
x,-y,z
1/2+x,1/2+y,z
1/2-x,1/2+y,-z
1/2-x,1/2-y,-z
1/2+x,1/2-y,z
loop_
_atom_site_type_symbol
_atom_site_label
_atom_site_fract_x
_atom_site_fract_y
_atom_site_fract_z
Si Si1 0.047388 0.334872 0.241453
Si Si2 0.448927 0.587703 0.934698
Si Si3 0.038587 0.306948 0.036568
Si Si4 0.757097 0.318582 0.816245
Si Si5 0.307816 0.687748 0.266404
Si Si6 0.683266 0.088763 0.004519
Si Si7 0.449782 0.662210 0.800410
Si Si8 0.253964 0.827050 0.534653
O O1 0.104981 0.326867 0.263663
O O2 0.135615 0.392885 0.120337
O O3 0.052051 0.252974 0.202439
O O4 0.891658 0.369000 0.386693
O O5 0.443059 0.500000 0.921513
O O6 0.602953 0.610695 0.819678
O O7 0.403974 0.639192 0.913211
O O8 0.340377 0.607526 0.087646
O O9 0.070787 0.377274 0.054819
O O10 0.909565 0.259956 0.178679
O O11 0.173425 0.254855 0.913431
O O12 0.000000 0.339574 0.000000
O O13 0.792595 0.310359 0.707818
O O14 0.223784 0.687417 0.407931
O O15 0.690732 0.000000 0.987272
O O16 0.836307 0.123425 0.854025
O O17 0.607411 0.630744 0.649400
O O18 0.250000 0.750000 0.500000
#
# Coordination Sequence:
#
# PCOD8081621 Si02
#       8
#     8   8   8   8   8   8   8   8
#     4  11  20  34  55  78 109 137 170 219 262 303
#     4  10  18  30  49  76 106 137 175 214 250 300
#     4   9  18  34  54  77 106 135 171 221 270 313
#     4  10  18  30  51  77 106 139 171 211 261 309
#     4   9  19  33  51  76 104 140 176 209 259 315
#     4  12  22  33  54  82 105 137 180 218 260 313
#     4  10  19  34  55  76 102 137 177 216 261 305
#     4   9  19  34  54  77 103 135 174 218 262 304
#
# _framework density 18.194106000000001
#
# number of rings (size 3 to 8) (size 9 to 14) (size 15 to 20)
#    0.000    2.000    2.500    4.875    0.000    1.750 
#    0.000    3.125    0.000    0.000    0.000    5.250 
#    0.000    7.000    0.000    0.000    0.000    0.000 
#
# Total GULP energy -396538.591644 kJ/mol
# GULP energy per Si atom -12391.830989 kJ/mol
# Density = 1.815270 g / cm^3
# Si number density = 18.194106 Si / 1000 Ang^3
#
#
#
# Elastic Constant Matrix: (Units=GPa)
#
#
# Indices 1 2 3 4 5 6 
#
# 1 102.4710 25.9514 29.5906 -0.0010 0.1923 -0.0001
# 2 25.9514 76.4012 20.4740 -0.0032 3.8404 -0.0011
# 3 29.5906 20.4740 89.2595 -0.0053 -4.0118 0.0018
# 4 -0.0010 -0.0032 -0.0053 10.4582 0.0019 -0.7503
# 5 0.1923 3.8404 -4.0118 0.0019 24.8181 -0.0001
# 6 -0.0001 -0.0011 0.0018 -0.7503 -0.0001 13.6203
#
#
#
# Elastic Compliance Matrix: (Units=1/GPa)
#
#
# Indices 1 2 3 4 5 6 
#
# 1 0.011424 -0.003045 -0.003094 -0.000001 -0.000117 0.000000
# 2 -0.003045 0.014939 -0.002538 0.000004 -0.002698 0.000002
# 3 -0.003094 -0.002538 0.012924 0.000005 0.002506 -0.000002
# 4 -0.000001 0.000004 0.000005 0.095998 -0.000007 0.005288
# 5 -0.000117 -0.002698 0.002506 -0.000007 0.041117 -0.000001
# 6 0.000000 0.000002 -0.000002 0.005288 -0.000001 0.073711
#
#
# Mechanical properties :
#
#
# Convention : Reuss Voigt Hill
#
# Bulk Modulus (GPa) = 45.59655 46.68485 46.14070
# Shear Modulus (GPa) = 18.19649 22.58704 20.39177
#
# Velocity S-wave (km/s) = 3.16592 3.52724 3.35145
# Velocity P-wave (km/s) = 6.20319 6.50412 6.35544
#
# Compressibility (1/GPa) = 0.02193148
#
# Stress axis : x y z
#
# Youngs Moduli (GPa) = 87.53696 66.93853 77.37660
#
# Poissons Ratio (x) = 0.20385 0.23939
# Poissons Ratio (y) = 0.26658 0.19641
# Poissons Ratio (z) = 0.27083 0.16992
#
# Static dielectric constant tensor:
#      x y z
#    x 3.589970 -0.000020 -0.205430 
#    y -0.000020 2.965150 0.000060 
#    z -0.205430 0.000060 3.732340 
# 
# 
# High freq. dielectric constant tensor:
#      x y z
#    x 1.717800 0.000000 -0.004460 
#    y 0.000000 1.665960 0.000000 
#    z -0.004460 0.000000 1.688260 
# 
# From -- ./inp_files/322438.got.cif
#   From: 2010.06.25/outbox.cif.g09.slc.cpg/sg12_162_cif.got.tgz:322438.got - 2010.06.28 00:19:55.
