data_PCOD8081997
_publ_section_title
;
Structure prediction by ZEFSAII (Michael W. Deem and Ramdas Pophale) SiO2 
 PCOD8081997
Probable space group: C 2/M
;
_chemical_formula_sum "Si O2"
_cell_formula_units_Z 64
_cell_length_a 14.202785
_cell_length_b 23.215949
_cell_length_c 14.862788
_cell_angle_alpha 90.000000
_cell_angle_beta 42.445191
_cell_angle_gamma 90.000000
_cell_volume 3307.423202
_symmetry_space_group_name_H-M "C 2/M"
_symmetry_group_IT_number 12
_symmetry_cell_setting 'monoclinic'
loop_
_space_group_symop_operation_xyz
x,y,z
-x,y,-z
-x,-y,-z
x,-y,z
1/2+x,1/2+y,z
1/2-x,1/2+y,-z
1/2-x,1/2-y,-z
1/2+x,1/2-y,z
loop_
_atom_site_type_symbol
_atom_site_label
_atom_site_fract_x
_atom_site_fract_y
_atom_site_fract_z
Si Si1 0.427638 0.719690 0.719281
Si Si2 0.858605 0.263784 0.141503
Si Si3 0.627648 0.437346 0.641260
Si Si4 0.155890 0.180999 0.690749
Si Si5 0.957768 0.664917 0.430879
Si Si6 0.424691 0.400767 0.643168
Si Si7 0.911600 0.434884 0.339304
Si Si8 0.607246 0.891483 0.844157
O O1 0.258597 0.722027 0.852654
O O2 0.520717 0.712505 0.742907
O O3 0.453676 0.779566 0.653335
O O4 0.460145 0.667146 0.628913
O O5 0.809011 0.212071 0.240880
O O6 0.889762 0.322594 0.174208
O O7 0.000000 0.240117 0.000000
O O8 0.639857 0.500000 0.679861
O O9 0.627308 0.388032 0.718993
O O10 0.484395 0.434632 0.686681
O O11 0.749900 0.428436 0.481478
O O12 0.296367 0.184781 0.532388
O O13 0.997146 0.611600 0.337903
O O14 0.000000 0.643107 0.500000
O O15 0.500000 0.422916 0.500000
O O16 0.260974 0.414587 0.759192
O O17 0.964453 0.500000 0.321546
O O18 0.939013 0.421357 0.215468
O O19 0.500000 0.907776 0.000000
#
# Coordination Sequence:
#
# PCOD8081997 Si02
#       8
#     8   8   8   8   8   8   8   8
#     4  10  20  32  54  85 113 139 180 231 282 342
#     4  10  21  36  55  81 113 148 184 222 280 350
#     4   9  19  34  53  80 106 139 188 236 276 320
#     4  10  20  34  55  81 112 146 180 233 286 335
#     4  11  20  34  56  83 113 145 184 237 290 329
#     4  10  18  30  54  83 109 141 181 227 280 340
#     4  10  21  36  54  79 111 148 191 232 276 335
#     4  10  21  36  54  82 120 151 178 225 288 348
#
# _framework density 19.350411000000001
#
# number of rings (size 3 to 8) (size 9 to 14) (size 15 to 20)
#    0.000    2.000    2.500    1.500    1.750    1.750 
#    0.000    2.500    0.000    0.375    0.000    0.000 
#    0.000    0.000    0.000    0.000    0.000    0.000 
#
# Total GULP energy -396541.848626 kJ/mol
# GULP energy per Si atom -12391.932770 kJ/mol
# Density = 1.930637 g / cm^3
# Si number density = 19.350411 Si / 1000 Ang^3
#
#
#
# Elastic Constant Matrix: (Units=GPa)
#
#
# Indices 1 2 3 4 5 6 
#
# 1 82.0054 27.2870 19.6370 0.0001 -7.3709 0.0000
# 2 27.2870 102.1310 26.2866 0.0006 6.7465 -0.0005
# 3 19.6370 26.2866 69.8013 0.0008 -9.7924 -0.0006
# 4 0.0001 0.0006 0.0008 16.1989 -0.0001 5.3396
# 5 -7.3709 6.7465 -9.7924 -0.0001 24.6675 -0.0001
# 6 0.0000 -0.0005 -0.0006 5.3396 -0.0001 12.6429
#
#
#
# Elastic Compliance Matrix: (Units=1/GPa)
#
#
# Indices 1 2 3 4 5 6 
#
# 1 0.014274 -0.003580 -0.002046 0.000000 0.004432 0.000000
# 2 -0.003580 0.012319 -0.004506 0.000000 -0.006228 0.000000
# 3 -0.002046 -0.004506 0.017670 -0.000001 0.007636 0.000001
# 4 0.000000 0.000000 -0.000001 0.071716 0.000000 -0.030289
# 5 0.004432 -0.006228 0.007636 0.000000 0.046598 0.000001
# 6 0.000000 0.000000 0.000001 -0.030289 0.000001 0.091887
#
#
# Mechanical properties :
#
#
# Convention : Reuss Voigt Hill
#
# Bulk Modulus (GPa) = 41.66670 44.48432 43.07551
# Shear Modulus (GPa) = 17.68492 22.75034 20.21763
#
# Velocity S-wave (km/s) = 3.02641 3.43257 3.23587
# Velocity P-wave (km/s) = 5.81306 6.22485 6.02248
#
# Compressibility (1/GPa) = 0.02399998
#
# Stress axis : x y z
#
# Youngs Moduli (GPa) = 70.05874 81.17628 56.59348
#
# Poissons Ratio (x) = 0.29060 0.11577
# Poissons Ratio (y) = 0.25080 0.25499
# Poissons Ratio (z) = 0.14332 0.36576
#
# Static dielectric constant tensor:
#      x y z
#    x 3.508900 0.000000 -0.241870 
#    y 0.000000 3.651740 0.000000 
#    z -0.241870 0.000000 3.266530 
# 
# 
# High freq. dielectric constant tensor:
#      x y z
#    x 1.747070 0.000000 -0.020540 
#    y 0.000000 1.759710 0.000000 
#    z -0.020540 0.000000 1.713910 
# 
# From -- ./inp_files/218488.got.cif
#   From: 2010.06.25/outbox.cif.g09.slc.cpg/sg12_110_cif.got.tgz:218488.got - 2010.06.28 00:19:55.
