data_PCOD8081574
_publ_section_title
;
Structure prediction by ZEFSAII (Michael W. Deem and Ramdas Pophale) SiO2 
 PCOD8081574
Probable space group: C 2/M
;
_chemical_formula_sum "Si O2"
_cell_formula_units_Z 64
_cell_length_a 24.997819
_cell_length_b 8.721284
_cell_length_c 23.211457
_cell_angle_alpha 90.000000
_cell_angle_beta 132.810117
_cell_angle_gamma 90.000000
_cell_volume 3712.360325
_symmetry_space_group_name_H-M "C 2/M"
_symmetry_group_IT_number 12
_symmetry_cell_setting 'monoclinic'
loop_
_space_group_symop_operation_xyz
x,y,z
-x,y,-z
-x,-y,-z
x,-y,z
1/2+x,1/2+y,z
1/2-x,1/2+y,-z
1/2-x,1/2-y,-z
1/2+x,1/2-y,z
loop_
_atom_site_type_symbol
_atom_site_label
_atom_site_fract_x
_atom_site_fract_y
_atom_site_fract_z
Si Si1 0.057787 0.677710 0.302762
Si Si2 0.669723 0.679005 0.575600
Si Si3 0.532916 0.822608 0.415919
Si Si4 0.883790 0.180848 0.338865
Si Si5 0.285381 0.319919 0.582638
Si Si6 0.684940 0.320177 0.827612
Si Si7 0.693774 0.180612 0.003616
Si Si8 0.422001 0.318432 0.150983
O O1 0.072572 0.500000 0.301842
O O2 0.024791 0.706242 0.341955
O O3 0.132324 0.767614 0.349114
O O4 0.001203 0.742647 0.214537
O O5 0.684129 0.500000 0.578132
O O6 0.599887 0.723191 0.487100
O O7 0.658152 0.723353 0.633637
O O8 0.740351 0.769805 0.605817
O O9 0.460466 0.767897 0.395075
O O10 0.547664 0.000000 0.440828
O O11 0.833824 0.243277 0.249579
O O12 0.899497 0.000000 0.346107
O O13 0.282182 0.500000 0.573435
O O14 0.250000 0.250000 0.500000
O O15 0.672965 0.500000 0.818932
O O16 0.628043 0.254864 0.833148
O O17 0.769328 0.282684 0.906783
O O18 0.615457 0.261961 0.936545
O O19 0.685339 0.000000 0.987786
O O20 0.750000 0.250000 0.000000
O O21 0.430022 0.500000 0.156051
#
# Coordination Sequence:
#
# PCOD8081574 Si02
#       8
#     8   8   8   8   8   8   8   8
#     4  11  22  35  53  78 104 135 173 214 259 308
#     4  11  23  37  55  75 100 137 178 219 259 305
#     4  11  22  34  51  75 105 138 172 215 261 306
#     4  10  20  35  53  75 104 140 179 213 252 307
#     4  12  24  39  58  76  99 132 172 219 265 311
#     4   8  15  28  47  70 100 136 170 204 245 298
#     4   9  16  27  44  69 101 136 171 208 252 304
#     4  10  18  30  49  73 103 137 171 210 255 306
#
# _framework density 17.239706999999999
#
# number of rings (size 3 to 8) (size 9 to 14) (size 15 to 20)
#    0.000    1.750    2.500    4.125    0.000    3.500 
#    0.000    0.625    0.000    0.000    0.000    0.875 
#    0.000    7.000    0.000    0.000    0.000    0.000 
#
# Total GULP energy -396753.814484 kJ/mol
# GULP energy per Si atom -12398.556703 kJ/mol
# Density = 1.720047 g / cm^3
# Si number density = 17.239707 Si / 1000 Ang^3
#
#
#
# Elastic Constant Matrix: (Units=GPa)
#
#
# Indices 1 2 3 4 5 6 
#
# 1 88.7956 41.5697 38.1393 0.0000 12.3519 0.0000
# 2 41.5697 89.3767 32.8573 0.0000 7.9016 0.0000
# 3 38.1393 32.8573 80.4549 0.0000 25.0314 0.0000
# 4 0.0000 0.0000 0.0000 27.0715 0.0000 5.8529
# 5 12.3519 7.9016 25.0314 0.0000 20.4019 0.0000
# 6 0.0000 0.0000 0.0000 5.8529 0.0000 24.6327
#
#
#
# Elastic Compliance Matrix: (Units=1/GPa)
#
#
# Indices 1 2 3 4 5 6 
#
# 1 0.016210 -0.005598 -0.004883 0.000000 -0.001654 0.000000
# 2 -0.005598 0.015173 -0.004479 0.000000 0.003008 0.000000
# 3 -0.004883 -0.004479 0.024445 0.000000 -0.025301 0.000000
# 4 0.000000 0.000000 0.000000 0.038940 0.000000 -0.009252
# 5 -0.001654 0.003008 -0.025301 0.000000 0.079894 0.000000
# 6 0.000000 0.000000 0.000000 -0.009252 0.000000 0.042795
#
#
# Mechanical properties :
#
#
# Convention : Reuss Voigt Hill
#
# Bulk Modulus (GPa) = 38.59789 53.75110 46.17450
# Shear Modulus (GPa) = 19.53031 24.15860 21.84445
#
# Velocity S-wave (km/s) = 3.36946 3.74750 3.56350
# Velocity P-wave (km/s) = 6.12987 7.06904 6.61614
#
# Compressibility (1/GPa) = 0.02590815
#
# Stress axis : x y z
#
# Youngs Moduli (GPa) = 61.68969 65.90761 40.90813
#
# Poissons Ratio (x) = 0.36894 0.19977
# Poissons Ratio (y) = 0.34533 0.18321
# Poissons Ratio (z) = 0.30126 0.29517
#
# Static dielectric constant tensor:
#      x y z
#    x 3.064890 0.000000 0.065710 
#    y 0.000000 3.255660 0.000000 
#    z 0.065710 0.000000 3.686540 
# 
# 
# High freq. dielectric constant tensor:
#      x y z
#    x 1.626980 0.000000 0.013520 
#    y 0.000000 1.671480 0.000000 
#    z 0.013520 0.000000 1.673600 
# 
# From -- ./inp_files/324232.got.cif
#   From: 2010.06.25/outbox.cif.g09.slc.cpg/sg12_163_cif.got.tgz:324232.got - 2010.06.28 00:19:55.
