data_PCOD8081786
_publ_section_title
;
Structure prediction by ZEFSAII (Michael W. Deem and Ramdas Pophale) SiO2 
 PCOD8081786
Probable space group: C 2/M
;
_chemical_formula_sum "Si O2"
_cell_formula_units_Z 64
_cell_length_a 30.599754
_cell_length_b 14.302166
_cell_length_c 10.062217
_cell_angle_alpha 90.000000
_cell_angle_beta 59.663151
_cell_angle_gamma 90.000000
_cell_volume 3800.667685
_symmetry_space_group_name_H-M "C 2/M"
_symmetry_group_IT_number 12
_symmetry_cell_setting 'monoclinic'
loop_
_space_group_symop_operation_xyz
x,y,z
-x,y,-z
-x,-y,-z
x,-y,z
1/2+x,1/2+y,z
1/2-x,1/2+y,-z
1/2-x,1/2-y,-z
1/2+x,1/2-y,z
loop_
_atom_site_type_symbol
_atom_site_label
_atom_site_fract_x
_atom_site_fract_y
_atom_site_fract_z
Si Si1 0.770985 0.891675 0.563089
Si Si2 0.681069 0.894089 0.505611
Si Si3 0.126967 0.788015 0.589520
Si Si4 0.464158 0.607845 0.677733
Si Si5 0.229991 0.107979 0.132473
Si Si6 0.968364 0.892199 0.179428
Si Si7 0.819752 0.394738 0.796808
Si Si8 0.871603 0.212004 0.717245
O O1 0.726364 0.862359 0.532065
O O2 0.820865 0.835525 0.445197
O O3 0.754251 0.868113 0.739956
O O4 0.784124 0.000000 0.526704
O O5 0.633606 0.823912 0.599914
O O6 0.700591 0.885749 0.323416
O O7 0.663089 0.000000 0.565293
O O8 0.081152 0.826785 0.748588
O O9 0.114840 0.813862 0.455392
O O10 0.500000 0.628578 0.500000
O O11 0.446838 0.500000 0.708965
O O12 0.494695 0.638224 0.759845
O O13 0.414606 0.672277 0.747136
O O14 0.181848 0.167198 0.160985
O O15 0.215178 0.000000 0.141314
O O16 0.275349 0.134524 0.964738
O O17 0.951037 0.000000 0.221541
O O18 0.000000 0.874620 0.000000
O O19 0.838990 0.500000 0.796552
O O20 0.866808 0.324047 0.745117
#
# Coordination Sequence:
#
# PCOD8081786 Si02
#       8
#     8   8   8   8   8   8   8   8
#     4   9  17  29  47  71  96 125 162 196 230 282
#     4   9  18  32  48  69  97 129 164 197 230 276
#     4  10  18  31  52  71  94 129 163 194 236 285
#     4  10  19  33  54  74  94 121 155 196 237 284
#     4   9  17  29  46  70 100 127 154 195 241 281
#     4  10  21  37  52  72 101 124 148 192 248 290
#     4   9  18  32  47  67 101 133 156 194 241 276
#     4  10  18  30  51  74  94 125 167 197 228 282
#
# _framework density 16.839147000000001
#
# number of rings (size 3 to 8) (size 9 to 14) (size 15 to 20)
#    0.000    2.500    1.250    1.500    0.000    1.000 
#    4.500    0.000    0.000    1.500    0.000    0.000 
#    0.000    0.000    0.000    0.000    0.000    0.000 
#
# Total GULP energy -396788.596287 kJ/mol
# GULP energy per Si atom -12399.643634 kJ/mol
# Density = 1.680082 g / cm^3
# Si number density = 16.839147 Si / 1000 Ang^3
#
#
#
# Elastic Constant Matrix: (Units=GPa)
#
#
# Indices 1 2 3 4 5 6 
#
# 1 101.3758 58.7025 50.8356 0.0000 0.8750 0.0000
# 2 58.7025 88.3796 36.9641 0.0000 -9.3393 0.0000
# 3 50.8356 36.9641 62.2917 0.0000 2.4692 0.0000
# 4 0.0000 0.0000 0.0000 22.2941 0.0000 -4.3338
# 5 0.8750 -9.3393 2.4692 0.0000 19.1046 0.0000
# 6 0.0000 0.0000 0.0000 -4.3338 0.0000 26.6791
#
#
#
# Elastic Compliance Matrix: (Units=1/GPa)
#
#
# Indices 1 2 3 4 5 6 
#
# 1 0.021311 -0.009856 -0.011372 0.000000 -0.004324 0.000000
# 2 -0.009856 0.021141 -0.004955 0.000000 0.011427 0.000000
# 3 -0.011372 -0.004955 0.028496 0.000000 -0.005584 0.000000
# 4 0.000000 0.000000 0.000000 0.046318 0.000000 0.007524
# 5 -0.004324 0.011427 -0.005584 0.000000 0.058849 0.000000
# 6 0.000000 0.000000 0.000000 0.007524 0.000000 0.038705
#
#
# Mechanical properties :
#
#
# Convention : Reuss Voigt Hill
#
# Bulk Modulus (GPa) = 53.81388 60.56127 57.18758
# Shear Modulus (GPa) = 18.28964 20.65189 19.47077
#
# Velocity S-wave (km/s) = 3.29924 3.50583 3.40410
# Velocity P-wave (km/s) = 6.82204 7.24089 7.03458
#
# Compressibility (1/GPa) = 0.01858257
#
# Stress axis : x y z
#
# Youngs Moduli (GPa) = 46.92340 47.30154 35.09307
#
# Poissons Ratio (x) = 0.46620 0.39908
# Poissons Ratio (y) = 0.46247 0.17388
# Poissons Ratio (z) = 0.53361 0.23437
#
# Static dielectric constant tensor:
#      x y z
#    x 2.973390 0.000000 0.114930 
#    y 0.000000 3.307370 0.000000 
#    z 0.114930 0.000000 3.063450 
# 
# 
# High freq. dielectric constant tensor:
#      x y z
#    x 1.629700 0.000000 0.010770 
#    y 0.000000 1.655240 0.000000 
#    z 0.010770 0.000000 1.638070 
# 
# From -- ./inp_files/111624.got.cif
#   From: 2010.06.25/outbox.cif.g09.slc.cpg/sg12_56_cif.got.tgz:111624.got - 2010.06.28 00:19:55.
