data_PCOD8081218
_publ_section_title
;
Structure prediction by ZEFSAII (Michael W. Deem and Ramdas Pophale) SiO2 
 PCOD8081218
Probable space group: C 2/M
;
_chemical_formula_sum "Si O2"
_cell_formula_units_Z 48
_cell_length_a 28.730964
_cell_length_b 14.141118
_cell_length_c 12.374472
_cell_angle_alpha 90.000000
_cell_angle_beta 29.165500
_cell_angle_gamma 90.000000
_cell_volume 2450.119628
_symmetry_space_group_name_H-M "C 2/M"
_symmetry_group_IT_number 12
_symmetry_cell_setting 'monoclinic'
loop_
_space_group_symop_operation_xyz
x,y,z
-x,y,-z
-x,-y,-z
x,-y,z
1/2+x,1/2+y,z
1/2-x,1/2+y,-z
1/2-x,1/2-y,-z
1/2+x,1/2-y,z
loop_
_atom_site_type_symbol
_atom_site_label
_atom_site_fract_x
_atom_site_fract_y
_atom_site_fract_z
Si Si1 0.701490 0.741006 0.933751
Si Si2 0.162877 0.749157 0.529060
Si Si3 0.739440 0.104170 0.018990
Si Si4 0.962248 0.707601 0.880410
Si Si5 0.042550 0.396671 0.518392
Si Si6 0.191979 0.386873 0.661011
O O1 0.799208 0.727051 0.668504
O O2 0.685518 0.669119 0.066788
O O3 0.706102 0.847201 0.974550
O O4 0.612721 0.726839 0.032080
O O5 0.187346 0.656789 0.550846
O O6 0.214873 0.843405 0.468557
O O7 0.047630 0.767670 0.764089
O O8 0.655050 0.095337 0.276145
O O9 0.781650 0.000000 0.906581
O O10 0.019661 0.645169 0.679791
O O11 0.905385 0.642465 0.080192
O O12 0.993204 0.500000 0.618178
O O13 0.000000 0.339685 0.500000
O O14 0.201210 0.500000 0.636579
#
# Coordination Sequence:
#
# PCOD8081218 Si02
#       6
#     8   8   8   8   8   8
#     4  10  21  35  56  82 115 159 188 230 287 338
#     4  10  22  39  58  86 119 150 191 244 298 346
#     4  10  20  35  53  81 119 154 191 231 278 337
#     4  11  20  35  59  87 118 148 192 236 288 341
#     4  10  18  29  51  84 115 143 181 234 287 334
#     4  10  23  41  62  87 116 151 194 243 296 352
#
# _framework density 19.590879000000001
#
# number of rings (size 3 to 8) (size 9 to 14) (size 15 to 20)
#    0.000    1.833    3.333    1.000    0.000    5.333 
#    0.000    0.833    0.000   14.000    0.000    0.000 
#    0.000    0.000    0.000    0.000    0.000    0.000 
#
# Total GULP energy -297383.746219 kJ/mol
# GULP energy per Si atom -12390.989426 kJ/mol
# Density = 1.954629 g / cm^3
# Si number density = 19.590879 Si / 1000 Ang^3
#
#
#
# Elastic Constant Matrix: (Units=GPa)
#
#
# Indices 1 2 3 4 5 6 
#
# 1 77.2523 43.8845 30.4774 0.0000 -7.9112 0.0000
# 2 43.8845 111.1261 44.4509 0.0000 -4.9739 0.0000
# 3 30.4774 44.4509 93.1604 0.0000 -1.4052 0.0000
# 4 0.0000 0.0000 0.0000 21.0869 0.0000 1.1524
# 5 -7.9112 -4.9739 -1.4052 0.0000 43.7312 0.0000
# 6 0.0000 0.0000 0.0000 1.1524 0.0000 17.4262
#
#
#
# Elastic Compliance Matrix: (Units=1/GPa)
#
#
# Indices 1 2 3 4 5 6 
#
# 1 0.017585 -0.005622 -0.003034 0.000000 0.002444 0.000000
# 2 -0.005622 0.012971 -0.004345 0.000000 0.000319 0.000000
# 3 -0.003034 -0.004345 0.013791 0.000000 -0.000600 0.000000
# 4 0.000000 0.000000 0.000000 0.047595 0.000000 -0.003148
# 5 0.002444 0.000319 -0.000600 0.000000 0.023326 0.000000
# 6 0.000000 0.000000 0.000000 -0.003148 0.000000 0.057593
#
#
# Mechanical properties :
#
#
# Convention : Reuss Voigt Hill
#
# Bulk Modulus (GPa) = 54.50752 57.68494 56.09623
# Shear Modulus (GPa) = 24.39286 27.29725 25.84506
#
# Velocity S-wave (km/s) = 3.53244 3.73683 3.63607
# Velocity P-wave (km/s) = 6.67240 6.93738 6.80618
#
# Compressibility (1/GPa) = 0.01834609
#
# Stress axis : x y z
#
# Youngs Moduli (GPa) = 56.86577 77.09417 72.51145
#
# Poissons Ratio (x) = 0.43339 0.21999
# Poissons Ratio (y) = 0.31968 0.31508
# Poissons Ratio (z) = 0.17252 0.33499
#
# Static dielectric constant tensor:
#      x y z
#    x 3.747340 0.000000 -0.028280 
#    y 0.000000 3.442130 0.000000 
#    z -0.028280 0.000000 3.644090 
# 
# 
# High freq. dielectric constant tensor:
#      x y z
#    x 1.779490 0.000000 0.008530 
#    y 0.000000 1.729190 0.000000 
#    z 0.008530 0.000000 1.758330 
# 
# From -- ./inp_files/142980.got.cif
#   From: 2010.06.25/outbox.cif.g09.slc.cpg/sg12_72_cif.got.tgz:142980.got - 2010.06.28 00:19:55.
