data_PCOD8081067
_publ_section_title
;
Structure prediction by ZEFSAII (Michael W. Deem and Ramdas Pophale) SiO2 
 PCOD8081067
Probable space group: C 2/M
;
_chemical_formula_sum "Si O2"
_cell_formula_units_Z 56
_cell_length_a 8.379560
_cell_length_b 29.001524
_cell_length_c 15.967121
_cell_angle_alpha 90.000000
_cell_angle_beta 47.366993
_cell_angle_gamma 90.000000
_cell_volume 2854.785994
_symmetry_space_group_name_H-M "C 2/M"
_symmetry_group_IT_number 12
_symmetry_cell_setting 'monoclinic'
loop_
_space_group_symop_operation_xyz
x,y,z
-x,y,-z
-x,-y,-z
x,-y,z
1/2+x,1/2+y,z
1/2-x,1/2+y,-z
1/2-x,1/2-y,-z
1/2+x,1/2-y,z
loop_
_atom_site_type_symbol
_atom_site_label
_atom_site_fract_x
_atom_site_fract_y
_atom_site_fract_z
Si Si1 0.005095 0.446625 0.247390
Si Si2 0.471267 0.450630 0.607773
Si Si3 0.987066 0.228765 0.254320
Si Si4 0.082656 0.312110 0.326686
Si Si5 0.379032 0.899777 0.461189
Si Si6 0.254333 0.138429 0.894153
Si Si7 0.542337 0.793441 0.890000
O O1 0.077511 0.500000 0.217188
O O2 0.776073 0.437961 0.281653
O O3 0.974616 0.431963 0.354438
O O4 0.182182 0.415439 0.136809
O O5 0.500000 0.458627 0.500000
O O6 0.531419 0.500000 0.629927
O O7 0.628362 0.408560 0.575244
O O8 0.956845 0.267495 0.336938
O O9 0.196211 0.197822 0.205784
O O10 0.766666 0.198953 0.331010
O O11 0.019486 0.251608 0.150452
O O12 0.203965 0.336109 0.207072
O O13 0.905276 0.345861 0.430119
O O14 0.500000 0.915309 0.500000
O O15 0.402133 0.161403 0.915047
O O16 0.000000 0.142610 0.000000
O O17 0.500000 0.777474 0.000000
#
# Coordination Sequence:
#
# PCOD8081067 Si02
#       7
#     8   8   8   8   8   8   8
#     4   9  19  36  55  75 101 134 169 204 249 306
#     4   8  15  30  51  73  96 124 161 202 245 296
#     4   9  18  32  50  70 102 138 169 209 251 294
#     4   9  19  34  49  73 105 136 171 210 248 295
#     4  10  19  31  52  80 104 126 163 216 260 295
#     4  10  20  33  51  77 106 135 167 204 250 303
#     4  10  18  29  49  74 100 133 174 215 251 285
#
# _framework density 19.616181000000001
#
# number of rings (size 3 to 8) (size 9 to 14) (size 15 to 20)
#    0.000    2.714    0.000    2.571    0.000    6.571 
#    0.000    5.000    0.000    0.429    0.000    0.000 
#    0.000    0.000    0.000    0.000    0.000    0.000 
#
# Total GULP energy -346942.438485 kJ/mol
# GULP energy per Si atom -12390.801374 kJ/mol
# Density = 1.957153 g / cm^3
# Si number density = 19.616181 Si / 1000 Ang^3
#
#
#
# Elastic Constant Matrix: (Units=GPa)
#
#
# Indices 1 2 3 4 5 6 
#
# 1 125.9732 57.0443 32.2972 0.0000 -18.8126 0.0000
# 2 57.0443 104.4332 31.8618 0.0000 -20.3335 0.0000
# 3 32.2972 31.8618 38.2802 0.0000 -11.9511 0.0000
# 4 0.0000 0.0000 0.0000 1.5936 0.0000 -14.7412
# 5 -18.8126 -20.3335 -11.9511 0.0000 21.3736 0.0000
# 6 0.0000 0.0000 0.0000 -14.7412 0.0000 28.4777
#
#
#
# Elastic Compliance Matrix: (Units=1/GPa)
#
#
# Indices 1 2 3 4 5 6 
#
# 1 0.011671 -0.004068 -0.005406 0.000000 0.003380 0.000000
# 2 -0.004068 0.015345 -0.007149 0.000000 0.007021 0.000000
# 3 -0.005406 -0.007149 0.040010 0.000000 0.010813 0.000000
# 4 0.000000 0.000000 0.000000 -0.165646 0.000000 -0.085745
# 5 0.003380 0.007021 0.010813 0.000000 0.062488 0.000000
# 6 0.000000 0.000000 0.000000 -0.085745 0.000000 -0.009270
#
#
# Mechanical properties :
#
#
# Convention : Reuss Voigt Hill
#
# Bulk Modulus (GPa) = 29.60155 56.78814 43.19484
# Shear Modulus (GPa) = -5572.50848 20.12121 -2776.19364
#
# Velocity S-wave (km/s) = -53.35671 3.20620 -37.66071
# Velocity P-wave (km/s) = 61.48817 6.53596 43.23237
#
# Compressibility (1/GPa) = 0.03378201
#
# Stress axis : x y z
#
# Youngs Moduli (GPa) = 85.68350 65.16645 24.99384
#
# Poissons Ratio (x) = 0.26506 0.13512
# Poissons Ratio (y) = 0.34852 0.17867
# Poissons Ratio (z) = 0.46320 0.46584
#
# Static dielectric constant tensor:
#      x y z
#    x 3.950690 0.000000 -0.350790 
#    y 0.000000 3.649670 0.000000 
#    z -0.350790 0.000000 3.489210 
# 
# 
# High freq. dielectric constant tensor:
#      x y z
#    x 1.767350 0.000000 -0.014160 
#    y 0.000000 1.755310 0.000000 
#    z -0.014160 0.000000 1.733650 
# 
# From -- ./inp_files/178713.got.cif
#   From: 2010.06.25/outbox.cif.g09.slc.cpg/sg12_90_cif.got.tgz:178713.got - 2010.06.28 00:19:55.
