data_PCOD8081780
_publ_section_title
;
Structure prediction by ZEFSAII (Michael W. Deem and Ramdas Pophale) SiO2 
 PCOD8081780
Probable space group: C 2/M
;
_chemical_formula_sum "Si O2"
_cell_formula_units_Z 64
_cell_length_a 31.338280
_cell_length_b 9.099676
_cell_length_c 14.535262
_cell_angle_alpha 90.000000
_cell_angle_beta 117.633252
_cell_angle_gamma 90.000000
_cell_volume 3672.193778
_symmetry_space_group_name_H-M "C 2/M"
_symmetry_group_IT_number 12
_symmetry_cell_setting 'monoclinic'
loop_
_space_group_symop_operation_xyz
x,y,z
-x,y,-z
-x,-y,-z
x,-y,z
1/2+x,1/2+y,z
1/2-x,1/2+y,-z
1/2-x,1/2-y,-z
1/2+x,1/2-y,z
loop_
_atom_site_type_symbol
_atom_site_label
_atom_site_fract_x
_atom_site_fract_y
_atom_site_fract_z
Si Si1 0.427505 0.671763 0.777478
Si Si2 0.297287 0.172620 0.936446
Si Si3 0.619808 0.671642 0.088727
Si Si4 0.034790 0.171380 0.864433
Si Si5 0.886693 0.668347 0.366689
Si Si6 0.475096 0.169838 0.325281
Si Si7 0.300678 0.827487 0.150006
Si Si8 0.924989 0.827303 0.568966
O O1 0.429437 0.500000 0.797676
O O2 0.392131 0.734726 0.820951
O O3 0.482212 0.730188 0.843303
O O4 0.407683 0.709575 0.655769
O O5 0.335730 0.237706 0.904876
O O6 0.245752 0.241249 0.860508
O O7 0.294272 0.000000 0.918458
O O8 0.312210 0.213667 0.055709
O O9 0.633582 0.500000 0.101556
O O10 0.572358 0.702525 0.981858
O O11 0.050479 0.262127 0.790177
O O12 0.032220 0.000000 0.834839
O O13 0.877091 0.500000 0.383443
O O14 0.938650 0.688118 0.372864
O O15 0.845505 0.724923 0.256368
O O16 0.885506 0.763149 0.459094
O O17 0.523554 0.254694 0.399377
O O18 0.487315 0.000000 0.319502
O O19 0.290656 0.000000 0.149325
O O20 0.930331 0.000000 0.559593
#
# Coordination Sequence:
#
# PCOD8081780 Si02
#       8
#     8   8   8   8   8   8   8   8
#     4   8  16  31  48  68  96 130 166 201 236 277
#     4  10  20  34  52  76 103 125 153 196 239 283
#     4  10  18  30  51  73  96 130 165 195 237 292
#     4   9  17  29  47  72  99 128 165 203 234 274
#     4  10  20  33  50  71  96 128 163 197 239 291
#     4  10  19  31  47  69 101 135 161 192 240 291
#     4   9  19  36  54  72  98 130 158 188 237 296
#     4  10  20  33  49  70  97 129 167 207 238 271
#
# _framework density 17.428273000000001
#
# number of rings (size 3 to 8) (size 9 to 14) (size 15 to 20)
#    0.000    2.500    0.000    3.375    0.000    6.500 
#    0.000    3.125    0.000    4.500    0.000    0.000 
#    0.000    0.000    0.000    0.000    0.000    0.000 
#
# Total GULP energy -396775.646036 kJ/mol
# GULP energy per Si atom -12399.238939 kJ/mol
# Density = 1.738861 g / cm^3
# Si number density = 17.428273 Si / 1000 Ang^3
#
#
#
# Elastic Constant Matrix: (Units=GPa)
#
#
# Indices 1 2 3 4 5 6 
#
# 1 92.4986 39.8167 46.9337 0.0000 -9.3240 0.0000
# 2 39.8167 63.3624 47.8909 0.0000 -2.6991 0.0000
# 3 46.9337 47.8909 113.1807 0.0000 -2.0864 0.0000
# 4 0.0000 0.0000 0.0000 27.2691 0.0000 1.0483
# 5 -9.3240 -2.6991 -2.0864 0.0000 21.8437 0.0000
# 6 0.0000 0.0000 0.0000 1.0483 0.0000 24.2680
#
#
#
# Elastic Compliance Matrix: (Units=1/GPa)
#
#
# Indices 1 2 3 4 5 6 
#
# 1 0.016360 -0.007334 -0.003575 0.000000 0.005736 0.000000
# 2 -0.007334 0.026573 -0.008214 0.000000 -0.000632 0.000000
# 3 -0.003575 -0.008214 0.013771 0.000000 -0.001226 0.000000
# 4 0.000000 0.000000 0.000000 0.036733 0.000000 -0.001587
# 5 0.005736 -0.000632 -0.001226 0.000000 0.048033 0.000000
# 6 0.000000 0.000000 0.000000 -0.001587 0.000000 0.041275
#
#
# Mechanical properties :
#
#
# Convention : Reuss Voigt Hill
#
# Bulk Modulus (GPa) = 54.18026 59.81382 56.99704
# Shear Modulus (GPa) = 22.01251 23.63618 22.82435
#
# Velocity S-wave (km/s) = 3.55778 3.68665 3.62279
# Velocity P-wave (km/s) = 6.93052 7.24682 7.09043
#
# Compressibility (1/GPa) = 0.01845691
#
# Stress axis : x y z
#
# Youngs Moduli (GPa) = 61.12387 37.63286 72.61605
#
# Poissons Ratio (x) = 0.27601 0.25961
# Poissons Ratio (y) = 0.44829 0.59648
# Poissons Ratio (z) = 0.21853 0.30912
#
# Static dielectric constant tensor:
#      x y z
#    x 3.212430 0.000000 -0.135970 
#    y 0.000000 3.180760 0.000000 
#    z -0.135970 0.000000 3.337690 
# 
# 
# High freq. dielectric constant tensor:
#      x y z
#    x 1.656510 0.000000 -0.008290 
#    y 0.000000 1.664880 0.000000 
#    z -0.008290 0.000000 1.671930 
# 
# From -- ./inp_files/249161.got.cif
#   From: 2010.06.25/outbox.cif.g09.slc.cpg/sg12_125_cif.got.tgz:249161.got - 2010.06.28 00:19:55.
