data_PCOD8081833
_publ_section_title
;
Structure prediction by ZEFSAII (Michael W. Deem and Ramdas Pophale) SiO2 
 PCOD8081833
Probable space group: C 2/M
;
_chemical_formula_sum "Si O2"
_cell_formula_units_Z 56
_cell_length_a 20.186112
_cell_length_b 9.185700
_cell_length_c 29.400559
_cell_angle_alpha 90.000000
_cell_angle_beta 33.995268
_cell_angle_gamma 90.000000
_cell_volume 3048.098478
_symmetry_space_group_name_H-M "C 2/M"
_symmetry_group_IT_number 12
_symmetry_cell_setting 'monoclinic'
loop_
_space_group_symop_operation_xyz
x,y,z
-x,y,-z
-x,-y,-z
x,-y,z
1/2+x,1/2+y,z
1/2-x,1/2+y,-z
1/2-x,1/2-y,-z
1/2+x,1/2-y,z
loop_
_atom_site_type_symbol
_atom_site_label
_atom_site_fract_x
_atom_site_fract_y
_atom_site_fract_z
Si Si1 0.497283 0.169078 0.698137
Si Si2 0.729274 0.330902 0.148062
Si Si3 0.755135 0.168789 0.585688
Si Si4 0.186802 0.169249 0.344128
Si Si5 0.026530 0.329445 0.576910
Si Si6 0.433353 0.664566 0.990220
Si Si7 0.862374 0.332000 0.165838
O O1 0.401125 0.262933 0.780046
O O2 0.624212 0.214438 0.645328
O O3 0.489860 0.206516 0.649166
O O4 0.470600 0.000000 0.722114
O O5 0.722955 0.500000 0.139473
O O6 0.810962 0.253006 0.063829
O O7 0.780799 0.302824 0.168733
O O8 0.768412 0.203573 0.631159
O O9 0.844486 0.264056 0.505326
O O10 0.779871 0.000000 0.560991
O O11 0.289970 0.219611 0.251156
O O12 0.067238 0.258297 0.403917
O O13 0.156724 0.000000 0.353863
O O14 0.031184 0.500000 0.564867
O O15 0.405462 0.500000 0.991068
O O16 0.500000 0.669702 0.000000
O O17 0.517277 0.738583 0.904706
O O18 0.899666 0.500000 0.147692
#
# Coordination Sequence:
#
# PCOD8081833 Si02
#       7
#     8   8   8   8   8   8   8
#     4  10  21  36  53  76 105 138 174 215 261 308
#     4  10  18  30  51  77 104 135 170 212 257 304
#     4  10  22  38  55  74 102 140 178 214 258 311
#     4  10  20  36  56  77 103 138 176 214 257 309
#     4  11  22  35  54  78 105 134 172 221 265 306
#     4   9  17  28  46  74 107 137 165 205 256 306
#     4   9  17  30  49  75 103 131 169 211 254 303
#
# _framework density 18.372108999999998
#
# number of rings (size 3 to 8) (size 9 to 14) (size 15 to 20)
#    0.000    2.143    1.429    2.143    0.000    6.286 
#    0.000    0.000    0.000    0.857    0.000    0.000 
#    0.000    0.000    0.000    0.000    0.000    0.000 
#
# Total GULP energy -347317.474005 kJ/mol
# GULP energy per Si atom -12404.195500 kJ/mol
# Density = 1.833029 g / cm^3
# Si number density = 18.372109 Si / 1000 Ang^3
#
#
#
# Elastic Constant Matrix: (Units=GPa)
#
#
# Indices 1 2 3 4 5 6 
#
# 1 36.9884 31.2848 15.3319 -0.0001 -10.3572 0.0004
# 2 31.2848 98.2562 71.3605 0.0000 -17.7528 0.0002
# 3 15.3319 71.3605 131.5901 -0.0001 -24.1939 0.0001
# 4 -0.0001 0.0000 -0.0001 41.0328 0.0000 -6.2167
# 5 -10.3572 -17.7528 -24.1939 0.0000 14.1239 -0.0001
# 6 0.0004 0.0002 0.0001 -6.2167 -0.0001 17.3222
#
#
#
# Elastic Compliance Matrix: (Units=1/GPa)
#
#
# Indices 1 2 3 4 5 6 
#
# 1 0.043876 -0.014815 0.007903 0.000000 0.027090 -0.000001
# 2 -0.014815 0.022442 -0.010591 0.000000 -0.000797 0.000000
# 3 0.007903 -0.010591 0.016115 0.000000 0.020088 0.000000
# 4 0.000000 0.000000 0.000000 0.025772 0.000000 0.009249
# 5 0.027090 -0.000797 0.020088 0.000000 0.124076 0.000000
# 6 -0.000001 0.000000 0.000000 0.009249 0.000000 0.061049
#
#
# Mechanical properties :
#
#
# Convention : Reuss Voigt Hill
#
# Bulk Modulus (GPa) = 21.08485 55.86546 38.47515
# Shear Modulus (GPa) = 14.52875 24.41963 19.47419
#
# Velocity S-wave (km/s) = 2.81518 3.64973 3.25928
# Velocity P-wave (km/s) = 4.69770 6.94511 5.92887
#
# Compressibility (1/GPa) = 0.04742742
#
# Stress axis : x y z
#
# Youngs Moduli (GPa) = 22.79162 44.55890 62.05305
#
# Poissons Ratio (x) = 0.66014 -0.49038
# Poissons Ratio (y) = 0.33766 0.65718
# Poissons Ratio (z) = -0.18011 0.47191
#
# Static dielectric constant tensor:
#      x y z
#    x 3.083300 0.000000 -0.022850 
#    y 0.000000 3.394080 0.000000 
#    z -0.022850 0.000000 3.523220 
# 
# 
# High freq. dielectric constant tensor:
#      x y z
#    x 1.677370 0.000000 -0.005660 
#    y 0.000000 1.715330 0.000000 
#    z -0.005660 0.000000 1.726810 
# 
# From -- ./inp_files/363148.got.cif
#   From: 2010.06.25/outbox.cif.g09.slc.cpg/sg12_182_cif.got.tgz:363148.got - 2010.06.28 00:19:55.
