data_PCOD8081264
_publ_section_title
;
Structure prediction by ZEFSAII (Michael W. Deem and Ramdas Pophale) SiO2 
 PCOD8081264
Probable space group: C 2/M
;
_chemical_formula_sum "Si O2"
_cell_formula_units_Z 56
_cell_length_a 26.959813
_cell_length_b 9.098078
_cell_length_c 17.055323
_cell_angle_alpha 90.000000
_cell_angle_beta 55.003500
_cell_angle_gamma 90.000000
_cell_volume 3426.964254
_symmetry_space_group_name_H-M "C 2/M"
_symmetry_group_IT_number 12
_symmetry_cell_setting 'monoclinic'
loop_
_space_group_symop_operation_xyz
x,y,z
-x,y,-z
-x,-y,-z
x,-y,z
1/2+x,1/2+y,z
1/2-x,1/2+y,-z
1/2-x,1/2-y,-z
1/2+x,1/2-y,z
loop_
_atom_site_type_symbol
_atom_site_label
_atom_site_fract_x
_atom_site_fract_y
_atom_site_fract_z
Si Si1 0.779052 0.673452 0.715142
Si Si2 0.574132 0.826908 0.570749
Si Si3 0.097512 0.168592 0.394469
Si Si4 0.963050 0.166411 0.714979
Si Si5 0.771574 0.328688 0.099872
Si Si6 0.289417 0.830184 0.528060
Si Si7 0.340986 0.671405 0.908347
O O1 0.782513 0.500000 0.726160
O O2 0.842289 0.744325 0.682862
O O3 0.727891 0.745354 0.816907
O O4 0.765429 0.710547 0.636668
O O5 0.564449 0.744828 0.497239
O O6 0.521687 0.769410 0.677157
O O7 0.640078 0.785925 0.545264
O O8 0.568275 0.000000 0.562202
O O9 0.052956 0.175469 0.361754
O O10 0.113911 0.000000 0.400200
O O11 0.906806 0.221581 0.818352
O O12 0.979768 0.000000 0.723107
O O13 0.782189 0.500000 0.104739
O O14 0.708106 0.295754 0.114448
O O15 0.826691 0.265682 0.998489
O O16 0.250000 0.750000 0.500000
O O17 0.280997 0.000000 0.519437
O O18 0.339691 0.500000 0.931267
#
# Coordination Sequence:
#
# PCOD8081264 Si02
#       7
#     8   8   8   8   8   8   8
#     4  10  19  31  48  71  98 126 157 197 242 284
#     4  10  21  33  45  68  96 122 156 195 237 286
#     4  10  18  30  45  65  93 127 165 197 225 272
#     4  10  19  31  45  65  94 130 166 195 228 272
#     4  10  18  30  46  68  94 128 168 200 234 276
#     4   9  20  36  52  72  95 119 153 196 241 289
#     4   9  18  31  44  64  96 130 166 204 232 265
#
# _framework density 16.340993999999998
#
# number of rings (size 3 to 8) (size 9 to 14) (size 15 to 20)
#    0.000    2.286    1.429    3.000    0.000    7.429 
#    0.000    0.000    0.000    0.000    0.000    1.000 
#    0.000    8.000    0.000    0.000    0.000    0.000 
#
# Total GULP energy -347169.019217 kJ/mol
# GULP energy per Si atom -12398.893543 kJ/mol
# Density = 1.630380 g / cm^3
# Si number density = 16.340994 Si / 1000 Ang^3
#
#
#
# Elastic Constant Matrix: (Units=GPa)
#
#
# Indices 1 2 3 4 5 6 
#
# 1 66.9504 44.3807 57.5493 0.0000 -6.5551 0.0001
# 2 44.3807 93.3801 64.7265 0.0002 -6.1731 0.0002
# 3 57.5493 64.7265 123.9805 0.0000 -20.4333 0.0000
# 4 0.0000 0.0002 0.0000 33.3793 0.0000 -3.4562
# 5 -6.5551 -6.1731 -20.4333 0.0000 17.8318 0.0000
# 6 0.0001 0.0002 0.0000 -3.4562 0.0000 24.0157
#
#
#
# Elastic Compliance Matrix: (Units=1/GPa)
#
#
# Indices 1 2 3 4 5 6 
#
# 1 0.027363 -0.006313 -0.009996 0.000000 -0.003581 0.000000
# 2 -0.006313 0.018641 -0.007546 0.000000 -0.004514 0.000000
# 3 -0.009996 -0.007546 0.019243 0.000000 0.015764 0.000000
# 4 0.000000 0.000000 0.000000 0.030412 0.000000 0.004377
# 5 -0.003581 -0.004514 0.015764 0.000000 0.071264 0.000000
# 6 0.000000 0.000000 0.000000 0.004377 0.000000 0.042269
#
#
# Mechanical properties :
#
#
# Convention : Reuss Voigt Hill
#
# Bulk Modulus (GPa) = 57.01721 68.62489 62.82105
# Shear Modulus (GPa) = 19.02981 22.88899 20.95940
#
# Velocity S-wave (km/s) = 3.41624 3.74667 3.58526
# Velocity P-wave (km/s) = 7.10836 7.79765 7.46097
#
# Compressibility (1/GPa) = 0.01753857
#
# Stress axis : x y z
#
# Youngs Moduli (GPa) = 36.54630 53.64511 51.96749
#
# Poissons Ratio (x) = 0.33866 0.51944
# Poissons Ratio (y) = 0.23071 0.39212
# Poissons Ratio (z) = 0.36530 0.40478
#
# Static dielectric constant tensor:
#      x y z
#    x 2.731720 0.000000 -0.180190 
#    y 0.000000 3.155680 0.000000 
#    z -0.180190 0.000000 3.284930 
# 
# 
# High freq. dielectric constant tensor:
#      x y z
#    x 1.581670 0.000000 -0.018100 
#    y 0.000000 1.640330 0.000000 
#    z -0.018100 0.000000 1.630230 
# 
# From -- ./inp_files/243602.got.cif
#   From: 2010.06.25/outbox.cif.g09.slc.cpg/sg12_122_cif.got.tgz:243602.got - 2010.06.28 00:19:55.
