data_PCOD8081806
_publ_section_title
;
Structure prediction by ZEFSAII (Michael W. Deem and Ramdas Pophale) SiO2 
 PCOD8081806
Probable space group: C 2/M
;
_chemical_formula_sum "Si O2"
_cell_formula_units_Z 64
_cell_length_a 20.485948
_cell_length_b 8.725342
_cell_length_c 23.461463
_cell_angle_alpha 90.000000
_cell_angle_beta 123.458095
_cell_angle_gamma 90.000000
_cell_volume 3498.728763
_symmetry_space_group_name_H-M "C 2/M"
_symmetry_group_IT_number 12
_symmetry_cell_setting 'monoclinic'
loop_
_space_group_symop_operation_xyz
x,y,z
-x,y,-z
-x,-y,-z
x,-y,z
1/2+x,1/2+y,z
1/2-x,1/2+y,-z
1/2-x,1/2-y,-z
1/2+x,1/2-y,z
loop_
_atom_site_type_symbol
_atom_site_label
_atom_site_fract_x
_atom_site_fract_y
_atom_site_fract_z
Si Si1 0.725726 0.679708 0.174928
Si Si2 0.221441 0.820556 0.570805
Si Si3 0.040778 0.178925 0.669852
Si Si4 0.126960 0.321783 0.425595
Si Si5 0.681851 0.182426 0.672668
Si Si6 0.139123 0.823839 0.823896
Si Si7 0.414019 0.316792 0.964907
Si Si8 0.834407 0.821689 0.038968
O O1 0.723771 0.500000 0.179435
O O2 0.755719 0.743937 0.250088
O O3 0.785713 0.722485 0.154095
O O4 0.640225 0.740128 0.114205
O O5 0.161507 0.727692 0.502817
O O6 0.310472 0.785025 0.594232
O O7 0.208296 0.765573 0.628344
O O8 0.203125 0.000000 0.556168
O O9 0.094584 0.268683 0.650028
O O10 0.067676 0.217845 0.747445
O O11 0.951349 0.228119 0.623270
O O12 0.048000 0.000000 0.659379
O O13 0.106138 0.500000 0.417813
O O14 0.683665 0.000000 0.665340
O O15 0.117267 0.789727 0.879185
O O16 0.163431 0.000000 0.827105
O O17 0.416691 0.500000 0.967098
O O18 0.500000 0.246150 0.000000
O O19 0.382149 0.250933 0.009321
O O20 0.822634 0.000000 0.023201
O O21 0.750000 0.750000 0.000000
#
# Coordination Sequence:
#
# PCOD8081806 Si02
#       8
#     8   8   8   8   8   8   8   8
#     4   9  17  31  51  75 100 136 174 212 260 307
#     4  10  21  38  59  81 108 142 177 212 261 318
#     4  10  20  35  54  79 111 143 176 219 270 316
#     4  10  21  38  59  82 109 140 175 217 262 310
#     4  10  20  34  54  81 109 139 181 223 262 313
#     4   9  18  31  49  76 103 133 171 215 263 308
#     4   9  17  30  48  72 102 134 171 215 260 305
#     4  10  18  30  51  75  98 132 175 217 259 306
#
# _framework density 18.292358
#
# number of rings (size 3 to 8) (size 9 to 14) (size 15 to 20)
#    0.000    2.375    1.250    1.500    0.000    3.000 
#    2.250    2.500    0.000    1.500    0.000    0.000 
#    0.000    0.000    0.000    0.000    0.000    0.000 
#
# Total GULP energy -396684.807964 kJ/mol
# GULP energy per Si atom -12396.400249 kJ/mol
# Density = 1.825072 g / cm^3
# Si number density = 18.292358 Si / 1000 Ang^3
#
#
#
# Elastic Constant Matrix: (Units=GPa)
#
#
# Indices 1 2 3 4 5 6 
#
# 1 114.7968 12.4082 67.0635 0.0000 -0.8768 0.0000
# 2 12.4082 20.4970 9.5428 0.0000 -2.6596 0.0000
# 3 67.0635 9.5428 102.7727 0.0000 1.2139 0.0000
# 4 0.0000 0.0000 0.0000 20.6479 0.0000 -0.8864
# 5 -0.8768 -2.6596 1.2139 0.0000 35.9459 0.0000
# 6 0.0000 0.0000 0.0000 -0.8864 0.0000 26.4300
#
#
#
# Elastic Compliance Matrix: (Units=1/GPa)
#
#
# Indices 1 2 3 4 5 6 
#
# 1 0.014478 -0.004518 -0.009032 0.000000 0.000324 0.000000
# 2 -0.004518 0.052964 -0.002016 0.000000 0.003877 0.000000
# 3 -0.009032 -0.002016 0.015822 0.000000 -0.000904 0.000000
# 4 0.000000 0.000000 0.000000 0.048501 0.000000 0.001627
# 5 0.000324 0.003877 -0.000904 0.000000 0.028145 0.000000
# 6 0.000000 0.000000 0.000000 0.001627 0.000000 0.037890
#
#
# Mechanical properties :
#
#
# Convention : Reuss Voigt Hill
#
# Bulk Modulus (GPa) = 19.18163 46.23285 32.70724
# Shear Modulus (GPa) = 20.29975 26.54156 23.42065
#
# Velocity S-wave (km/s) = 3.33489 3.81328 3.58208
# Velocity P-wave (km/s) = 5.03364 6.68711 5.91840
#
# Compressibility (1/GPa) = 0.05213322
#
# Stress axis : x y z
#
# Youngs Moduli (GPa) = 69.06895 18.88080 63.20373
#
# Poissons Ratio (x) = 0.08530 0.57086
# Poissons Ratio (y) = 0.31203 0.12740
# Poissons Ratio (z) = 0.62383 0.03806
#
# Static dielectric constant tensor:
#      x y z
#    x 3.472140 0.000000 -0.219980 
#    y 0.000000 3.288090 0.000000 
#    z -0.219980 0.000000 4.214920 
# 
# 
# High freq. dielectric constant tensor:
#      x y z
#    x 1.696640 0.000000 -0.004790 
#    y 0.000000 1.700220 0.000000 
#    z -0.004790 0.000000 1.720870 
# 
# From -- ./inp_files/346293.got.cif
#   From: 2010.06.25/outbox.cif.g09.slc.cpg/sg12_174_cif.got.tgz:346293.got - 2010.06.28 00:19:55.
