data_PCOD8081077
_publ_section_title
;
Structure prediction by ZEFSAII (Michael W. Deem and Ramdas Pophale) SiO2 
 PCOD8081077
Probable space group: C 2/M
;
_chemical_formula_sum "Si O2"
_cell_formula_units_Z 64
_cell_length_a 20.276007
_cell_length_b 9.070509
_cell_length_c 23.999633
_cell_angle_alpha 90.000000
_cell_angle_beta 126.368093
_cell_angle_gamma 90.000000
_cell_volume 3554.147736
_symmetry_space_group_name_H-M "C 2/M"
_symmetry_group_IT_number 12
_symmetry_cell_setting 'monoclinic'
loop_
_space_group_symop_operation_xyz
x,y,z
-x,y,-z
-x,-y,-z
x,-y,z
1/2+x,1/2+y,z
1/2-x,1/2+y,-z
1/2-x,1/2-y,-z
1/2+x,1/2-y,z
loop_
_atom_site_type_symbol
_atom_site_label
_atom_site_fract_x
_atom_site_fract_y
_atom_site_fract_z
Si Si1 0.893685 0.676853 0.274757
Si Si2 0.397275 0.168744 0.840262
Si Si3 0.515914 0.835290 0.421800
Si Si4 0.659837 0.327724 0.859434
Si Si5 0.561188 0.327984 0.919368
Si Si6 0.772281 0.829553 0.296999
Si Si7 0.345457 0.827188 0.937731
Si Si8 0.134218 0.666992 0.568993
O O1 0.888124 0.500000 0.273513
O O2 0.892467 0.736029 0.211521
O O3 0.817047 0.741725 0.270189
O O4 0.980441 0.732641 0.346272
O O5 0.472120 0.268843 0.857817
O O6 0.324657 0.190172 0.759438
O O7 0.365724 0.218453 0.885033
O O8 0.426723 0.000000 0.856885
O O9 0.438642 0.836290 0.423614
O O10 0.595511 0.761498 0.492123
O O11 0.545643 0.000000 0.424967
O O12 0.652807 0.500000 0.841013
O O13 0.624481 0.289936 0.902101
O O14 0.753647 0.274434 0.905671
O O15 0.555176 0.500000 0.927040
O O16 0.590303 0.253117 0.990619
O O17 0.793876 0.768102 0.369594
O O18 0.798344 0.000000 0.305691
O O19 0.354667 0.000000 0.952363
O O20 0.166869 0.500000 0.575952
#
# Coordination Sequence:
#
# PCOD8081077 Si02
#       8
#     8   8   8   8   8   8   8   8
#     4  10  18  29  49  74  98 131 172 209 244 294
#     4  10  21  37  55  73 100 140 171 201 252 307
#     4   7  12  23  39  63  97 130 160 199 248 293
#     4  10  21  38  54  74 105 136 164 204 260 303
#     4  11  24  37  53  78 105 129 164 216 256 293
#     4  10  18  30  47  70 101 134 168 207 251 296
#     4  10  20  38  59  74  97 135 170 201 252 313
#     4   8  13  24  41  63  95 132 165 200 244 295
#
# _framework density 18.007131000000001
#
# number of rings (size 3 to 8) (size 9 to 14) (size 15 to 20)
#    0.000    2.500    1.250    3.375    0.000    4.500 
#    0.000    5.625    0.000    0.000    0.000    0.875 
#    0.000    0.000    0.000    0.000    0.000    0.000 
#
# Total GULP energy -396581.549651 kJ/mol
# GULP energy per Si atom -12393.173427 kJ/mol
# Density = 1.796615 g / cm^3
# Si number density = 18.007131 Si / 1000 Ang^3
#
#
#
# Elastic Constant Matrix: (Units=GPa)
#
#
# Indices 1 2 3 4 5 6 
#
# 1 55.7590 19.8565 15.7020 0.0000 12.3693 0.0000
# 2 19.8565 56.4438 38.2411 0.0000 6.6543 0.0000
# 3 15.7020 38.2411 117.4698 0.0000 24.4113 0.0000
# 4 0.0000 0.0000 0.0000 32.7862 0.0000 2.0356
# 5 12.3693 6.6543 24.4113 0.0000 13.5240 0.0000
# 6 0.0000 0.0000 0.0000 2.0356 0.0000 21.1372
#
#
#
# Elastic Compliance Matrix: (Units=1/GPa)
#
#
# Indices 1 2 3 4 5 6 
#
# 1 0.026384 -0.009722 0.005855 0.000000 -0.029916 0.000000
# 2 -0.009722 0.026415 -0.010316 0.000000 0.014515 0.000000
# 3 0.005855 -0.010316 0.017837 0.000000 -0.032476 0.000000
# 4 0.000000 0.000000 0.000000 0.030684 0.000000 -0.002955
# 5 -0.029916 0.014515 -0.032476 0.000000 0.152782 0.000000
# 6 0.000000 0.000000 0.000000 -0.002955 0.000000 0.047595
#
#
# Mechanical properties :
#
#
# Convention : Reuss Voigt Hill
#
# Bulk Modulus (GPa) = 23.65701 41.91908 32.78805
# Shear Modulus (GPa) = 14.52846 23.88103 19.20475
#
# Velocity S-wave (km/s) = 2.84353 3.64565 3.26929
# Velocity P-wave (km/s) = 4.89357 6.40708 5.70078
#
# Compressibility (1/GPa) = 0.04227076
#
# Stress axis : x y z
#
# Youngs Moduli (GPa) = 37.90182 37.85789 56.06246
#
# Poissons Ratio (x) = 0.36804 -0.32824
# Poissons Ratio (y) = 0.36846 0.57833
# Poissons Ratio (z) = -0.22191 0.39054
#
# Static dielectric constant tensor:
#      x y z
#    x 2.949190 0.000000 0.149170 
#    y 0.000000 3.245830 0.000000 
#    z 0.149170 0.000000 3.871230 
# 
# 
# High freq. dielectric constant tensor:
#      x y z
#    x 1.648820 0.000000 0.014070 
#    y 0.000000 1.684330 0.000000 
#    z 0.014070 0.000000 1.719790 
# 
# From -- ./inp_files/345584.got.cif
#   From: 2010.06.25/outbox.cif.g09.slc.cpg/sg12_173_cif.got.tgz:345584.got - 2010.06.28 00:19:55.
