data_PCOD8081353
_publ_section_title
;
Structure prediction by ZEFSAII (Michael W. Deem and Ramdas Pophale) SiO2 
 PCOD8081353
Probable space group: C 2/M
;
_chemical_formula_sum "Si O2"
_cell_formula_units_Z 48
_cell_length_a 19.414717
_cell_length_b 8.857878
_cell_length_c 20.594804
_cell_angle_alpha 90.000000
_cell_angle_beta 49.011091
_cell_angle_gamma 90.000000
_cell_volume 2673.445592
_symmetry_space_group_name_H-M "C 2/M"
_symmetry_group_IT_number 12
_symmetry_cell_setting 'monoclinic'
loop_
_space_group_symop_operation_xyz
x,y,z
-x,y,-z
-x,-y,-z
x,-y,z
1/2+x,1/2+y,z
1/2-x,1/2+y,-z
1/2-x,1/2-y,-z
1/2+x,1/2-y,z
loop_
_atom_site_type_symbol
_atom_site_label
_atom_site_fract_x
_atom_site_fract_y
_atom_site_fract_z
Si Si1 0.765312 0.677976 0.281617
Si Si2 0.922743 0.320394 0.596924
Si Si3 0.938587 0.677479 0.976336
Si Si4 0.068020 0.324757 0.264287
Si Si5 0.455979 0.178993 0.214945
Si Si6 0.725774 0.675523 0.861412
O O1 0.750580 0.500000 0.288582
O O2 0.674567 0.755786 0.365850
O O3 0.849477 0.723528 0.276512
O O4 0.790901 0.732848 0.194141
O O5 0.914629 0.500000 0.602164
O O6 0.946252 0.256908 0.654476
O O7 0.000000 0.262558 0.500000
O O8 0.919504 0.500000 0.984264
O O9 0.988675 0.740821 0.881406
O O10 0.842222 0.763429 0.041602
O O11 0.000000 0.719188 0.000000
O O12 0.045301 0.500000 0.282959
O O13 0.171482 0.297186 0.176698
O O14 0.999226 0.250499 0.254231
O O15 0.466906 0.000000 0.208027
O O16 0.708771 0.500000 0.857463
#
# Coordination Sequence:
#
# PCOD8081353 Si02
#       6
#     8   8   8   8   8   8
#     4  10  18  31  52  74  96 126 164 200 238 283
#     4   9  18  34  55  76  98 125 156 193 240 294
#     4  10  18  30  47  69  96 129 170 205 236 278
#     4   8  16  31  49  69  95 128 162 194 239 292
#     4   9  17  30  48  69  96 130 164 200 240 281
#     4  10  19  31  48  71  98 130 167 203 240 282
#
# _framework density 17.954359
#
# number of rings (size 3 to 8) (size 9 to 14) (size 15 to 20)
#    0.000    2.667    1.667    2.000    0.000    1.333 
#    0.000    0.833    0.000   14.000    0.000    0.000 
#    0.000    0.000    0.000    0.000    0.000    0.000 
#
# Total GULP energy -297522.114982 kJ/mol
# GULP energy per Si atom -12396.754791 kJ/mol
# Density = 1.791349 g / cm^3
# Si number density = 17.954359 Si / 1000 Ang^3
#
#
#
# Elastic Constant Matrix: (Units=GPa)
#
#
# Indices 1 2 3 4 5 6 
#
# 1 146.4252 26.6235 74.1989 0.0000 -6.3163 0.0000
# 2 26.6235 27.4691 27.0228 0.0000 -6.0857 -0.0001
# 3 74.1989 27.0228 148.8517 0.0000 -15.6520 0.0000
# 4 0.0000 0.0000 0.0000 24.4797 0.0000 -8.0772
# 5 -6.3163 -6.0857 -15.6520 0.0000 22.3469 0.0000
# 6 0.0000 -0.0001 0.0000 -8.0772 0.0000 18.6810
#
#
#
# Elastic Compliance Matrix: (Units=1/GPa)
#
#
# Indices 1 2 3 4 5 6 
#
# 1 0.009881 -0.005997 -0.004010 0.000000 -0.001649 0.000000
# 2 -0.005997 0.048981 -0.005050 0.000000 0.008107 0.000000
# 3 -0.004010 -0.005050 0.010115 0.000000 0.004576 0.000000
# 4 0.000000 0.000000 0.000000 0.047648 0.000000 0.020602
# 5 -0.001649 0.008107 0.004576 0.000000 0.049695 0.000000
# 6 0.000000 0.000000 0.000000 0.020602 0.000000 0.062438
#
#
# Mechanical properties :
#
#
# Convention : Reuss Voigt Hill
#
# Bulk Modulus (GPa) = 25.73190 64.27070 45.00130
# Shear Modulus (GPa) = 18.39404 26.09492 22.24448
#
# Velocity S-wave (km/s) = 3.20424 3.81649 3.52369
# Velocity P-wave (km/s) = 5.29646 7.43607 6.45553
#
# Compressibility (1/GPa) = 0.03886226
#
# Stress axis : x y z
#
# Youngs Moduli (GPa) = 101.20755 20.41594 98.86342
#
# Poissons Ratio (x) = 0.12244 0.39644
# Poissons Ratio (y) = 0.60695 0.49929
# Poissons Ratio (z) = 0.40584 0.10311
#
# Static dielectric constant tensor:
#      x y z
#    x 3.576600 0.000000 0.000530 
#    y 0.000000 3.010940 0.000000 
#    z 0.000530 0.000000 3.390210 
# 
# 
# High freq. dielectric constant tensor:
#      x y z
#    x 1.694540 0.000000 -0.011300 
#    y 0.000000 1.664270 0.000000 
#    z -0.011300 0.000000 1.687020 
# 
# From -- ./inp_files/280543.got.cif
#   From: 2010.06.25/outbox.cif.g09.slc.cpg/sg12_141_cif.got.tgz:280543.got - 2010.06.28 00:19:55.
