data_PCOD8081883
_publ_section_title
;
Structure prediction by ZEFSAII (Michael W. Deem and Ramdas Pophale) SiO2 
 PCOD8081883
Probable space group: C 2/M
;
_chemical_formula_sum "Si O2"
_cell_formula_units_Z 64
_cell_length_a 25.782329
_cell_length_b 23.064237
_cell_length_c 11.869745
_cell_angle_alpha 90.000000
_cell_angle_beta 29.935020
_cell_angle_gamma 90.000000
_cell_volume 3522.235652
_symmetry_space_group_name_H-M "C 2/M"
_symmetry_group_IT_number 12
_symmetry_cell_setting 'monoclinic'
loop_
_space_group_symop_operation_xyz
x,y,z
-x,y,-z
-x,-y,-z
x,-y,z
1/2+x,1/2+y,z
1/2-x,1/2+y,-z
1/2-x,1/2-y,-z
1/2+x,1/2-y,z
loop_
_atom_site_type_symbol
_atom_site_label
_atom_site_fract_x
_atom_site_fract_y
_atom_site_fract_z
Si Si1 0.295336 0.934667 0.968065
Si Si2 0.955775 0.711721 0.458008
Si Si3 0.246839 0.644806 0.158179
Si Si4 0.480552 0.661559 0.665901
Si Si5 0.182391 0.566283 0.469740
Si Si6 0.458359 0.893691 0.830957
Si Si7 0.195662 0.567175 0.701648
Si Si8 0.624025 0.433830 0.473110
O O1 0.300050 0.895014 0.850850
O O2 0.400559 0.927948 0.840545
O O3 0.286213 0.000000 0.941963
O O4 0.196746 0.918388 0.230244
O O5 0.833079 0.698107 0.680952
O O6 0.965581 0.778232 0.401700
O O7 0.000000 0.702580 0.500000
O O8 0.019233 0.671975 0.250651
O O9 0.254485 0.607483 0.258123
O O10 0.358831 0.669532 0.917573
O O11 0.500000 0.645417 0.500000
O O12 0.526369 0.609616 0.655930
O O13 0.219020 0.500000 0.387294
O O14 0.196891 0.587221 0.570616
O O15 0.063360 0.571799 0.657000
O O16 0.387598 0.892930 0.076168
O O17 0.160942 0.500000 0.780443
O O18 0.310966 0.575652 0.534843
O O19 0.583179 0.500000 0.542539
#
# Coordination Sequence:
#
# PCOD8081883 Si02
#       8
#     8   8   8   8   8   8   8   8
#     4  10  18  30  51  82 114 145 174 222 280 329
#     4  10  22  37  54  81 113 146 184 225 276 332
#     4  11  22  36  53  82 115 142 182 230 276 328
#     4  11  23  38  59  82 108 149 183 225 277 339
#     4  10  20  33  53  83 117 151 187 228 274 325
#     4  10  18  32  55  81 115 150 186 227 269 328
#     4   9  18  34  57  83 111 150 194 227 267 326
#     4   9  19  35  56  82 109 139 184 230 273 324
#
# _framework density 18.170278
#
# number of rings (size 3 to 8) (size 9 to 14) (size 15 to 20)
#    0.000    2.000    2.500    2.625    0.000    6.250 
#    0.000    2.500    0.000   12.000    0.000    0.000 
#    0.000    0.000    0.000    0.000    0.000    0.000 
#
# Total GULP energy -396876.584279 kJ/mol
# GULP energy per Si atom -12402.393259 kJ/mol
# Density = 1.812892 g / cm^3
# Si number density = 18.170278 Si / 1000 Ang^3
#
#
#
# Elastic Constant Matrix: (Units=GPa)
#
#
# Indices 1 2 3 4 5 6 
#
# 1 85.3754 45.9617 46.3424 -0.0001 12.1406 0.0000
# 2 45.9617 98.7966 47.5929 0.0000 -2.3938 0.0000
# 3 46.3424 47.5929 98.4884 -0.0002 -6.0091 0.0001
# 4 -0.0001 0.0000 -0.0002 18.8205 0.0001 -4.3641
# 5 12.1406 -2.3938 -6.0091 0.0001 26.3035 0.0000
# 6 0.0000 0.0000 0.0001 -4.3641 0.0000 21.6938
#
#
#
# Elastic Compliance Matrix: (Units=1/GPa)
#
#
# Indices 1 2 3 4 5 6 
#
# 1 0.020927 -0.006426 -0.007471 0.000000 -0.011951 0.000000
# 2 -0.006426 0.015168 -0.004098 0.000000 0.003410 0.000000
# 3 -0.007471 -0.004098 0.016060 0.000000 0.006744 0.000000
# 4 0.000000 0.000000 0.000000 0.055734 0.000000 0.011212
# 5 -0.011951 0.003410 0.006744 0.000000 0.045385 0.000000
# 6 0.000000 0.000000 0.000000 0.011212 0.000000 0.048352
#
#
# Mechanical properties :
#
#
# Convention : Reuss Voigt Hill
#
# Bulk Modulus (GPa) = 61.85859 62.49493 62.17676
# Shear Modulus (GPa) = 20.57579 22.88111 21.72845
#
# Velocity S-wave (km/s) = 3.36875 3.55246 3.46182
# Velocity P-wave (km/s) = 7.01776 7.16207 7.09029
#
# Compressibility (1/GPa) = 0.01616590
#
# Stress axis : x y z
#
# Youngs Moduli (GPa) = 47.78476 65.92786 62.26481
#
# Poissons Ratio (x) = 0.42368 0.46516
# Poissons Ratio (y) = 0.30708 0.25515
# Poissons Ratio (z) = 0.35699 0.27016
#
# Static dielectric constant tensor:
#      x y z
#    x 3.373850 0.000000 0.041640 
#    y 0.000000 3.235930 0.000000 
#    z 0.041640 0.000000 3.262370 
# 
# 
# High freq. dielectric constant tensor:
#      x y z
#    x 1.699420 0.000000 -0.004480 
#    y 0.000000 1.693940 0.000000 
#    z -0.004480 0.000000 1.695350 
# 
# From -- ./inp_files/178406.got.cif
#   From: 2010.06.25/outbox.cif.g09.slc.cpg/sg12_90_cif.got.tgz:178406.got - 2010.06.28 00:19:55.
