data_PCOD8081300
_publ_section_title
;
Structure prediction by ZEFSAII (Michael W. Deem and Ramdas Pophale) SiO2 
 PCOD8081300
Probable space group: C 2/M
;
_chemical_formula_sum "Si O2"
_cell_formula_units_Z 64
_cell_length_a 30.009906
_cell_length_b 8.872790
_cell_length_c 30.730273
_cell_angle_alpha 90.000000
_cell_angle_beta 28.858886
_cell_angle_gamma 90.000000
_cell_volume 3949.364418
_symmetry_space_group_name_H-M "C 2/M"
_symmetry_group_IT_number 12
_symmetry_cell_setting 'monoclinic'
loop_
_space_group_symop_operation_xyz
x,y,z
-x,y,-z
-x,-y,-z
x,-y,z
1/2+x,1/2+y,z
1/2-x,1/2+y,-z
1/2-x,1/2-y,-z
1/2+x,1/2-y,z
loop_
_atom_site_type_symbol
_atom_site_label
_atom_site_fract_x
_atom_site_fract_y
_atom_site_fract_z
Si Si1 0.525656 0.823649 0.081577
Si Si2 0.520315 0.678447 0.412833
Si Si3 0.187863 0.675972 0.875811
Si Si4 0.138817 0.175088 0.054533
Si Si5 0.169324 0.174780 0.126208
Si Si6 0.359043 0.321562 0.609563
Si Si7 0.661000 0.179056 0.801019
Si Si8 0.626915 0.822281 0.247787
O O1 0.549286 0.733234 0.105356
O O2 0.428138 0.758042 0.147946
O O3 0.519939 0.000000 0.097410
O O4 0.600994 0.789961 0.980400
O O5 0.524872 0.500000 0.401466
O O6 0.594772 0.733294 0.384948
O O7 0.418758 0.730755 0.516648
O O8 0.542217 0.761554 0.349140
O O9 0.214051 0.500000 0.852749
O O10 0.161425 0.734900 0.850461
O O11 0.275587 0.765556 0.817799
O O12 0.121967 0.204253 0.120094
O O13 0.157708 0.000000 0.029087
O O14 0.225650 0.268941 0.963253
O O15 0.110930 0.263056 0.212400
O O16 0.171612 0.000000 0.136599
O O17 0.360867 0.500000 0.609366
O O18 0.253816 0.261786 0.697286
O O19 0.656105 0.000000 0.805078
O O20 0.625280 0.000000 0.249166
#
# Coordination Sequence:
#
# PCOD8081300 Si02
#       8
#     8   8   8   8   8   8   8   8
#     4  10  19  29  47  71  96 130 165 194 229 271
#     4   9  16  29  49  69  91 123 160 198 237 279
#     4  10  18  30  46  65  95 132 168 197 220 265
#     4  10  20  33  49  70  95 121 153 196 239 279
#     4  10  20  34  51  68  90 123 159 193 234 283
#     4   8  14  26  48  72  91 119 163 204 231 265
#     4   9  16  28  47  71  95 125 169 204 222 262
#     4  12  22  30  45  71  99 126 154 193 242 286
#
# _framework density 16.20514
#
# number of rings (size 3 to 8) (size 9 to 14) (size 15 to 20)
#    0.000    2.250    2.500    3.000    0.000    3.000 
#    0.000    1.875    0.000    1.500    0.000    0.875 
#    0.000    0.000    0.000    0.000    0.000    0.000 
#
# Total GULP energy -396744.995176 kJ/mol
# GULP energy per Si atom -12398.281099 kJ/mol
# Density = 1.616826 g / cm^3
# Si number density = 16.205140 Si / 1000 Ang^3
#
#
#
# Elastic Constant Matrix: (Units=GPa)
#
#
# Indices 1 2 3 4 5 6 
#
# 1 103.7739 36.4143 60.6521 -0.0161 7.4597 0.0122
# 2 36.4143 63.7308 40.1341 -0.0283 9.5912 0.0361
# 3 60.6521 40.1341 114.5991 -0.0043 11.3032 0.0090
# 4 -0.0161 -0.0283 -0.0043 13.6457 0.0010 3.5704
# 5 7.4597 9.5912 11.3032 0.0010 24.6847 -0.0068
# 6 0.0122 0.0361 0.0090 3.5704 -0.0068 20.5912
#
#
#
# Elastic Compliance Matrix: (Units=1/GPa)
#
#
# Indices 1 2 3 4 5 6 
#
# 1 0.014917 -0.004574 -0.006309 0.000006 0.000158 0.000001
# 2 -0.004574 0.022094 -0.004824 0.000051 -0.004993 -0.000044
# 3 -0.006309 -0.004824 0.014014 -0.000015 -0.002636 0.000008
# 4 0.000006 0.000051 -0.000015 0.076766 -0.000021 -0.013311
# 5 0.000158 -0.004993 -0.002636 -0.000021 0.043611 0.000028
# 6 0.000001 -0.000044 0.000008 -0.013311 0.000028 0.050873
#
#
# Mechanical properties :
#
#
# Convention : Reuss Voigt Hill
#
# Bulk Modulus (GPa) = 50.99017 61.83385 56.41201
# Shear Modulus (GPa) = 19.21403 21.44455 20.32929
#
# Velocity S-wave (km/s) = 3.44710 3.64169 3.54573
# Velocity P-wave (km/s) = 6.88310 7.47812 7.18677
#
# Compressibility (1/GPa) = 0.01961162
#
# Stress axis : x y z
#
# Youngs Moduli (GPa) = 67.03637 45.26077 71.35488
#
# Poissons Ratio (x) = 0.20704 0.45015
# Poissons Ratio (y) = 0.30665 0.34423
# Poissons Ratio (z) = 0.42291 0.21835
#
# Static dielectric constant tensor:
#      x y z
#    x 3.128040 -0.000040 0.065420 
#    y -0.000040 2.832120 0.000070 
#    z 0.065420 0.000070 3.281840 
# 
# 
# High freq. dielectric constant tensor:
#      x y z
#    x 1.607680 -0.000010 0.013540 
#    y -0.000010 1.602570 0.000010 
#    z 0.013540 0.000010 1.614920 
# 
# From -- ./inp_files/248286.got.cif
#   From: 2010.06.25/outbox.cif.g09.slc.cpg/sg12_125_cif.got.tgz:248286.got - 2010.06.28 00:19:55.
