data_PCOD8081370
_publ_section_title
;
Structure prediction by ZEFSAII (Michael W. Deem and Ramdas Pophale) SiO2 
 PCOD8081370
Probable space group: C 2/M
;
_chemical_formula_sum "Si O2"
_cell_formula_units_Z 48
_cell_length_a 23.752419
_cell_length_b 8.641234
_cell_length_c 12.915745
_cell_angle_alpha 90.000000
_cell_angle_beta 90.150350
_cell_angle_gamma 90.000000
_cell_volume 2650.950255
_symmetry_space_group_name_H-M "C 2/M"
_symmetry_group_IT_number 12
_symmetry_cell_setting 'monoclinic'
loop_
_space_group_symop_operation_xyz
x,y,z
-x,y,-z
-x,-y,-z
x,-y,z
1/2+x,1/2+y,z
1/2-x,1/2+y,-z
1/2-x,1/2-y,-z
1/2+x,1/2-y,z
loop_
_atom_site_type_symbol
_atom_site_label
_atom_site_fract_x
_atom_site_fract_y
_atom_site_fract_z
Si Si1 0.367079 0.315967 0.304380
Si Si2 0.436199 0.315788 0.113150
Si Si3 0.134837 0.184014 0.307426
Si Si4 0.748356 0.182976 0.385056
Si Si5 0.562961 0.684189 0.501733
Si Si6 0.062524 0.183863 0.116644
O O1 0.370176 0.500000 0.304184
O O2 0.391563 0.249211 0.196226
O O3 0.303257 0.260327 0.321871
O O4 0.405440 0.250398 0.397402
O O5 0.436011 0.500000 0.115932
O O6 0.499223 0.256817 0.141083
O O7 0.419013 0.258640 0.997829
O O8 0.195931 0.258407 0.318498
O O9 0.095878 0.242332 0.400914
O O10 0.106593 0.247086 0.201454
O O11 0.141174 0.000000 0.308164
O O12 0.750000 0.250000 0.500000
O O13 0.747179 0.000000 0.395530
O O14 0.500000 0.752400 0.500000
O O15 0.561255 0.500000 0.503512
O O16 0.062174 0.000000 0.121164
#
# Coordination Sequence:
#
# PCOD8081370 Si02
#       6
#     8   8   8   8   8   8
#     4   9  16  26  41  63  90 120 155 191 228 274
#     4   8  13  24  42  69  99 122 149 191 240 278
#     4  10  18  30  47  71  98 123 156 193 235 281
#     4  11  21  34  49  67  92 128 164 195 233 278
#     4   9  15  23  40  67  93 115 146 191 234 273
#     4   8  14  24  43  70  99 124 147 188 241 281
#
# _framework density 18.106714
#
# number of rings (size 3 to 8) (size 9 to 14) (size 15 to 20)
#    0.000    2.833    1.667    2.500    0.000    4.000 
#    0.000    0.833    0.000    0.500    0.000    3.500 
#    0.000    0.000    0.000    0.000    0.000    0.000 
#
# Total GULP energy -297476.879715 kJ/mol
# GULP energy per Si atom -12394.869988 kJ/mol
# Density = 1.806550 g / cm^3
# Si number density = 18.106714 Si / 1000 Ang^3
#
#
#
# Elastic Constant Matrix: (Units=GPa)
#
#
# Indices 1 2 3 4 5 6 
#
# 1 182.6057 17.6604 110.9149 0.0000 -3.6981 0.0000
# 2 17.6604 15.5372 14.8261 0.0000 -2.5036 0.0000
# 3 110.9149 14.8261 179.0659 0.0000 -4.2309 0.0000
# 4 0.0000 0.0000 0.0000 7.6450 0.0000 2.8842
# 5 -3.6981 -2.5036 -4.2309 0.0000 34.5917 0.0000
# 6 0.0000 0.0000 0.0000 2.8842 0.0000 21.9321
#
#
#
# Elastic Compliance Matrix: (Units=1/GPa)
#
#
# Indices 1 2 3 4 5 6 
#
# 1 0.009184 -0.005449 -0.005239 0.000000 -0.000053 0.000000
# 2 -0.005449 0.073779 -0.002629 0.000000 0.004436 0.000000
# 3 -0.005239 -0.002629 0.009056 0.000000 0.000357 0.000000
# 4 0.000000 0.000000 0.000000 0.137633 0.000000 -0.018100
# 5 -0.000053 0.004436 0.000357 0.000000 0.029268 0.000000
# 6 0.000000 0.000000 0.000000 -0.018100 0.000000 0.047975
#
#
# Mechanical properties :
#
#
# Convention : Reuss Voigt Hill
#
# Bulk Modulus (GPa) = 15.29393 73.77906 44.53649
# Shear Modulus (GPa) = 14.07171 28.42092 21.24631
#
# Velocity S-wave (km/s) = 2.79077 3.96616 3.42920
# Velocity P-wave (km/s) = 4.34159 7.86188 6.35053
#
# Compressibility (1/GPa) = 0.06538542
#
# Stress axis : x y z
#
# Youngs Moduli (GPa) = 108.88132 13.55408 110.42784
#
# Poissons Ratio (x) = 0.07385 0.57853
# Poissons Ratio (y) = 0.59327 0.29030
# Poissons Ratio (z) = 0.57042 0.03563
#
# Static dielectric constant tensor:
#      x y z
#    x 3.597360 0.000000 -0.044880 
#    y 0.000000 2.698540 0.000000 
#    z -0.044880 0.000000 3.702190 
# 
# 
# High freq. dielectric constant tensor:
#      x y z
#    x 1.706810 0.000000 -0.000780 
#    y 0.000000 1.633920 0.000000 
#    z -0.000780 0.000000 1.709340 
# 
# From -- ./inp_files/164171.got.cif
#   From: 2010.06.25/outbox.cif.g09.slc.cpg/sg12_83_cif.got.tgz:164171.got - 2010.06.28 00:19:55.
