data_PCOD8081600
_publ_section_title
;
Structure prediction by ZEFSAII (Michael W. Deem and Ramdas Pophale) SiO2 
 PCOD8081600
Probable space group: C 2/M
;
_chemical_formula_sum "Si O2"
_cell_formula_units_Z 56
_cell_length_a 23.873797
_cell_length_b 9.442491
_cell_length_c 30.137437
_cell_angle_alpha 90.000000
_cell_angle_beta 25.669425
_cell_angle_gamma 90.000000
_cell_volume 2942.936973
_symmetry_space_group_name_H-M "C 2/M"
_symmetry_group_IT_number 12
_symmetry_cell_setting 'monoclinic'
loop_
_space_group_symop_operation_xyz
x,y,z
-x,y,-z
-x,-y,-z
x,-y,z
1/2+x,1/2+y,z
1/2-x,1/2+y,-z
1/2-x,1/2-y,-z
1/2+x,1/2-y,z
loop_
_atom_site_type_symbol
_atom_site_label
_atom_site_fract_x
_atom_site_fract_y
_atom_site_fract_z
Si Si1 0.754409 0.660949 0.540748
Si Si2 0.978941 0.166839 0.235062
Si Si3 0.164307 0.833389 0.179258
Si Si4 0.952674 0.661298 0.657744
Si Si5 0.115318 0.665464 0.388314
Si Si6 0.041063 0.666104 0.020236
Si Si7 0.406372 0.334409 0.192629
O O1 0.716446 0.500000 0.555805
O O2 0.750000 0.750000 0.500000
O O3 0.649652 0.726778 0.649393
O O4 0.895365 0.668865 0.461678
O O5 0.984566 0.222644 0.180208
O O6 0.106170 0.209619 0.172484
O O7 0.964055 0.000000 0.242086
O O8 0.082232 0.756891 0.275534
O O9 0.150599 0.000000 0.197412
O O10 0.312347 0.784569 0.075593
O O11 0.910058 0.500000 0.698856
O O12 0.883836 0.723865 0.662894
O O13 0.085117 0.500000 0.405762
O O14 0.254740 0.694998 0.310325
O O15 0.000000 0.735736 0.500000
O O16 0.023594 0.500000 0.040978
O O17 0.949268 0.748231 0.119226
O O18 0.000000 0.708588 0.000000
O O19 0.431080 0.500000 0.165638
#
# Coordination Sequence:
#
# PCOD8081600 Si02
#       7
#     8   8   8   8   8   8   8
#     4  10  18  30  49  74 107 140 169 205 249 300
#     4   9  18  33  52  76 105 137 173 208 253 314
#     4  10  20  35  54  73 100 140 175 207 258 316
#     4  10  19  30  50  80 106 130 170 219 256 293
#     4   9  17  31  52  78 106 135 168 207 256 310
#     4  10  22  39  56  75 102 137 175 215 263 314
#     4  10  20  35  57  80 103 135 173 215 259 303
#
# _framework density 19.028608999999999
#
# number of rings (size 3 to 8) (size 9 to 14) (size 15 to 20)
#    0.000    2.286    1.429    1.714    0.000    4.857 
#    0.000    1.429    0.000    3.429    0.000    0.000 
#    0.000    0.000    0.000    0.000    0.000    0.000 
#
# Total GULP energy -347140.426291 kJ/mol
# GULP energy per Si atom -12397.872368 kJ/mol
# Density = 1.898530 g / cm^3
# Si number density = 19.028609 Si / 1000 Ang^3
#
#
#
# Elastic Constant Matrix: (Units=GPa)
#
#
# Indices 1 2 3 4 5 6 
#
# 1 152.0990 29.4106 53.4447 0.0077 8.7398 -0.0025
# 2 29.4106 33.6172 30.5513 0.0037 5.6964 -0.0109
# 3 53.4447 30.5513 106.3833 -0.0162 4.7984 0.0031
# 4 0.0077 0.0037 -0.0162 24.7178 0.0014 5.5428
# 5 8.7398 5.6964 4.7984 0.0014 35.4259 -0.0029
# 6 -0.0025 -0.0109 0.0031 5.5428 -0.0029 16.4546
#
#
#
# Elastic Compliance Matrix: (Units=1/GPa)
#
#
# Indices 1 2 3 4 5 6 
#
# 1 0.008558 -0.004676 -0.002913 -0.000004 -0.000965 0.000000
# 2 -0.004676 0.043684 -0.009992 -0.000019 -0.004517 0.000036
# 3 -0.002913 -0.009992 0.013712 0.000015 0.000468 -0.000015
# 4 -0.000004 -0.000019 0.000015 0.043762 -0.000001 -0.014742
# 5 -0.000965 -0.004517 0.000468 -0.000001 0.029129 0.000002
# 6 0.000000 0.000036 -0.000015 -0.014742 0.000002 0.065739
#
#
# Mechanical properties :
#
#
# Convention : Reuss Voigt Hill
#
# Bulk Modulus (GPa) = 32.47695 57.65697 45.06696
# Shear Modulus (GPa) = 19.99911 27.23251 23.61581
#
# Velocity S-wave (km/s) = 3.24543 3.78714 3.52670
# Velocity P-wave (km/s) = 5.58106 7.03485 6.34970
#
# Compressibility (1/GPa) = 0.03079107
#
# Stress axis : x y z
#
# Youngs Moduli (GPa) = 116.85186 22.89152 72.92986
#
# Poissons Ratio (x) = 0.10705 0.21243
# Poissons Ratio (y) = 0.54644 0.72874
# Poissons Ratio (z) = 0.34037 0.22874
#
# Static dielectric constant tensor:
#      x y z
#    x 3.832730 -0.000040 -0.098970 
#    y -0.000040 3.119370 0.000060 
#    z -0.098970 0.000060 3.475590 
# 
# 
# High freq. dielectric constant tensor:
#      x y z
#    x 1.760080 0.000000 -0.003320 
#    y 0.000000 1.696470 0.000000 
#    z -0.003320 0.000000 1.737880 
# 
# From -- ./inp_files/346983.got.cif
#   From: 2010.06.25/outbox.cif.g09.slc.cpg/sg12_174_cif.got.tgz:346983.got - 2010.06.28 00:19:55.
