data_PCOD8081953
_publ_section_title
;
Structure prediction by ZEFSAII (Michael W. Deem and Ramdas Pophale) SiO2 
 PCOD8081953
Probable space group: C 2/M
;
_chemical_formula_sum "Si O2"
_cell_formula_units_Z 56
_cell_length_a 11.011797
_cell_length_b 18.094870
_cell_length_c 18.132163
_cell_angle_alpha 90.000000
_cell_angle_beta 54.298027
_cell_angle_gamma 90.000000
_cell_volume 2933.953542
_symmetry_space_group_name_H-M "C 2/M"
_symmetry_group_IT_number 12
_symmetry_cell_setting 'monoclinic'
loop_
_space_group_symop_operation_xyz
x,y,z
-x,y,-z
-x,-y,-z
x,-y,z
1/2+x,1/2+y,z
1/2-x,1/2+y,-z
1/2-x,1/2-y,-z
1/2+x,1/2-y,z
loop_
_atom_site_type_symbol
_atom_site_label
_atom_site_fract_x
_atom_site_fract_y
_atom_site_fract_z
Si Si1 0.294386 0.150331 0.185971
Si Si2 0.018751 0.916768 0.350798
Si Si3 0.656515 0.196792 0.265106
Si Si4 0.886529 0.672564 0.884506
Si Si5 0.350103 0.343690 0.916809
Si Si6 0.124918 0.916531 0.757086
Si Si7 0.076488 0.229961 0.550563
O O1 0.194202 0.099487 0.275405
O O2 0.270688 0.235854 0.215175
O O3 0.467111 0.130566 0.137216
O O4 0.255760 0.136423 0.114531
O O5 0.937308 0.906027 0.302226
O O6 0.946209 0.858524 0.433234
O O7 0.998522 0.000000 0.388942
O O8 0.621433 0.158965 0.199544
O O9 0.729444 0.134551 0.290388
O O10 0.504239 0.225865 0.355284
O O11 0.899694 0.758838 0.898474
O O12 0.740797 0.638245 0.976281
O O13 0.499844 0.392743 0.861277
O O14 0.173023 0.000000 0.756414
O O15 0.250000 0.250000 0.500000
O O16 0.000000 0.253819 0.500000
#
# Coordination Sequence:
#
# PCOD8081953 Si02
#       7
#     8   8   8   8   8   8   8
#     4   9  17  31  55  77 110 145 184 235 270 325
#     4   9  20  37  60  83 109 148 184 226 286 346
#     4  10  21  34  55  79 111 143 190 226 285 342
#     4  10  18  30  53  78 112 145 187 242 271 320
#     4   9  18  30  49  83 108 146 196 229 276 318
#     4  10  19  37  57  78 116 156 190 227 277 339
#     4  11  24  39  65  91 115 145 187 244 294 349
#
# _framework density 19.086874000000002
#
# number of rings (size 3 to 8) (size 9 to 14) (size 15 to 20)
#    0.000    2.286    1.429    2.143    4.000    0.857 
#    0.000    3.571    0.000    6.000    0.000    0.000 
#    0.000    0.000    0.000    0.000    0.000    0.000 
#
# Total GULP energy -347193.219877 kJ/mol
# GULP energy per Si atom -12399.757853 kJ/mol
# Density = 1.904343 g / cm^3
# Si number density = 19.086874 Si / 1000 Ang^3
#
#
#
# Elastic Constant Matrix: (Units=GPa)
#
#
# Indices 1 2 3 4 5 6 
#
# 1 82.5682 23.9587 26.2789 0.0001 -14.5850 0.0000
# 2 23.9587 72.3418 16.7322 0.0000 -5.6832 0.0000
# 3 26.2789 16.7322 79.6766 0.0002 -5.1678 -0.0002
# 4 0.0001 0.0000 0.0002 22.2449 -0.0001 0.1235
# 5 -14.5850 -5.6832 -5.1678 -0.0001 27.0415 0.0001
# 6 0.0000 0.0000 -0.0002 0.1235 0.0001 22.9374
#
#
#
# Elastic Compliance Matrix: (Units=1/GPa)
#
#
# Indices 1 2 3 4 5 6 
#
# 1 0.015669 -0.003736 -0.003935 0.000000 0.006914 0.000000
# 2 -0.003736 0.015589 -0.001984 0.000000 0.000882 0.000000
# 3 -0.003935 -0.001984 0.014278 0.000000 0.000189 0.000000
# 4 0.000000 0.000000 0.000000 0.044956 0.000000 -0.000242
# 5 0.006914 0.000882 0.000189 0.000000 0.040931 0.000000
# 6 0.000000 0.000000 0.000000 -0.000242 0.000000 0.043598
#
#
# Mechanical properties :
#
#
# Convention : Reuss Voigt Hill
#
# Bulk Modulus (GPa) = 38.13179 40.94736 39.53957
# Shear Modulus (GPa) = 24.62183 25.61921 25.12052
#
# Velocity S-wave (km/s) = 3.59554 3.66764 3.63177
# Velocity P-wave (km/s) = 6.10398 6.27974 6.19248
#
# Compressibility (1/GPa) = 0.02622484
#
# Stress axis : x y z
#
# Youngs Moduli (GPa) = 63.82048 64.14839 70.04016
#
# Poissons Ratio (x) = 0.23966 0.27560
# Poissons Ratio (y) = 0.23844 0.13898
# Poissons Ratio (z) = 0.25113 0.12729
#
# Static dielectric constant tensor:
#      x y z
#    x 3.368320 0.000000 0.006120 
#    y 0.000000 3.347110 0.000000 
#    z 0.006120 0.000000 3.498290 
# 
# 
# High freq. dielectric constant tensor:
#      x y z
#    x 1.738620 0.000000 -0.002840 
#    y 0.000000 1.715630 0.000000 
#    z -0.002840 0.000000 1.737690 
# 
# From -- ./inp_files/264193.got.cif
#   From: 2010.06.25/outbox.cif.g09.slc.cpg/sg12_133_cif.got.tgz:264193.got - 2010.06.28 00:19:55.
