data_PCOD8081439
_publ_section_title
;
Structure prediction by ZEFSAII (Michael W. Deem and Ramdas Pophale) SiO2 
 PCOD8081439
Probable space group: C 2/M
;
_chemical_formula_sum "Si O2"
_cell_formula_units_Z 56
_cell_length_a 20.501846
_cell_length_b 8.940148
_cell_length_c 22.172996
_cell_angle_alpha 90.000000
_cell_angle_beta 127.374126
_cell_angle_gamma 90.000000
_cell_volume 3229.677504
_symmetry_space_group_name_H-M "C 2/M"
_symmetry_group_IT_number 12
_symmetry_cell_setting 'monoclinic'
loop_
_space_group_symop_operation_xyz
x,y,z
-x,y,-z
-x,-y,-z
x,-y,z
1/2+x,1/2+y,z
1/2-x,1/2+y,-z
1/2-x,1/2-y,-z
1/2+x,1/2-y,z
loop_
_atom_site_type_symbol
_atom_site_label
_atom_site_fract_x
_atom_site_fract_y
_atom_site_fract_z
Si Si1 0.335010 0.677541 0.529827
Si Si2 0.595744 0.176505 0.550827
Si Si3 0.488563 0.674319 0.692050
Si Si4 0.573855 0.833277 0.838353
Si Si5 0.640326 0.321873 0.697648
Si Si6 0.318408 0.823123 0.997293
Si Si7 0.763403 0.329155 0.149952
O O1 0.326546 0.500000 0.518586
O O2 0.250000 0.750000 0.500000
O O3 0.365540 0.745100 0.484853
O O4 0.399388 0.722106 0.618379
O O5 0.500000 0.217000 0.500000
O O6 0.642714 0.244387 0.634244
O O7 0.610844 0.000000 0.556149
O O8 0.498285 0.500000 0.701117
O O9 0.503117 0.733450 0.768234
O O10 0.557470 0.734840 0.684443
O O11 0.594197 0.791085 0.919753
O O12 0.657676 0.817782 0.848239
O O13 0.539386 0.000000 0.815724
O O14 0.644251 0.500000 0.693020
O O15 0.719163 0.262876 0.779082
O O16 0.302315 0.000000 0.983182
O O17 0.250000 0.750000 0.000000
O O18 0.313713 0.747524 0.928409
O O19 0.741167 0.500000 0.153182
#
# Coordination Sequence:
#
# PCOD8081439 Si02
#       7
#     8   8   8   8   8   8   8
#     4  11  23  39  55  75 102 134 171 213 261 309
#     4  11  22  35  54  78 102 132 170 212 255 305
#     4   9  18  30  46  67  93 124 162 204 249 298
#     4   8  15  24  37  57  84 118 158 198 238 288
#     4  10  18  30  48  70  96 128 164 207 251 297
#     4   9  15  23  34  53  82 120 158 195 239 291
#     4   9  16  25  37  58  88 122 158 199 242 293
#
# _framework density 17.339193000000002
#
# number of rings (size 3 to 8) (size 9 to 14) (size 15 to 20)
#    0.000    2.429    1.429    3.000    0.000    6.286 
#    0.000    0.000    0.000    0.000    0.000    0.000 
#    0.000    1.143    0.000   12.000    0.000    9.429 
#
# Total GULP energy -347039.720436 kJ/mol
# GULP energy per Si atom -12394.275730 kJ/mol
# Density = 1.729973 g / cm^3
# Si number density = 17.339193 Si / 1000 Ang^3
#
#
#
# Elastic Constant Matrix: (Units=GPa)
#
#
# Indices 1 2 3 4 5 6 
#
# 1 53.6573 31.3973 45.9819 0.0000 0.7689 0.0000
# 2 31.3973 80.7679 71.4637 0.0000 -3.7136 0.0000
# 3 45.9819 71.4637 177.6613 0.0000 -11.5678 0.0000
# 4 0.0000 0.0000 0.0000 38.3095 0.0000 -4.0646
# 5 0.7689 -3.7136 -11.5678 0.0000 11.6609 0.0000
# 6 0.0000 0.0000 0.0000 -4.0646 0.0000 18.3530
#
#
#
# Elastic Compliance Matrix: (Units=1/GPa)
#
#
# Indices 1 2 3 4 5 6 
#
# 1 0.026729 -0.006472 -0.004879 0.000000 -0.008663 0.000000
# 2 -0.006472 0.020820 -0.006671 0.000000 0.000439 0.000000
# 3 -0.004879 -0.006671 0.010110 0.000000 0.008227 0.000000
# 4 0.000000 0.000000 0.000000 0.026731 0.000000 0.005920
# 5 -0.008663 0.000439 0.008227 0.000000 0.094629 0.000000
# 6 0.000000 0.000000 0.000000 0.005920 0.000000 0.055798
#
#
# Mechanical properties :
#
#
# Convention : Reuss Voigt Hill
#
# Bulk Modulus (GPa) = 46.26289 67.75249 57.00769
# Shear Modulus (GPa) = 17.98134 24.54759 21.26447
#
# Velocity S-wave (km/s) = 3.22380 3.76670 3.50577
# Velocity P-wave (km/s) = 6.37151 7.62082 7.02400
#
# Compressibility (1/GPa) = 0.02161560
#
# Stress axis : x y z
#
# Youngs Moduli (GPa) = 37.41276 48.03115 98.90815
#
# Poissons Ratio (x) = 0.31087 0.48253
# Poissons Ratio (y) = 0.24214 0.65981
# Poissons Ratio (z) = 0.18252 0.32041
#
# Static dielectric constant tensor:
#      x y z
#    x 2.579110 0.000000 -0.141690 
#    y 0.000000 3.341800 0.000000 
#    z -0.141690 0.000000 3.693440 
# 
# 
# High freq. dielectric constant tensor:
#      x y z
#    x 1.588380 0.000000 -0.013520 
#    y 0.000000 1.683060 0.000000 
#    z -0.013520 0.000000 1.696790 
# 
# From -- ./inp_files/345651.got.cif
#   From: 2010.06.25/outbox.cif.g09.slc.cpg/sg12_173_cif.got.tgz:345651.got - 2010.06.28 00:19:55.
