data_PCOD8081912
_publ_section_title
;
Structure prediction by ZEFSAII (Michael W. Deem and Ramdas Pophale) SiO2 
 PCOD8081912
Probable space group: C 2/M
;
_chemical_formula_sum "Si O2"
_cell_formula_units_Z 64
_cell_length_a 23.918234
_cell_length_b 9.065510
_cell_length_c 16.692868
_cell_angle_alpha 90.000000
_cell_angle_beta 86.030394
_cell_angle_gamma 90.000000
_cell_volume 3610.847520
_symmetry_space_group_name_H-M "C 2/M"
_symmetry_group_IT_number 12
_symmetry_cell_setting 'monoclinic'
loop_
_space_group_symop_operation_xyz
x,y,z
-x,y,-z
-x,-y,-z
x,-y,z
1/2+x,1/2+y,z
1/2-x,1/2+y,-z
1/2-x,1/2-y,-z
1/2+x,1/2-y,z
loop_
_atom_site_type_symbol
_atom_site_label
_atom_site_fract_x
_atom_site_fract_y
_atom_site_fract_z
Si Si1 0.373822 0.829196 0.045097
Si Si2 0.037140 0.670578 0.830919
Si Si3 0.881837 0.827013 0.288712
Si Si4 0.908672 0.672589 0.863988
Si Si5 0.201489 0.170843 0.407658
Si Si6 0.681402 0.673760 0.228353
Si Si7 0.792007 0.826855 0.163824
Si Si8 0.828193 0.672114 0.436157
O O1 0.429337 0.794867 0.091010
O O2 0.321738 0.732691 0.080855
O O3 0.357170 0.000000 0.053994
O O4 0.386068 0.782919 0.953308
O O5 0.042923 0.500000 0.806514
O O6 0.061019 0.766502 0.755375
O O7 0.973477 0.716584 0.852273
O O8 0.829769 0.785330 0.236675
O O9 0.873389 0.751219 0.375331
O O10 0.887457 0.000000 0.300740
O O11 0.899592 0.500000 0.848181
O O12 0.876657 0.767800 0.801089
O O13 0.181359 0.216305 0.321742
O O14 0.165864 0.265868 0.474488
O O15 0.266915 0.209661 0.408099
O O16 0.190876 0.000000 0.427556
O O17 0.687351 0.500000 0.215719
O O18 0.732128 0.751050 0.177246
O O19 0.782960 0.000000 0.156032
O O20 0.841130 0.500000 0.435604
#
# Coordination Sequence:
#
# PCOD8081912 Si02
#       8
#     8   8   8   8   8   8   8   8
#     4   9  18  34  56  78 102 132 170 218 266 308
#     4   9  18  34  56  78 102 133 173 218 261 305
#     4  10  19  31  51  79 109 136 167 212 261 305
#     4  10  21  36  54  77 102 135 177 217 258 307
#     4   9  19  33  49  74 106 137 170 207 250 304
#     4  11  22  36  53  73 105 144 175 208 253 310
#     4  10  20  33  51  76 105 137 173 213 258 305
#     4  10  18  30  52  79 106 135 169 207 253 305
#
# _framework density 17.72437
#
# number of rings (size 3 to 8) (size 9 to 14) (size 15 to 20)
#    0.000    2.250    1.250    1.875    0.000    5.500 
#    0.000    0.000    0.000    4.500    0.000    5.250 
#    0.000    0.000    0.000    0.000    0.000    0.000 
#
# Total GULP energy -396936.780926 kJ/mol
# GULP energy per Si atom -12404.274404 kJ/mol
# Density = 1.768403 g / cm^3
# Si number density = 17.724370 Si / 1000 Ang^3
#
#
#
# Elastic Constant Matrix: (Units=GPa)
#
#
# Indices 1 2 3 4 5 6 
#
# 1 54.2047 32.2208 45.2100 0.0000 3.8057 0.0000
# 2 32.2208 71.1379 54.1076 0.0000 -6.5004 0.0000
# 3 45.2100 54.1076 125.2372 0.0000 -10.2504 0.0000
# 4 0.0000 0.0000 0.0000 31.4584 0.0000 -3.1993
# 5 3.8057 -6.5004 -10.2504 0.0000 22.0313 0.0000
# 6 0.0000 0.0000 0.0000 -3.1993 0.0000 28.7959
#
#
#
# Elastic Compliance Matrix: (Units=1/GPa)
#
#
# Indices 1 2 3 4 5 6 
#
# 1 0.031809 -0.008977 -0.008598 0.000000 -0.012144 0.000000
# 2 -0.008977 0.023560 -0.006489 0.000000 0.005483 0.000000
# 3 -0.008598 -0.006489 0.014406 0.000000 0.006273 0.000000
# 4 0.000000 0.000000 0.000000 0.032151 0.000000 0.003572
# 5 -0.012144 0.005483 0.006273 0.000000 0.052024 0.000000
# 6 0.000000 0.000000 0.000000 0.003572 0.000000 0.035124
#
#
# Mechanical properties :
#
#
# Convention : Reuss Voigt Hill
#
# Bulk Modulus (GPa) = 46.19965 57.07295 51.63630
# Shear Modulus (GPa) = 20.45663 24.39323 22.42493
#
# Velocity S-wave (km/s) = 3.40097 3.71381 3.56083
# Velocity P-wave (km/s) = 6.44549 7.11759 6.78986
#
# Compressibility (1/GPa) = 0.02164518
#
# Stress axis : x y z
#
# Youngs Moduli (GPa) = 31.43766 42.44452 69.41564
#
# Poissons Ratio (x) = 0.38103 0.59686
# Poissons Ratio (y) = 0.28222 0.45047
# Poissons Ratio (z) = 0.27031 0.27544
#
# Static dielectric constant tensor:
#      x y z
#    x 3.109890 0.000000 -0.094680 
#    y 0.000000 3.269670 0.000000 
#    z -0.094680 0.000000 3.306020 
# 
# 
# High freq. dielectric constant tensor:
#      x y z
#    x 1.663610 0.000000 -0.014670 
#    y 0.000000 1.690070 0.000000 
#    z -0.014670 0.000000 1.686550 
# 
# From -- ./inp_files/238766.got.cif
#   From: 2010.06.25/outbox.cif.g09.slc.cpg/sg12_120_cif.got.tgz:238766.got - 2010.06.28 00:19:55.
