data_PCOD8081940
_publ_section_title
;
Structure prediction by ZEFSAII (Michael W. Deem and Ramdas Pophale) SiO2 
 PCOD8081940
Probable space group: C 2/M
;
_chemical_formula_sum "Si O2"
_cell_formula_units_Z 64
_cell_length_a 21.297018
_cell_length_b 14.620927
_cell_length_c 11.704937
_cell_angle_alpha 90.000000
_cell_angle_beta 66.240377
_cell_angle_gamma 90.000000
_cell_volume 3335.796849
_symmetry_space_group_name_H-M "C 2/M"
_symmetry_group_IT_number 12
_symmetry_cell_setting 'monoclinic'
loop_
_space_group_symop_operation_xyz
x,y,z
-x,y,-z
-x,-y,-z
x,-y,z
1/2+x,1/2+y,z
1/2-x,1/2+y,-z
1/2-x,1/2-y,-z
1/2+x,1/2-y,z
loop_
_atom_site_type_symbol
_atom_site_label
_atom_site_fract_x
_atom_site_fract_y
_atom_site_fract_z
Si Si1 0.927603 0.304391 0.758904
Si Si2 0.655335 0.798309 0.746113
Si Si3 0.572624 0.833124 0.579067
Si Si4 0.428552 0.339581 0.586586
Si Si5 0.708250 0.600966 0.405259
Si Si6 0.925727 0.606175 0.999826
Si Si7 0.688296 0.395621 0.682544
Si Si8 0.835754 0.402038 0.665439
O O1 0.935633 0.197993 0.713215
O O2 0.857020 0.335528 0.751894
O O3 0.993394 0.359123 0.660073
O O4 0.922665 0.323616 0.896182
O O5 0.610224 0.826627 0.671900
O O6 0.735421 0.823405 0.668633
O O7 0.630802 0.855801 0.872504
O O8 0.645463 0.687805 0.771986
O O9 0.579755 0.742652 0.497427
O O10 0.608861 0.910835 0.477643
O O11 0.500000 0.392189 0.500000
O O12 0.359248 0.398277 0.626953
O O13 0.741607 0.500000 0.370098
O O14 0.681229 0.617133 0.552723
O O15 0.909647 0.500000 0.978538
O O16 0.000000 0.613363 0.000000
O O17 0.665794 0.500000 0.735523
O O18 0.765206 0.371791 0.661252
O O19 0.828083 0.500000 0.729893
#
# Coordination Sequence:
#
# PCOD8081940 Si02
#       8
#     8   8   8   8   8   8   8   8
#     4  10  20  36  52  77 110 155 195 231 278 333
#     4  12  20  36  59  81 116 151 186 237 283 330
#     4  10  18  30  52  82 109 145 184 226 284 341
#     4   9  19  35  57  81 112 145 189 236 288 338
#     4  11  21  34  56  89 121 150 186 230 285 347
#     4  11  24  38  55  82 116 158 198 231 273 336
#     4  10  21  35  58  87 112 144 188 234 288 346
#     4  10  19  31  50  81 115 143 179 231 286 336
#
# _framework density 19.18582
#
# number of rings (size 3 to 8) (size 9 to 14) (size 15 to 20)
#    0.000    1.625    3.750    3.750    0.000    2.250 
#    0.000    2.500    0.000    2.625    0.000    0.000 
#    0.000    0.000    0.000    0.000    0.000    0.000 
#
# Total GULP energy -396424.111815 kJ/mol
# GULP energy per Si atom -12388.253494 kJ/mol
# Density = 1.914215 g / cm^3
# Si number density = 19.185820 Si / 1000 Ang^3
#
#
#
# Elastic Constant Matrix: (Units=GPa)
#
#
# Indices 1 2 3 4 5 6 
#
# 1 82.6602 14.6598 11.3652 0.0000 10.9000 0.0000
# 2 14.6598 81.3767 20.1432 0.0000 -0.5002 0.0000
# 3 11.3652 20.1432 70.4320 0.0000 12.8875 0.0000
# 4 0.0000 0.0000 0.0000 14.7990 0.0000 3.1322
# 5 10.9000 -0.5002 12.8875 0.0000 23.1902 0.0000
# 6 0.0000 0.0000 0.0000 3.1322 0.0000 23.8095
#
#
#
# Elastic Compliance Matrix: (Units=1/GPa)
#
#
# Indices 1 2 3 4 5 6 
#
# 1 0.013375 -0.002358 -0.000361 0.000000 -0.006137 0.000000
# 2 -0.002358 0.013789 -0.004253 0.000000 0.003769 0.000000
# 3 -0.000361 -0.004253 0.017208 0.000000 -0.009485 0.000000
# 4 0.000000 0.000000 0.000000 0.069507 0.000000 -0.009144
# 5 -0.006137 0.003769 -0.009485 0.000000 0.051359 0.000000
# 6 0.000000 0.000000 0.000000 -0.009144 0.000000 0.043203
#
#
# Mechanical properties :
#
#
# Convention : Reuss Voigt Hill
#
# Bulk Modulus (GPa) = 32.86352 36.31170 34.58761
# Shear Modulus (GPa) = 21.50285 24.91312 23.20799
#
# Velocity S-wave (km/s) = 3.35142 3.60740 3.48176
# Velocity P-wave (km/s) = 5.66941 6.02649 5.85068
#
# Compressibility (1/GPa) = 0.03042887
#
# Stress axis : x y z
#
# Youngs Moduli (GPa) = 74.76794 72.52083 58.11178
#
# Poissons Ratio (x) = 0.17099 0.02098
# Poissons Ratio (y) = 0.17629 0.24714
# Poissons Ratio (z) = 0.02699 0.30842
#
# Static dielectric constant tensor:
#      x y z
#    x 3.670030 0.000000 0.068440 
#    y 0.000000 3.502980 0.000000 
#    z 0.068440 0.000000 3.282810 
# 
# 
# High freq. dielectric constant tensor:
#      x y z
#    x 1.758660 0.000000 0.012250 
#    y 0.000000 1.734250 0.000000 
#    z 0.012250 0.000000 1.705040 
# 
# From -- ./inp_files/176096.got.cif
#   From: 2010.06.25/outbox.cif.g09.slc.cpg/sg12_89_cif.got.tgz:176096.got - 2010.06.28 00:19:55.
