data_PCOD8081599
_publ_section_title
;
Structure prediction by ZEFSAII (Michael W. Deem and Ramdas Pophale) SiO2 
 PCOD8081599
Probable space group: C 2/M
;
_chemical_formula_sum "Si O2"
_cell_formula_units_Z 48
_cell_length_a 23.867780
_cell_length_b 8.800214
_cell_length_c 20.610430
_cell_angle_alpha 90.000000
_cell_angle_beta 39.030037
_cell_angle_gamma 90.000000
_cell_volume 2726.120963
_symmetry_space_group_name_H-M "C 2/M"
_symmetry_group_IT_number 12
_symmetry_cell_setting 'monoclinic'
loop_
_space_group_symop_operation_xyz
x,y,z
-x,y,-z
-x,-y,-z
x,-y,z
1/2+x,1/2+y,z
1/2-x,1/2+y,-z
1/2-x,1/2-y,-z
1/2+x,1/2-y,z
loop_
_atom_site_type_symbol
_atom_site_label
_atom_site_fract_x
_atom_site_fract_y
_atom_site_fract_z
Si Si1 0.818699 0.321330 0.388931
Si Si2 0.807285 0.179880 0.889915
Si Si3 0.169604 0.821327 0.756658
Si Si4 0.003313 0.830251 0.239116
Si Si5 0.024592 0.831653 0.071192
Si Si6 0.209115 0.178806 0.861371
O O1 0.808924 0.500000 0.398811
O O2 0.750000 0.250000 0.500000
O O3 0.792537 0.262579 0.340555
O O4 0.918282 0.278379 0.322136
O O5 0.777184 0.233514 0.845862
O O6 0.911225 0.230068 0.797959
O O7 0.798514 0.000000 0.904255
O O8 0.750000 0.250000 0.000000
O O9 0.230889 0.793508 0.765178
O O10 0.070198 0.754733 0.860690
O O11 0.162233 0.000000 0.745961
O O12 0.039580 0.833835 0.133981
O O13 0.974939 0.000000 0.286899
O O14 0.022217 0.000000 0.043604
O O15 0.110481 0.750883 0.962655
O O16 0.212683 0.000000 0.875251
#
# Coordination Sequence:
#
# PCOD8081599 Si02
#       6
#     8   8   8   8   8   8
#     4  11  22  37  59  82 104 129 167 220 273 319
#     4  11  21  33  50  73 108 149 185 219 253 301
#     4   9  18  32  51  75 106 139 174 212 260 317
#     4   9  18  34  53  74 104 141 180 216 258 308
#     4   8  13  26  47  70  99 138 177 207 244 300
#     4  10  18  30  49  74 106 146 181 211 252 305
#
# _framework density 17.607436
#
# number of rings (size 3 to 8) (size 9 to 14) (size 15 to 20)
#    0.000    2.333    1.667    3.500    0.000    4.000 
#    0.000    0.000    0.000    4.000    0.000    7.000 
#    0.000    0.000    0.000    0.000    0.000    0.000 
#
# Total GULP energy -297389.509575 kJ/mol
# GULP energy per Si atom -12391.229566 kJ/mol
# Density = 1.756736 g / cm^3
# Si number density = 17.607436 Si / 1000 Ang^3
#
#
#
# Elastic Constant Matrix: (Units=GPa)
#
#
# Indices 1 2 3 4 5 6 
#
# 1 136.7797 46.2562 58.0707 0.0000 10.3081 0.0001
# 2 46.2562 84.5298 45.9649 0.0004 1.5206 0.0002
# 3 58.0707 45.9649 95.2929 0.0004 3.1965 -0.0002
# 4 0.0000 0.0004 0.0004 22.9732 -0.0003 -0.1195
# 5 10.3081 1.5206 3.1965 -0.0003 10.5781 0.0001
# 6 0.0001 0.0002 -0.0002 -0.1195 0.0001 27.3090
#
#
#
# Elastic Compliance Matrix: (Units=1/GPa)
#
#
# Indices 1 2 3 4 5 6 
#
# 1 0.011190 -0.003277 -0.004938 0.000000 -0.008941 0.000000
# 2 -0.003277 0.016996 -0.006290 0.000000 0.002651 0.000000
# 3 -0.004938 -0.006290 0.016513 0.000000 0.000727 0.000000
# 4 0.000000 0.000000 0.000000 0.043530 0.000001 0.000190
# 5 -0.008941 0.002651 0.000727 0.000001 0.102647 0.000000
# 6 0.000000 0.000000 0.000000 0.000190 0.000000 0.036619
#
#
# Mechanical properties :
#
#
# Convention : Reuss Voigt Hill
#
# Bulk Modulus (GPa) = 63.74317 68.57622 66.15970
# Shear Modulus (GPa) = 19.10332 23.25942 21.18137
#
# Velocity S-wave (km/s) = 3.29744 3.63850 3.47216
# Velocity P-wave (km/s) = 7.12590 7.52884 7.33014
#
# Compressibility (1/GPa) = 0.01568796
#
# Stress axis : x y z
#
# Youngs Moduli (GPa) = 89.36847 58.83717 60.55850
#
# Poissons Ratio (x) = 0.19281 0.29905
# Poissons Ratio (y) = 0.29286 0.38092
# Poissons Ratio (z) = 0.44133 0.37009
#
# Static dielectric constant tensor:
#      x y z
#    x 3.442640 0.000000 0.000030 
#    y 0.000000 3.095950 0.000000 
#    z 0.000030 0.000000 3.079900 
# 
# 
# High freq. dielectric constant tensor:
#      x y z
#    x 1.688290 0.000000 0.004300 
#    y 0.000000 1.657850 0.000000 
#    z 0.004300 0.000000 1.652030 
# 
# From -- ./inp_files/230389.got.cif
#   From: 2010.06.25/outbox.cif.g09.slc.cpg/sg12_116_cif.got.tgz:230389.got - 2010.06.28 00:19:55.
