data_PCOD8081079
_publ_section_title
;
Structure prediction by ZEFSAII (Michael W. Deem and Ramdas Pophale) SiO2 
 PCOD8081079
Probable space group: C 2/M
;
_chemical_formula_sum "Si O2"
_cell_formula_units_Z 64
_cell_length_a 28.159685
_cell_length_b 8.633021
_cell_length_c 13.271994
_cell_angle_alpha 90.000000
_cell_angle_beta 86.332300
_cell_angle_gamma 90.000000
_cell_volume 3219.855258
_symmetry_space_group_name_H-M "C 2/M"
_symmetry_group_IT_number 12
_symmetry_cell_setting 'monoclinic'
loop_
_space_group_symop_operation_xyz
x,y,z
-x,y,-z
-x,-y,-z
x,-y,z
1/2+x,1/2+y,z
1/2-x,1/2+y,-z
1/2-x,1/2-y,-z
1/2+x,1/2-y,z
loop_
_atom_site_type_symbol
_atom_site_label
_atom_site_fract_x
_atom_site_fract_y
_atom_site_fract_z
Si Si1 0.052388 0.316077 0.525617
Si Si2 0.911193 0.182893 0.272490
Si Si3 0.375917 0.179297 0.647651
Si Si4 0.917411 0.827628 0.828646
Si Si5 0.683841 0.317912 0.818543
Si Si6 0.982568 0.173269 0.103347
Si Si7 0.655832 0.182240 0.034078
Si Si8 0.711316 0.816653 0.224777
O O1 0.051325 0.500000 0.516757
O O2 0.066993 0.269097 0.635379
O O3 0.094048 0.243701 0.447777
O O4 0.000000 0.251619 0.500000
O O5 0.855673 0.221804 0.261025
O O6 0.938508 0.248596 0.169356
O O7 0.920061 0.000000 0.284532
O O8 0.405444 0.202734 0.745442
O O9 0.322804 0.248689 0.679470
O O10 0.371366 0.000000 0.623395
O O11 0.894106 0.770095 0.937407
O O12 0.973915 0.831618 0.825576
O O13 0.898293 0.000000 0.804593
O O14 0.684285 0.500000 0.842173
O O15 0.734516 0.259826 0.767333
O O16 0.675553 0.230305 0.923635
O O17 0.966674 0.000000 0.072217
O O18 0.000000 0.264362 0.000000
O O19 0.692383 0.236153 0.117369
O O20 0.647246 0.000000 0.036843
O O21 0.708646 0.000000 0.230224
#
# Coordination Sequence:
#
# PCOD8081079 Si02
#       8
#     8   8   8   8   8   8   8   8
#     4  10  21  37  57  78 102 134 168 206 255 311
#     4  10  21  35  53  77 103 132 168 213 258 301
#     4   9  18  34  53  73  99 128 162 207 256 301
#     4  10  18  29  49  74  99 129 166 208 251 299
#     4  10  19  33  52  73 100 135 174 213 253 298
#     4   9  17  30  47  69  99 132 163 197 243 294
#     4  10  19  31  49  75 107 140 172 207 250 299
#     4   8  16  31  51  74 100 133 171 210 252 297
#
# _framework density 19.876671000000002
#
# number of rings (size 3 to 8) (size 9 to 14) (size 15 to 20)
#    0.000    2.500    0.000    3.375    0.000    3.250 
#    0.000    3.750    0.000    2.625    0.000    0.000 
#    0.000    0.000    0.000    0.000    0.000    0.000 
#
# Total GULP energy -396485.280248 kJ/mol
# GULP energy per Si atom -12390.165008 kJ/mol
# Density = 1.983143 g / cm^3
# Si number density = 19.876671 Si / 1000 Ang^3
#
#
#
# Elastic Constant Matrix: (Units=GPa)
#
#
# Indices 1 2 3 4 5 6 
#
# 1 137.1185 19.1974 56.2792 0.0000 -13.3536 0.0000
# 2 19.1974 21.1069 3.1087 0.0000 -1.9613 0.0000
# 3 56.2792 3.1087 107.8029 0.0000 -19.1060 0.0000
# 4 0.0000 0.0000 0.0000 25.6845 0.0000 2.2411
# 5 -13.3536 -1.9613 -19.1060 0.0000 32.3815 0.0000
# 6 0.0000 0.0000 0.0000 2.2411 0.0000 15.7948
#
#
#
# Elastic Compliance Matrix: (Units=1/GPa)
#
#
# Indices 1 2 3 4 5 6 
#
# 1 0.010767 -0.008948 -0.005218 0.000000 0.000820 0.000000
# 2 -0.008948 0.055173 0.003371 0.000000 0.001641 0.000000
# 3 -0.005218 0.003371 0.012908 0.000000 0.005668 0.000000
# 4 0.000000 0.000000 0.000000 0.039422 0.000000 -0.005593
# 5 0.000820 0.001641 0.005668 0.000000 0.034664 0.000000
# 6 0.000000 0.000000 0.000000 -0.005593 0.000000 0.064105
#
#
# Mechanical properties :
#
#
# Convention : Reuss Voigt Hill
#
# Bulk Modulus (GPa) = 17.46491 47.02209 32.24350
# Shear Modulus (GPa) = 19.40134 27.26837 23.33485
#
# Velocity S-wave (km/s) = 3.12763 3.70791 3.43006
# Velocity P-wave (km/s) = 4.67423 6.48380 5.65191
#
# Compressibility (1/GPa) = 0.05725766
#
# Stress axis : x y z
#
# Youngs Moduli (GPa) = 92.87452 18.12492 77.47406
#
# Poissons Ratio (x) = 0.16219 0.40424
# Poissons Ratio (y) = 0.83108 -0.26119
# Poissons Ratio (z) = 0.48460 -0.06111
#
# Static dielectric constant tensor:
#      x y z
#    x 4.125040 0.000000 -0.368010 
#    y 0.000000 3.275200 0.000000 
#    z -0.368010 0.000000 3.566490 
# 
# 
# High freq. dielectric constant tensor:
#      x y z
#    x 1.788440 0.000000 -0.016720 
#    y 0.000000 1.737780 0.000000 
#    z -0.016720 0.000000 1.760470 
# 
# From -- ./inp_files/187568.got.cif
#   From: 2010.06.25/outbox.cif.g09.slc.cpg/sg12_94_cif.got.tgz:187568.got - 2010.06.28 00:19:55.
