data_PCOD8081705
_publ_section_title
;
Structure prediction by ZEFSAII (Michael W. Deem and Ramdas Pophale) SiO2 
 PCOD8081705
Probable space group: C 2/M
;
_chemical_formula_sum "Si O2"
_cell_formula_units_Z 64
_cell_length_a 30.152928
_cell_length_b 8.720972
_cell_length_c 14.830678
_cell_angle_alpha 90.000000
_cell_angle_beta 79.571658
_cell_angle_gamma 90.000000
_cell_volume 3835.498599
_symmetry_space_group_name_H-M "C 2/M"
_symmetry_group_IT_number 12
_symmetry_cell_setting 'monoclinic'
loop_
_space_group_symop_operation_xyz
x,y,z
-x,y,-z
-x,-y,-z
x,-y,z
1/2+x,1/2+y,z
1/2-x,1/2+y,-z
1/2-x,1/2-y,-z
1/2+x,1/2-y,z
loop_
_atom_site_type_symbol
_atom_site_label
_atom_site_fract_x
_atom_site_fract_y
_atom_site_fract_z
Si Si1 0.188868 0.679903 0.390736
Si Si2 0.815462 0.820001 0.928380
Si Si3 0.146437 0.820067 0.581591
Si Si4 0.555780 0.181476 0.573571
Si Si5 0.129541 0.320028 0.241935
Si Si6 0.456207 0.819053 0.625007
Si Si7 0.280235 0.820088 0.110160
Si Si8 0.782747 0.319513 0.314362
O O1 0.184501 0.500000 0.413529
O O2 0.163102 0.772929 0.476846
O O3 0.166412 0.723489 0.303896
O O4 0.240837 0.728008 0.371299
O O5 0.858005 0.757631 0.857108
O O6 0.769847 0.761349 0.896460
O O7 0.818521 0.000000 0.929323
O O8 0.816588 0.758319 0.030442
O O9 0.094140 0.773763 0.612709
O O10 0.173166 0.726632 0.647375
O O11 0.153014 0.000000 0.594325
O O12 0.555419 0.241104 0.470603
O O13 0.507159 0.224751 0.635318
O O14 0.565183 0.000000 0.576192
O O15 0.127897 0.500000 0.226774
O O16 0.080494 0.255224 0.290471
O O17 0.451643 0.000000 0.620879
O O18 0.290912 0.770661 0.208022
O O19 0.284002 0.000000 0.094831
O O20 0.773011 0.500000 0.326274
#
# Coordination Sequence:
#
# PCOD8081705 Si02
#       8
#     8   8   8   8   8   8   8   8
#     4  11  21  34  51  71  99 135 173 206 241 284
#     4  10  19  31  49  73 100 128 160 201 246 292
#     4  12  24  35  48  70 101 135 172 207 246 292
#     4   9  16  32  53  72  95 127 168 207 246 288
#     4  10  18  30  50  75 101 132 165 198 242 294
#     4   8  15  29  52  75  96 126 165 205 244 294
#     4   9  19  34  50  70  95 127 164 204 245 289
#     4  11  22  37  53  70  97 131 172 211 246 287
#
# _framework density 16.686226999999999
#
# number of rings (size 3 to 8) (size 9 to 14) (size 15 to 20)
#    0.000    2.000    2.500    3.375    0.000    2.000 
#    0.000    1.875    0.000    0.000    0.000    0.875 
#    0.000    7.000    0.000    0.000    0.000    0.000 
#
# Total GULP energy -396807.115957 kJ/mol
# GULP energy per Si atom -12400.222374 kJ/mol
# Density = 1.664825 g / cm^3
# Si number density = 16.686227 Si / 1000 Ang^3
#
#
#
# Elastic Constant Matrix: (Units=GPa)
#
#
# Indices 1 2 3 4 5 6 
#
# 1 100.3123 15.5420 35.1332 0.0000 -14.9101 0.0000
# 2 15.5420 38.0767 22.4669 0.0000 -3.9780 0.0000
# 3 35.1332 22.4669 74.5781 0.0000 -17.6792 0.0000
# 4 0.0000 0.0000 0.0000 23.3480 0.0000 -2.7030
# 5 -14.9101 -3.9780 -17.6792 0.0000 24.2434 0.0000
# 6 0.0000 0.0000 0.0000 -2.7030 0.0000 22.6937
#
#
#
# Elastic Compliance Matrix: (Units=1/GPa)
#
#
# Indices 1 2 3 4 5 6 
#
# 1 0.012397 -0.002145 -0.004195 0.000000 0.004213 0.000000
# 2 -0.002145 0.032404 -0.009435 0.000000 -0.002882 0.000000
# 3 -0.004195 -0.009435 0.020854 0.000000 0.011079 0.000000
# 4 0.000000 0.000000 0.000000 0.043429 0.000000 0.005173
# 5 0.004213 -0.002882 0.011079 0.000000 0.051446 0.000000
# 6 0.000000 0.000000 0.000000 0.005173 0.000000 0.044681
#
#
# Mechanical properties :
#
#
# Convention : Reuss Voigt Hill
#
# Bulk Modulus (GPa) = 29.32091 39.91680 34.61886
# Shear Modulus (GPa) = 20.15093 23.37869 21.76481
#
# Velocity S-wave (km/s) = 3.47888 3.74716 3.61551
# Velocity P-wave (km/s) = 5.80921 6.53418 6.18233
#
# Compressibility (1/GPa) = 0.03410535
#
# Stress axis : x y z
#
# Youngs Moduli (GPa) = 80.66688 30.86044 47.95322
#
# Poissons Ratio (x) = 0.06618 0.20117
# Poissons Ratio (y) = 0.17299 0.45242
# Poissons Ratio (z) = 0.33842 0.29116
#
# Static dielectric constant tensor:
#      x y z
#    x 3.234020 0.000000 -0.200850 
#    y 0.000000 2.993860 0.000000 
#    z -0.200850 0.000000 3.151710 
# 
# 
# High freq. dielectric constant tensor:
#      x y z
#    x 1.628580 0.000000 -0.014440 
#    y 0.000000 1.636530 0.000000 
#    z -0.014440 0.000000 1.627870 
# 
# From -- ./inp_files/248271.got.cif
#   From: 2010.06.25/outbox.cif.g09.slc.cpg/sg12_125_cif.got.tgz:248271.got - 2010.06.28 00:19:55.
