data_PCOD8081872
_publ_section_title
;
Structure prediction by ZEFSAII (Michael W. Deem and Ramdas Pophale) SiO2 
 PCOD8081872
Probable space group: C 2/M
;
_chemical_formula_sum "Si O2"
_cell_formula_units_Z 40
_cell_length_a 9.300311
_cell_length_b 19.497258
_cell_length_c 12.633223
_cell_angle_alpha 90.000000
_cell_angle_beta 78.174029
_cell_angle_gamma 90.000000
_cell_volume 2242.166505
_symmetry_space_group_name_H-M "C 2/M"
_symmetry_group_IT_number 12
_symmetry_cell_setting 'monoclinic'
loop_
_space_group_symop_operation_xyz
x,y,z
-x,y,-z
-x,-y,-z
x,-y,z
1/2+x,1/2+y,z
1/2-x,1/2+y,-z
1/2-x,1/2-y,-z
1/2+x,1/2-y,z
loop_
_atom_site_type_symbol
_atom_site_label
_atom_site_fract_x
_atom_site_fract_y
_atom_site_fract_z
Si Si1 0.643676 0.165176 0.718035
Si Si2 0.188793 0.698243 0.260349
Si Si3 0.172229 0.180976 0.973218
Si Si4 0.666336 0.181817 0.489065
Si Si5 0.348143 0.080065 0.080112
O O1 0.760322 0.222771 0.735672
O O2 0.483214 0.199966 0.742309
O O3 0.682283 0.135068 0.593140
O O4 0.646327 0.101855 0.798039
O O5 0.277999 0.661810 0.153228
O O6 0.219582 0.654291 0.365253
O O7 0.250000 0.250000 0.000000
O O8 0.214500 0.118257 0.042593
O O9 0.000000 0.193385 0.000000
O O10 0.500000 0.204297 0.500000
O O11 0.750000 0.250000 0.500000
O O12 0.316333 0.000000 0.078598
O O13 0.500000 0.100211 0.000000
#
# Coordination Sequence:
#
# PCOD8081872 Si02
#       5
#     8   8   8   8   8
#     4  10  18  32  53  78 107 136 173 219 268 321
#     4  10  18  30  51  80 109 133 170 221 267 310
#     4  12  22  34  56  83 110 139 177 222 269 321
#     4   8  16  28  46  74 107 132 164 211 267 315
#     4  11  23  38  54  75 108 148 182 221 271 321
#
# _framework density 17.839887999999998
#
# number of rings (size 3 to 8) (size 9 to 14) (size 15 to 20)
#    0.000    1.800    4.000    1.800    0.000    0.400 
#    0.000    0.000    0.000    6.600    0.000    1.400 
#    0.000    0.000    0.000    0.000    0.000    0.000 
#
# Total GULP energy -247766.213628 kJ/mol
# GULP energy per Si atom -12388.310681 kJ/mol
# Density = 1.779928 g / cm^3
# Si number density = 17.839888 Si / 1000 Ang^3
#
#
#
# Elastic Constant Matrix: (Units=GPa)
#
#
# Indices 1 2 3 4 5 6 
#
# 1 93.8058 34.1449 41.0727 0.0000 6.4825 0.0000
# 2 34.1449 69.2363 41.9055 0.0000 8.4246 0.0000
# 3 41.0727 41.9055 188.8577 0.0000 -0.5406 0.0000
# 4 0.0000 0.0000 0.0000 17.2151 0.0000 -0.5077
# 5 6.4825 8.4246 -0.5406 0.0000 24.8416 0.0000
# 6 0.0000 0.0000 0.0000 -0.5077 0.0000 14.0775
#
#
#
# Elastic Compliance Matrix: (Units=1/GPa)
#
#
# Indices 1 2 3 4 5 6 
#
# 1 0.013508 -0.005394 -0.001746 0.000000 -0.001734 0.000000
# 2 -0.005394 0.019698 -0.003213 0.000000 -0.005343 0.000000
# 3 -0.001746 -0.003213 0.006392 0.000000 0.001684 0.000000
# 4 0.000000 0.000000 0.000000 0.058151 0.000000 0.002097
# 5 -0.001734 -0.005343 0.001684 0.000000 0.042556 0.000000
# 6 0.000000 0.000000 0.000000 0.002097 0.000000 0.071111
#
#
# Mechanical properties :
#
#
# Convention : Reuss Voigt Hill
#
# Bulk Modulus (GPa) = 52.93003 65.12734 59.02869
# Shear Modulus (GPa) = 20.97147 26.87862 23.92505
#
# Velocity S-wave (km/s) = 3.43233 3.88578 3.66607
# Velocity P-wave (km/s) = 6.74105 7.53115 7.14703
#
# Compressibility (1/GPa) = 0.01889287
#
# Stress axis : x y z
#
# Youngs Moduli (GPa) = 74.03070 50.76599 156.43526
#
# Poissons Ratio (x) = 0.27383 0.27310
# Poissons Ratio (y) = 0.39932 0.50263
# Poissons Ratio (z) = 0.12924 0.16311
#
# Static dielectric constant tensor:
#      x y z
#    x 3.352530 0.000000 0.027960 
#    y 0.000000 2.719530 0.000000 
#    z 0.027960 0.000000 4.439240 
# 
# 
# High freq. dielectric constant tensor:
#      x y z
#    x 1.695830 0.000000 0.005330 
#    y 0.000000 1.620150 0.000000 
#    z 0.005330 0.000000 1.730930 
# 
# From -- ./inp_files/195062.got.cif
#   From: 2010.06.25/outbox.cif.g09.slc.cpg/sg12_98_cif.got.tgz:195062.got - 2010.06.28 00:19:55.
