data_PCOD8081307
_publ_section_title
;
Structure prediction by ZEFSAII (Michael W. Deem and Ramdas Pophale) SiO2 
 PCOD8081307
Probable space group: C 2/M
;
_chemical_formula_sum "Si O2"
_cell_formula_units_Z 48
_cell_length_a 28.629153
_cell_length_b 7.748679
_cell_length_c 12.612767
_cell_angle_alpha 90.000000
_cell_angle_beta 88.138681
_cell_angle_gamma 90.000000
_cell_volume 2796.516177
_symmetry_space_group_name_H-M "C 2/M"
_symmetry_group_IT_number 12
_symmetry_cell_setting 'monoclinic'
loop_
_space_group_symop_operation_xyz
x,y,z
-x,y,-z
-x,-y,-z
x,-y,z
1/2+x,1/2+y,z
1/2-x,1/2+y,-z
1/2-x,1/2-y,-z
1/2+x,1/2-y,z
loop_
_atom_site_type_symbol
_atom_site_label
_atom_site_fract_x
_atom_site_fract_y
_atom_site_fract_z
Si Si1 0.799815 0.804036 0.259114
Si Si2 0.384187 0.200135 0.865774
Si Si3 0.620056 0.191243 0.888991
Si Si4 0.304651 0.796135 0.711515
Si Si5 0.196753 0.298953 0.516905
Si Si6 0.555648 0.500000 0.878910
Si Si7 0.048020 0.000000 0.130028
O O1 0.830808 0.695918 0.175157
O O2 0.747495 0.721279 0.262680
O O3 0.822382 0.795864 0.376392
O O4 0.799860 0.000000 0.219241
O O5 0.339844 0.262079 0.800441
O O6 0.427103 0.324852 0.830655
O O7 0.397647 0.000000 0.841611
O O8 0.370043 0.229962 0.988455
O O9 0.584052 0.329254 0.842209
O O10 0.598107 0.000000 0.878051
O O11 0.325638 0.738018 0.594493
O O12 0.298177 0.000000 0.708407
O O13 0.188933 0.500000 0.536433
O O14 0.250000 0.250000 0.500000
O O15 0.505384 0.500000 0.824188
O O16 0.548004 0.500000 0.004063
#
# Coordination Sequence:
#
# PCOD8081307 Si02
#       7
#     8   8   8   8   8   4   4
#     4  10  18  30  46  66  99 133 162 201 237 274
#     4   9  18  33  48  70 101 125 158 197 235 293
#     4  10  19  31  49  71  97 129 160 194 240 291
#     4   8  16  30  46  65  97 133 159 197 239 275
#     4   9  16  28  44  64  91 124 166 204 235 273
#     4   9  18  34  50  69 101 121 159 210 240 284
#     4   9  18  32  52  73  91 129 161 198 250 282
#
# _framework density 17.164213
#
# number of rings (size 3 to 8) (size 9 to 14) (size 15 to 20)
#    0.000    2.833    0.833    2.000    0.000    1.333 
#    9.000    3.333    0.000    0.000    0.000    2.333 
#    0.000    5.333    0.000    0.000    0.000    0.000 
#
# Total GULP energy -297381.056882 kJ/mol
# GULP energy per Si atom -12390.877370 kJ/mol
# Density = 1.712515 g / cm^3
# Si number density = 17.164213 Si / 1000 Ang^3
#
#
#
# Elastic Constant Matrix: (Units=GPa)
#
#
# Indices 1 2 3 4 5 6 
#
# 1 105.0251 42.5536 47.5391 0.0000 12.0304 0.0000
# 2 42.5536 82.8548 27.7628 0.0000 5.3133 0.0000
# 3 47.5391 27.7628 76.0601 0.0000 9.3762 0.0000
# 4 0.0000 0.0000 0.0000 19.0901 0.0000 0.0567
# 5 12.0304 5.3133 9.3762 0.0000 4.8847 0.0000
# 6 0.0000 0.0000 0.0000 0.0567 0.0000 21.0371
#
#
#
# Elastic Compliance Matrix: (Units=1/GPa)
#
#
# Indices 1 2 3 4 5 6 
#
# 1 0.017149 -0.005275 -0.005625 0.000000 -0.025701 0.000000
# 2 -0.005275 0.015557 -0.002485 0.000000 0.000839 0.000000
# 3 -0.005625 -0.002485 0.020343 0.000000 -0.022492 0.000000
# 4 0.000000 0.000000 0.000000 0.052384 0.000000 -0.000141
# 5 -0.025701 0.000839 -0.022492 0.000000 0.310281 0.000000
# 6 0.000000 0.000000 0.000000 -0.000141 0.000000 0.047536
#
#
# Mechanical properties :
#
#
# Convention : Reuss Voigt Hill
#
# Bulk Modulus (GPa) = 38.05232 55.51681 46.78456
# Shear Modulus (GPa) = 10.02450 18.74134 14.38292
#
# Velocity S-wave (km/s) = 2.41930 3.30795 2.89789
# Velocity P-wave (km/s) = 5.47921 6.85600 6.20591
#
# Compressibility (1/GPa) = 0.02627961
#
# Stress axis : x y z
#
# Youngs Moduli (GPa) = 58.31358 64.27875 49.15730
#
# Poissons Ratio (x) = 0.33904 0.27650
# Poissons Ratio (y) = 0.30758 0.12217
# Poissons Ratio (z) = 0.32800 0.15975
#
# Static dielectric constant tensor:
#      x y z
#    x 3.100420 0.000000 0.109230 
#    y 0.000000 3.331860 0.000000 
#    z 0.109230 0.000000 3.457320 
# 
# 
# High freq. dielectric constant tensor:
#      x y z
#    x 1.621770 0.000000 0.002180 
#    y 0.000000 1.669720 0.000000 
#    z 0.002180 0.000000 1.649650 
# 
# From -- ./inp_files/179290.got.cif
#   From: 2010.06.25/outbox.cif.g09.slc.cpg/sg12_90_cif.got.tgz:179290.got - 2010.06.28 00:19:55.
