data_PCOD8081039
_publ_section_title
;
Structure prediction by ZEFSAII (Michael W. Deem and Ramdas Pophale) SiO2 
 PCOD8081039
Probable space group: C 2/M
;
_chemical_formula_sum "Si O2"
_cell_formula_units_Z 56
_cell_length_a 31.968389
_cell_length_b 8.847727
_cell_length_c 20.800328
_cell_angle_alpha 90.000000
_cell_angle_beta 27.879329
_cell_angle_gamma 90.000000
_cell_volume 2751.105930
_symmetry_space_group_name_H-M "C 2/M"
_symmetry_group_IT_number 12
_symmetry_cell_setting 'monoclinic'
loop_
_space_group_symop_operation_xyz
x,y,z
-x,y,-z
-x,-y,-z
x,-y,z
1/2+x,1/2+y,z
1/2-x,1/2+y,-z
1/2-x,1/2-y,-z
1/2+x,1/2-y,z
loop_
_atom_site_type_symbol
_atom_site_label
_atom_site_fract_x
_atom_site_fract_y
_atom_site_fract_z
Si Si1 0.118621 0.322014 0.031717
Si Si2 0.523704 0.322238 0.274079
Si Si3 0.966234 0.322406 0.476701
Si Si4 0.639286 0.830657 0.570290
Si Si5 0.776938 0.173642 0.728978
Si Si6 0.540141 0.167576 0.834106
Si Si7 0.192667 0.677355 0.709589
O O1 0.097697 0.500000 0.067816
O O2 0.103109 0.245419 0.121953
O O3 0.048287 0.250235 0.074634
O O4 0.219789 0.292396 0.871132
O O5 0.535257 0.500000 0.260667
O O6 0.529917 0.257603 0.337843
O O7 0.426745 0.279037 0.378837
O O8 0.976777 0.500000 0.454242
O O9 0.862347 0.280081 0.609497
O O10 0.000000 0.266352 0.500000
O O11 0.616783 0.832402 0.675704
O O12 0.738583 0.769684 0.427246
O O13 0.630501 0.000000 0.553379
O O14 0.710236 0.208606 0.760587
O O15 0.809405 0.000000 0.683113
O O16 0.591751 0.235317 0.826836
O O17 0.507929 0.000000 0.896461
O O18 0.201148 0.500000 0.681648
#
# Coordination Sequence:
#
# PCOD8081039 Si02
#       7
#     8   8   8   8   8   8   8
#     4   9  19  37  57  81 118 160 196 231 277 332
#     4  11  21  36  60  87 113 147 190 236 283 335
#     4  11  24  42  65  90 115 144 180 226 284 349
#     4  10  18  30  49  75 110 153 193 236 285 331
#     4  10  21  36  58  87 118 152 190 235 285 336
#     4   8  16  29  47  74 111 154 197 235 272 324
#     4  10  18  29  48  78 113 151 195 238 280 327
#
# _framework density 20.355450000000001
#
# number of rings (size 3 to 8) (size 9 to 14) (size 15 to 20)
#    0.000    2.143    1.429    3.429    0.000    2.286 
#    0.000    6.429    0.000    0.000    0.000    6.000 
#    0.000    0.000    0.000    0.000    0.000    0.000 
#
# Total GULP energy -347044.381877 kJ/mol
# GULP energy per Si atom -12394.442210 kJ/mol
# Density = 2.030912 g / cm^3
# Si number density = 20.355450 Si / 1000 Ang^3
#
#
#
# Elastic Constant Matrix: (Units=GPa)
#
#
# Indices 1 2 3 4 5 6 
#
# 1 93.7015 26.5386 11.9761 -0.0062 12.6808 0.0018
# 2 26.5386 75.1642 24.1672 -0.0186 9.9555 0.0031
# 3 11.9761 24.1672 69.8450 -0.0183 13.1151 0.0028
# 4 -0.0062 -0.0186 -0.0183 25.7982 0.0023 1.1680
# 5 12.6808 9.9555 13.1151 0.0023 11.1378 -0.0004
# 6 0.0018 0.0031 0.0028 1.1680 -0.0004 20.0599
#
#
#
# Elastic Compliance Matrix: (Units=1/GPa)
#
#
# Indices 1 2 3 4 5 6 
#
# 1 0.013311 -0.003333 0.001486 0.000003 -0.013925 -0.000001
# 2 -0.003333 0.016603 -0.003979 0.000009 -0.006360 -0.000002
# 3 0.001486 -0.003979 0.019373 0.000013 -0.020947 -0.000003
# 4 0.000003 0.000009 0.000013 0.038865 -0.000035 -0.002263
# 5 -0.013925 -0.006360 -0.020947 -0.000035 0.135990 0.000010
# 6 -0.000001 -0.000002 -0.000003 -0.002263 0.000010 0.049982
#
#
# Mechanical properties :
#
#
# Convention : Reuss Voigt Hill
#
# Bulk Modulus (GPa) = 26.57181 40.45271 33.51226
# Shear Modulus (GPa) = 16.76046 23.13444 19.94745
#
# Velocity S-wave (km/s) = 2.87259 3.37489 3.13382
# Velocity P-wave (km/s) = 4.90761 5.92477 5.44001
#
# Compressibility (1/GPa) = 0.03763386
#
# Stress axis : x y z
#
# Youngs Moduli (GPa) = 75.12680 60.23100 51.61882
#
# Poissons Ratio (x) = 0.20075 -0.07669
# Poissons Ratio (y) = 0.25040 0.20539
# Poissons Ratio (z) = -0.11162 0.23966
#
# Static dielectric constant tensor:
#      x y z
#    x 3.779650 0.000000 0.169540 
#    y 0.000000 3.444480 0.000020 
#    z 0.169540 0.000020 3.595830 
# 
# 
# High freq. dielectric constant tensor:
#      x y z
#    x 1.789540 0.000000 0.012990 
#    y 0.000000 1.768640 0.000000 
#    z 0.012990 0.000000 1.789390 
# 
# From -- ./inp_files/329491.got.cif
#   From: 2010.06.25/outbox.cif.g09.slc.cpg/sg12_165_cif.got.tgz:329491.got - 2010.06.28 00:19:55.
