data_PCOD8081082
_publ_section_title
;
Structure prediction by ZEFSAII (Michael W. Deem and Ramdas Pophale) SiO2 
 PCOD8081082
Probable space group: C 2/M
;
_chemical_formula_sum "Si O2"
_cell_formula_units_Z 48
_cell_length_a 9.162868
_cell_length_b 18.437853
_cell_length_c 31.868555
_cell_angle_alpha 90.000000
_cell_angle_beta 149.755388
_cell_angle_gamma 90.000000
_cell_volume 2711.876092
_symmetry_space_group_name_H-M "C 2/M"
_symmetry_group_IT_number 12
_symmetry_cell_setting 'monoclinic'
loop_
_space_group_symop_operation_xyz
x,y,z
-x,y,-z
-x,-y,-z
x,-y,z
1/2+x,1/2+y,z
1/2-x,1/2+y,-z
1/2-x,1/2-y,-z
1/2+x,1/2-y,z
loop_
_atom_site_type_symbol
_atom_site_label
_atom_site_fract_x
_atom_site_fract_y
_atom_site_fract_z
Si Si1 0.231357 0.676446 0.091565
Si Si2 0.995070 0.917397 0.277707
Si Si3 0.835814 0.298755 0.676823
Si Si4 0.146293 0.292609 0.162239
Si Si5 0.784053 0.822539 0.597234
Si Si6 0.244430 0.083170 0.248673
O O1 0.070198 0.689611 0.095382
O O2 0.371818 0.753163 0.113774
O O3 0.470788 0.613829 0.154931
O O4 0.000000 0.650076 0.000000
O O5 0.181308 0.891842 0.363775
O O6 0.191395 0.907536 0.285067
O O7 0.706574 0.867590 0.202258
O O8 0.894525 0.000000 0.258709
O O9 0.748887 0.250616 0.615258
O O10 0.557151 0.316566 0.634695
O O11 0.063793 0.256371 0.762895
O O12 0.967513 0.373661 0.692267
O O13 0.500000 0.836562 0.500000
O O14 0.289099 0.000000 0.247010
#
# Coordination Sequence:
#
# PCOD8081082 Si02
#       6
#     8   8   8   8   8   8
#     4  10  18  29  49  75 101 126 160 208 250 286
#     4   9  18  34  52  70  97 133 169 202 243 296
#     4  10  19  34  53  73  98 131 169 201 241 297
#     4   9  17  31  49  70  94 129 167 198 240 293
#     4  11  21  33  53  78 102 126 160 209 253 291
#     4   9  19  35  53  72  98 134 171 203 241 294
#
# _framework density 17.699925
#
# number of rings (size 3 to 8) (size 9 to 14) (size 15 to 20)
#    0.000    2.333    0.000    6.000    0.000    1.333 
#    0.000    0.000    0.000    3.000    0.000    0.000 
#    0.000    0.000    0.000    0.000    0.000    0.000 
#
# Total GULP energy -297634.868220 kJ/mol
# GULP energy per Si atom -12401.452842 kJ/mol
# Density = 1.765964 g / cm^3
# Si number density = 17.699925 Si / 1000 Ang^3
#
#
#
# Elastic Constant Matrix: (Units=GPa)
#
#
# Indices 1 2 3 4 5 6 
#
# 1 77.1763 46.0496 47.9349 0.0015 -6.7445 -0.0001
# 2 46.0496 136.0609 36.6364 -0.0008 -4.6941 0.0000
# 3 47.9349 36.6364 104.4743 0.0014 -15.9311 -0.0007
# 4 0.0015 -0.0008 0.0014 14.6688 -0.0001 -1.0105
# 5 -6.7445 -4.6941 -15.9311 -0.0001 25.7277 0.0001
# 6 -0.0001 0.0000 -0.0007 -1.0105 0.0001 27.0558
#
#
#
# Elastic Compliance Matrix: (Units=1/GPa)
#
#
# Indices 1 2 3 4 5 6 
#
# 1 0.020730 -0.004917 -0.007835 -0.000002 -0.000314 0.000000
# 2 -0.004917 0.009285 -0.001036 0.000001 -0.000236 0.000000
# 3 -0.007835 -0.001036 0.014563 -0.000001 0.006775 0.000000
# 4 -0.000002 0.000001 -0.000001 0.068348 0.000000 0.002553
# 5 -0.000314 -0.000236 0.006775 0.000000 0.042938 0.000000
# 6 0.000000 0.000000 0.000000 0.002553 0.000000 0.037056
#
#
# Mechanical properties :
#
#
# Convention : Reuss Voigt Hill
#
# Bulk Modulus (GPa) = 58.81797 64.32813 61.57305
# Shear Modulus (GPa) = 22.10792 25.96317 24.03554
#
# Velocity S-wave (km/s) = 3.53801 3.83411 3.68903
# Velocity P-wave (km/s) = 7.07056 7.48486 7.28066
#
# Compressibility (1/GPa) = 0.01700161
#
# Stress axis : x y z
#
# Youngs Moduli (GPa) = 48.23842 107.70470 68.66766
#
# Poissons Ratio (x) = 0.52962 0.53802
# Poissons Ratio (y) = 0.23720 0.07112
# Poissons Ratio (z) = 0.37795 0.11156
#
# Static dielectric constant tensor:
#      x y z
#    x 3.263670 0.000000 -0.210680 
#    y 0.000000 3.382840 0.000000 
#    z -0.210680 0.000000 3.206050 
# 
# 
# High freq. dielectric constant tensor:
#      x y z
#    x 1.686770 0.000000 -0.015860 
#    y 0.000000 1.681990 0.000000 
#    z -0.015860 0.000000 1.671450 
# 
# From -- ./inp_files/195912.got.cif
#   From: 2010.06.25/outbox.cif.g09.slc.cpg/sg12_98_cif.got.tgz:195912.got - 2010.06.28 00:19:55.
