data_PCOD8081975
_publ_section_title
;
Structure prediction by ZEFSAII (Michael W. Deem and Ramdas Pophale) SiO2 
 PCOD8081975
Probable space group: C 2/M
;
_chemical_formula_sum "Si O2"
_cell_formula_units_Z 56
_cell_length_a 14.585232
_cell_length_b 23.232676
_cell_length_c 9.310602
_cell_angle_alpha 90.000000
_cell_angle_beta 99.483491
_cell_angle_gamma 90.000000
_cell_volume 3111.816325
_symmetry_space_group_name_H-M "C 2/M"
_symmetry_group_IT_number 12
_symmetry_cell_setting 'monoclinic'
loop_
_space_group_symop_operation_xyz
x,y,z
-x,y,-z
-x,-y,-z
x,-y,z
1/2+x,1/2+y,z
1/2-x,1/2+y,-z
1/2-x,1/2-y,-z
1/2+x,1/2-y,z
loop_
_atom_site_type_symbol
_atom_site_label
_atom_site_fract_x
_atom_site_fract_y
_atom_site_fract_z
Si Si1 0.275626 0.932935 0.134893
Si Si2 0.306073 0.565118 0.183509
Si Si3 0.099145 0.849549 0.589503
Si Si4 0.127977 0.565934 0.323447
Si Si5 0.265263 0.868655 0.417502
Si Si6 0.915052 0.718183 0.371415
Si Si7 0.537940 0.866855 0.853730
O O1 0.236416 0.897730 0.260011
O O2 0.375035 0.909285 0.109346
O O3 0.286314 0.000000 0.175272
O O4 0.200590 0.923940 0.988466
O O5 0.338309 0.500000 0.225615
O O6 0.380273 0.607744 0.273528
O O7 0.204016 0.576219 0.220462
O O8 0.172863 0.855160 0.480954
O O9 0.101184 0.785664 0.653918
O O10 0.000000 0.866419 0.500000
O O11 0.098295 0.500000 0.328764
O O12 0.167918 0.586115 0.486090
O O13 0.037730 0.601975 0.263084
O O14 0.320950 0.809366 0.410074
O O15 0.935378 0.692146 0.219564
O O16 0.000000 0.705838 0.500000
O O17 0.500000 0.850427 0.000000
#
# Coordination Sequence:
#
# PCOD8081975 Si02
#       7
#     8   8   8   8   8   8   8
#     4  10  20  33  54  85 121 151 180 226 283 341
#     4   9  19  36  56  81 112 144 182 232 284 336
#     4  10  22  40  61  79 102 144 200 245 289 331
#     4  10  18  30  53  82 117 155 186 218 265 337
#     4  10  20  36  56  82 113 149 190 237 280 327
#     4  10  20  37  56  82 113 151 189 233 277 332
#     4  11  20  32  52  85 123 157 187 215 270 341
#
# _framework density 17.995920000000002
#
# number of rings (size 3 to 8) (size 9 to 14) (size 15 to 20)
#    0.000    2.000    2.857    1.286    0.000    1.429 
#    0.000    8.571    0.000    1.714    0.000    0.000 
#    0.000    0.000    0.000    0.000    0.000    0.000 
#
# Total GULP energy -347269.099982 kJ/mol
# GULP energy per Si atom -12402.467857 kJ/mol
# Density = 1.795496 g / cm^3
# Si number density = 17.995920 Si / 1000 Ang^3
#
#
#
# Elastic Constant Matrix: (Units=GPa)
#
#
# Indices 1 2 3 4 5 6 
#
# 1 93.6153 56.1795 47.1998 0.0000 7.0107 0.0000
# 2 56.1795 120.4084 56.7249 0.0000 13.6015 0.0000
# 3 47.1998 56.7249 97.3031 0.0000 8.6591 0.0000
# 4 0.0000 0.0000 0.0000 22.9194 0.0000 7.0014
# 5 7.0107 13.6015 8.6591 0.0000 21.2067 0.0000
# 6 0.0000 0.0000 0.0000 7.0014 0.0000 24.2576
#
#
#
# Elastic Compliance Matrix: (Units=1/GPa)
#
#
# Indices 1 2 3 4 5 6 
#
# 1 0.016310 -0.005352 -0.004791 0.000000 -0.000003 0.000000
# 2 -0.005352 0.013695 -0.004943 0.000000 -0.004996 0.000000
# 3 -0.004791 -0.004943 0.015628 0.000000 -0.001627 0.000000
# 4 0.000000 0.000000 0.000000 0.047850 0.000000 -0.013811
# 5 -0.000003 -0.004996 -0.001627 0.000000 0.051025 0.000000
# 6 0.000000 0.000000 0.000000 -0.013811 0.000000 0.045210
#
#
# Mechanical properties :
#
#
# Convention : Reuss Voigt Hill
#
# Bulk Modulus (GPa) = 64.68357 70.17059 67.42708
# Shear Modulus (GPa) = 22.21785 23.75824 22.98805
#
# Velocity S-wave (km/s) = 3.51751 3.63740 3.57796
# Velocity P-wave (km/s) = 7.24697 7.53114 7.39042
#
# Compressibility (1/GPa) = 0.01545988
#
# Stress axis : x y z
#
# Youngs Moduli (GPa) = 61.31266 73.01705 63.98902
#
# Poissons Ratio (x) = 0.39081 0.30658
# Poissons Ratio (y) = 0.32817 0.31630
# Poissons Ratio (z) = 0.29375 0.36093
#
# Static dielectric constant tensor:
#      x y z
#    x 3.177520 0.000000 0.000630 
#    y 0.000000 3.320400 0.000000 
#    z 0.000630 0.000000 3.376680 
# 
# 
# High freq. dielectric constant tensor:
#      x y z
#    x 1.682870 0.000000 0.002520 
#    y 0.000000 1.698870 0.000000 
#    z 0.002520 0.000000 1.703640 
# 
# From -- ./inp_files/64048.got.cif
#   From: 2010.06.25/outbox.cif.g09.slc.cpg/sg12_33_cif.got.tgz:64048.got - 2010.06.28 00:19:55.
