data_PCOD8081092
_publ_section_title
;
Structure prediction by ZEFSAII (Michael W. Deem and Ramdas Pophale) SiO2 
 PCOD8081092
Probable space group: C 2/M
;
_chemical_formula_sum "Si O2"
_cell_formula_units_Z 64
_cell_length_a 20.359312
_cell_length_b 8.965034
_cell_length_c 20.711693
_cell_angle_alpha 90.000000
_cell_angle_beta 110.774711
_cell_angle_gamma 90.000000
_cell_volume 3534.549256
_symmetry_space_group_name_H-M "C 2/M"
_symmetry_group_IT_number 12
_symmetry_cell_setting 'monoclinic'
loop_
_space_group_symop_operation_xyz
x,y,z
-x,y,-z
-x,-y,-z
x,-y,z
1/2+x,1/2+y,z
1/2-x,1/2+y,-z
1/2-x,1/2-y,-z
1/2+x,1/2-y,z
loop_
_atom_site_type_symbol
_atom_site_label
_atom_site_fract_x
_atom_site_fract_y
_atom_site_fract_z
Si Si1 0.308696 0.323330 0.670086
Si Si2 0.764246 0.675117 0.906728
Si Si3 0.609561 0.323139 0.424293
Si Si4 0.158566 0.325044 0.570775
Si Si5 0.349819 0.323687 0.825133
Si Si6 0.535134 0.663342 0.581546
Si Si7 0.496695 0.324840 0.072965
Si Si8 0.356324 0.824951 0.062685
O O1 0.312857 0.500000 0.672039
O O2 0.358498 0.260448 0.630874
O O3 0.230251 0.268758 0.627910
O O4 0.334318 0.262888 0.747940
O O5 0.752760 0.500000 0.894716
O O6 0.794438 0.742857 0.851798
O O7 0.688838 0.748883 0.896081
O O8 0.819867 0.713397 0.982036
O O9 0.618890 0.500000 0.435195
O O10 0.649794 0.250904 0.498460
O O11 0.526815 0.279927 0.392717
O O12 0.157131 0.500000 0.559082
O O13 0.098355 0.280529 0.601150
O O14 0.338234 0.500000 0.828328
O O15 0.429757 0.280079 0.868956
O O16 0.500000 0.648382 0.500000
O O17 0.563411 0.500000 0.612863
O O18 0.481203 0.500000 0.072308
O O19 0.434941 0.239974 0.089280
O O20 0.500000 0.272147 0.000000
O O21 0.359496 0.000000 0.077208
#
# Coordination Sequence:
#
# PCOD8081092 Si02
#       8
#     8   8   8   8   8   8   8   8
#     4   9  19  34  51  72  99 136 172 205 251 306
#     4  10  20  34  53  78 106 133 168 213 255 304
#     4   9  17  32  52  72  97 130 171 209 245 297
#     4  10  18  29  49  76 102 128 165 210 254 299
#     4  10  20  36  55  73 103 142 175 210 261 314
#     4   8  15  28  47  70  96 127 161 202 247 295
#     4  10  19  32  53  80 105 133 172 216 255 301
#     4  10  20  33  54  80 106 135 167 209 260 309
#
# _framework density 18.106977000000001
#
# number of rings (size 3 to 8) (size 9 to 14) (size 15 to 20)
#    0.000    2.500    1.250    2.250    0.000    4.000 
#    0.000    3.750    0.000    1.500    0.000    0.000 
#    0.000    0.000    0.000    0.000    0.000    0.000 
#
# Total GULP energy -396758.987362 kJ/mol
# GULP energy per Si atom -12398.718355 kJ/mol
# Density = 1.806576 g / cm^3
# Si number density = 18.106977 Si / 1000 Ang^3
#
#
#
# Elastic Constant Matrix: (Units=GPa)
#
#
# Indices 1 2 3 4 5 6 
#
# 1 183.1760 55.8920 81.7974 0.0000 -1.6689 0.0000
# 2 55.8920 57.1344 35.9232 0.0000 -5.0297 0.0000
# 3 81.7974 35.9232 111.2096 0.0000 -8.2398 0.0000
# 4 0.0000 0.0000 0.0000 14.8716 0.0000 -1.8594
# 5 -1.6689 -5.0297 -8.2398 0.0000 4.5849 0.0000
# 6 0.0000 0.0000 0.0000 -1.8594 0.0000 33.1318
#
#
#
# Elastic Compliance Matrix: (Units=1/GPa)
#
#
# Indices 1 2 3 4 5 6 
#
# 1 0.010546 -0.007670 -0.006481 0.000000 -0.016223 0.000000
# 2 -0.007670 0.028244 -0.001607 0.000000 0.025303 0.000000
# 3 -0.006481 -0.001607 0.016119 0.000000 0.024846 0.000000
# 4 0.000000 0.000000 0.000000 0.067717 0.000000 0.003800
# 5 -0.016223 0.025303 0.024846 0.000000 0.284611 0.000000
# 6 0.000000 0.000000 0.000000 0.003800 0.000000 0.030396
#
#
# Mechanical properties :
#
#
# Convention : Reuss Voigt Hill
#
# Bulk Modulus (GPa) = 42.74915 77.63835 60.19375
# Shear Modulus (GPa) = 10.48335 22.37817 16.43076
#
# Velocity S-wave (km/s) = 2.40878 3.51933 3.01562
# Velocity P-wave (km/s) = 5.60328 7.71265 6.74098
#
# Compressibility (1/GPa) = 0.02339228
#
# Stress axis : x y z
#
# Youngs Moduli (GPa) = 94.82425 35.40637 62.03738
#
# Poissons Ratio (x) = 0.27155 0.40208
# Poissons Ratio (y) = 0.72726 0.09972
# Poissons Ratio (z) = 0.61458 0.05691
#
# Static dielectric constant tensor:
#      x y z
#    x 3.801390 0.000000 -0.086910 
#    y 0.000000 3.175110 0.000000 
#    z -0.086910 0.000000 3.205290 
# 
# 
# High freq. dielectric constant tensor:
#      x y z
#    x 1.720760 0.000000 -0.001460 
#    y 0.000000 1.688620 0.000000 
#    z -0.001460 0.000000 1.669810 
# 
# From -- ./inp_files/320168.got.cif
#   From: 2010.06.25/outbox.cif.g09.slc.cpg/sg12_161_cif.got.tgz:320168.got - 2010.06.28 00:19:55.
