data_PCOD8081662
_publ_section_title
;
Structure prediction by ZEFSAII (Michael W. Deem and Ramdas Pophale) SiO2 
 PCOD8081662
Probable space group: C 2/M
;
_chemical_formula_sum "Si O2"
_cell_formula_units_Z 32
_cell_length_a 29.312799
_cell_length_b 8.918824
_cell_length_c 21.706006
_cell_angle_alpha 90.000000
_cell_angle_beta 159.585449
_cell_angle_gamma 90.000000
_cell_volume 1979.401149
_symmetry_space_group_name_H-M "C 2/M"
_symmetry_group_IT_number 12
_symmetry_cell_setting 'monoclinic'
loop_
_space_group_symop_operation_xyz
x,y,z
-x,y,-z
-x,-y,-z
x,-y,z
1/2+x,1/2+y,z
1/2-x,1/2+y,-z
1/2-x,1/2-y,-z
1/2+x,1/2-y,z
loop_
_atom_site_type_symbol
_atom_site_label
_atom_site_fract_x
_atom_site_fract_y
_atom_site_fract_z
Si Si1 0.003881 0.669204 0.188740
Si Si2 0.622179 0.322824 0.866143
Si Si3 0.367344 0.168846 0.527408
Si Si4 0.600659 0.176274 0.180598
O O1 0.949023 0.500000 0.111086
O O2 0.130532 0.667455 0.394702
O O3 0.043550 0.737375 0.173003
O O4 0.892061 0.771263 0.079937
O O5 0.630847 0.500000 0.872280
O O6 0.750000 0.250000 0.000000
O O7 0.495878 0.261724 0.667866
O O8 0.236857 0.245170 0.337017
O O9 0.375140 0.000000 0.511011
O O10 0.626454 0.000000 0.217553
O O11 0.500000 0.219550 0.000000
#
# Coordination Sequence:
#
# PCOD8081662 Si02
#       4
#     8   8   8   8
#     4   8  17  31  47  70  98 125 158 195 233 279
#     4  10  18  30  50  73  95 120 156 199 241 280
#     4   9  18  31  48  70  97 126 159 197 235 277
#     4  10  19  31  48  71 100 131 160 192 233 280
#
# _framework density 16.166505000000001
#
# number of rings (size 3 to 8) (size 9 to 14) (size 15 to 20)
#    1.500    1.250    0.000    3.000    0.000    1.500 
#    0.000    0.000    0.000    1.500    0.000   10.500 
#    0.000    0.000    0.000    0.000    0.000    0.000 
#
# Total GULP energy -198214.419285 kJ/mol
# GULP energy per Si atom -12388.401205 kJ/mol
# Density = 1.612971 g / cm^3
# Si number density = 16.166505 Si / 1000 Ang^3
#
#
#
# Elastic Constant Matrix: (Units=GPa)
#
#
# Indices 1 2 3 4 5 6 
#
# 1 43.2200 34.7603 55.3256 0.0000 12.5889 0.0000
# 2 34.7603 114.0738 66.1793 0.0000 17.2559 0.0000
# 3 55.3256 66.1793 121.8703 0.0000 19.7063 0.0000
# 4 0.0000 0.0000 0.0000 29.7115 0.0000 6.0794
# 5 12.5889 17.2559 19.7063 0.0000 25.8234 0.0000
# 6 0.0000 0.0000 0.0000 6.0794 0.0000 19.8706
#
#
#
# Elastic Compliance Matrix: (Units=1/GPa)
#
#
# Indices 1 2 3 4 5 6 
#
# 1 0.057665 -0.002770 -0.023303 0.000000 -0.008478 0.000000
# 2 -0.002770 0.013250 -0.005389 0.000000 -0.003391 0.000000
# 3 -0.023303 -0.005389 0.022007 0.000000 -0.001833 0.000000
# 4 0.000000 0.000000 0.000000 0.035905 0.000000 -0.010985
# 5 -0.008478 -0.003391 -0.001833 0.000000 0.046522 0.000000
# 6 0.000000 0.000000 0.000000 -0.010985 0.000000 0.053686
#
#
# Mechanical properties :
#
#
# Convention : Reuss Voigt Hill
#
# Bulk Modulus (GPa) = 33.33654 65.74384 49.54019
# Shear Modulus (GPa) = 16.55857 23.27434 19.91646
#
# Velocity S-wave (km/s) = 3.20387 3.79841 3.51373
# Velocity P-wave (km/s) = 5.86104 7.74546 6.86819
#
# Compressibility (1/GPa) = 0.02999712
#
# Stress axis : x y z
#
# Youngs Moduli (GPa) = 17.34165 75.47288 45.43940
#
# Poissons Ratio (x) = 0.20904 1.05888
# Poissons Ratio (y) = 0.04803 0.24489
# Poissons Ratio (z) = 0.40412 0.40675
#
# Static dielectric constant tensor:
#      x y z
#    x 2.841660 0.000000 0.051180 
#    y 0.000000 3.054480 0.000000 
#    z 0.051180 0.000000 2.831830 
# 
# 
# High freq. dielectric constant tensor:
#      x y z
#    x 1.590700 0.000000 0.012110 
#    y 0.000000 1.629020 0.000000 
#    z 0.012110 0.000000 1.602350 
# 
# From -- ./inp_files/150937.got.cif
#   From: 2010.06.25/outbox.cif.g09.slc.cpg/sg12_76_cif.got.tgz:150937.got - 2010.06.28 00:19:55.
