data_PCOD8081446
_publ_section_title
;
Structure prediction by ZEFSAII (Michael W. Deem and Ramdas Pophale) SiO2 
 PCOD8081446
Probable space group: C 2/M
;
_chemical_formula_sum "Si O2"
_cell_formula_units_Z 60
_cell_length_a 22.508368
_cell_length_b 9.769821
_cell_length_c 22.178517
_cell_angle_alpha 90.000000
_cell_angle_beta 42.786972
_cell_angle_gamma 90.000000
_cell_volume 3312.900530
_symmetry_space_group_name_H-M "C 2/M"
_symmetry_group_IT_number 12
_symmetry_cell_setting 'monoclinic'
loop_
_space_group_symop_operation_xyz
x,y,z
-x,y,-z
-x,-y,-z
x,-y,z
1/2+x,1/2+y,z
1/2-x,1/2+y,-z
1/2-x,1/2-y,-z
1/2+x,1/2-y,z
loop_
_atom_site_type_symbol
_atom_site_label
_atom_site_fract_x
_atom_site_fract_y
_atom_site_fract_z
Si Si1 0.000000 0.294179 0.000000
Si Si2 0.528785 0.659810 0.227769
Si Si3 0.193471 0.351436 0.861626
Si Si4 0.244119 0.656943 0.417749
Si Si5 0.271035 0.342771 0.927465
Si Si6 0.117894 0.660300 0.617863
Si Si7 0.478313 0.652127 0.136514
Si Si8 0.275394 0.652011 0.264281
O O1 0.909677 0.375367 0.076441
O O2 0.020961 0.209164 0.044198
O O3 0.499361 0.500000 0.255333
O O4 0.629862 0.677587 0.168661
O O5 0.473534 0.757237 0.313777
O O6 0.512429 0.721725 0.172581
O O7 0.238468 0.500000 0.822015
O O8 0.209283 0.296944 0.917704
O O9 0.242103 0.254152 0.777673
O O10 0.280297 0.500000 0.396845
O O11 0.156173 0.673895 0.521962
O O12 0.316794 0.765687 0.384166
O O13 0.219463 0.687336 0.366021
O O14 0.253512 0.500000 0.959060
O O15 0.250000 0.250000 0.000000
O O16 0.106239 0.500000 0.644425
O O17 0.514316 0.500000 0.112745
O O18 0.374709 0.661716 0.211908
O O19 0.253482 0.500000 0.256764
#
# Coordination Sequence:
#
# PCOD8081446 Si02
#       8
#     4   8   8   8   8   8   8   8
#     4  10  18  30  48  70  99 132 157 204 261 310
#     4  10  19  34  52  71 101 140 174 212 259 305
#     4  10  21  35  49  73 103 131 166 211 263 310
#     4   9  17  32  50  74 110 141 170 207 254 310
#     4  10  22  38  56  75 101 138 178 219 260 306
#     4  10  19  29  49  80 108 137 170 211 258 307
#     4   9  16  27  46  70  94 124 167 206 241 293
#     4   9  17  31  51  72  98 134 167 202 246 303
#
# _framework density 18.111018000000001
#
# number of rings (size 3 to 8) (size 9 to 14) (size 15 to 20)
#    0.000    2.400    1.333    1.600    0.000    2.667 
#    0.000    0.667    0.000    0.800    0.000    5.600 
#    0.000    0.000    0.000    0.000    0.000    0.000 
#
# Total GULP energy -371775.311258 kJ/mol
# GULP energy per Si atom -12392.510375 kJ/mol
# Density = 1.806980 g / cm^3
# Si number density = 18.111018 Si / 1000 Ang^3
#
#
#
# Elastic Constant Matrix: (Units=GPa)
#
#
# Indices 1 2 3 4 5 6 
#
# 1 80.7910 41.6825 37.0148 0.0000 15.5217 0.0000
# 2 41.6825 103.6853 60.4101 0.0001 16.0477 0.0000
# 3 37.0148 60.4101 97.6621 0.0001 18.5614 0.0000
# 4 0.0000 0.0001 0.0001 25.3365 0.0000 6.0859
# 5 15.5217 16.0477 18.5614 0.0000 31.7094 0.0000
# 6 0.0000 0.0000 0.0000 6.0859 0.0000 23.0136
#
#
#
# Elastic Compliance Matrix: (Units=1/GPa)
#
#
# Indices 1 2 3 4 5 6 
#
# 1 0.016783 -0.004456 -0.002781 0.000000 -0.004332 0.000000
# 2 -0.004456 0.016432 -0.008224 0.000000 -0.001321 0.000000
# 3 -0.002781 -0.008224 0.017250 0.000000 -0.004574 0.000000
# 4 0.000000 0.000000 0.000000 0.042146 0.000000 -0.011145
# 5 -0.004332 -0.001321 -0.004574 0.000000 0.037003 0.000000
# 6 0.000000 0.000000 0.000000 -0.011145 0.000000 0.046400
#
#
# Mechanical properties :
#
#
# Convention : Reuss Voigt Hill
#
# Bulk Modulus (GPa) = 51.17198 62.26147 56.71673
# Shear Modulus (GPa) = 23.42454 25.54730 24.48592
#
# Velocity S-wave (km/s) = 3.60027 3.75986 3.68093
# Velocity P-wave (km/s) = 6.75267 7.30076 7.03206
#
# Compressibility (1/GPa) = 0.01954194
#
# Stress axis : x y z
#
# Youngs Moduli (GPa) = 59.58343 60.85643 57.97062
#
# Poissons Ratio (x) = 0.27118 0.16123
# Poissons Ratio (y) = 0.26551 0.47677
# Poissons Ratio (z) = 0.16572 0.50051
#
# Static dielectric constant tensor:
#      x y z
#    x 3.146470 0.000000 0.168420 
#    y 0.000000 3.407120 0.000000 
#    z 0.168420 0.000000 3.444830 
# 
# 
# High freq. dielectric constant tensor:
#      x y z
#    x 1.675580 0.000000 0.016590 
#    y 0.000000 1.699150 0.000000 
#    z 0.016590 0.000000 1.697340 
# 
# From -- ./inp_files/348830.got.cif
#   From: 2010.06.25/outbox.cif.g09.slc.cpg/sg12_175_cif.got.tgz:348830.got - 2010.06.28 00:19:55.
