data_PCOD8081678
_publ_section_title
;
Structure prediction by ZEFSAII (Michael W. Deem and Ramdas Pophale) SiO2 
 PCOD8081678
Probable space group: C 2/M
;
_chemical_formula_sum "Si O2"
_cell_formula_units_Z 64
_cell_length_a 24.829985
_cell_length_b 9.487420
_cell_length_c 19.674160
_cell_angle_alpha 90.000000
_cell_angle_beta 130.655730
_cell_angle_gamma 90.000000
_cell_volume 3516.052506
_symmetry_space_group_name_H-M "C 2/M"
_symmetry_group_IT_number 12
_symmetry_cell_setting 'monoclinic'
loop_
_space_group_symop_operation_xyz
x,y,z
-x,y,-z
-x,-y,-z
x,-y,z
1/2+x,1/2+y,z
1/2-x,1/2+y,-z
1/2-x,1/2-y,-z
1/2+x,1/2-y,z
loop_
_atom_site_type_symbol
_atom_site_label
_atom_site_fract_x
_atom_site_fract_y
_atom_site_fract_z
Si Si1 0.334392 0.157086 0.210623
Si Si2 0.265959 0.158214 0.948435
Si Si3 0.305244 0.841748 0.338519
Si Si4 0.594233 0.158102 0.011953
Si Si5 0.335753 0.834613 0.794563
Si Si6 0.012156 0.666422 0.708852
Si Si7 0.969895 0.334724 0.820380
Si Si8 0.948911 0.667964 0.517599
O O1 0.273221 0.270654 0.147283
O O2 0.346490 0.155592 0.300772
O O3 0.405072 0.205092 0.229627
O O4 0.311894 0.000000 0.166841
O O5 0.349360 0.158152 0.002783
O O6 0.237527 0.000000 0.935471
O O7 0.250000 0.250000 0.000000
O O8 0.237282 0.741480 0.283797
O O9 0.366371 0.786967 0.439885
O O10 0.279619 0.000000 0.336006
O O11 0.627287 0.230835 0.106789
O O12 0.574729 0.000000 0.019198
O O13 0.523610 0.231083 0.921987
O O14 0.389044 0.807090 0.775668
O O15 0.319160 0.000000 0.791347
O O16 0.001141 0.500000 0.699324
O O17 0.982567 0.731091 0.755596
O O18 0.971315 0.730004 0.609758
O O19 0.987838 0.500000 0.831838
O O20 0.955368 0.500000 0.521897
O O21 0.000000 0.729714 0.500000
#
# Coordination Sequence:
#
# PCOD8081678 Si02
#       8
#     8   8   8   8   8   8   8   8
#     4  10  18  30  50  74 101 130 161 205 255 300
#     4  11  21  32  47  71 104 137 166 202 249 301
#     4  10  19  31  51  77 102 129 163 207 254 299
#     4   9  17  30  48  71  96 125 166 210 245 283
#     4  10  19  33  52  72  98 132 169 206 245 297
#     4   9  16  28  49  76 102 126 165 217 254 291
#     4   9  17  29  48  72  95 125 168 214 251 284
#     4   9  15  27  48  75 102 130 165 205 251 299
#
# _framework density 18.202231999999999
#
# number of rings (size 3 to 8) (size 9 to 14) (size 15 to 20)
#    0.000    2.375    2.500    1.500    0.000    3.500 
#    0.000    0.625    0.000    6.375    0.000    0.000 
#    0.000    0.000    0.000    0.000    0.000    0.000 
#
# Total GULP energy -396596.675064 kJ/mol
# GULP energy per Si atom -12393.646096 kJ/mol
# Density = 1.816080 g / cm^3
# Si number density = 18.202232 Si / 1000 Ang^3
#
#
#
# Elastic Constant Matrix: (Units=GPa)
#
#
# Indices 1 2 3 4 5 6 
#
# 1 101.2312 21.8087 43.4082 0.0000 8.0939 0.0000
# 2 21.8087 46.4676 26.9262 0.0000 9.0757 0.0000
# 3 43.4082 26.9262 114.8843 0.0000 9.2874 0.0000
# 4 0.0000 0.0000 0.0000 18.3669 0.0000 4.2284
# 5 8.0939 9.0757 9.2874 0.0000 23.9482 0.0000
# 6 0.0000 0.0000 0.0000 4.2284 0.0000 17.6041
#
#
#
# Elastic Compliance Matrix: (Units=1/GPa)
#
#
# Indices 1 2 3 4 5 6 
#
# 1 0.012322 -0.003321 -0.003760 0.000000 -0.001448 0.000000
# 2 -0.003321 0.027139 -0.004506 0.000000 -0.007415 0.000000
# 3 -0.003760 -0.004506 0.011295 0.000000 -0.001402 0.000000
# 4 0.000000 0.000000 0.000000 0.057633 0.000000 -0.013843
# 5 -0.001448 -0.007415 -0.001402 0.000000 0.045599 0.000000
# 6 0.000000 0.000000 0.000000 -0.013843 0.000000 0.060130
#
#
# Mechanical properties :
#
#
# Convention : Reuss Voigt Hill
#
# Bulk Modulus (GPa) = 36.25903 49.65214 42.95559
# Shear Modulus (GPa) = 20.28505 23.34651 21.81578
#
# Velocity S-wave (km/s) = 3.34192 3.58525 3.46572
# Velocity P-wave (km/s) = 5.90378 6.66903 6.29804
#
# Compressibility (1/GPa) = 0.02757933
#
# Stress axis : x y z
#
# Youngs Moduli (GPa) = 81.15498 36.84781 88.53725
#
# Poissons Ratio (x) = 0.12239 0.33293
# Poissons Ratio (y) = 0.26956 0.39897
# Poissons Ratio (z) = 0.30517 0.16605
#
# Static dielectric constant tensor:
#      x y z
#    x 3.343820 0.000000 -0.103800 
#    y 0.000000 3.067400 0.000000 
#    z -0.103800 0.000000 3.663440 
# 
# 
# High freq. dielectric constant tensor:
#      x y z
#    x 1.706620 0.000000 -0.000340 
#    y 0.000000 1.639750 0.000000 
#    z -0.000340 0.000000 1.712510 
# 
# From -- ./inp_files/327504.got.cif
#   From: 2010.06.25/outbox.cif.g09.slc.cpg/sg12_164_cif.got.tgz:327504.got - 2010.06.28 00:19:55.
