data_PCOD8081331
_publ_section_title
;
Structure prediction by ZEFSAII (Michael W. Deem and Ramdas Pophale) SiO2 
 PCOD8081331
Probable space group: C 2/M
;
_chemical_formula_sum "Si O2"
_cell_formula_units_Z 48
_cell_length_a 23.148677
_cell_length_b 8.904085
_cell_length_c 17.291478
_cell_angle_alpha 90.000000
_cell_angle_beta 120.186519
_cell_angle_gamma 90.000000
_cell_volume 3080.767305
_symmetry_space_group_name_H-M "C 2/M"
_symmetry_group_IT_number 12
_symmetry_cell_setting 'monoclinic'
loop_
_space_group_symop_operation_xyz
x,y,z
-x,y,-z
-x,-y,-z
x,-y,z
1/2+x,1/2+y,z
1/2-x,1/2+y,-z
1/2-x,1/2-y,-z
1/2+x,1/2-y,z
loop_
_atom_site_type_symbol
_atom_site_label
_atom_site_fract_x
_atom_site_fract_y
_atom_site_fract_z
Si Si1 0.777581 0.824476 0.635749
Si Si2 0.723176 0.178189 0.904317
Si Si3 0.007103 0.676478 0.417309
Si Si4 0.749358 0.170093 0.226245
Si Si5 0.848959 0.325094 0.550194
Si Si6 0.385615 0.670053 0.254719
O O1 0.784537 0.744294 0.722547
O O2 0.836987 0.767561 0.620534
O O3 0.706426 0.781652 0.550543
O O4 0.785101 0.000000 0.654307
O O5 0.769819 0.236374 0.864336
O O6 0.646799 0.235952 0.838535
O O7 0.725106 0.000000 0.910913
O O8 0.750000 0.250000 0.000000
O O9 0.993598 0.500000 0.404525
O O10 0.954097 0.756373 0.327074
O O11 0.000000 0.735459 0.500000
O O12 0.079910 0.720868 0.436075
O O13 0.830836 0.172185 0.287831
O O14 0.722794 0.000000 0.200246
O O15 0.844747 0.500000 0.567957
O O16 0.399598 0.500000 0.236729
#
# Coordination Sequence:
#
# PCOD8081331 Si02
#       6
#     8   8   8   8   8   8
#     4  10  18  30  47  66  89 125 166 205 242 282
#     4  10  18  31  50  73 100 126 156 195 242 293
#     4  10  19  31  47  67  94 131 167 200 241 288
#     4   9  18  30  46  69  96 123 152 194 241 285
#     4   9  19  31  44  64  93 127 164 203 243 284
#     4   9  19  31  45  69  97 126 158 195 238 285
#
# _framework density 15.580534999999999
#
# number of rings (size 3 to 8) (size 9 to 14) (size 15 to 20)
#    1.000    1.500    0.000    3.500    0.000    3.000 
#    0.000    0.000    0.000    0.000    0.000    1.167 
#    0.000    9.333    0.000    0.000    0.000    0.000 
#
# Total GULP energy -297459.702924 kJ/mol
# GULP energy per Si atom -12394.154289 kJ/mol
# Density = 1.554507 g / cm^3
# Si number density = 15.580535 Si / 1000 Ang^3
#
#
#
# Elastic Constant Matrix: (Units=GPa)
#
#
# Indices 1 2 3 4 5 6 
#
# 1 85.0697 48.7952 50.1685 0.0000 -10.4692 0.0000
# 2 48.7952 108.1732 62.5786 0.0000 -11.0014 0.0000
# 3 50.1685 62.5786 110.2254 0.0000 -13.4314 0.0000
# 4 0.0000 0.0000 0.0000 29.4052 0.0000 -1.9848
# 5 -10.4692 -11.0014 -13.4314 0.0000 23.3211 0.0000
# 6 0.0000 0.0000 0.0000 -1.9848 0.0000 24.5432
#
#
#
# Elastic Compliance Matrix: (Units=1/GPa)
#
#
# Indices 1 2 3 4 5 6 
#
# 1 0.017852 -0.004860 -0.005021 0.000000 0.002830 0.000000
# 2 -0.004860 0.015189 -0.006242 0.000000 0.001388 0.000000
# 3 -0.005021 -0.006242 0.015345 0.000000 0.003639 0.000000
# 4 0.000000 0.000000 0.000000 0.034194 0.000000 0.002765
# 5 0.002830 0.001388 0.003639 0.000000 0.046901 0.000000
# 6 0.000000 0.000000 0.000000 0.002765 0.000000 0.040968
#
#
# Mechanical properties :
#
#
# Convention : Reuss Voigt Hill
#
# Bulk Modulus (GPa) = 61.96104 69.61699 65.78902
# Shear Modulus (GPa) = 24.02967 24.91563 24.47265
#
# Velocity S-wave (km/s) = 3.93146 4.00328 3.96753
# Velocity P-wave (km/s) = 7.77580 8.13310 7.95646
#
# Compressibility (1/GPa) = 0.01613917
#
# Stress axis : x y z
#
# Youngs Moduli (GPa) = 56.01512 65.83681 65.16815
#
# Poissons Ratio (x) = 0.31999 0.32722
# Poissons Ratio (y) = 0.27225 0.40678
# Poissons Ratio (z) = 0.28127 0.41095
#
# Static dielectric constant tensor:
#      x y z
#    x 2.818220 0.000000 -0.085080 
#    y 0.000000 3.040550 0.000000 
#    z -0.085080 0.000000 2.753550 
# 
# 
# High freq. dielectric constant tensor:
#      x y z
#    x 1.574730 0.000000 -0.012040 
#    y 0.000000 1.612790 0.000000 
#    z -0.012040 0.000000 1.575800 
# 
# From -- ./inp_files/280542.got.cif
#   From: 2010.06.25/outbox.cif.g09.slc.cpg/sg12_141_cif.got.tgz:280542.got - 2010.06.28 00:19:55.
