data_PCOD8081322
_publ_section_title
;
Structure prediction by ZEFSAII (Michael W. Deem and Ramdas Pophale) SiO2 
 PCOD8081322
Probable space group: C 2/M
;
_chemical_formula_sum "Si O2"
_cell_formula_units_Z 52
_cell_length_a 23.469209
_cell_length_b 11.957802
_cell_length_c 13.131817
_cell_angle_alpha 90.000000
_cell_angle_beta 126.609730
_cell_angle_gamma 90.000000
_cell_volume 2958.262218
_symmetry_space_group_name_H-M "C 2/M"
_symmetry_group_IT_number 12
_symmetry_cell_setting 'monoclinic'
loop_
_space_group_symop_operation_xyz
x,y,z
-x,y,-z
-x,-y,-z
x,-y,z
1/2+x,1/2+y,z
1/2-x,1/2+y,-z
1/2-x,1/2-y,-z
1/2+x,1/2-y,z
loop_
_atom_site_type_symbol
_atom_site_label
_atom_site_fract_x
_atom_site_fract_y
_atom_site_fract_z
Si Si1 0.496702 0.373465 0.714115
Si Si2 0.875056 0.627340 0.400140
Si Si3 0.735801 0.870161 0.355935
Si Si4 0.000000 0.214745 0.500000
Si Si5 0.360994 0.244213 0.588372
Si Si6 0.742008 0.258793 0.827310
Si Si7 0.842077 0.132243 0.081798
O O1 0.482592 0.500000 0.732880
O O2 0.488622 0.365058 0.583814
O O3 0.436846 0.295939 0.702235
O O4 0.574976 0.335529 0.831335
O O5 0.894502 0.500000 0.397454
O O6 0.932827 0.706188 0.409023
O O7 0.872140 0.644864 0.518813
O O8 0.800299 0.656457 0.268803
O O9 0.674452 0.801936 0.347767
O O10 0.812727 0.839358 0.483715
O O11 0.730276 0.841487 0.230892
O O12 0.722376 0.000000 0.358118
O O13 0.693122 0.332363 0.849376
O O14 0.808242 0.203406 0.954812
O O15 0.830560 0.000000 0.054114
#
# Coordination Sequence:
#
# PCOD8081322 Si02
#       7
#     8   8   8   4   8   8   8
#     4  10  19  33  53  77 106 134 168 217 266 308
#     4  10  18  30  48  73 106 140 169 207 253 304
#     4  10  19  35  56  78 105 139 173 214 258 306
#     4  10  18  30  46  78 104 136 168 208 256 316
#     4   9  20  33  52  80 108 134 171 214 256 317
#     4  10  20  34  53  77 103 136 181 215 250 311
#     4  10  20  35  54  76 104 137 171 218 265 303
#
# _framework density 17.577887
#
# number of rings (size 3 to 8) (size 9 to 14) (size 15 to 20)
#    0.000    2.154    1.538    2.308    0.000    0.000 
#    0.000    3.077    0.000    2.769    0.000    0.000 
#    0.000    0.000    0.000    0.000    0.000    0.000 
#
# Total GULP energy -322446.444799 kJ/mol
# GULP energy per Si atom -12401.786338 kJ/mol
# Density = 1.753788 g / cm^3
# Si number density = 17.577887 Si / 1000 Ang^3
#
#
#
# Elastic Constant Matrix: (Units=GPa)
#
#
# Indices 1 2 3 4 5 6 
#
# 1 104.5050 36.0013 48.6353 0.0000 9.3965 0.0000
# 2 36.0013 86.3220 43.2193 0.0000 10.0909 0.0000
# 3 48.6353 43.2193 84.2513 0.0000 10.5004 0.0000
# 4 0.0000 0.0000 0.0000 18.8146 0.0000 5.4989
# 5 9.3965 10.0909 10.5004 0.0000 30.3964 0.0000
# 6 0.0000 0.0000 0.0000 5.4989 0.0000 14.7902
#
#
#
# Elastic Compliance Matrix: (Units=1/GPa)
#
#
# Indices 1 2 3 4 5 6 
#
# 1 0.013458 -0.002232 -0.006477 0.000000 -0.001182 0.000000
# 2 -0.002232 0.016145 -0.006700 0.000000 -0.002355 0.000000
# 3 -0.006477 -0.006700 0.019352 0.000000 -0.002458 0.000000
# 4 0.000000 0.000000 0.000000 0.059630 0.000000 -0.022170
# 5 -0.001182 -0.002355 -0.002458 0.000000 0.034895 0.000000
# 6 0.000000 0.000000 0.000000 -0.022170 0.000000 0.075855
#
#
# Mechanical properties :
#
#
# Convention : Reuss Voigt Hill
#
# Bulk Modulus (GPa) = 55.13506 58.97668 57.05587
# Shear Modulus (GPa) = 19.51608 22.61507 21.06557
#
# Velocity S-wave (km/s) = 3.33568 3.59076 3.46557
# Velocity P-wave (km/s) = 6.80220 7.12853 6.96727
#
# Compressibility (1/GPa) = 0.01813728
#
# Stress axis : x y z
#
# Youngs Moduli (GPa) = 74.30369 61.93707 51.67546
#
# Poissons Ratio (x) = 0.13824 0.33469
# Poissons Ratio (y) = 0.16584 0.34624
# Poissons Ratio (z) = 0.48124 0.41500
#
# Static dielectric constant tensor:
#      x y z
#    x 3.289510 0.000000 0.103660 
#    y 0.000000 3.110150 0.000000 
#    z 0.103660 0.000000 3.152490 
# 
# 
# High freq. dielectric constant tensor:
#      x y z
#    x 1.680960 0.000000 0.007670 
#    y 0.000000 1.679200 0.000000 
#    z 0.007670 0.000000 1.665500 
# 
# From -- ./inp_files/165550.got.cif
#   From: 2010.06.25/outbox.cif.g09.slc.cpg/sg12_83_cif.got.tgz:165550.got - 2010.06.28 00:19:55.
