data_PCOD8081644
_publ_section_title
;
Structure prediction by ZEFSAII (Michael W. Deem and Ramdas Pophale) SiO2 
 PCOD8081644
Probable space group: C 2/M
;
_chemical_formula_sum "Si O2"
_cell_formula_units_Z 40
_cell_length_a 11.543205
_cell_length_b 23.096511
_cell_length_c 12.824631
_cell_angle_alpha 90.000000
_cell_angle_beta 143.717328
_cell_angle_gamma 90.000000
_cell_volume 2023.346120
_symmetry_space_group_name_H-M "C 2/M"
_symmetry_group_IT_number 12
_symmetry_cell_setting 'monoclinic'
loop_
_space_group_symop_operation_xyz
x,y,z
-x,y,-z
-x,-y,-z
x,-y,z
1/2+x,1/2+y,z
1/2-x,1/2+y,-z
1/2-x,1/2-y,-z
1/2+x,1/2-y,z
loop_
_atom_site_type_symbol
_atom_site_label
_atom_site_fract_x
_atom_site_fract_y
_atom_site_fract_z
Si Si1 0.645065 0.153984 0.326728
Si Si2 0.775145 0.807098 0.950696
Si Si3 0.314441 0.745188 0.306901
Si Si4 0.786312 0.567057 0.800228
Si Si5 0.010886 0.147038 0.715012
O O1 0.416919 0.151385 0.187173
O O2 0.671630 0.215918 0.287371
O O3 0.726318 0.101178 0.317226
O O4 0.776853 0.149042 0.527162
O O5 0.808462 0.791193 0.852365
O O6 0.750000 0.750000 0.000000
O O7 0.951240 0.842855 0.133521
O O8 0.500000 0.774500 0.500000
O O9 0.394434 0.696645 0.287063
O O10 0.752488 0.500000 0.752316
O O11 0.617346 0.587590 0.757570
O O12 0.000000 0.580386 0.000000
#
# Coordination Sequence:
#
# PCOD8081644 Si02
#       5
#     8   8   8   8   8
#     4  10  19  33  47  66 100 127 159 196 229 280
#     4  10  19  30  46  64  91 129 163 195 234 272
#     4   8  17  29  44  65  89 125 162 190 229 272
#     4  10  18  30  50  71  96 129 158 190 239 293
#     4   9  18  30  44  66  91 123 158 188 229 276
#
# _framework density 19.769231999999999
#
# number of rings (size 3 to 8) (size 9 to 14) (size 15 to 20)
#    0.000    2.600    2.000    1.800    0.000    8.800 
#    0.000    2.000    0.000    0.000    0.000    0.000 
#    0.000    3.200    0.000   78.600    0.000    2.000 
#
# Total GULP energy -247821.199606 kJ/mol
# GULP energy per Si atom -12391.059980 kJ/mol
# Density = 1.972424 g / cm^3
# Si number density = 19.769232 Si / 1000 Ang^3
#
#
#
# Elastic Constant Matrix: (Units=GPa)
#
#
# Indices 1 2 3 4 5 6 
#
# 1 22.2762 16.9533 30.3192 0.0000 -5.1114 0.0000
# 2 16.9533 62.1022 42.9086 0.0000 -7.9127 0.0000
# 3 30.3192 42.9086 177.6710 0.0000 -9.6471 0.0000
# 4 0.0000 0.0000 0.0000 17.9826 0.0000 3.4421
# 5 -5.1114 -7.9127 -9.6471 0.0000 20.3282 0.0000
# 6 0.0000 0.0000 0.0000 3.4421 0.0000 15.4267
#
#
#
# Elastic Compliance Matrix: (Units=1/GPa)
#
#
# Indices 1 2 3 4 5 6 
#
# 1 0.066653 -0.011499 -0.008140 0.000000 0.008421 0.000000
# 2 -0.011499 0.021918 -0.003105 0.000000 0.004167 0.000000
# 3 -0.008140 -0.003105 0.007791 0.000000 0.000442 0.000000
# 4 0.000000 0.000000 0.000000 0.058090 0.000000 -0.012962
# 5 0.008421 0.004167 0.000442 0.000000 0.053142 0.000000
# 6 0.000000 0.000000 0.000000 -0.012962 0.000000 0.067715
#
#
# Mechanical properties :
#
#
# Convention : Reuss Voigt Hill
#
# Bulk Modulus (GPa) = 19.65584 49.15685 34.40635
# Shear Modulus (GPa) = 14.80366 22.20539 18.50452
#
# Velocity S-wave (km/s) = 2.73943 3.35510 3.06277
# Velocity P-wave (km/s) = 4.46880 6.31888 5.47259
#
# Compressibility (1/GPa) = 0.05087546
#
# Stress axis : x y z
#
# Youngs Moduli (GPa) = 15.00298 45.62542 128.34820
#
# Poissons Ratio (x) = 0.52463 1.04476
# Poissons Ratio (y) = 0.17251 0.39849
# Poissons Ratio (z) = 0.12213 0.14166
#
# Static dielectric constant tensor:
#      x y z
#    x 3.314930 0.000000 -0.201790 
#    y 0.000000 3.315880 0.000000 
#    z -0.201790 0.000000 4.381630 
# 
# 
# High freq. dielectric constant tensor:
#      x y z
#    x 1.728190 0.000000 0.006440 
#    y 0.000000 1.713860 0.000000 
#    z 0.006440 0.000000 1.807150 
# 
# From -- ./inp_files/106928.got.cif
#   From: 2010.06.25/outbox.cif.g09.slc.cpg/sg12_54_cif.got.tgz:106928.got - 2010.06.28 00:19:55.
