data_PCOD8081984
_publ_section_title
;
Structure prediction by ZEFSAII (Michael W. Deem and Ramdas Pophale) SiO2 
 PCOD8081984
Probable space group: C 2/M
;
_chemical_formula_sum "Si O2"
_cell_formula_units_Z 56
_cell_length_a 14.183749
_cell_length_b 20.965203
_cell_length_c 18.220458
_cell_angle_alpha 90.000000
_cell_angle_beta 32.347168
_cell_angle_gamma 90.000000
_cell_volume 2898.959573
_symmetry_space_group_name_H-M "C 2/M"
_symmetry_group_IT_number 12
_symmetry_cell_setting 'monoclinic'
loop_
_space_group_symop_operation_xyz
x,y,z
-x,y,-z
-x,-y,-z
x,-y,z
1/2+x,1/2+y,z
1/2-x,1/2+y,-z
1/2-x,1/2-y,-z
1/2+x,1/2-y,z
loop_
_atom_site_type_symbol
_atom_site_label
_atom_site_fract_x
_atom_site_fract_y
_atom_site_fract_z
Si Si1 0.820049 0.827169 0.917993
Si Si2 0.711527 0.303513 0.464332
Si Si3 0.040217 0.718690 0.832408
Si Si4 0.838063 0.226952 0.743416
Si Si5 0.912087 0.928745 0.241643
Si Si6 0.827885 0.429583 0.461181
Si Si7 0.386172 0.139169 0.645082
O O1 0.844101 0.791937 0.824229
O O2 0.929999 0.784967 0.904491
O O3 0.896399 0.898128 0.870882
O O4 0.612749 0.834778 0.074896
O O5 0.750000 0.250000 0.500000
O O6 0.808945 0.279550 0.328000
O O7 0.499916 0.308023 0.594391
O O8 0.786596 0.373843 0.430991
O O9 0.147352 0.707241 0.837082
O O10 0.861467 0.302911 0.717949
O O11 0.822345 0.928997 0.379316
O O12 0.802147 0.887259 0.255919
O O13 0.936592 0.000000 0.194697
O O14 0.834435 0.500000 0.419252
O O15 0.014191 0.417575 0.378413
O O16 0.500000 0.162660 0.500000
#
# Coordination Sequence:
#
# PCOD8081984 Si02
#       7
#     8   8   8   8   8   8   8
#     4  11  22  38  56  87 117 155 196 232 297 350
#     4  12  20  36  59  86 115 153 195 241 296 344
#     4  11  23  37  57  85 119 151 189 249 293 340
#     4  12  21  35  61  86 120 148 192 247 289 346
#     4  10  19  35  57  82 119 159 195 236 286 353
#     4  10  19  32  55  85 120 153 194 243 292 351
#     4  10  18  30  53  90 120 150 190 242 302 346
#
# _framework density 19.317276
#
# number of rings (size 3 to 8) (size 9 to 14) (size 15 to 20)
#    0.000    1.143    5.714    2.143    0.000    1.714 
#    0.000    0.714    0.000    5.143    0.000    4.000 
#    0.000    0.000    0.000    0.000    0.000    0.000 
#
# Total GULP energy -347074.078415 kJ/mol
# GULP energy per Si atom -12395.502801 kJ/mol
# Density = 1.927331 g / cm^3
# Si number density = 19.317276 Si / 1000 Ang^3
#
#
#
# Elastic Constant Matrix: (Units=GPa)
#
#
# Indices 1 2 3 4 5 6 
#
# 1 72.7395 25.1619 25.0583 0.0402 -28.9760 -0.0170
# 2 25.1619 97.2812 13.5053 0.0095 -11.8497 -0.0118
# 3 25.0583 13.5053 83.4271 -0.0239 -25.8368 -0.0199
# 4 0.0402 0.0095 -0.0239 9.7272 -0.0215 -2.5366
# 5 -28.9760 -11.8497 -25.8368 -0.0215 32.0525 0.0077
# 6 -0.0170 -0.0118 -0.0199 -2.5366 0.0077 22.8232
#
#
#
# Elastic Compliance Matrix: (Units=1/GPa)
#
#
# Indices 1 2 3 4 5 6 
#
# 1 0.022584 -0.003496 -0.000393 -0.000049 0.018807 0.000003
# 2 -0.003496 0.011334 -0.000621 0.000004 0.000529 0.000003
# 3 -0.000393 -0.000621 0.016024 0.000073 0.012332 0.000017
# 4 -0.000049 0.000004 0.000073 0.105874 0.000085 0.011767
# 5 0.018807 0.000529 0.012332 0.000085 0.058337 0.000015
# 6 0.000003 0.000003 0.000017 0.011767 0.000015 0.045123
#
#
# Mechanical properties :
#
#
# Convention : Reuss Voigt Hill
#
# Bulk Modulus (GPa) = 24.43595 42.32208 33.37901
# Shear Modulus (GPa) = 17.73439 25.56873 21.65156
#
# Velocity S-wave (km/s) = 3.03324 3.64211 3.35153
# Velocity P-wave (km/s) = 4.99446 6.29627 5.68277
#
# Compressibility (1/GPa) = 0.04092332
#
# Stress axis : x y z
#
# Youngs Moduli (GPa) = 44.27830 88.22702 62.40551
#
# Poissons Ratio (x) = 0.30844 0.02453
# Poissons Ratio (y) = 0.15480 0.03874
# Poissons Ratio (z) = 0.01740 0.05477
#
# Static dielectric constant tensor:
#      x y z
#    x 3.614180 -0.000030 -0.336920 
#    y -0.000030 3.526540 0.000070 
#    z -0.336920 0.000070 3.630660 
# 
# 
# High freq. dielectric constant tensor:
#      x y z
#    x 1.748770 0.000000 -0.021730 
#    y 0.000000 1.728360 0.000010 
#    z -0.021730 0.000010 1.744330 
# 
# From -- ./inp_files/217650.got.cif
#   From: 2010.06.25/outbox.cif.g09.slc.cpg/sg12_109_cif.got.tgz:217650.got - 2010.06.28 00:19:55.
