data_PCOD8081920
_publ_section_title
;
Structure prediction by ZEFSAII (Michael W. Deem and Ramdas Pophale) SiO2 
 PCOD8081920
Probable space group: C 2/M
;
_chemical_formula_sum "Si O2"
_cell_formula_units_Z 64
_cell_length_a 22.546822
_cell_length_b 24.792548
_cell_length_c 17.201559
_cell_angle_alpha 90.000000
_cell_angle_beta 159.432096
_cell_angle_gamma 90.000000
_cell_volume 3378.109780
_symmetry_space_group_name_H-M "C 2/M"
_symmetry_group_IT_number 12
_symmetry_cell_setting 'monoclinic'
loop_
_space_group_symop_operation_xyz
x,y,z
-x,y,-z
-x,-y,-z
x,-y,z
1/2+x,1/2+y,z
1/2-x,1/2+y,-z
1/2-x,1/2-y,-z
1/2+x,1/2-y,z
loop_
_atom_site_type_symbol
_atom_site_label
_atom_site_fract_x
_atom_site_fract_y
_atom_site_fract_z
Si Si1 0.814211 0.389769 0.304216
Si Si2 0.476084 0.858270 0.777369
Si Si3 0.861276 0.140112 0.534389
Si Si4 0.979311 0.062746 0.157141
Si Si5 0.331254 0.838895 0.842826
Si Si6 0.634402 0.281846 0.097809
Si Si7 0.060253 0.241179 0.291528
Si Si8 0.687262 0.938422 0.530559
O O1 0.777094 0.327519 0.278618
O O2 0.797806 0.425470 0.360953
O O3 0.000000 0.395261 0.500000
O O4 0.689433 0.413264 0.086325
O O5 0.305829 0.856768 0.618350
O O6 0.511890 0.800871 0.778157
O O7 0.461351 0.904074 0.693792
O O8 0.632082 0.868326 0.029384
O O9 0.981182 0.092299 0.712174
O O10 0.813889 0.130503 0.385210
O O11 0.951810 0.199078 0.651652
O O12 0.130847 0.073567 0.283201
O O13 0.955316 0.000000 0.146277
O O14 0.277064 0.776573 0.788100
O O15 0.500000 0.838047 0.000000
O O16 0.500000 0.292269 0.000000
O O17 0.538232 0.287911 0.898726
O O18 0.250000 0.250000 0.500000
O O19 0.634109 0.000000 0.453507
#
# Coordination Sequence:
#
# PCOD8081920 Si02
#       8
#     8   8   8   8   8   8   8   8
#     4  12  25  36  50  75 108 143 174 215 268 314
#     4   8  16  27  46  77 106 132 168 208 257 311
#     4   9  15  26  46  76 109 133 163 211 260 306
#     4  10  20  36  55  76 102 135 179 222 257 307
#     4   8  15  27  48  81 111 135 166 209 258 309
#     4  10  18  30  52  80 107 137 178 213 248 307
#     4   9  15  24  46  80 105 129 167 213 257 300
#     4  10  21  36  56  77 101 137 178 221 263 305
#
# _framework density 18.945506000000002
#
# number of rings (size 3 to 8) (size 9 to 14) (size 15 to 20)
#    0.000    2.500    1.250    3.750    5.250    2.000 
#    0.000    0.625    0.000   10.500    0.000    0.000 
#    0.000    2.000    0.000    0.000    0.000    0.000 
#
# Total GULP energy -396575.203212 kJ/mol
# GULP energy per Si atom -12392.975100 kJ/mol
# Density = 1.890238 g / cm^3
# Si number density = 18.945506 Si / 1000 Ang^3
#
#
#
# Elastic Constant Matrix: (Units=GPa)
#
#
# Indices 1 2 3 4 5 6 
#
# 1 27.0664 29.1537 51.4693 0.0000 -16.9814 0.0000
# 2 29.1537 105.1602 65.5136 0.0000 -15.1704 0.0000
# 3 51.4693 65.5136 112.4221 -0.0001 -35.6128 -0.0001
# 4 0.0000 0.0000 -0.0001 24.8799 0.0000 -14.3996
# 5 -16.9814 -15.1704 -35.6128 0.0000 31.5254 0.0000
# 6 0.0000 0.0000 -0.0001 -14.3996 0.0000 7.8662
#
#
#
# Elastic Compliance Matrix: (Units=1/GPa)
#
#
# Indices 1 2 3 4 5 6 
#
# 1 0.287897 0.002873 -0.130680 0.000033 0.008837 0.000057
# 2 0.002873 0.015309 -0.011544 0.000003 -0.004126 0.000004
# 3 -0.130680 -0.011544 0.080031 -0.000020 0.014460 -0.000034
# 4 0.000033 0.000003 -0.000020 -0.675833 -0.000005 -1.237162
# 5 0.008837 -0.004126 0.014460 -0.000005 0.050830 -0.000009
# 6 0.000057 0.000004 -0.000034 -1.237162 -0.000009 -2.137590
#
#
# Mechanical properties :
#
#
# Convention : Reuss Voigt Hill
#
# Bulk Modulus (GPa) = 9.56615 59.65799 34.61207
# Shear Modulus (GPa) = -2.42036 19.42177 8.50071
#
# Velocity S-wave (km/s) = -1.13151 3.20525 2.12053
# Velocity P-wave (km/s) = 1.83117 6.72724 4.92996
#
# Compressibility (1/GPa) = 0.10453530
#
# Stress axis : x y z
#
# Youngs Moduli (GPa) = 3.47347 65.32026 12.49515
#
# Poissons Ratio (x) = -0.18767 1.63287
# Poissons Ratio (y) = -0.00998 0.14424
# Poissons Ratio (z) = 0.45391 0.75404
#
# Static dielectric constant tensor:
#      x y z
#    x 3.125010 0.000000 -0.499700 
#    y 0.000000 3.637490 0.000000 
#    z -0.499700 0.000000 3.575660 
# 
# 
# High freq. dielectric constant tensor:
#      x y z
#    x 1.688150 0.000000 -0.041990 
#    y 0.000000 1.733960 0.000000 
#    z -0.041990 0.000000 1.729530 
# 
# From -- ./inp_files/291205.got.cif
#   From: 2010.06.25/outbox.cif.g09.slc.cpg/sg12_146_cif.got.tgz:291205.got - 2010.06.28 00:19:55.
