data_PCOD8081493
_publ_section_title
;
Structure prediction by ZEFSAII (Michael W. Deem and Ramdas Pophale) SiO2 
 PCOD8081493
Probable space group: C 2/M
;
_chemical_formula_sum "Si O2"
_cell_formula_units_Z 48
_cell_length_a 22.272741
_cell_length_b 15.853666
_cell_length_c 8.798518
_cell_angle_alpha 90.000000
_cell_angle_beta 115.576359
_cell_angle_gamma 90.000000
_cell_volume 2802.364378
_symmetry_space_group_name_H-M "C 2/M"
_symmetry_group_IT_number 12
_symmetry_cell_setting 'monoclinic'
loop_
_space_group_symop_operation_xyz
x,y,z
-x,y,-z
-x,-y,-z
x,-y,z
1/2+x,1/2+y,z
1/2-x,1/2+y,-z
1/2-x,1/2-y,-z
1/2+x,1/2-y,z
loop_
_atom_site_type_symbol
_atom_site_label
_atom_site_fract_x
_atom_site_fract_y
_atom_site_fract_z
Si Si1 0.245612 0.000000 0.039115
Si Si2 0.094385 0.882519 0.376000
Si Si3 0.867648 0.000000 0.835155
Si Si4 0.360827 0.500000 0.323603
Si Si5 0.870279 0.406998 0.230890
Si Si6 0.525717 0.500000 0.799168
Si Si7 0.987831 0.402428 0.152049
Si Si8 0.438016 0.792049 0.534686
O O1 0.194123 0.000000 0.120762
O O2 0.291911 0.084228 0.102475
O O3 0.210441 0.000000 0.837223
O O4 0.131600 0.917114 0.565850
O O5 0.092646 0.782339 0.395750
O O6 0.135085 0.915215 0.272314
O O7 0.019273 0.917332 0.276201
O O8 0.939049 0.000000 0.997787
O O9 0.417653 0.500000 0.262235
O O10 0.895135 0.500000 0.317849
O O11 0.881009 0.334104 0.367278
O O12 0.912192 0.384943 0.124452
O O13 0.005627 0.500000 0.162250
O O14 0.038686 0.364052 0.327111
O O15 0.000000 0.360611 0.000000
O O16 0.500000 0.759151 0.500000
#
# Coordination Sequence:
#
# PCOD8081493 Si02
#       8
#     4   8   4   4   8   4   8   8
#     4   9  18  36  54  66  89 138 177 195 229 282
#     4  10  18  30  48  76 100 120 158 205 251 287
#     4   9  19  33  50  70  98 133 167 200 234 280
#     4   9  17  31  50  68  92 128 166 208 235 279
#     4   8  17  33  53  69  95 131 168 190 235 296
#     4   9  16  30  50  70  94 127 160 199 250 295
#     4   9  17  30  49  79 106 119 152 203 246 289
#     4  10  18  30  50  76 103 129 151 193 250 302
#
# _framework density 17.128394
#
# number of rings (size 3 to 8) (size 9 to 14) (size 15 to 20)
#    0.500    2.500    0.000    3.500    0.000    3.333 
#    0.000    6.667    0.000    0.000    0.000    0.000 
#    0.000    0.000    0.000    0.000    0.000    0.000 
#
# Total GULP energy -297368.952077 kJ/mol
# GULP energy per Si atom -12390.373003 kJ/mol
# Density = 1.708941 g / cm^3
# Si number density = 17.128394 Si / 1000 Ang^3
#
#
#
# Elastic Constant Matrix: (Units=GPa)
#
#
# Indices 1 2 3 4 5 6 
#
# 1 85.7448 30.8676 53.7632 0.0000 3.7775 0.0000
# 2 30.8676 65.6647 36.1487 0.0000 -1.3252 0.0000
# 3 53.7632 36.1487 106.2215 0.0000 0.6973 0.0000
# 4 0.0000 0.0000 0.0000 7.4062 0.0000 -2.8642
# 5 3.7775 -1.3252 0.6973 0.0000 29.6168 0.0000
# 6 0.0000 0.0000 0.0000 -2.8642 0.0000 2.0707
#
#
#
# Elastic Compliance Matrix: (Units=1/GPa)
#
#
# Indices 1 2 3 4 5 6 
#
# 1 0.018154 -0.004345 -0.007695 0.000000 -0.002329 0.000000
# 2 -0.004345 0.019809 -0.004552 0.000000 0.001548 0.000000
# 3 -0.007695 -0.004552 0.014855 0.000000 0.000428 0.000000
# 4 0.000000 0.000000 0.000000 0.290333 0.000000 0.401600
# 5 -0.002329 0.001548 0.000428 0.000000 0.034121 0.000000
# 6 0.000000 0.000000 0.000000 0.401600 0.000000 1.038449
#
#
# Mechanical properties :
#
#
# Convention : Reuss Voigt Hill
#
# Bulk Modulus (GPa) = 50.93093 55.46555 53.19824
# Shear Modulus (GPa) = 3.43537 16.94217 10.18877
#
# Velocity S-wave (km/s) = 1.41775 3.14845 2.44159
# Velocity P-wave (km/s) = 5.69907 6.75792 6.25096
#
# Compressibility (1/GPa) = 0.01963443
#
# Stress axis : x y z
#
# Youngs Moduli (GPa) = 55.08484 50.48326 67.31666
#
# Poissons Ratio (x) = 0.21934 0.51797
# Poissons Ratio (y) = 0.23934 0.30644
# Poissons Ratio (z) = 0.42385 0.22981
#
# Static dielectric constant tensor:
#      x y z
#    x 3.091920 0.000000 -0.140300 
#    y 0.000000 2.942300 0.000000 
#    z -0.140300 0.000000 3.362310 
# 
# 
# High freq. dielectric constant tensor:
#      x y z
#    x 1.644740 0.000000 -0.013940 
#    y 0.000000 1.638850 0.000000 
#    z -0.013940 0.000000 1.664730 
# 
# From -- ./inp_files/87476.got.cif
#   From: 2010.06.25/outbox.cif.g09.slc.cpg/sg12_44_cif.got.tgz:87476.got - 2010.06.28 00:19:55.
