data_PCOD8081987
_publ_section_title
;
Structure prediction by ZEFSAII (Michael W. Deem and Ramdas Pophale) SiO2 
 PCOD8081987
Probable space group: C 2/M
;
_chemical_formula_sum "Si O2"
_cell_formula_units_Z 40
_cell_length_a 22.293196
_cell_length_b 14.600437
_cell_length_c 10.619050
_cell_angle_alpha 90.000000
_cell_angle_beta 38.628216
_cell_angle_gamma 90.000000
_cell_volume 2157.706734
_symmetry_space_group_name_H-M "C 2/M"
_symmetry_group_IT_number 12
_symmetry_cell_setting 'monoclinic'
loop_
_space_group_symop_operation_xyz
x,y,z
-x,y,-z
-x,-y,-z
x,-y,z
1/2+x,1/2+y,z
1/2-x,1/2+y,-z
1/2-x,1/2-y,-z
1/2+x,1/2-y,z
loop_
_atom_site_type_symbol
_atom_site_label
_atom_site_fract_x
_atom_site_fract_y
_atom_site_fract_z
Si Si1 0.236856 0.150779 0.851083
Si Si2 0.592959 0.000000 0.169950
Si Si3 0.747438 0.362118 0.122853
Si Si4 0.115494 0.500000 0.427659
Si Si5 0.450815 0.601535 0.459981
Si Si6 0.037613 0.107535 0.068568
O O1 0.254796 0.258440 0.826680
O O2 0.324861 0.093690 0.645501
O O3 0.149031 0.129015 0.903798
O O4 0.217797 0.120406 0.026136
O O5 0.589488 0.000000 0.324797
O O6 0.478596 0.000000 0.325021
O O7 0.648996 0.910331 0.023720
O O8 0.663813 0.407869 0.341695
O O9 0.500000 0.653414 0.500000
O O10 0.496705 0.500000 0.379335
O O11 0.479593 0.651690 0.282310
O O12 0.017780 0.000000 0.094719
O O13 0.000000 0.152850 0.000000
#
# Coordination Sequence:
#
# PCOD8081987 Si02
#       6
#     8   4   8   4   8   8
#     4  10  19  32  52  80 109 142 177 225 270 322
#     4   9  18  32  48  74 110 146 175 217 274 322
#     4  10  19  31  52  81 111 137 179 226 269 321
#     4   9  18  32  48  69 112 149 175 213 270 331
#     4  10  18  30  54  80 104 138 174 224 273 313
#     4  10  20  34  54  80 109 139 174 221 276 326
#
# _framework density 18.5382
#
# number of rings (size 3 to 8) (size 9 to 14) (size 15 to 20)
#    0.000    2.200    4.000    0.000    0.000    1.600 
#    3.600    1.000    0.000    0.000    0.000    2.100 
#    0.000    0.000    0.000    0.000    0.000    0.000 
#
# Total GULP energy -247782.326273 kJ/mol
# GULP energy per Si atom -12389.116314 kJ/mol
# Density = 1.849601 g / cm^3
# Si number density = 18.538200 Si / 1000 Ang^3
#
#
#
# Elastic Constant Matrix: (Units=GPa)
#
#
# Indices 1 2 3 4 5 6 
#
# 1 103.1289 24.8678 76.1549 0.0000 -3.9641 0.0000
# 2 24.8678 86.7685 33.7533 0.0000 -10.3049 0.0000
# 3 76.1549 33.7533 125.3655 0.0000 -21.2591 0.0000
# 4 0.0000 0.0000 0.0000 3.4499 0.0000 -6.5891
# 5 -3.9641 -10.3049 -21.2591 0.0000 37.3677 0.0000
# 6 0.0000 0.0000 0.0000 -6.5891 0.0000 8.2730
#
#
#
# Elastic Compliance Matrix: (Units=1/GPa)
#
#
# Indices 1 2 3 4 5 6 
#
# 1 0.018487 -0.001338 -0.011732 0.000000 -0.005082 0.000000
# 2 -0.001338 0.013074 -0.002346 0.000000 0.002129 0.000000
# 3 -0.011732 -0.002346 0.017060 0.000000 0.007814 0.000000
# 4 0.000000 0.000000 0.000000 -0.556162 0.000000 -0.442961
# 5 -0.005082 0.002129 0.007814 0.000000 0.031255 0.000000
# 6 0.000000 0.000000 0.000000 -0.442961 0.000000 -0.231926
#
#
# Mechanical properties :
#
#
# Convention : Reuss Voigt Hill
#
# Bulk Modulus (GPa) = 56.21491 64.97943 60.59717
# Shear Modulus (GPa) = -7.44657 21.85059 7.20201
#
# Velocity S-wave (km/s) = -2.00639 3.43691 1.97317
# Velocity P-wave (km/s) = 5.00222 7.13285 6.16035
#
# Compressibility (1/GPa) = 0.01778888
#
# Stress axis : x y z
#
# Youngs Moduli (GPa) = 54.09139 76.48820 58.61640
#
# Poissons Ratio (x) = 0.10236 0.68768
# Poissons Ratio (y) = 0.07239 0.13752
# Poissons Ratio (z) = 0.63459 0.17945
#
# Static dielectric constant tensor:
#      x y z
#    x 3.324860 0.000000 -0.056250 
#    y 0.000000 3.315370 0.000000 
#    z -0.056250 0.000000 3.547060 
# 
# 
# High freq. dielectric constant tensor:
#      x y z
#    x 1.684010 0.000000 -0.023940 
#    y 0.000000 1.696940 0.000000 
#    z -0.023940 0.000000 1.716510 
# 
# From -- ./inp_files/87672.got.cif
#   From: 2010.06.25/outbox.cif.g09.slc.cpg/sg12_44_cif.got.tgz:87672.got - 2010.06.28 00:19:55.
