data_PCOD8081936
_publ_section_title
;
Structure prediction by ZEFSAII (Michael W. Deem and Ramdas Pophale) SiO2 
 PCOD8081936
Probable space group: C 2/M
;
_chemical_formula_sum "Si O2"
_cell_formula_units_Z 44
_cell_length_a 17.442922
_cell_length_b 14.081412
_cell_length_c 24.211735
_cell_angle_alpha 90.000000
_cell_angle_beta 22.940864
_cell_angle_gamma 90.000000
_cell_volume 2317.991588
_symmetry_space_group_name_H-M "C 2/M"
_symmetry_group_IT_number 12
_symmetry_cell_setting 'monoclinic'
loop_
_space_group_symop_operation_xyz
x,y,z
-x,y,-z
-x,-y,-z
x,-y,z
1/2+x,1/2+y,z
1/2-x,1/2+y,-z
1/2-x,1/2-y,-z
1/2+x,1/2-y,z
loop_
_atom_site_type_symbol
_atom_site_label
_atom_site_fract_x
_atom_site_fract_y
_atom_site_fract_z
Si Si1 0.920975 0.609375 0.958987
Si Si2 0.500000 0.662174 0.500000
Si Si3 0.726794 0.741469 0.250555
Si Si4 0.017135 0.103259 0.053630
Si Si5 0.594613 0.104116 0.726636
Si Si6 0.362906 0.761278 0.814354
O O1 0.911388 0.500000 0.984966
O O2 0.105183 0.660017 0.867883
O O3 0.950128 0.617914 0.874317
O O4 0.712618 0.660193 0.111949
O O5 0.566027 0.724540 0.403936
O O6 0.318239 0.599196 0.600198
O O7 0.831222 0.838926 0.199880
O O8 0.617704 0.753254 0.264363
O O9 0.021568 0.000000 0.079419
O O10 0.000000 0.093530 0.000000
O O11 0.215840 0.158317 0.934788
O O12 0.566285 0.195281 0.704411
O O13 0.555262 0.000000 0.724925
#
# Coordination Sequence:
#
# PCOD8081936 Si02
#       6
#     8   4   8   8   8   8
#     4   9  18  33  53  80 111 136 160 201 262 318
#     4  10  21  38  51  66 102 144 179 212 251 300
#     4   9  19  32  51  75 103 139 173 207 249 300
#     4   8  14  27  48  74 101 126 156 199 253 306
#     4  10  20  34  54  76 101 135 173 213 255 304
#     4  10  18  30  52  82 105 127 166 216 260 300
#
# _framework density 18.981950000000001
#
# number of rings (size 3 to 8) (size 9 to 14) (size 15 to 20)
#    0.000    2.727    0.000    3.000    0.000    3.636 
#    0.000    0.455    0.000    1.091    0.000    0.000 
#    0.000    0.000    0.000    0.000    0.000    0.000 
#
# Total GULP energy -272611.135122 kJ/mol
# GULP energy per Si atom -12391.415233 kJ/mol
# Density = 1.893875 g / cm^3
# Si number density = 18.981950 Si / 1000 Ang^3
#
#
#
# Elastic Constant Matrix: (Units=GPa)
#
#
# Indices 1 2 3 4 5 6 
#
# 1 86.8582 38.8029 30.1360 0.0042 -3.1725 0.0077
# 2 38.8029 141.3548 33.6331 -0.0034 3.4585 -0.0010
# 3 30.1360 33.6331 66.3172 -0.0109 10.2590 0.0255
# 4 0.0042 -0.0034 -0.0109 11.4157 0.0200 -2.7793
# 5 -3.1725 3.4585 10.2590 0.0200 29.1844 0.0009
# 6 0.0077 -0.0010 0.0255 -2.7793 0.0009 25.9455
#
#
#
# Elastic Compliance Matrix: (Units=1/GPa)
#
#
# Indices 1 2 3 4 5 6 
#
# 1 0.014999 -0.002781 -0.006037 -0.000019 0.004082 -0.000001
# 2 -0.002781 0.008568 -0.003043 0.000002 -0.000248 0.000004
# 3 -0.006037 -0.003043 0.020528 0.000030 -0.007512 -0.000015
# 4 -0.000019 0.000002 0.000030 0.089945 -0.000075 0.009635
# 5 0.004082 -0.000248 -0.007512 -0.000075 0.037379 -0.000003
# 6 -0.000001 0.000004 -0.000015 0.009635 -0.000003 0.039575
#
#
# Mechanical properties :
#
#
# Convention : Reuss Voigt Hill
#
# Bulk Modulus (GPa) = 49.08577 55.51935 52.30256
# Shear Modulus (GPa) = 20.70345 26.10632 23.40488
#
# Velocity S-wave (km/s) = 3.30614 3.71256 3.51523
# Velocity P-wave (km/s) = 6.36313 6.90575 6.63999
#
# Compressibility (1/GPa) = 0.02037250
#
# Stress axis : x y z
#
# Youngs Moduli (GPa) = 66.67103 116.71466 48.71421
#
# Poissons Ratio (x) = 0.32456 0.29409
# Poissons Ratio (y) = 0.18540 0.14825
# Poissons Ratio (z) = 0.40250 0.35519
#
# Static dielectric constant tensor:
#      x y z
#    x 3.365190 0.000080 -0.098170 
#    y 0.000080 3.878900 0.000100 
#    z -0.098170 0.000100 3.238280 
# 
# 
# High freq. dielectric constant tensor:
#      x y z
#    x 1.729890 0.000000 -0.008450 
#    y 0.000000 1.741200 0.000010 
#    z -0.008450 0.000010 1.705990 
# 
# From -- ./inp_files/155205.got.cif
#   From: 2010.06.25/outbox.cif.g09.slc.cpg/sg12_78_cif.got.tgz:155205.got - 2010.06.28 00:19:55.
