data_PCOD8081873
_publ_section_title
;
Structure prediction by ZEFSAII (Michael W. Deem and Ramdas Pophale) SiO2 
 PCOD8081873
Probable space group: C 2/M
;
_chemical_formula_sum "Si O2"
_cell_formula_units_Z 64
_cell_length_a 33.340534
_cell_length_b 8.828406
_cell_length_c 21.334331
_cell_angle_alpha 90.000000
_cell_angle_beta 145.581321
_cell_angle_gamma 90.000000
_cell_volume 3549.471291
_symmetry_space_group_name_H-M "C 2/M"
_symmetry_group_IT_number 12
_symmetry_cell_setting 'monoclinic'
loop_
_space_group_symop_operation_xyz
x,y,z
-x,y,-z
-x,-y,-z
x,-y,z
1/2+x,1/2+y,z
1/2-x,1/2+y,-z
1/2-x,1/2-y,-z
1/2+x,1/2-y,z
loop_
_atom_site_type_symbol
_atom_site_label
_atom_site_fract_x
_atom_site_fract_y
_atom_site_fract_z
Si Si1 0.960732 0.678053 0.595316
Si Si2 0.120233 0.676252 0.781826
Si Si3 0.479589 0.678555 0.751275
Si Si4 0.226644 0.678971 0.812799
Si Si5 0.323738 0.678569 0.376057
Si Si6 0.143324 0.325004 0.342661
Si Si7 0.742828 0.175178 0.589492
Si Si8 0.137951 0.823091 0.934470
O O1 0.950272 0.500000 0.593172
O O2 0.950445 0.762328 0.647633
O O3 0.900433 0.739599 0.471075
O O4 0.037397 0.715737 0.664529
O O5 0.132126 0.500000 0.806571
O O6 0.163418 0.732909 0.777208
O O7 0.151508 0.750438 0.884483
O O8 0.467750 0.500000 0.739464
O O9 0.435622 0.758026 0.750193
O O10 0.561921 0.725419 0.865111
O O11 0.222993 0.500000 0.794728
O O12 0.221063 0.771003 0.741705
O O13 0.301446 0.727708 0.939425
O O14 0.334906 0.500000 0.390854
O O15 0.280542 0.727768 0.381371
O O16 0.138910 0.500000 0.318266
O O17 0.180680 0.234655 0.334501
O O18 0.185936 0.299316 0.461642
O O19 0.748818 0.000000 0.616361
O O20 0.140309 0.000000 0.925509
#
# Coordination Sequence:
#
# PCOD8081873 Si02
#       8
#     8   8   8   8   8   8   8   8
#     4  10  19  33  51  75 105 139 175 213 265 317
#     4   9  19  34  56  80 103 134 175 224 269 312
#     4  10  18  30  51  80 110 138 171 214 261 308
#     4  10  21  38  55  74 103 142 182 218 263 316
#     4  12  24  36  52  75 106 142 178 217 260 313
#     4  10  19  31  52  81 110 139 172 208 255 308
#     4  10  20  34  53  77 108 141 171 209 257 310
#     4   9  19  34  55  80 106 137 175 221 267 309
#
# _framework density 18.030854000000001
#
# number of rings (size 3 to 8) (size 9 to 14) (size 15 to 20)
#    0.000    2.000    1.250    3.000    0.000    3.500 
#    0.000    2.500    0.000    0.750    0.000    5.250 
#    0.000    0.000    0.000    0.000    0.000    0.000 
#
# Total GULP energy -396887.356491 kJ/mol
# GULP energy per Si atom -12402.729890 kJ/mol
# Density = 1.798981 g / cm^3
# Si number density = 18.030854 Si / 1000 Ang^3
#
#
#
# Elastic Constant Matrix: (Units=GPa)
#
#
# Indices 1 2 3 4 5 6 
#
# 1 97.2727 33.2958 42.9731 0.0000 13.2515 0.0000
# 2 33.2958 47.0671 24.0611 0.0000 4.2148 0.0000
# 3 42.9731 24.0611 82.0801 0.0000 -0.1641 0.0000
# 4 0.0000 0.0000 0.0000 25.0262 0.0000 -2.1973
# 5 13.2515 4.2148 -0.1641 0.0000 18.2670 0.0000
# 6 0.0000 0.0000 0.0000 -2.1973 0.0000 29.1485
#
#
#
# Elastic Compliance Matrix: (Units=1/GPa)
#
#
# Indices 1 2 3 4 5 6 
#
# 1 0.017510 -0.007892 -0.006876 0.000000 -0.010943 0.000000
# 2 -0.007892 0.029186 -0.004426 0.000000 -0.001049 0.000000
# 3 -0.006876 -0.004426 0.017093 0.000000 0.006163 0.000000
# 4 0.000000 0.000000 0.000000 0.040224 0.000000 0.003032
# 5 -0.010943 -0.001049 0.006163 0.000000 0.062980 0.000000
# 6 0.000000 0.000000 0.000000 0.003032 0.000000 0.034536
#
#
# Mechanical properties :
#
#
# Convention : Reuss Voigt Hill
#
# Bulk Modulus (GPa) = 39.36803 47.45332 43.41067
# Shear Modulus (GPa) = 20.13024 22.89432 21.51228
#
# Velocity S-wave (km/s) = 3.34493 3.56719 3.45785
# Velocity P-wave (km/s) = 6.06623 6.58342 6.33011
#
# Compressibility (1/GPa) = 0.02540132
#
# Stress axis : x y z
#
# Youngs Moduli (GPa) = 57.10960 34.26354 58.50420
#
# Poissons Ratio (x) = 0.27041 0.40227
# Poissons Ratio (y) = 0.45071 0.25893
# Poissons Ratio (z) = 0.39268 0.15164
#
# Static dielectric constant tensor:
#      x y z
#    x 3.514140 0.000000 0.284170 
#    y 0.000000 3.342320 0.000000 
#    z 0.284170 0.000000 3.260930 
# 
# 
# High freq. dielectric constant tensor:
#      x y z
#    x 1.702430 0.000000 0.019270 
#    y 0.000000 1.705090 0.000000 
#    z 0.019270 0.000000 1.674050 
# 
# From -- ./inp_files/295844.got.cif
#   From: 2010.06.25/outbox.cif.g09.slc.cpg/sg12_148_cif.got.tgz:295844.got - 2010.06.28 00:19:55.
