data_PCOD8081673
_publ_section_title
;
Structure prediction by ZEFSAII (Michael W. Deem and Ramdas Pophale) SiO2 
 PCOD8081673
Probable space group: C 2/M
;
_chemical_formula_sum "Si O2"
_cell_formula_units_Z 64
_cell_length_a 23.561684
_cell_length_b 8.828131
_cell_length_c 21.805352
_cell_angle_alpha 90.000000
_cell_angle_beta 124.302698
_cell_angle_gamma 90.000000
_cell_volume 3746.760839
_symmetry_space_group_name_H-M "C 2/M"
_symmetry_group_IT_number 12
_symmetry_cell_setting 'monoclinic'
loop_
_space_group_symop_operation_xyz
x,y,z
-x,y,-z
-x,-y,-z
x,-y,z
1/2+x,1/2+y,z
1/2-x,1/2+y,-z
1/2-x,1/2-y,-z
1/2+x,1/2-y,z
loop_
_atom_site_type_symbol
_atom_site_label
_atom_site_fract_x
_atom_site_fract_y
_atom_site_fract_z
Si Si1 0.062360 0.321407 0.365890
Si Si2 0.211451 0.320148 0.418430
Si Si3 0.709900 0.180052 0.645058
Si Si4 0.565391 0.180149 0.504183
Si Si5 0.294496 0.680696 0.227147
Si Si6 0.789079 0.666820 0.937137
Si Si7 0.646859 0.333091 0.921014
Si Si8 0.082629 0.679072 0.771075
O O1 0.058170 0.500000 0.370160
O O2 0.131110 0.274965 0.371782
O O3 0.065459 0.250602 0.435978
O O4 0.994611 0.263289 0.289582
O O5 0.222364 0.500000 0.426286
O O6 0.250000 0.250000 0.500000
O O7 0.237625 0.249853 0.371389
O O8 0.633530 0.232811 0.580722
O O9 0.726789 0.247273 0.721600
O O10 0.717717 0.000000 0.650369
O O11 0.500000 0.247521 0.500000
O O12 0.561952 0.000000 0.499944
O O13 0.300101 0.500000 0.234627
O O14 0.233610 0.730077 0.143173
O O15 0.367248 0.743456 0.247689
O O16 0.821449 0.500000 0.950004
O O17 0.721544 0.657442 0.937282
O O18 0.846085 0.770648 0.005116
O O19 0.613556 0.500000 0.903735
O O20 0.598919 0.225325 0.850829
O O21 0.090659 0.500000 0.768638
#
# Coordination Sequence:
#
# PCOD8081673 Si02
#       8
#     8   8   8   8   8   8   8   8
#     4   9  18  32  50  72  96 129 169 205 244 293
#     4  11  21  37  56  73  96 126 167 215 256 293
#     4  11  21  34  53  74  97 129 169 207 249 299
#     4   9  16  28  48  71  95 125 162 198 234 286
#     4  10  20  33  48  72 106 135 162 204 252 294
#     4   8  15  27  43  64  94 133 169 196 231 289
#     4   9  16  26  42  67 100 132 162 201 244 286
#     4  10  18  30  50  73  99 134 171 203 241 296
#
# _framework density 17.081420000000001
#
# number of rings (size 3 to 8) (size 9 to 14) (size 15 to 20)
#    0.000    2.375    1.250    3.375    0.000    5.500 
#    0.000    2.500    0.000    1.500    0.000    0.875 
#    0.000    7.000    0.000    0.000    0.000    0.000 
#
# Total GULP energy -396702.080742 kJ/mol
# GULP energy per Si atom -12396.940023 kJ/mol
# Density = 1.704254 g / cm^3
# Si number density = 17.081420 Si / 1000 Ang^3
#
#
#
# Elastic Constant Matrix: (Units=GPa)
#
#
# Indices 1 2 3 4 5 6 
#
# 1 102.6291 35.9153 64.7007 0.0000 -14.1925 0.0000
# 2 35.9153 72.1792 45.3085 0.0000 -5.8080 0.0000
# 3 64.7007 45.3085 142.7777 0.0000 -19.3133 0.0000
# 4 0.0000 0.0000 0.0000 25.9148 0.0000 -4.4603
# 5 -14.1925 -5.8080 -19.3133 0.0000 13.5992 0.0000
# 6 0.0000 0.0000 0.0000 -4.4603 0.0000 19.8842
#
#
#
# Elastic Compliance Matrix: (Units=1/GPa)
#
#
# Indices 1 2 3 4 5 6 
#
# 1 0.015052 -0.004048 -0.004512 0.000000 0.007572 0.000000
# 2 -0.004048 0.018392 -0.004346 0.000000 -0.002542 0.000000
# 3 -0.004512 -0.004346 0.011808 0.000000 0.010204 0.000000
# 4 0.000000 0.000000 0.000000 0.040138 0.000000 0.009003
# 5 0.007572 -0.002542 0.010204 0.000000 0.094842 0.000000
# 6 0.000000 0.000000 0.000000 0.009003 0.000000 0.052311
#
#
# Mechanical properties :
#
#
# Convention : Reuss Voigt Hill
#
# Bulk Modulus (GPa) = 51.43990 67.71499 59.57745
# Shear Modulus (GPa) = 18.87964 23.32375 21.10170
#
# Velocity S-wave (km/s) = 3.32817 3.69920 3.51858
# Velocity P-wave (km/s) = 6.70439 7.61407 7.17366
#
# Compressibility (1/GPa) = 0.01944016
#
# Stress axis : x y z
#
# Youngs Moduli (GPa) = 66.43551 54.37096 84.68792
#
# Poissons Ratio (x) = 0.22010 0.38213
# Poissons Ratio (y) = 0.26894 0.36804
# Poissons Ratio (z) = 0.29977 0.23629
#
# Static dielectric constant tensor:
#      x y z
#    x 2.088720 0.000000 0.332810 
#    y 0.000000 3.178210 0.000000 
#    z 0.332810 0.000000 3.327640 
# 
# 
# High freq. dielectric constant tensor:
#      x y z
#    x 1.621210 0.000000 -0.005230 
#    y 0.000000 1.651550 0.000000 
#    z -0.005230 0.000000 1.669940 
# 
# From -- ./inp_files/320055.got.cif
#   From: 2010.06.25/outbox.cif.g09.slc.cpg/sg12_161_cif.got.tgz:320055.got - 2010.06.28 00:19:55.
