data_PCOD8081056
_publ_section_title
;
Structure prediction by ZEFSAII (Michael W. Deem and Ramdas Pophale) SiO2 
 PCOD8081056
Probable space group: C 2/M
;
_chemical_formula_sum "Si O2"
_cell_formula_units_Z 56
_cell_length_a 26.971299
_cell_length_b 9.350187
_cell_length_c 14.286275
_cell_angle_alpha 90.000000
_cell_angle_beta 121.982887
_cell_angle_gamma 90.000000
_cell_volume 3055.924899
_symmetry_space_group_name_H-M "C 2/M"
_symmetry_group_IT_number 12
_symmetry_cell_setting 'monoclinic'
loop_
_space_group_symop_operation_xyz
x,y,z
-x,y,-z
-x,-y,-z
x,-y,z
1/2+x,1/2+y,z
1/2-x,1/2+y,-z
1/2-x,1/2-y,-z
1/2+x,1/2-y,z
loop_
_atom_site_type_symbol
_atom_site_label
_atom_site_fract_x
_atom_site_fract_y
_atom_site_fract_z
Si Si1 0.650683 0.666895 0.258404
Si Si2 0.500003 0.830336 0.605545
Si Si3 0.889333 0.669787 0.613972
Si Si4 0.282186 0.169698 0.385239
Si Si5 0.650681 0.666896 0.042959
Si Si6 0.889338 0.669785 0.164694
Si Si7 0.217821 0.669698 0.820878
O O1 0.643185 0.500000 0.272620
O O2 0.606952 0.756561 0.280525
O O3 0.716874 0.718888 0.347022
O O4 0.634830 0.699381 0.134830
O O5 0.500000 0.766600 0.500000
O O6 0.443061 0.776953 0.604314
O O7 0.556943 0.776934 0.718194
O O8 0.500011 0.000000 0.599243
O O9 0.890444 0.500000 0.628224
O O10 0.829870 0.726747 0.505984
O O11 0.298119 0.229620 0.298115
O O12 0.284279 0.000000 0.383587
O O13 0.643188 0.500000 0.013751
O O14 0.716870 0.718909 0.086716
O O15 0.606947 0.756556 0.933376
O O16 0.890462 0.500000 0.152676
O O17 0.829866 0.726710 0.153738
O O18 0.215754 0.500000 0.815035
#
# Coordination Sequence:
#
# PCOD8081056 Si02
#       7
#     8   8   8   8   8   8   8
#     4   9  18  32  48  67  94 126 156 188 230 279
#     4   9  18  32  50  73  98 122 151 187 228 277
#     4  10  18  29  49  73  94 120 155 194 231 267
#     4   8  14  26  46  71  96 122 152 186 229 281
#     4   9  18  32  48  67  94 126 156 188 230 279
#     4  10  18  29  49  73  94 120 155 194 231 267
#     4   8  14  26  46  71  96 122 152 186 229 281
#
# _framework density 18.325059
#
# number of rings (size 3 to 8) (size 9 to 14) (size 15 to 20)
#    0.000    3.000    0.000    3.429    0.000    4.000 
#    0.000    1.429    0.000   10.286    0.000    0.000 
#    0.000    0.000    0.000    0.000    0.000    0.000 
#
# Total GULP energy -347078.602676 kJ/mol
# GULP energy per Si atom -12395.664381 kJ/mol
# Density = 1.828335 g / cm^3
# Si number density = 18.325059 Si / 1000 Ang^3
#
#
#
# Elastic Constant Matrix: (Units=GPa)
#
#
# Indices 1 2 3 4 5 6 
#
# 1 110.8743 31.1236 68.1769 0.0000 -19.6339 0.0000
# 2 31.1236 28.5232 39.0928 0.0000 -8.0513 0.0000
# 3 68.1769 39.0928 141.7925 0.0000 -11.5121 0.0000
# 4 0.0000 0.0000 0.0000 25.3799 0.0000 -6.6675
# 5 -19.6339 -8.0513 -11.5121 0.0000 22.9057 0.0000
# 6 0.0000 0.0000 0.0000 -6.6675 0.0000 18.7652
#
#
#
# Elastic Compliance Matrix: (Units=1/GPa)
#
#
# Indices 1 2 3 4 5 6 
#
# 1 0.015632 -0.008629 -0.004479 0.000000 0.008116 0.000000
# 2 -0.008629 0.064778 -0.012993 0.000000 0.008843 0.000000
# 3 -0.004479 -0.012993 0.012621 0.000000 -0.002063 0.000000
# 4 0.000000 0.000000 0.000000 0.043458 0.000000 0.015441
# 5 0.008116 0.008843 -0.002063 0.000000 0.052685 0.000000
# 6 0.000000 0.000000 0.000000 0.015441 0.000000 0.058777
#
#
# Mechanical properties :
#
#
# Convention : Reuss Voigt Hill
#
# Bulk Modulus (GPa) = 24.49106 61.99741 43.24424
# Shear Modulus (GPa) = 15.93568 22.92993 19.43281
#
# Velocity S-wave (km/s) = 2.95212 3.54119 3.25999
# Velocity P-wave (km/s) = 5.00138 7.11516 6.14977
#
# Compressibility (1/GPa) = 0.04083122
#
# Stress axis : x y z
#
# Youngs Moduli (GPa) = 63.96969 15.43730 79.23545
#
# Poissons Ratio (x) = 0.13320 0.35486
# Poissons Ratio (y) = 0.55197 1.02949
# Poissons Ratio (z) = 0.28649 0.20057
#
# Static dielectric constant tensor:
#      x y z
#    x 3.441770 0.000000 -0.051840 
#    y 0.000000 2.796110 0.000000 
#    z -0.051840 0.000000 3.493550 
# 
# 
# High freq. dielectric constant tensor:
#      x y z
#    x 1.705830 0.000000 -0.011760 
#    y 0.000000 1.656840 0.000000 
#    z -0.011760 0.000000 1.717510 
# 
# From -- ./inp_files/175811.got.cif
#   From: 2010.06.25/outbox.cif.g09.slc.cpg/sg12_88_cif.got.tgz:175811.got - 2010.06.28 00:19:55.
