data_PCOD8081399
_publ_section_title
;
Structure prediction by ZEFSAII (Michael W. Deem and Ramdas Pophale) SiO2 
 PCOD8081399
Probable space group: C 2/M
;
_chemical_formula_sum "Si O2"
_cell_formula_units_Z 48
_cell_length_a 28.698976
_cell_length_b 9.071760
_cell_length_c 12.197265
_cell_angle_alpha 90.000000
_cell_angle_beta 68.203201
_cell_angle_gamma 90.000000
_cell_volume 2948.528943
_symmetry_space_group_name_H-M "C 2/M"
_symmetry_group_IT_number 12
_symmetry_cell_setting 'monoclinic'
loop_
_space_group_symop_operation_xyz
x,y,z
-x,y,-z
-x,-y,-z
x,-y,z
1/2+x,1/2+y,z
1/2-x,1/2+y,-z
1/2-x,1/2-y,-z
1/2+x,1/2-y,z
loop_
_atom_site_type_symbol
_atom_site_label
_atom_site_fract_x
_atom_site_fract_y
_atom_site_fract_z
Si Si1 0.413368 0.825694 0.242467
Si Si2 0.509116 0.337231 0.121118
Si Si3 0.723299 0.672373 0.923673
Si Si4 0.671128 0.328925 0.564266
Si Si5 0.113462 0.826991 0.958784
Si Si6 0.240709 0.329422 0.345058
O O1 0.471412 0.777687 0.211287
O O2 0.380210 0.758834 0.369388
O O3 0.392630 0.765990 0.145986
O O4 0.409868 0.000000 0.247548
O O5 0.499017 0.500000 0.179358
O O6 0.500000 0.339893 0.000000
O O7 0.567866 0.292835 0.083881
O O8 0.728352 0.500000 0.937017
O O9 0.664917 0.719406 0.972534
O O10 0.750007 0.720031 0.787565
O O11 0.750000 0.750000 0.000000
O O12 0.658720 0.500000 0.560330
O O13 0.708285 0.299445 0.633152
O O14 0.695579 0.268865 0.431094
O O15 0.113954 0.000000 0.924770
O O16 0.225407 0.500000 0.368070
#
# Coordination Sequence:
#
# PCOD8081399 Si02
#       6
#     8   8   8   8   8   8
#     4  11  19  26  42  69  98 123 152 189 234 283
#     4   8  15  27  44  62  87 123 157 186 228 281
#     4  10  20  34  50  69  95 126 161 197 231 272
#     4  10  18  30  48  67  93 125 157 189 232 286
#     4   9  17  32  47  62  90 127 160 193 231 274
#     4   9  18  32  47  66  93 122 156 197 235 270
#
# _framework density 16.279305000000001
#
# number of rings (size 3 to 8) (size 9 to 14) (size 15 to 20)
#    0.000    2.500    1.667    3.000    0.000    5.000 
#    0.000    0.000    0.000    0.000    0.000    1.167 
#    0.000    9.333    0.000    0.000    0.000    0.000 
#
# Total GULP energy -297541.439093 kJ/mol
# GULP energy per Si atom -12397.559962 kJ/mol
# Density = 1.624225 g / cm^3
# Si number density = 16.279305 Si / 1000 Ang^3
#
#
#
# Elastic Constant Matrix: (Units=GPa)
#
#
# Indices 1 2 3 4 5 6 
#
# 1 103.3828 53.0308 64.3729 0.0000 -24.2150 0.0000
# 2 53.0308 95.0082 53.3894 0.0000 -22.7289 0.0000
# 3 64.3729 53.3894 96.5716 0.0000 -18.4874 0.0000
# 4 0.0000 0.0000 0.0000 27.7890 0.0000 -4.8996
# 5 -24.2150 -22.7289 -18.4874 0.0000 30.2259 0.0000
# 6 0.0000 0.0000 0.0000 -4.8996 0.0000 23.5176
#
#
#
# Elastic Compliance Matrix: (Units=1/GPa)
#
#
# Indices 1 2 3 4 5 6 
#
# 1 0.018935 -0.003769 -0.009261 0.000000 0.006671 0.000000
# 2 -0.003769 0.017520 -0.005923 0.000000 0.006532 0.000000
# 3 -0.009261 -0.005923 0.019855 0.000000 0.000270 0.000000
# 4 0.000000 0.000000 0.000000 0.037358 0.000000 0.007783
# 5 0.006671 0.006532 0.000270 0.000000 0.043506 0.000000
# 6 0.000000 0.000000 0.000000 0.007783 0.000000 0.044143
#
#
# Mechanical properties :
#
#
# Convention : Reuss Voigt Hill
#
# Bulk Modulus (GPa) = 54.33681 70.72765 62.53223
# Shear Modulus (GPa) = 22.18687 24.58446 23.38566
#
# Velocity S-wave (km/s) = 3.69574 3.89030 3.79427
# Velocity P-wave (km/s) = 7.18760 7.98248 7.59544
#
# Compressibility (1/GPa) = 0.01840373
#
# Stress axis : x y z
#
# Youngs Moduli (GPa) = 52.81166 57.07623 50.36573
#
# Poissons Ratio (x) = 0.21511 0.46644
# Poissons Ratio (y) = 0.19904 0.29833
# Poissons Ratio (z) = 0.48910 0.33808
#
# Static dielectric constant tensor:
#      x y z
#    x 3.193270 0.000000 -0.434220 
#    y 0.000000 3.038540 0.000000 
#    z -0.434220 0.000000 2.956680 
# 
# 
# High freq. dielectric constant tensor:
#      x y z
#    x 1.607400 0.000000 -0.041550 
#    y 0.000000 1.626560 0.000000 
#    z -0.041550 0.000000 1.600750 
# 
# From -- ./inp_files/179320.got.cif
#   From: 2010.06.25/outbox.cif.g09.slc.cpg/sg12_90_cif.got.tgz:179320.got - 2010.06.28 00:19:55.
