data_PCOD8081409
_publ_section_title
;
Structure prediction by ZEFSAII (Michael W. Deem and Ramdas Pophale) SiO2 
 PCOD8081409
Probable space group: C 2/M
;
_chemical_formula_sum "Si O2"
_cell_formula_units_Z 64
_cell_length_a 33.072279
_cell_length_b 8.973225
_cell_length_c 30.338736
_cell_angle_alpha 90.000000
_cell_angle_beta 154.144279
_cell_angle_gamma 90.000000
_cell_volume 3926.473676
_symmetry_space_group_name_H-M "C 2/M"
_symmetry_group_IT_number 12
_symmetry_cell_setting 'monoclinic'
loop_
_space_group_symop_operation_xyz
x,y,z
-x,y,-z
-x,-y,-z
x,-y,z
1/2+x,1/2+y,z
1/2-x,1/2+y,-z
1/2-x,1/2-y,-z
1/2+x,1/2-y,z
loop_
_atom_site_type_symbol
_atom_site_label
_atom_site_fract_x
_atom_site_fract_y
_atom_site_fract_z
Si Si1 0.437813 0.834067 0.816297
Si Si2 0.555312 0.178043 0.010821
Si Si3 0.946548 0.324965 0.403604
Si Si4 0.751145 0.333741 0.684243
Si Si5 0.931868 0.175097 0.546937
Si Si6 0.150937 0.674214 0.454140
Si Si7 0.735746 0.673177 0.214814
Si Si8 0.152610 0.675554 0.356323
O O1 0.332696 0.834426 0.729438
O O2 0.428203 0.767103 0.757124
O O3 0.477757 0.000000 0.851484
O O4 0.504930 0.753179 0.917574
O O5 0.660219 0.236685 0.112439
O O6 0.554326 0.000000 0.009631
O O7 0.500000 0.234701 0.000000
O O8 0.963496 0.500000 0.414602
O O9 0.838584 0.283594 0.300386
O O10 0.000000 0.267856 0.500000
O O11 0.981278 0.241231 0.394162
O O12 0.739148 0.500000 0.692937
O O13 0.658780 0.280896 0.569497
O O14 0.775694 0.215679 0.745615
O O15 0.923897 0.248469 0.587351
O O16 0.944523 0.000000 0.565202
O O17 0.153867 0.500000 0.467353
O O18 0.117863 0.707371 0.371701
O O19 0.252933 0.738879 0.561594
O O20 0.715693 0.500000 0.189207
O O21 0.172077 0.500000 0.368060
#
# Coordination Sequence:
#
# PCOD8081409 Si02
#       8
#     8   8   8   8   8   8   8   8
#     4   9  16  30  49  68  94 130 167 200 230 272
#     4  10  19  32  50  70  94 128 166 199 235 279
#     4  10  21  36  50  68  97 129 161 198 243 291
#     4  10  18  30  48  68  95 129 165 200 230 274
#     4  11  21  32  50  72  96 129 167 203 236 283
#     4  10  19  29  46  71 101 131 159 198 246 290
#     4  11  22  34  48  68  98 129 158 202 244 281
#     4   9  17  31  48  69  97 131 168 199 234 286
#
# _framework density 16.299612
#
# number of rings (size 3 to 8) (size 9 to 14) (size 15 to 20)
#    0.000    2.000    3.750    1.125    0.000    2.500 
#    0.000    0.625    0.000    0.000    0.000    0.875 
#    0.000    0.000    0.000    0.000    0.000    0.000 
#
# Total GULP energy -396660.328903 kJ/mol
# GULP energy per Si atom -12395.635278 kJ/mol
# Density = 1.626251 g / cm^3
# Si number density = 16.299612 Si / 1000 Ang^3
#
#
#
# Elastic Constant Matrix: (Units=GPa)
#
#
# Indices 1 2 3 4 5 6 
#
# 1 108.6494 36.0436 52.8005 0.0000 -17.9198 0.0000
# 2 36.0436 41.8051 28.5045 0.0000 -4.7058 0.0001
# 3 52.8005 28.5045 109.3834 0.0001 -17.4501 0.0000
# 4 0.0000 0.0000 0.0001 21.3019 0.0000 2.7715
# 5 -17.9198 -4.7058 -17.4501 0.0000 27.6654 0.0000
# 6 0.0000 0.0001 0.0000 2.7715 0.0000 24.1189
#
#
#
# Elastic Compliance Matrix: (Units=1/GPa)
#
#
# Indices 1 2 3 4 5 6 
#
# 1 0.015344 -0.009920 -0.003898 0.000000 0.005793 0.000000
# 2 -0.009920 0.035503 -0.005031 0.000000 -0.003560 0.000000
# 3 -0.003898 -0.005031 0.013115 0.000000 0.004892 0.000000
# 4 0.000000 0.000000 0.000000 0.047657 0.000000 -0.005476
# 5 0.005793 -0.003560 0.004892 0.000000 0.042379 0.000000
# 6 0.000000 0.000000 0.000000 -0.005476 0.000000 0.042091
#
#
# Mechanical properties :
#
#
# Convention : Reuss Voigt Hill
#
# Bulk Modulus (GPa) = 38.07372 54.94835 46.51103
# Shear Modulus (GPa) = 20.61503 24.11654 22.36579
#
# Velocity S-wave (km/s) = 3.56020 3.85070 3.70830
# Velocity P-wave (km/s) = 6.34897 7.31814 6.85071
#
# Compressibility (1/GPa) = 0.02626484
#
# Stress axis : x y z
#
# Youngs Moduli (GPa) = 65.17023 28.16651 76.24785
#
# Poissons Ratio (x) = 0.27941 0.29719
# Poissons Ratio (y) = 0.64649 0.38363
# Poissons Ratio (z) = 0.25401 0.14171
#
# Static dielectric constant tensor:
#      x y z
#    x 3.129930 0.000000 -0.191860 
#    y 0.000000 3.023330 0.000000 
#    z -0.191860 0.000000 3.088680 
# 
# 
# High freq. dielectric constant tensor:
#      x y z
#    x 1.616960 0.000000 -0.013970 
#    y 0.000000 1.618330 0.000000 
#    z -0.013970 0.000000 1.608910 
# 
# From -- ./inp_files/384633.got.cif
#   From: 2010.06.25/outbox.cif.g09.slc.cpg/sg12_193_cif.got.tgz:384633.got - 2010.06.28 00:19:55.
