data_PCOD8081684
_publ_section_title
;
Structure prediction by ZEFSAII (Michael W. Deem and Ramdas Pophale) SiO2 
 PCOD8081684
Probable space group: C 2/M
;
_chemical_formula_sum "Si O2"
_cell_formula_units_Z 56
_cell_length_a 25.224633
_cell_length_b 8.999081
_cell_length_c 16.763025
_cell_angle_alpha 90.000000
_cell_angle_beta 121.067747
_cell_angle_gamma 90.000000
_cell_volume 3259.357826
_symmetry_space_group_name_H-M "C 2/M"
_symmetry_group_IT_number 12
_symmetry_cell_setting 'monoclinic'
loop_
_space_group_symop_operation_xyz
x,y,z
-x,y,-z
-x,-y,-z
x,-y,z
1/2+x,1/2+y,z
1/2-x,1/2+y,-z
1/2-x,1/2-y,-z
1/2+x,1/2-y,z
loop_
_atom_site_type_symbol
_atom_site_label
_atom_site_fract_x
_atom_site_fract_y
_atom_site_fract_z
Si Si1 0.443730 0.172331 0.281047
Si Si2 0.761963 0.324821 0.735428
Si Si3 0.802027 0.325145 0.593211
Si Si4 0.276910 0.327649 0.901717
Si Si5 0.419450 0.824408 0.587932
Si Si6 0.631987 0.827745 0.619352
Si Si7 0.839074 0.827268 0.112181
O O1 0.513390 0.237859 0.335386
O O2 0.416814 0.195525 0.348240
O O3 0.406593 0.266375 0.186384
O O4 0.441461 0.000000 0.254121
O O5 0.762576 0.500000 0.746354
O O6 0.795247 0.275294 0.679585
O O7 0.799587 0.251808 0.838234
O O8 0.692041 0.268393 0.683967
O O9 0.793183 0.500000 0.576394
O O10 0.750000 0.250000 0.500000
O O11 0.869534 0.274084 0.615326
O O12 0.266066 0.500000 0.876157
O O13 0.210986 0.261793 0.875799
O O14 0.328167 0.300369 0.009538
O O15 0.398815 0.764702 0.485340
O O16 0.425119 0.000000 0.586351
O O17 0.651351 0.000000 0.625322
O O18 0.833026 0.000000 0.129267
#
# Coordination Sequence:
#
# PCOD8081684 Si02
#       7
#     8   8   8   8   8   8   8
#     4  10  19  31  51  77 103 136 173 203 247 306
#     4  11  21  31  49  77 107 133 166 214 257 292
#     4  10  20  34  52  74 101 135 175 214 252 291
#     4  10  20  34  52  74 100 135 170 201 251 311
#     4   9  18  33  51  72 102 139 176 210 241 294
#     4  10  18  30  50  74 102 136 170 203 245 303
#     4  10  20  33  51  76 105 130 161 209 257 302
#
# _framework density 17.181298999999999
#
# number of rings (size 3 to 8) (size 9 to 14) (size 15 to 20)
#    0.000    2.000    2.857    1.714    0.000    4.000 
#    0.000    1.429    0.000    2.571    0.000    6.000 
#    0.000    0.000    0.000    0.000    0.000    0.000 
#
# Total GULP energy -347234.966604 kJ/mol
# GULP energy per Si atom -12401.248807 kJ/mol
# Density = 1.714219 g / cm^3
# Si number density = 17.181299 Si / 1000 Ang^3
#
#
#
# Elastic Constant Matrix: (Units=GPa)
#
#
# Indices 1 2 3 4 5 6 
#
# 1 104.1107 35.4010 58.6113 0.0000 -9.0334 0.0000
# 2 35.4010 64.1325 48.9197 0.0000 -10.6877 0.0000
# 3 58.6113 48.9197 131.4029 0.0000 -14.0840 0.0000
# 4 0.0000 0.0000 0.0000 29.7220 0.0000 -0.6547
# 5 -9.0334 -10.6877 -14.0840 0.0000 25.1720 0.0000
# 6 0.0000 0.0000 0.0000 -0.6547 0.0000 16.7571
#
#
#
# Elastic Compliance Matrix: (Units=1/GPa)
#
#
# Indices 1 2 3 4 5 6 
#
# 1 0.013533 -0.003923 -0.004504 0.000000 0.000671 0.000000
# 2 -0.003923 0.023525 -0.006477 0.000000 0.004957 0.000000
# 3 -0.004504 -0.006477 0.012300 0.000000 0.002516 0.000000
# 4 0.000000 0.000000 0.000000 0.033674 0.000000 0.001316
# 5 0.000671 0.004957 0.002516 0.000000 0.043480 0.000000
# 6 0.000000 0.000000 0.000000 0.001316 0.000000 0.059728
#
#
# Mechanical properties :
#
#
# Convention : Reuss Voigt Hill
#
# Bulk Modulus (GPa) = 51.15017 65.05670 58.10344
# Shear Modulus (GPa) = 22.46557 24.77782 23.62169
#
# Velocity S-wave (km/s) = 3.61994 3.80167 3.71192
# Velocity P-wave (km/s) = 6.87804 7.56421 7.22927
#
# Compressibility (1/GPa) = 0.01955028
#
# Stress axis : x y z
#
# Youngs Moduli (GPa) = 73.89455 42.50855 81.30035
#
# Poissons Ratio (x) = 0.16675 0.36617
# Poissons Ratio (y) = 0.28987 0.52658
# Poissons Ratio (z) = 0.33282 0.27533
#
# Static dielectric constant tensor:
#      x y z
#    x 3.251780 0.000000 -0.102400 
#    y 0.000000 3.126260 0.000000 
#    z -0.102400 0.000000 3.461100 
# 
# 
# High freq. dielectric constant tensor:
#      x y z
#    x 1.642610 0.000000 -0.008110 
#    y 0.000000 1.654260 0.000000 
#    z -0.008110 0.000000 1.670890 
# 
# From -- ./inp_files/287877.got.cif
#   From: 2010.06.25/outbox.cif.g09.slc.cpg/sg12_144_cif.got.tgz:287877.got - 2010.06.28 00:19:55.
