data_PCOD8081922
_publ_section_title
;
Structure prediction by ZEFSAII (Michael W. Deem and Ramdas Pophale) SiO2 
 PCOD8081922
Probable space group: C 2/M
;
_chemical_formula_sum "Si O2"
_cell_formula_units_Z 64
_cell_length_a 19.230847
_cell_length_b 9.301095
_cell_length_c 30.609607
_cell_angle_alpha 90.000000
_cell_angle_beta 36.755579
_cell_angle_gamma 90.000000
_cell_volume 3276.300522
_symmetry_space_group_name_H-M "C 2/M"
_symmetry_group_IT_number 12
_symmetry_cell_setting 'monoclinic'
loop_
_space_group_symop_operation_xyz
x,y,z
-x,y,-z
-x,-y,-z
x,-y,z
1/2+x,1/2+y,z
1/2-x,1/2+y,-z
1/2-x,1/2-y,-z
1/2+x,1/2-y,z
loop_
_atom_site_type_symbol
_atom_site_label
_atom_site_fract_x
_atom_site_fract_y
_atom_site_fract_z
Si Si1 0.167680 0.338920 0.227201
Si Si2 0.081034 0.159221 0.107500
Si Si3 0.499184 0.165846 0.231907
Si Si4 0.438255 0.832879 0.485984
Si Si5 0.997147 0.168205 0.632342
Si Si6 0.132429 0.165166 0.931140
Si Si7 0.839175 0.657230 0.004145
Si Si8 0.666318 0.666452 0.625014
O O1 0.147224 0.500000 0.255938
O O2 0.304600 0.311882 0.147680
O O3 0.104803 0.320715 0.212349
O O4 0.120966 0.225362 0.285687
O O5 0.218719 0.137673 0.039822
O O6 0.025602 0.244622 0.175408
O O7 0.022666 0.000000 0.133352
O O8 0.063931 0.251913 0.071818
O O9 0.384732 0.233280 0.311525
O O10 0.475072 0.000000 0.231692
O O11 0.500000 0.785289 0.500000
O O12 0.492608 0.742900 0.419399
O O13 0.301977 0.799097 0.555481
O O14 0.461858 0.000000 0.464947
O O15 0.107570 0.204727 0.607753
O O16 0.983835 0.000000 0.631310
O O17 0.197677 0.263032 0.933156
O O18 0.143646 0.000000 0.940052
O O19 0.000000 0.216864 0.000000
O O20 0.893460 0.500000 0.986093
O O21 0.641559 0.500000 0.648873
#
# Coordination Sequence:
#
# PCOD8081922 Si02
#       8
#     8   8   8   8   8   8   8   8
#     4   9  18  33  53  77 105 137 177 222 266 317
#     4  10  19  31  50  74 103 136 171 216 269 323
#     4  10  18  30  52  80 108 138 175 224 273 316
#     4  10  21  38  59  82 111 148 183 216 261 323
#     4  10  20  34  57  85 111 140 177 226 274 318
#     4  10  20  35  54  75 103 141 183 224 268 321
#     4  10  20  32  49  73 101 134 173 220 270 319
#     4   9  19  35  55  82 113 143 180 223 270 322
#
# _framework density 19.534227999999999
#
# number of rings (size 3 to 8) (size 9 to 14) (size 15 to 20)
#    0.000    2.250    1.250    1.875    0.000    3.500 
#    0.000    1.250    0.000    3.000    0.000    0.000 
#    0.000    0.000    0.000    0.000    0.000    0.000 
#
# Total GULP energy -396675.316594 kJ/mol
# GULP energy per Si atom -12396.103644 kJ/mol
# Density = 1.948977 g / cm^3
# Si number density = 19.534228 Si / 1000 Ang^3
#
#
#
# Elastic Constant Matrix: (Units=GPa)
#
#
# Indices 1 2 3 4 5 6 
#
# 1 56.9399 37.0162 49.7846 -0.0043 9.2537 0.0429
# 2 37.0162 124.6370 74.2174 -0.0051 22.6723 0.0010
# 3 49.7846 74.2174 135.5736 -0.0039 16.1336 0.0003
# 4 -0.0043 -0.0051 -0.0039 34.1935 -0.0023 7.5510
# 5 9.2537 22.6723 16.1336 -0.0023 31.8875 -0.0005
# 6 0.0429 0.0010 0.0003 7.5510 -0.0005 18.0389
#
#
#
# Elastic Compliance Matrix: (Units=1/GPa)
#
#
# Indices 1 2 3 4 5 6 
#
# 1 0.026726 -0.002832 -0.008066 0.000017 -0.001661 -0.000071
# 2 -0.002832 0.013184 -0.005490 -0.000001 -0.005774 0.000006
# 3 -0.008066 -0.005490 0.013408 -0.000005 -0.000539 0.000021
# 4 0.000017 -0.000001 -0.000005 0.032224 0.000000 -0.013489
# 5 -0.001661 -0.005774 -0.000539 0.000000 0.036221 0.000005
# 6 -0.000071 0.000006 0.000021 -0.013489 0.000005 0.061082
#
#
# Mechanical properties :
#
#
# Convention : Reuss Voigt Hill
#
# Bulk Modulus (GPa) = 48.68329 71.02076 59.85203
# Shear Modulus (GPa) = 22.47505 27.23279 24.85392
#
# Velocity S-wave (km/s) = 3.39565 3.73782 3.57084
# Velocity P-wave (km/s) = 6.35217 7.42054 6.90704
#
# Compressibility (1/GPa) = 0.02054093
#
# Stress axis : x y z
#
# Youngs Moduli (GPa) = 37.41670 75.84912 74.58360
#
# Poissons Ratio (x) = 0.21482 0.60160
# Poissons Ratio (y) = 0.10597 0.40948
# Poissons Ratio (z) = 0.30181 0.41643
#
# Static dielectric constant tensor:
#      x y z
#    x 3.267150 -0.000050 0.022420 
#    y -0.000050 3.782240 -0.000010 
#    z 0.022420 -0.000010 3.567500 
# 
# 
# High freq. dielectric constant tensor:
#      x y z
#    x 1.725140 0.000000 0.011530 
#    y 0.000000 1.770530 0.000000 
#    z 0.011530 0.000000 1.763150 
# 
# From -- ./inp_files/378003.got.cif
#   From: 2010.06.25/outbox.cif.g09.slc.cpg/sg12_190_cif.got.tgz:378003.got - 2010.06.28 00:19:55.
