data_PCOD8081666
_publ_section_title
;
Structure prediction by ZEFSAII (Michael W. Deem and Ramdas Pophale) SiO2 
 PCOD8081666
Probable space group: C 2/M
;
_chemical_formula_sum "Si O2"
_cell_formula_units_Z 48
_cell_length_a 31.300846
_cell_length_b 8.750229
_cell_length_c 9.674740
_cell_angle_alpha 90.000000
_cell_angle_beta 89.369014
_cell_angle_gamma 90.000000
_cell_volume 2649.649698
_symmetry_space_group_name_H-M "C 2/M"
_symmetry_group_IT_number 12
_symmetry_cell_setting 'monoclinic'
loop_
_space_group_symop_operation_xyz
x,y,z
-x,y,-z
-x,-y,-z
x,-y,z
1/2+x,1/2+y,z
1/2-x,1/2+y,-z
1/2-x,1/2-y,-z
1/2+x,1/2-y,z
loop_
_atom_site_type_symbol
_atom_site_label
_atom_site_fract_x
_atom_site_fract_y
_atom_site_fract_z
Si Si1 0.998929 0.168577 0.663965
Si Si2 0.908707 0.181143 0.360688
Si Si3 0.166381 0.181848 0.836564
Si Si4 0.586616 0.822643 0.344477
Si Si5 0.662266 0.819736 0.137895
Si Si6 0.247602 0.182200 0.152813
O O1 0.959888 0.274981 0.713099
O O2 0.000000 0.156297 0.500000
O O3 0.045490 0.237038 0.704468
O O4 0.991875 0.000000 0.728940
O O5 0.871395 0.238669 0.261796
O O6 0.900462 0.241337 0.514461
O O7 0.909890 0.000000 0.371201
O O8 0.210151 0.254065 0.771881
O O9 0.170533 0.000000 0.841165
O O10 0.156279 0.243691 0.988981
O O11 0.620903 0.777797 0.227889
O O12 0.586127 0.000000 0.375793
O O13 0.703401 0.748082 0.217054
O O14 0.668879 0.000000 0.119663
O O15 0.247220 0.000000 0.153499
O O16 0.250000 0.250000 0.000000
#
# Coordination Sequence:
#
# PCOD8081666 Si02
#       6
#     8   8   8   8   8   8
#     4   8  15  30  50  70  95 128 164 199 236 285
#     4   9  19  34  52  74  99 128 163 201 241 289
#     4  10  19  33  53  75  98 127 163 201 243 288
#     4  10  20  32  50  75 100 128 163 202 243 286
#     4  10  20  34  50  72 101 130 163 201 240 286
#     4  10  18  30  50  73  96 127 164 198 239 289
#
# _framework density 18.115601999999999
#
# number of rings (size 3 to 8) (size 9 to 14) (size 15 to 20)
#    0.000    2.500    0.000    6.000    0.000    7.000 
#    0.000    1.667    0.000    5.000    0.000    0.000 
#    0.000    0.000    0.000    0.000    0.000    0.000 
#
# Total GULP energy -297457.532133 kJ/mol
# GULP energy per Si atom -12394.063839 kJ/mol
# Density = 1.807437 g / cm^3
# Si number density = 18.115602 Si / 1000 Ang^3
#
#
#
# Elastic Constant Matrix: (Units=GPa)
#
#
# Indices 1 2 3 4 5 6 
#
# 1 110.8811 35.0595 19.0254 0.0000 14.9854 0.0000
# 2 35.0595 69.7689 15.1958 0.0000 -0.2452 0.0000
# 3 19.0254 15.1958 33.1215 0.0000 7.2882 0.0000
# 4 0.0000 0.0000 0.0000 21.3842 0.0000 -2.1678
# 5 14.9854 -0.2452 7.2882 0.0000 30.8455 0.0000
# 6 0.0000 0.0000 0.0000 -2.1678 0.0000 33.1258
#
#
#
# Elastic Compliance Matrix: (Units=1/GPa)
#
#
# Indices 1 2 3 4 5 6 
#
# 1 0.011948 -0.005299 -0.003318 0.000000 -0.005063 0.000000
# 2 -0.005299 0.018387 -0.006319 0.000000 0.004214 0.000000
# 3 -0.003318 -0.006319 0.036554 0.000000 -0.007075 0.000000
# 4 0.000000 0.000000 0.000000 0.047076 0.000000 0.003081
# 5 -0.005063 0.004214 -0.007075 0.000000 0.036584 0.000000
# 6 0.000000 0.000000 0.000000 0.003081 0.000000 0.030390
#
#
# Mechanical properties :
#
#
# Convention : Reuss Voigt Hill
#
# Bulk Modulus (GPa) = 27.01496 39.14810 33.08153
# Shear Modulus (GPa) = 22.40661 26.70383 24.55522
#
# Velocity S-wave (km/s) = 3.52073 3.84354 3.68567
# Velocity P-wave (km/s) = 5.61002 6.43072 6.03434
#
# Compressibility (1/GPa) = 0.03701653
#
# Stress axis : x y z
#
# Youngs Moduli (GPa) = 83.69865 54.38650 27.35704
#
# Poissons Ratio (x) = 0.28819 0.09076
# Poissons Ratio (y) = 0.44352 0.17287
# Poissons Ratio (z) = 0.27769 0.34367
#
# Static dielectric constant tensor:
#      x y z
#    x 4.477940 0.000000 0.176100 
#    y 0.000000 3.370800 0.000000 
#    z 0.176100 0.000000 2.958760 
# 
# 
# High freq. dielectric constant tensor:
#      x y z
#    x 1.729070 0.000000 0.002270 
#    y 0.000000 1.708820 0.000000 
#    z 0.002270 0.000000 1.651430 
# 
# From -- ./inp_files/179269.got.cif
#   From: 2010.06.25/outbox.cif.g09.slc.cpg/sg12_90_cif.got.tgz:179269.got - 2010.06.28 00:19:55.
