data_PCOD8081536
_publ_section_title
;
Structure prediction by ZEFSAII (Michael W. Deem and Ramdas Pophale) SiO2 
 PCOD8081536
Probable space group: C 2/M
;
_chemical_formula_sum "Si O2"
_cell_formula_units_Z 64
_cell_length_a 20.837766
_cell_length_b 8.867329
_cell_length_c 24.747031
_cell_angle_alpha 90.000000
_cell_angle_beta 127.850569
_cell_angle_gamma 90.000000
_cell_volume 3610.620027
_symmetry_space_group_name_H-M "C 2/M"
_symmetry_group_IT_number 12
_symmetry_cell_setting 'monoclinic'
loop_
_space_group_symop_operation_xyz
x,y,z
-x,y,-z
-x,-y,-z
x,-y,z
1/2+x,1/2+y,z
1/2-x,1/2+y,-z
1/2-x,1/2-y,-z
1/2+x,1/2-y,z
loop_
_atom_site_type_symbol
_atom_site_label
_atom_site_fract_x
_atom_site_fract_y
_atom_site_fract_z
Si Si1 0.781148 0.821301 0.960788
Si Si2 0.125133 0.322437 0.819982
Si Si3 0.953387 0.678700 0.029265
Si Si4 0.987731 0.320821 0.827283
Si Si5 0.280039 0.321201 0.460534
Si Si6 0.038179 0.821275 0.464183
Si Si7 0.374946 0.821659 0.678767
Si Si8 0.486336 0.821992 0.330736
O O1 0.717603 0.775279 0.880323
O O2 0.785985 0.000000 0.970948
O O3 0.750000 0.750000 0.000000
O O4 0.866586 0.757254 0.986127
O O5 0.114665 0.500000 0.817114
O O6 0.094123 0.270207 0.744628
O O7 0.066579 0.256018 0.836606
O O8 0.939376 0.500000 0.022705
O O9 0.007906 0.734082 0.108438
O O10 0.000000 0.732486 0.000000
O O11 0.988464 0.500000 0.827007
O O12 0.906946 0.260943 0.753778
O O13 0.279452 0.500000 0.467004
O O14 0.250000 0.250000 0.500000
O O15 0.369243 0.261059 0.491507
O O16 0.217191 0.268913 0.380803
O O17 0.000000 0.759985 0.500000
O O18 0.984278 0.759219 0.387258
O O19 0.035712 0.000000 0.460900
O O20 0.434443 0.765994 0.661523
O O21 0.380303 0.000000 0.682450
O O22 0.488086 0.000000 0.341475
#
# Coordination Sequence:
#
# PCOD8081536 Si02
#       8
#     8   8   8   8   8   8   8   8
#     4  11  20  33  54  78 104 134 172 215 259 308
#     4   8  15  28  50  75  97 125 162 210 256 293
#     4  10  20  34  52  76 107 139 172 210 253 304
#     4   8  13  26  47  70  97 126 160 202 248 290
#     4  10  18  30  49  71  93 119 160 204 237 281
#     4  10  21  34  46  68 106 140 156 186 252 311
#     4   8  14  25  47  73  91 117 163 209 241 283
#     4   9  16  30  52  74  93 122 170 210 241 289
#
# _framework density 17.725487000000001
#
# number of rings (size 3 to 8) (size 9 to 14) (size 15 to 20)
#    0.000    2.750    2.500    1.875    0.000    0.500 
#    0.000    2.500    0.000    3.750    0.000    0.000 
#    0.000    0.000    0.000    0.000    0.000    0.000 
#
# Total GULP energy -396531.483460 kJ/mol
# GULP energy per Si atom -12391.608858 kJ/mol
# Density = 1.768514 g / cm^3
# Si number density = 17.725487 Si / 1000 Ang^3
#
#
#
# Elastic Constant Matrix: (Units=GPa)
#
#
# Indices 1 2 3 4 5 6 
#
# 1 122.0204 26.5884 88.8268 0.0000 -5.6437 0.0000
# 2 26.5884 21.7332 25.8667 0.0000 1.1853 0.0000
# 3 88.8268 25.8667 190.0571 0.0000 -6.5608 0.0000
# 4 0.0000 0.0000 0.0000 21.9449 0.0000 0.8417
# 5 -5.6437 1.1853 -6.5608 0.0000 29.6778 0.0000
# 6 0.0000 0.0000 0.0000 0.8417 0.0000 19.1056
#
#
#
# Elastic Compliance Matrix: (Units=1/GPa)
#
#
# Indices 1 2 3 4 5 6 
#
# 1 0.014631 -0.011889 -0.005147 0.000000 0.002119 0.000000
# 2 -0.011889 0.065014 -0.003486 0.000000 -0.005628 0.000000
# 3 -0.005147 -0.003486 0.008175 0.000000 0.000968 0.000000
# 4 0.000000 0.000000 0.000000 0.045646 0.000000 -0.002011
# 5 0.002119 -0.005628 0.000968 0.000000 0.034537 0.000000
# 6 0.000000 0.000000 0.000000 -0.002011 0.000000 0.052429
#
#
# Mechanical properties :
#
#
# Convention : Reuss Voigt Hill
#
# Bulk Modulus (GPa) = 21.37871 68.48606 44.93239
# Shear Modulus (GPa) = 18.04621 26.98092 22.51356
#
# Velocity S-wave (km/s) = 3.19422 3.90571 3.56775
# Velocity P-wave (km/s) = 5.06865 7.68508 6.50967
#
# Compressibility (1/GPa) = 0.04677550
#
# Stress axis : x y z
#
# Youngs Moduli (GPa) = 68.34979 15.38137 122.32724
#
# Poissons Ratio (x) = 0.18287 0.62957
# Poissons Ratio (y) = 0.81262 0.42643
# Poissons Ratio (z) = 0.35177 0.05362
#
# Static dielectric constant tensor:
#      x y z
#    x 3.221260 0.000000 0.125140 
#    y 0.000000 2.894220 0.000000 
#    z 0.125140 0.000000 4.257990 
# 
# 
# High freq. dielectric constant tensor:
#      x y z
#    x 1.655810 0.000000 0.003460 
#    y 0.000000 1.645660 0.000000 
#    z 0.003460 0.000000 1.710990 
# 
# From -- ./inp_files/365214.got.cif
#   From: 2010.06.25/outbox.cif.g09.slc.cpg/sg12_183_cif.got.tgz:365214.got - 2010.06.28 00:19:55.
