data_PCOD8081001
_publ_section_title
;
Structure prediction by ZEFSAII (Michael W. Deem and Ramdas Pophale) SiO2 
 PCOD8081001
Probable space group: C 2/M
;
_chemical_formula_sum "Si O2"
_cell_formula_units_Z 64
_cell_length_a 20.211625
_cell_length_b 9.509744
_cell_length_c 21.276472
_cell_angle_alpha 90.000000
_cell_angle_beta 111.590262
_cell_angle_gamma 90.000000
_cell_volume 3802.572035
_symmetry_space_group_name_H-M "C 2/M"
_symmetry_group_IT_number 12
_symmetry_cell_setting 'monoclinic'
loop_
_space_group_symop_operation_xyz
x,y,z
-x,y,-z
-x,-y,-z
x,-y,z
1/2+x,1/2+y,z
1/2-x,1/2+y,-z
1/2-x,1/2-y,-z
1/2+x,1/2-y,z
loop_
_atom_site_type_symbol
_atom_site_label
_atom_site_fract_x
_atom_site_fract_y
_atom_site_fract_z
Si Si1 0.222426 0.833860 0.050044
Si Si2 0.419238 0.836363 0.456768
Si Si3 0.375329 0.655119 0.799792
Si Si4 0.217522 0.655820 0.797182
Si Si5 0.670225 0.334018 0.670667
Si Si6 0.426459 0.667722 0.947176
Si Si7 0.181026 0.661149 0.464908
Si Si8 0.326664 0.839951 0.678761
O O1 0.274211 0.797888 0.127101
O O2 0.141749 0.781703 0.036421
O O3 0.223657 0.000000 0.036630
O O4 0.250000 0.750000 0.000000
O O5 0.500000 0.799403 0.500000
O O6 0.392461 0.740469 0.390130
O O7 0.378239 0.796227 0.505945
O O8 0.408931 0.000000 0.434999
O O9 0.402862 0.500000 0.790894
O O10 0.295049 0.646668 0.794874
O O11 0.421567 0.719831 0.873108
O O12 0.380848 0.751548 0.740392
O O13 0.182278 0.500000 0.780594
O O14 0.171267 0.768511 0.741534
O O15 0.655361 0.500000 0.670414
O O16 0.744009 0.300034 0.660675
O O17 0.426363 0.500000 0.946807
O O18 0.500000 0.730011 0.000000
O O19 0.204012 0.500000 0.479636
O O20 0.250000 0.750000 0.500000
O O21 0.151056 0.690967 0.384880
O O22 0.338628 0.000000 0.702310
#
# Coordination Sequence:
#
# PCOD8081001 Si02
#       8
#     8   8   8   8   8   8   8   8
#     4   9  17  29  48  73  98 126 158 197 239 279
#     4  10  21  35  51  70  94 130 166 190 227 288
#     4   8  14  25  44  69  91 117 156 193 227 271
#     4   8  15  28  45  67  94 123 159 196 232 280
#     4  10  18  29  48  73  96 120 154 199 246 280
#     4   8  14  27  48  71  94 124 160 195 230 274
#     4  10  19  32  50  72  96 121 156 197 236 279
#     4   9  17  28  44  69  97 119 145 191 245 279
#
# _framework density 16.830712999999999
#
# number of rings (size 3 to 8) (size 9 to 14) (size 15 to 20)
#    0.000    3.000    1.250    1.875    0.000    1.750 
#    0.000    1.875    2.750    1.500    0.000    0.000 
#    0.000    0.000    0.000    0.000    0.000    0.000 
#
# Total GULP energy -396641.488607 kJ/mol
# GULP energy per Si atom -12395.046519 kJ/mol
# Density = 1.679241 g / cm^3
# Si number density = 16.830713 Si / 1000 Ang^3
#
#
#
# Elastic Constant Matrix: (Units=GPa)
#
#
# Indices 1 2 3 4 5 6 
#
# 1 70.8770 37.4084 59.8236 0.0000 0.6660 0.0000
# 2 37.4084 72.9330 72.8032 0.0000 0.6514 0.0000
# 3 59.8236 72.8032 153.5462 0.0000 1.5513 0.0000
# 4 0.0000 0.0000 0.0000 31.7364 0.0000 -4.8792
# 5 0.6660 0.6514 1.5513 0.0000 23.5327 0.0000
# 6 0.0000 0.0000 0.0000 -4.8792 0.0000 14.4412
#
#
#
# Elastic Compliance Matrix: (Units=1/GPa)
#
#
# Indices 1 2 3 4 5 6 
#
# 1 0.022007 -0.005181 -0.006117 0.000000 -0.000076 0.000000
# 2 -0.005181 0.027252 -0.010904 0.000000 0.000111 0.000000
# 3 -0.006117 -0.010904 0.014071 0.000000 -0.000453 0.000000
# 4 0.000000 0.000000 0.000000 0.033236 0.000000 0.011229
# 5 -0.000076 0.000111 -0.000453 0.000000 0.042523 0.000000
# 6 0.000000 0.000000 0.000000 0.011229 0.000000 0.073040
#
#
# Mechanical properties :
#
#
# Convention : Reuss Voigt Hill
#
# Bulk Modulus (GPa) = 52.83739 70.82516 61.83128
# Shear Modulus (GPa) = 19.02283 22.43013 20.72648
#
# Velocity S-wave (km/s) = 3.36556 3.65456 3.51303
# Velocity P-wave (km/s) = 6.82380 7.74468 7.29878
#
# Compressibility (1/GPa) = 0.01892599
#
# Stress axis : x y z
#
# Youngs Moduli (GPa) = 45.43972 36.69410 71.07009
#
# Poissons Ratio (x) = 0.19011 0.43473
# Poissons Ratio (y) = 0.23543 0.77495
# Poissons Ratio (z) = 0.27795 0.40012
#
# Static dielectric constant tensor:
#      x y z
#    x 3.113190 0.000000 0.161460 
#    y 0.000000 3.146600 0.000000 
#    z 0.161460 0.000000 3.588240 
# 
# 
# High freq. dielectric constant tensor:
#      x y z
#    x 1.606530 0.000000 -0.006660 
#    y 0.000000 1.636950 0.000000 
#    z -0.006660 0.000000 1.661900 
# 
# From -- ./inp_files/320076.got.cif
#   From: 2010.06.25/outbox.cif.g09.slc.cpg/sg12_161_cif.got.tgz:320076.got - 2010.06.28 00:19:55.
