data_PCOD8081354
_publ_section_title
;
Structure prediction by ZEFSAII (Michael W. Deem and Ramdas Pophale) SiO2 
 PCOD8081354
Probable space group: C 2/M
;
_chemical_formula_sum "Si O2"
_cell_formula_units_Z 56
_cell_length_a 26.695510
_cell_length_b 8.859386
_cell_length_c 17.196716
_cell_angle_alpha 90.000000
_cell_angle_beta 125.547051
_cell_angle_gamma 90.000000
_cell_volume 3309.167790
_symmetry_space_group_name_H-M "C 2/M"
_symmetry_group_IT_number 12
_symmetry_cell_setting 'monoclinic'
loop_
_space_group_symop_operation_xyz
x,y,z
-x,y,-z
-x,-y,-z
x,-y,z
1/2+x,1/2+y,z
1/2-x,1/2+y,-z
1/2-x,1/2-y,-z
1/2+x,1/2-y,z
loop_
_atom_site_type_symbol
_atom_site_label
_atom_site_fract_x
_atom_site_fract_y
_atom_site_fract_z
Si Si1 0.232581 0.326606 0.212983
Si Si2 0.590017 0.168574 0.113214
Si Si3 0.462335 0.324937 0.790595
Si Si4 0.729968 0.176736 0.602242
Si Si5 0.158537 0.823532 0.407382
Si Si6 0.787541 0.178733 0.964259
Si Si7 0.082194 0.673421 0.929769
O O1 0.250252 0.500000 0.213972
O O2 0.162661 0.308409 0.176081
O O3 0.275002 0.259325 0.319367
O O4 0.243394 0.235231 0.143527
O O5 0.561784 0.291952 0.144590
O O6 0.573810 0.000000 0.128927
O O7 0.562604 0.191873 0.002316
O O8 0.478221 0.500000 0.799469
O O9 0.409955 0.278976 0.681441
O O10 0.524277 0.231841 0.827109
O O11 0.793587 0.222495 0.617097
O O12 0.672677 0.230581 0.498114
O O13 0.725486 0.000000 0.612795
O O14 0.164735 0.000000 0.431383
O O15 0.783661 0.000000 0.964396
O O16 0.750000 0.250000 0.000000
O O17 0.858268 0.228559 0.035907
O O18 0.097220 0.500000 0.923410
#
# Coordination Sequence:
#
# PCOD8081354 Si02
#       7
#     8   8   8   8   8   8   8
#     4  10  19  32  51  74 102 134 167 206 253 299
#     4   9  18  30  44  64  95 133 168 203 241 290
#     4  11  20  30  45  68  98 134 172 208 248 292
#     4  10  18  30  47  69  96 133 176 214 251 293
#     4   9  19  31  43  65  99 136 174 214 251 291
#     4  11  22  38  58  79 102 127 161 205 253 301
#     4  10  21  35  49  70  98 130 167 204 247 299
#
# _framework density 16.922684
#
# number of rings (size 3 to 8) (size 9 to 14) (size 15 to 20)
#    0.000    2.000    1.429    4.286    0.000    6.286 
#    0.000    0.000    0.000    0.000    0.000    1.000 
#    0.000    8.000    0.000    0.000    0.000    0.000 
#
# Total GULP energy -347257.881231 kJ/mol
# GULP energy per Si atom -12402.067187 kJ/mol
# Density = 1.688417 g / cm^3
# Si number density = 16.922684 Si / 1000 Ang^3
#
#
#
# Elastic Constant Matrix: (Units=GPa)
#
#
# Indices 1 2 3 4 5 6 
#
# 1 49.2278 39.5692 48.9060 0.0000 -5.3906 0.0000
# 2 39.5692 110.9670 61.8226 0.0000 -2.0233 0.0000
# 3 48.9060 61.8226 120.5257 0.0000 6.4326 0.0000
# 4 0.0000 0.0000 0.0000 32.1122 0.0000 0.4141
# 5 -5.3906 -2.0233 6.4326 0.0000 18.2709 0.0000
# 6 0.0000 0.0000 0.0000 0.4141 0.0000 25.4815
#
#
#
# Elastic Compliance Matrix: (Units=1/GPa)
#
#
# Indices 1 2 3 4 5 6 
#
# 1 0.041797 -0.006515 -0.014511 0.000000 0.016719 0.000000
# 2 -0.006515 0.013890 -0.004546 0.000000 0.001216 0.000000
# 3 -0.014511 -0.004546 0.017093 0.000000 -0.010803 0.000000
# 4 0.000000 0.000000 0.000000 0.031147 0.000000 -0.000506
# 5 0.016719 0.001216 -0.010803 0.000000 0.063603 0.000000
# 6 0.000000 0.000000 0.000000 -0.000506 0.000000 0.039252
#
#
# Mechanical properties :
#
#
# Convention : Reuss Voigt Hill
#
# Bulk Modulus (GPa) = 46.21722 64.59069 55.40396
# Shear Modulus (GPa) = 18.85813 23.86777 21.36295
#
# Velocity S-wave (km/s) = 3.34184 3.75960 3.55686
# Velocity P-wave (km/s) = 6.50082 7.55627 7.04832
#
# Compressibility (1/GPa) = 0.02163696
#
# Stress axis : x y z
#
# Youngs Moduli (GPa) = 23.92511 71.99592 58.50267
#
# Poissons Ratio (x) = 0.46907 0.84890
# Poissons Ratio (y) = 0.15588 0.26594
# Poissons Ratio (z) = 0.34717 0.32728
#
# Static dielectric constant tensor:
#      x y z
#    x 2.872870 0.000000 0.124460 
#    y 0.000000 3.237420 0.000000 
#    z 0.124460 0.000000 3.264100 
# 
# 
# High freq. dielectric constant tensor:
#      x y z
#    x 1.608580 0.000000 0.015250 
#    y 0.000000 1.666170 0.000000 
#    z 0.015250 0.000000 1.651490 
# 
# From -- ./inp_files/244305.got.cif
#   From: 2010.06.25/outbox.cif.g09.slc.cpg/sg12_123_cif.got.tgz:244305.got - 2010.06.28 00:19:55.
