data_PCOD8081783
_publ_section_title
;
Structure prediction by ZEFSAII (Michael W. Deem and Ramdas Pophale) SiO2 
 PCOD8081783
Probable space group: C 2/M
;
_chemical_formula_sum "Si O2"
_cell_formula_units_Z 48
_cell_length_a 13.777078
_cell_length_b 13.234150
_cell_length_c 23.767977
_cell_angle_alpha 90.000000
_cell_angle_beta 37.510847
_cell_angle_gamma 90.000000
_cell_volume 2638.758498
_symmetry_space_group_name_H-M "C 2/M"
_symmetry_group_IT_number 12
_symmetry_cell_setting 'monoclinic'
loop_
_space_group_symop_operation_xyz
x,y,z
-x,y,-z
-x,-y,-z
x,-y,z
1/2+x,1/2+y,z
1/2-x,1/2+y,-z
1/2-x,1/2-y,-z
1/2+x,1/2-y,z
loop_
_atom_site_type_symbol
_atom_site_label
_atom_site_fract_x
_atom_site_fract_y
_atom_site_fract_z
Si Si1 0.350411 0.298520 0.284145
Si Si2 0.853837 0.199941 0.025339
Si Si3 0.425038 0.119239 0.663697
Si Si4 0.655768 0.889005 0.466400
Si Si5 0.544764 0.884739 0.220986
Si Si6 0.351681 0.615949 0.906469
O O1 0.217242 0.316422 0.298229
O O2 0.285218 0.317103 0.377450
O O3 0.408354 0.182485 0.254262
O O4 0.500888 0.371595 0.204059
O O5 0.712029 0.129860 0.113151
O O6 0.797858 0.316014 0.044191
O O7 0.911682 0.153320 0.939855
O O8 0.000000 0.196193 0.000000
O O9 0.593973 0.148561 0.556117
O O10 0.435602 0.149223 0.723569
O O11 0.389174 0.000000 0.671308
O O12 0.500000 0.895291 0.500000
O O13 0.733741 0.000000 0.435838
O O14 0.488991 0.000000 0.241571
O O15 0.295661 0.500000 0.933280
#
# Coordination Sequence:
#
# PCOD8081783 Si02
#       6
#     8   8   8   8   8   8
#     4  10  18  30  51  73  98 126 159 199 239 280
#     4  10  21  35  51  72  97 127 161 197 239 285
#     4   9  17  31  52  75  97 125 161 198 237 281
#     4   8  14  26  47  74  98 122 156 197 238 278
#     4  10  21  34  49  71  97 127 162 198 239 285
#     4  10  20  33  51  75  99 125 159 197 239 285
#
# _framework density 18.190372
#
# number of rings (size 3 to 8) (size 9 to 14) (size 15 to 20)
#    0.000    2.500    0.000    4.000    0.000    3.667 
#    0.000    0.000    0.000   16.500    0.000    0.000 
#    0.000    0.000    0.000    0.000    0.000    0.000 
#
# Total GULP energy -297543.854710 kJ/mol
# GULP energy per Si atom -12397.660613 kJ/mol
# Density = 1.814897 g / cm^3
# Si number density = 18.190372 Si / 1000 Ang^3
#
#
#
# Elastic Constant Matrix: (Units=GPa)
#
#
# Indices 1 2 3 4 5 6 
#
# 1 59.5165 29.3466 22.4513 0.0000 -0.4809 0.0000
# 2 29.3466 103.1763 36.5256 0.0000 -7.3053 0.0000
# 3 22.4513 36.5256 99.1719 -0.0002 3.7235 0.0000
# 4 0.0000 0.0000 -0.0002 17.4387 0.0000 3.6574
# 5 -0.4809 -7.3053 3.7235 0.0000 21.9078 0.0000
# 6 0.0000 0.0000 0.0000 3.6574 0.0000 20.9693
#
#
#
# Elastic Compliance Matrix: (Units=1/GPa)
#
#
# Indices 1 2 3 4 5 6 
#
# 1 0.020219 -0.004817 -0.002777 0.000000 -0.000690 0.000000
# 2 -0.004817 0.012740 -0.003781 0.000000 0.004785 0.000000
# 3 -0.002777 -0.003781 0.012233 0.000000 -0.003401 0.000000
# 4 0.000000 0.000000 0.000000 0.059521 0.000000 -0.010382
# 5 -0.000690 0.004785 -0.003401 0.000000 0.047804 0.000000
# 6 0.000000 0.000000 0.000000 -0.010382 0.000000 0.049500
#
#
# Mechanical properties :
#
#
# Convention : Reuss Voigt Hill
#
# Bulk Modulus (GPa) = 44.56194 48.72353 46.64274
# Shear Modulus (GPa) = 21.52878 23.63257 22.58067
#
# Velocity S-wave (km/s) = 3.44397 3.60832 3.52711
# Velocity P-wave (km/s) = 6.35337 6.64857 6.50265
#
# Compressibility (1/GPa) = 0.02244067
#
# Stress axis : x y z
#
# Youngs Moduli (GPa) = 49.45795 78.49562 81.74841
#
# Poissons Ratio (x) = 0.37808 0.22705
# Poissons Ratio (y) = 0.23822 0.30912
# Poissons Ratio (z) = 0.13737 0.29682
#
# Static dielectric constant tensor:
#      x y z
#    x 3.122780 0.000000 0.352630 
#    y 0.000000 3.229510 0.000000 
#    z 0.352630 0.000000 3.696590 
# 
# 
# High freq. dielectric constant tensor:
#      x y z
#    x 1.678590 0.000000 0.023530 
#    y 0.000000 1.692580 0.000000 
#    z 0.023530 0.000000 1.722090 
# 
# From -- ./inp_files/214107.got.cif
#   From: 2010.06.25/outbox.cif.g09.slc.cpg/sg12_108_cif.got.tgz:214107.got - 2010.06.28 00:19:55.
