data_PCOD8081235
_publ_section_title
;
Structure prediction by ZEFSAII (Michael W. Deem and Ramdas Pophale) SiO2 
 PCOD8081235
Probable space group: C 2/M
;
_chemical_formula_sum "Si O2"
_cell_formula_units_Z 52
_cell_length_a 14.138859
_cell_length_b 21.043184
_cell_length_c 10.843392
_cell_angle_alpha 90.000000
_cell_angle_beta 57.796729
_cell_angle_gamma 90.000000
_cell_volume 2729.888277
_symmetry_space_group_name_H-M "C 2/M"
_symmetry_group_IT_number 12
_symmetry_cell_setting 'monoclinic'
loop_
_space_group_symop_operation_xyz
x,y,z
-x,y,-z
-x,-y,-z
x,-y,z
1/2+x,1/2+y,z
1/2-x,1/2+y,-z
1/2-x,1/2-y,-z
1/2+x,1/2-y,z
loop_
_atom_site_type_symbol
_atom_site_label
_atom_site_fract_x
_atom_site_fract_y
_atom_site_fract_z
Si Si1 0.341414 0.817925 0.793543
Si Si2 0.167253 0.189797 0.559673
Si Si3 0.882984 0.781096 0.142308
Si Si4 0.301585 0.928670 0.413743
Si Si5 0.616456 0.069453 0.378247
Si Si6 0.000000 0.751451 0.500000
Si Si7 0.472659 0.849152 0.151527
O O1 0.217781 0.786820 0.889281
O O2 0.323322 0.891828 0.771834
O O3 0.402596 0.788921 0.631421
O O4 0.416086 0.816371 0.865659
O O5 0.250000 0.250000 0.500000
O O6 0.141646 0.174544 0.721536
O O7 0.210832 0.126957 0.456275
O O8 0.052446 0.206144 0.571432
O O9 0.886644 0.708371 0.187170
O O10 0.000000 0.801877 0.000000
O O11 0.306546 0.935198 0.556175
O O12 0.419046 0.903486 0.274615
O O13 0.272839 0.000000 0.379867
O O14 0.500000 0.102379 0.500000
O O15 0.591073 0.000000 0.340170
O O16 0.500000 0.880509 0.000000
#
# Coordination Sequence:
#
# PCOD8081235 Si02
#       7
#     8   8   8   8   8   4   8
#     4  12  19  36  59  83 120 149 194 251 303 341
#     4  12  20  39  61  91 120 151 201 248 296 349
#     4  11  24  38  57  85 126 156 195 239 296 354
#     4  11  21  37  61  89 120 155 194 249 302 352
#     4  10  18  29  55  88 111 137 188 248 301 342
#     4  12  20  32  64  92 108 156 194 254 302 338
#     4  11  23  37  54  87 122 156 195 244 302 364
#
# _framework density 19.048399
#
# number of rings (size 3 to 8) (size 9 to 14) (size 15 to 20)
#    0.000    0.769    8.462    0.000    0.000    2.769 
#    2.769    0.385    0.000    1.846    0.000    0.000 
#    0.000    0.000    0.000    0.000    0.000    0.000 
#
# Total GULP energy -322162.696757 kJ/mol
# GULP energy per Si atom -12390.872952 kJ/mol
# Density = 1.900504 g / cm^3
# Si number density = 19.048399 Si / 1000 Ang^3
#
#
#
# Elastic Constant Matrix: (Units=GPa)
#
#
# Indices 1 2 3 4 5 6 
#
# 1 94.1731 31.3946 25.1197 0.0000 -6.1595 0.0000
# 2 31.3946 102.0309 30.4763 0.0000 -12.7074 0.0000
# 3 25.1197 30.4763 80.8686 0.0000 -9.6685 0.0000
# 4 0.0000 0.0000 0.0000 15.2267 0.0000 -1.1001
# 5 -6.1595 -12.7074 -9.6685 0.0000 30.1812 0.0000
# 6 0.0000 0.0000 0.0000 -1.1001 0.0000 17.6535
#
#
#
# Elastic Compliance Matrix: (Units=1/GPa)
#
#
# Indices 1 2 3 4 5 6 
#
# 1 0.012342 -0.002947 -0.002673 0.000000 0.000422 0.000000
# 2 -0.002947 0.012104 -0.003233 0.000000 0.003459 0.000000
# 3 -0.002673 -0.003233 0.014751 0.000000 0.002819 0.000000
# 4 0.000000 0.000000 0.000000 0.065971 0.000000 0.004111
# 5 0.000422 0.003459 0.002819 0.000000 0.035579 0.000000
# 6 0.000000 0.000000 0.000000 0.004111 0.000000 0.056902
#
#
# Mechanical properties :
#
#
# Convention : Reuss Voigt Hill
#
# Bulk Modulus (GPa) = 46.52693 50.11710 48.32202
# Shear Modulus (GPa) = 22.47018 25.28443 23.87730
#
# Velocity S-wave (km/s) = 3.43831 3.64727 3.54433
# Velocity P-wave (km/s) = 6.34360 6.64111 6.49406
#
# Compressibility (1/GPa) = 0.02149293
#
# Stress axis : x y z
#
# Youngs Moduli (GPa) = 81.02709 82.61705 67.79086
#
# Poissons Ratio (x) = 0.24344 0.18118
# Poissons Ratio (y) = 0.23875 0.21915
# Poissons Ratio (z) = 0.21656 0.26707
#
# Static dielectric constant tensor:
#      x y z
#    x 3.461090 0.000000 0.050250 
#    y 0.000000 3.608290 0.000000 
#    z 0.050250 0.000000 3.430730 
# 
# 
# High freq. dielectric constant tensor:
#      x y z
#    x 1.733940 0.000000 0.006340 
#    y 0.000000 1.723980 0.000000 
#    z 0.006340 0.000000 1.722440 
# 
# From -- ./inp_files/135837.got.cif
#   From: 2010.06.25/outbox.cif.g09.slc.cpg/sg12_68_cif.got.tgz:135837.got - 2010.06.28 00:19:55.
