data_PCOD8081017
_publ_section_title
;
Structure prediction by ZEFSAII (Michael W. Deem and Ramdas Pophale) SiO2 
 PCOD8081017
Probable space group: C 2/M
;
_chemical_formula_sum "Si O2"
_cell_formula_units_Z 56
_cell_length_a 23.994896
_cell_length_b 15.330501
_cell_length_c 8.795203
_cell_angle_alpha 90.000000
_cell_angle_beta 108.762615
_cell_angle_gamma 90.000000
_cell_volume 3063.420063
_symmetry_space_group_name_H-M "C 2/M"
_symmetry_group_IT_number 12
_symmetry_cell_setting 'monoclinic'
loop_
_space_group_symop_operation_xyz
x,y,z
-x,y,-z
-x,-y,-z
x,-y,z
1/2+x,1/2+y,z
1/2-x,1/2+y,-z
1/2-x,1/2-y,-z
1/2+x,1/2-y,z
loop_
_atom_site_type_symbol
_atom_site_label
_atom_site_fract_x
_atom_site_fract_y
_atom_site_fract_z
Si Si1 0.659692 0.403425 0.394839
Si Si2 0.623261 0.097511 0.583172
Si Si3 0.133662 0.262561 0.171395
Si Si4 0.789158 0.599886 0.606858
Si Si5 0.037217 0.310051 0.308230
Si Si6 0.093533 0.271264 0.803589
Si Si7 0.062271 0.143439 0.532670
O O1 0.663700 0.500000 0.322646
O O2 0.645527 0.332389 0.254286
O O3 0.720616 0.378591 0.528866
O O4 0.610833 0.411235 0.485236
O O5 0.679581 0.115796 0.527098
O O6 0.563772 0.110239 0.430439
O O7 0.630331 0.163509 0.729398
O O8 0.623250 0.000000 0.648235
O O9 0.185536 0.331564 0.249404
O O10 0.072203 0.300379 0.181048
O O11 0.129314 0.252219 0.987519
O O12 0.799509 0.500000 0.671404
O O13 0.046769 0.226964 0.420359
O O14 0.968287 0.320132 0.213986
O O15 0.086344 0.177015 0.716639
O O16 0.000000 0.091066 0.500000
#
# Coordination Sequence:
#
# PCOD8081017 Si02
#       7
#     8   8   8   8   8   8   8
#     4  10  20  36  56  72  92 130 174 207 242 297
#     4   9  17  30  48  71 100 134 172 207 239 287
#     4  10  19  32  52  75 102 131 164 206 251 295
#     4   9  19  36  54  71  95 132 173 205 238 292
#     4   8  16  30  48  69  97 137 171 193 233 294
#     4  10  18  29  48  75 104 131 159 203 256 292
#     4   8  16  32  52  73  97 125 160 197 240 294
#
# _framework density 18.280222999999999
#
# number of rings (size 3 to 8) (size 9 to 14) (size 15 to 20)
#    0.000    2.857    0.000    3.000    0.000    2.000 
#    0.000    3.571    0.000   18.857    0.000    0.000 
#    0.000    0.000    0.000    0.000    0.000    0.000 
#
# Total GULP energy -347054.339371 kJ/mol
# GULP energy per Si atom -12394.797835 kJ/mol
# Density = 1.823862 g / cm^3
# Si number density = 18.280223 Si / 1000 Ang^3
#
#
#
# Elastic Constant Matrix: (Units=GPa)
#
#
# Indices 1 2 3 4 5 6 
#
# 1 88.5964 28.6482 38.0379 0.0000 16.9750 0.0000
# 2 28.6482 77.9222 50.5361 0.0000 0.7881 0.0000
# 3 38.0379 50.5361 121.9801 0.0000 -6.3640 0.0000
# 4 0.0000 0.0000 0.0000 13.0108 0.0000 0.0171
# 5 16.9750 0.7881 -6.3640 0.0000 18.1413 0.0000
# 6 0.0000 0.0000 0.0000 0.0171 0.0000 15.0727
#
#
#
# Elastic Compliance Matrix: (Units=1/GPa)
#
#
# Indices 1 2 3 4 5 6 
#
# 1 0.018171 -0.002982 -0.005410 0.000000 -0.018771 0.000000
# 2 -0.002982 0.018243 -0.006646 0.000000 -0.000334 0.000000
# 3 -0.005410 -0.006646 0.013158 0.000000 0.009967 0.000000
# 4 0.000000 0.000000 0.000000 0.076859 0.000000 -0.000087
# 5 -0.018771 -0.000334 0.009967 0.000000 0.076198 0.000000
# 6 0.000000 0.000000 0.000000 -0.000087 0.000000 0.066345
#
#
# Mechanical properties :
#
#
# Convention : Reuss Voigt Hill
#
# Bulk Modulus (GPa) = 51.29070 58.10479 54.69774
# Shear Modulus (GPa) = 16.36402 20.66340 18.51371
#
# Velocity S-wave (km/s) = 2.99520 3.36574 3.18586
# Velocity P-wave (km/s) = 6.33092 6.85266 6.59695
#
# Compressibility (1/GPa) = 0.01949671
#
# Stress axis : x y z
#
# Youngs Moduli (GPa) = 55.03379 54.81578 75.99690
#
# Poissons Ratio (x) = 0.16345 0.41116
# Poissons Ratio (y) = 0.16410 0.50504
# Poissons Ratio (z) = 0.29775 0.36428
#
# Static dielectric constant tensor:
#      x y z
#    x 3.808500 0.000000 -0.030140 
#    y 0.000000 3.313740 0.000000 
#    z -0.030140 0.000000 3.079340 
# 
# 
# High freq. dielectric constant tensor:
#      x y z
#    x 1.718060 0.000000 -0.000340 
#    y 0.000000 1.698270 0.000000 
#    z -0.000340 0.000000 1.677290 
# 
# From -- ./inp_files/96960.got.cif
#   From: 2010.06.25/outbox.cif.g09.slc.cpg/sg12_49_cif.got.tgz:96960.got - 2010.06.28 00:19:55.
