data_PCOD8081478
_publ_section_title
;
Structure prediction by ZEFSAII (Michael W. Deem and Ramdas Pophale) SiO2 
 PCOD8081478
Probable space group: C 2/M
;
_chemical_formula_sum "Si O2"
_cell_formula_units_Z 64
_cell_length_a 24.868076
_cell_length_b 8.806636
_cell_length_c 23.407807
_cell_angle_alpha 90.000000
_cell_angle_beta 46.609713
_cell_angle_gamma 90.000000
_cell_volume 3725.313484
_symmetry_space_group_name_H-M "C 2/M"
_symmetry_group_IT_number 12
_symmetry_cell_setting 'monoclinic'
loop_
_space_group_symop_operation_xyz
x,y,z
-x,y,-z
-x,-y,-z
x,-y,z
1/2+x,1/2+y,z
1/2-x,1/2+y,-z
1/2-x,1/2-y,-z
1/2+x,1/2-y,z
loop_
_atom_site_type_symbol
_atom_site_label
_atom_site_fract_x
_atom_site_fract_y
_atom_site_fract_z
Si Si1 0.332289 0.178442 0.150843
Si Si2 0.440548 0.672151 0.993427
Si Si3 0.227098 0.679691 0.410816
Si Si4 0.120073 0.679300 0.668380
Si Si5 0.553291 0.822140 0.837341
Si Si6 0.697923 0.176632 0.302924
Si Si7 0.910174 0.821544 0.425907
Si Si8 0.027638 0.323597 0.416965
O O1 0.380985 0.235547 0.169191
O O2 0.248986 0.235976 0.220451
O O3 0.332088 0.000000 0.145778
O O4 0.365440 0.244281 0.067654
O O5 0.420253 0.500000 0.994751
O O6 0.475293 0.745161 0.910937
O O7 0.500000 0.690195 0.000000
O O8 0.239999 0.500000 0.406694
O O9 0.295363 0.769696 0.387500
O O10 0.215297 0.732044 0.354324
O O11 0.155142 0.724502 0.498646
O O12 0.117901 0.500000 0.658457
O O13 0.074136 0.724542 0.758147
O O14 0.081390 0.770604 0.645711
O O15 0.542896 0.000000 0.852172
O O16 0.613869 0.214442 0.348718
O O17 0.714854 0.000000 0.285124
O O18 0.986560 0.782072 0.401535
O O19 0.893611 0.000000 0.442407
O O20 0.010745 0.500000 0.416463
O O21 0.000000 0.280688 0.500000
#
# Coordination Sequence:
#
# PCOD8081478 Si02
#       8
#     8   8   8   8   8   8   8   8
#     4  10  18  30  48  73 106 136 170 211 254 304
#     4   9  17  28  45  70 101 137 172 205 249 304
#     4  11  21  36  55  76 104 139 175 216 262 312
#     4  11  22  37  54  76 106 141 178 216 259 312
#     4   9  18  31  48  72 102 137 171 207 254 304
#     4  10  20  33  54  78 103 135 173 213 261 313
#     4  12  25  38  53  76 103 137 179 222 263 308
#     4  10  20  39  59  76  99 134 175 218 268 313
#
# _framework density 17.179762
#
# number of rings (size 3 to 8) (size 9 to 14) (size 15 to 20)
#    0.000    1.750    2.500    3.000    0.000    4.250 
#    0.000    0.000    0.000    0.000    0.000    0.875 
#    0.000    0.000    0.000    0.000    0.000    0.000 
#
# Total GULP energy -396912.891408 kJ/mol
# GULP energy per Si atom -12403.527857 kJ/mol
# Density = 1.714066 g / cm^3
# Si number density = 17.179762 Si / 1000 Ang^3
#
#
#
# Elastic Constant Matrix: (Units=GPa)
#
#
# Indices 1 2 3 4 5 6 
#
# 1 75.6190 26.8415 39.9004 -0.0003 1.1987 -0.0001
# 2 26.8415 52.2041 37.2716 -0.0042 -7.8341 -0.0032
# 3 39.9004 37.2716 124.6891 -0.0008 -19.2474 0.0005
# 4 -0.0003 -0.0042 -0.0008 32.4257 0.0002 -3.8093
# 5 1.1987 -7.8341 -19.2474 0.0002 12.5466 -0.0001
# 6 -0.0001 -0.0032 0.0005 -3.8093 -0.0001 25.1391
#
#
#
# Elastic Compliance Matrix: (Units=1/GPa)
#
#
# Indices 1 2 3 4 5 6 
#
# 1 0.019809 -0.008055 -0.006551 -0.000001 -0.016971 -0.000001
# 2 -0.008055 0.027899 -0.003871 0.000004 0.012252 0.000004
# 3 -0.006551 -0.003871 0.014409 0.000000 0.020313 -0.000001
# 4 -0.000001 0.000004 0.000000 0.031399 0.000001 0.004758
# 5 -0.016971 0.012252 0.020313 0.000001 0.120136 0.000002
# 6 -0.000001 0.000004 -0.000001 0.004758 0.000002 0.040500
#
#
# Mechanical properties :
#
#
# Convention : Reuss Voigt Hill
#
# Bulk Modulus (GPa) = 39.73927 51.17103 45.45515
# Shear Modulus (GPa) = 16.69493 23.92220 20.30856
#
# Velocity S-wave (km/s) = 3.12072 3.73562 3.44193
# Velocity P-wave (km/s) = 6.01389 6.96109 6.50475
#
# Compressibility (1/GPa) = 0.02516402
#
# Stress axis : x y z
#
# Youngs Moduli (GPa) = 50.48241 35.84335 69.40167
#
# Poissons Ratio (x) = 0.28871 0.45464
# Poissons Ratio (y) = 0.40662 0.26864
# Poissons Ratio (z) = 0.33070 0.13874
#
# Static dielectric constant tensor:
#      x y z
#    x 3.010690 0.000000 -0.013480 
#    y 0.000000 3.197290 0.000000 
#    z -0.013480 0.000000 3.334800 
# 
# 
# High freq. dielectric constant tensor:
#      x y z
#    x 1.625240 0.000000 -0.007410 
#    y 0.000000 1.670810 0.000000 
#    z -0.007410 0.000000 1.669930 
# 
# From -- ./inp_files/324174.got.cif
#   From: 2010.06.25/outbox.cif.g09.slc.cpg/sg12_163_cif.got.tgz:324174.got - 2010.06.28 00:19:55.
