data_PCOD8081504
_publ_section_title
;
Structure prediction by ZEFSAII (Michael W. Deem and Ramdas Pophale) SiO2 
 PCOD8081504
Probable space group: C 2/M
;
_chemical_formula_sum "Si O2"
_cell_formula_units_Z 56
_cell_length_a 32.039254
_cell_length_b 13.187647
_cell_length_c 12.176119
_cell_angle_alpha 90.000000
_cell_angle_beta 137.035354
_cell_angle_gamma 90.000000
_cell_volume 3506.342805
_symmetry_space_group_name_H-M "C 2/M"
_symmetry_group_IT_number 12
_symmetry_cell_setting 'monoclinic'
loop_
_space_group_symop_operation_xyz
x,y,z
-x,y,-z
-x,-y,-z
x,-y,z
1/2+x,1/2+y,z
1/2-x,1/2+y,-z
1/2-x,1/2-y,-z
1/2+x,1/2-y,z
loop_
_atom_site_type_symbol
_atom_site_label
_atom_site_fract_x
_atom_site_fract_y
_atom_site_fract_z
Si Si1 0.794998 0.892182 0.785282
Si Si2 0.484507 0.881842 0.090957
Si Si3 0.147512 0.680112 0.109661
Si Si4 0.207050 0.343419 0.440949
Si Si5 0.887572 0.379957 0.567403
Si Si6 0.299841 0.810808 0.225864
Si Si7 0.726941 0.116452 0.062303
O O1 0.841891 0.800837 0.855882
O O2 0.751370 0.916108 0.596011
O O3 0.753612 0.866782 0.810775
O O4 0.829351 0.000000 0.873471
O O5 0.540373 0.859293 0.281280
O O6 0.470339 0.000000 0.052734
O O7 0.500000 0.837933 0.000000
O O8 0.425218 0.829884 0.028549
O O9 0.180611 0.617886 0.273140
O O10 0.173787 0.634932 0.048548
O O11 0.250000 0.250000 0.500000
O O12 0.147796 0.321064 0.402817
O O13 0.873361 0.500000 0.546991
O O14 0.865221 0.331994 0.409126
O O15 0.285300 0.689901 0.195529
O O16 0.303784 0.857387 0.112820
O O17 0.749391 0.000000 0.109580
#
# Coordination Sequence:
#
# PCOD8081504 Si02
#       7
#     8   8   8   8   8   8   8
#     4   9  17  29  48  68  89 120 156 188 227 280
#     4  10  19  30  47  68  90 123 160 191 228 275
#     4  10  19  30  44  69  96 119 150 195 235 269
#     4   9  16  26  42  67  91 115 145 187 234 272
#     4  10  18  30  49  67  89 123 160 190 221 274
#     4   9  18  32  48  70  95 124 156 184 228 280
#     4  10  19  30  48  71  99 124 147 189 237 278
#
# _framework density 15.971056000000001
#
# number of rings (size 3 to 8) (size 9 to 14) (size 15 to 20)
#    0.000    2.429    1.429    3.857    0.000    1.714 
#    0.000    0.714    0.000    3.857    0.000    0.000 
#    0.000    6.857    0.000    0.000    0.000    0.000 
#
# Total GULP energy -346911.759763 kJ/mol
# GULP energy per Si atom -12389.705706 kJ/mol
# Density = 1.593471 g / cm^3
# Si number density = 15.971056 Si / 1000 Ang^3
#
#
#
# Elastic Constant Matrix: (Units=GPa)
#
#
# Indices 1 2 3 4 5 6 
#
# 1 86.0766 33.6198 60.2994 0.0000 -7.8448 0.0000
# 2 33.6198 99.7392 42.4474 0.0000 1.9085 0.0000
# 3 60.2994 42.4474 117.5361 0.0000 -2.7872 0.0000
# 4 0.0000 0.0000 0.0000 15.1506 0.0000 5.6931
# 5 -7.8448 1.9085 -2.7872 0.0000 31.3809 0.0000
# 6 0.0000 0.0000 0.0000 5.6931 0.0000 7.1033
#
#
#
# Elastic Compliance Matrix: (Units=1/GPa)
#
#
# Indices 1 2 3 4 5 6 
#
# 1 0.019235 -0.002844 -0.008741 0.000000 0.004205 0.000000
# 2 -0.002844 0.012306 -0.003026 0.000000 -0.001728 0.000000
# 3 -0.008741 -0.003026 0.014068 0.000000 -0.000752 0.000000
# 4 0.000000 0.000000 0.000000 0.094448 0.000000 -0.075697
# 5 0.004205 -0.001728 -0.000752 0.000000 0.032956 0.000000
# 6 0.000000 0.000000 0.000000 -0.075697 0.000000 0.201447
#
#
# Mechanical properties :
#
#
# Convention : Reuss Voigt Hill
#
# Bulk Modulus (GPa) = 61.02909 64.00945 62.51927
# Shear Modulus (GPa) = 12.22062 21.85933 17.03997
#
# Velocity S-wave (km/s) = 2.76918 3.70359 3.26993
# Velocity P-wave (km/s) = 6.96561 7.64553 7.31348
#
# Compressibility (1/GPa) = 0.01638563
#
# Stress axis : x y z
#
# Youngs Moduli (GPa) = 51.98780 81.26310 71.08514
#
# Poissons Ratio (x) = 0.23112 0.62139
# Poissons Ratio (y) = 0.14786 0.21511
# Poissons Ratio (z) = 0.45445 0.24591
#
# Static dielectric constant tensor:
#      x y z
#    x 2.984100 0.000000 -0.233280 
#    y 0.000000 2.962400 0.000000 
#    z -0.233280 0.000000 3.187380 
# 
# 
# High freq. dielectric constant tensor:
#      x y z
#    x 1.603430 0.000000 -0.018790 
#    y 0.000000 1.603710 0.000000 
#    z -0.018790 0.000000 1.607110 
# 
# From -- ./inp_files/189225.got.cif
#   From: 2010.06.25/outbox.cif.g09.slc.cpg/sg12_95_cif.got.tgz:189225.got - 2010.06.28 00:19:55.
