data_PCOD8081357
_publ_section_title
;
Structure prediction by ZEFSAII (Michael W. Deem and Ramdas Pophale) SiO2 
 PCOD8081357
Probable space group: C 2/M
;
_chemical_formula_sum "Si O2"
_cell_formula_units_Z 48
_cell_length_a 31.070814
_cell_length_b 7.753840
_cell_length_c 11.427191
_cell_angle_alpha 90.000000
_cell_angle_beta 101.133361
_cell_angle_gamma 90.000000
_cell_volume 2701.206691
_symmetry_space_group_name_H-M "C 2/M"
_symmetry_group_IT_number 12
_symmetry_cell_setting 'monoclinic'
loop_
_space_group_symop_operation_xyz
x,y,z
-x,y,-z
-x,-y,-z
x,-y,z
1/2+x,1/2+y,z
1/2-x,1/2+y,-z
1/2-x,1/2-y,-z
1/2+x,1/2-y,z
loop_
_atom_site_type_symbol
_atom_site_label
_atom_site_fract_x
_atom_site_fract_y
_atom_site_fract_z
Si Si1 0.101704 0.691055 0.224610
Si Si2 0.683528 0.697464 0.400448
Si Si3 0.708726 0.798226 0.901214
Si Si4 0.381718 0.799512 0.034530
Si Si5 0.041566 0.000000 0.176427
Si Si6 0.055220 0.000000 0.908584
Si Si7 0.275392 0.205176 0.348254
O O1 0.080514 0.500000 0.218354
O O2 0.141766 0.695384 0.336205
O O3 0.064582 0.829000 0.240467
O O4 0.120620 0.729273 0.105634
O O5 0.675211 0.500000 0.362180
O O6 0.689010 0.718754 0.542856
O O7 0.726902 0.770212 0.358692
O O8 0.664478 0.732268 0.939082
O O9 0.713507 0.718471 0.773859
O O10 0.706257 0.000000 0.886362
O O11 0.750000 0.750000 0.000000
O O12 0.418640 0.675340 0.110204
O O13 0.391739 0.000000 0.071494
O O14 0.990472 0.000000 0.187117
O O15 0.045090 0.000000 0.039698
O O16 0.277362 0.000000 0.354397
#
# Coordination Sequence:
#
# PCOD8081357 Si02
#       7
#     8   8   8   8   4   4   8
#     4  10  18  30  50  73 101 130 160 203 251 296
#     4  10  18  30  47  69  99 130 167 209 244 292
#     4  10  20  32  47  70  99 131 171 206 236 290
#     4   9  19  32  48  73 100 133 167 197 246 297
#     4   9  18  32  48  77  99 127 171 200 251 304
#     4   9  18  32  52  69 103 135 159 210 247 297
#     4   9  19  32  46  66  96 135 169 202 247 286
#
# _framework density 17.769836000000002
#
# number of rings (size 3 to 8) (size 9 to 14) (size 15 to 20)
#    0.000    2.500    0.833    1.500    1.167    2.000 
#    0.000    3.333    0.000    0.000    0.000    2.333 
#    0.000    5.333    0.000    0.000    0.000    0.000 
#
# Total GULP energy -297574.971724 kJ/mol
# GULP energy per Si atom -12398.957155 kJ/mol
# Density = 1.772939 g / cm^3
# Si number density = 17.769836 Si / 1000 Ang^3
#
#
#
# Elastic Constant Matrix: (Units=GPa)
#
#
# Indices 1 2 3 4 5 6 
#
# 1 123.4968 50.0813 54.4668 0.0000 21.8083 0.0000
# 2 50.0813 82.8720 28.7624 0.0000 12.4774 0.0000
# 3 54.4668 28.7624 91.7055 0.0000 7.7208 0.0000
# 4 0.0000 0.0000 0.0000 19.6247 0.0000 5.1881
# 5 21.8083 12.4774 7.7208 0.0000 26.0450 0.0000
# 6 0.0000 0.0000 0.0000 5.1881 0.0000 23.0724
#
#
#
# Elastic Compliance Matrix: (Units=1/GPa)
#
#
# Indices 1 2 3 4 5 6 
#
# 1 0.014356 -0.005379 -0.006199 0.000000 -0.007606 0.000000
# 2 -0.005379 0.016328 -0.001689 0.000000 -0.002818 0.000000
# 3 -0.006199 -0.001689 0.014985 0.000000 0.001558 0.000000
# 4 0.000000 0.000000 0.000000 0.054177 0.000000 -0.012182
# 5 -0.007606 -0.002818 0.001558 0.000000 0.045652 0.000000
# 6 0.000000 0.000000 0.000000 -0.012182 0.000000 0.046081
#
#
# Mechanical properties :
#
#
# Convention : Reuss Voigt Hill
#
# Bulk Modulus (GPa) = 52.26156 62.74394 57.50275
# Shear Modulus (GPa) = 22.27267 24.73268 23.50268
#
# Velocity S-wave (km/s) = 3.54418 3.73478 3.64072
# Velocity P-wave (km/s) = 6.79870 7.34738 7.07836
#
# Compressibility (1/GPa) = 0.01913452
#
# Stress axis : x y z
#
# Youngs Moduli (GPa) = 69.65837 61.24510 66.73392
#
# Poissons Ratio (x) = 0.32943 0.41368
# Poissons Ratio (y) = 0.37468 0.11272
# Poissons Ratio (z) = 0.43181 0.10345
#
# Static dielectric constant tensor:
#      x y z
#    x 3.334370 0.000000 -0.013620 
#    y 0.000000 3.364480 0.000000 
#    z -0.013620 0.000000 3.191390 
# 
# 
# High freq. dielectric constant tensor:
#      x y z
#    x 1.664070 0.000000 0.011670 
#    y 0.000000 1.697040 0.000000 
#    z 0.011670 0.000000 1.664000 
# 
# From -- ./inp_files/185985.got.cif
#   From: 2010.06.25/outbox.cif.g09.slc.cpg/sg12_93_cif.got.tgz:185985.got - 2010.06.28 00:19:55.
