data_PCOD8081248
_publ_section_title
;
Structure prediction by ZEFSAII (Michael W. Deem and Ramdas Pophale) SiO2 
 PCOD8081248
Probable space group: C 2/M
;
_chemical_formula_sum "Si O2"
_cell_formula_units_Z 64
_cell_length_a 30.317455
_cell_length_b 8.726419
_cell_length_c 30.920877
_cell_angle_alpha 90.000000
_cell_angle_beta 151.212114
_cell_angle_gamma 90.000000
_cell_volume 3939.477059
_symmetry_space_group_name_H-M "C 2/M"
_symmetry_group_IT_number 12
_symmetry_cell_setting 'monoclinic'
loop_
_space_group_symop_operation_xyz
x,y,z
-x,y,-z
-x,-y,-z
x,-y,z
1/2+x,1/2+y,z
1/2-x,1/2+y,-z
1/2-x,1/2-y,-z
1/2+x,1/2-y,z
loop_
_atom_site_type_symbol
_atom_site_label
_atom_site_fract_x
_atom_site_fract_y
_atom_site_fract_z
Si Si1 0.575720 0.820290 0.118301
Si Si2 0.616103 0.678098 0.239669
Si Si3 0.890893 0.319370 0.610465
Si Si4 0.088185 0.318062 0.798777
Si Si5 0.425125 0.680679 0.118845
Si Si6 0.724006 0.318272 0.077275
Si Si7 0.117066 0.818728 0.067541
Si Si8 0.276292 0.321040 0.586394
O O1 0.630026 0.778148 0.208574
O O2 0.636193 0.768636 0.128988
O O3 0.555972 0.000000 0.098816
O O4 0.480934 0.727443 0.036391
O O5 0.612816 0.500000 0.223929
O O6 0.523799 0.727097 0.184938
O O7 0.702455 0.715064 0.345202
O O8 0.892949 0.500000 0.614505
O O9 0.826573 0.265447 0.514972
O O10 0.850846 0.262108 0.621184
O O11 0.995046 0.257799 0.695308
O O12 0.091464 0.500000 0.802059
O O13 0.092893 0.262535 0.851667
O O14 0.175060 0.252763 0.846729
O O15 0.418438 0.500000 0.120326
O O16 0.348605 0.743960 0.020086
O O17 0.722250 0.500000 0.073473
O O18 0.694912 0.266264 0.100459
O O19 0.117791 0.000000 0.076081
O O20 0.288296 0.500000 0.587337
#
# Coordination Sequence:
#
# PCOD8081248 Si02
#       8
#     8   8   8   8   8   8   8   8
#     4  11  21  31  46  70  95 113 142 190 236 267
#     4  10  18  30  47  65  88 123 156 181 215 269
#     4   9  17  28  43  65  90 116 146 186 230 262
#     4  10  19  30  44  65  92 120 151 187 226 257
#     4  10  18  30  44  62  89 123 160 185 207 253
#     4   9  18  31  46  63  87 121 157 185 212 258
#     4  10  18  33  51  65  87 122 156 181 216 269
#     4   9  17  29  45  63  87 118 152 184 218 266
#
# _framework density 16.245811
#
# number of rings (size 3 to 8) (size 9 to 14) (size 15 to 20)
#    0.000    2.250    2.500    2.625    0.000    1.000 
#    0.000    1.250    0.000    0.000    0.000    0.875 
#    0.000    7.000    0.000    0.000    0.000    0.000 
#
# Total GULP energy -396679.079738 kJ/mol
# GULP energy per Si atom -12396.221242 kJ/mol
# Density = 1.620883 g / cm^3
# Si number density = 16.245811 Si / 1000 Ang^3
#
#
#
# Elastic Constant Matrix: (Units=GPa)
#
#
# Indices 1 2 3 4 5 6 
#
# 1 115.4959 18.3214 64.2407 0.0000 -5.3903 -0.0001
# 2 18.3214 21.9576 15.5824 0.0003 -0.3501 0.0019
# 3 64.2407 15.5824 111.1826 -0.0001 -1.3845 0.0000
# 4 0.0000 0.0003 -0.0001 14.9146 0.0000 -5.6145
# 5 -5.3903 -0.3501 -1.3845 0.0000 21.4379 0.0001
# 6 -0.0001 0.0019 0.0000 -5.6145 0.0001 21.1763
#
#
#
# Elastic Compliance Matrix: (Units=1/GPa)
#
#
# Indices 1 2 3 4 5 6 
#
# 1 0.013692 -0.006429 -0.006974 0.000000 0.002887 0.000001
# 2 -0.006429 0.053594 -0.003809 -0.000003 -0.000987 -0.000006
# 3 -0.006974 -0.003809 0.013546 0.000000 -0.000941 0.000000
# 4 0.000000 -0.000003 0.000000 0.074482 0.000000 0.019747
# 5 0.002887 -0.000987 -0.000941 0.000000 0.047295 0.000000
# 6 0.000001 -0.000006 0.000000 0.019747 0.000000 0.052458
#
#
# Mechanical properties :
#
#
# Convention : Reuss Voigt Hill
#
# Bulk Modulus (GPa) = 21.54817 49.43611 35.49214
# Shear Modulus (GPa) = 16.39548 21.53852 18.96700
#
# Velocity S-wave (km/s) = 3.18026 3.64509 3.42058
# Velocity P-wave (km/s) = 5.17475 6.94346 6.12330
#
# Compressibility (1/GPa) = 0.04640764
#
# Stress axis : x y z
#
# Youngs Moduli (GPa) = 73.03453 18.65875 73.82278
#
# Poissons Ratio (x) = 0.11996 0.51486
# Poissons Ratio (y) = 0.46957 0.28117
# Poissons Ratio (z) = 0.50936 0.07107
#
# Static dielectric constant tensor:
#      x y z
#    x 3.420280 0.000000 0.536970 
#    y 0.000000 2.926420 -0.000010 
#    z 0.536970 -0.000010 4.344600 
# 
# 
# High freq. dielectric constant tensor:
#      x y z
#    x 1.606910 0.000000 -0.010880 
#    y 0.000000 1.613850 0.000000 
#    z -0.010880 0.000000 1.616890 
# 
# From -- ./inp_files/384539.got.cif
#   From: 2010.06.25/outbox.cif.g09.slc.cpg/sg12_193_cif.got.tgz:384539.got - 2010.06.28 00:19:55.
