data_PCOD8081255
_publ_section_title
;
Structure prediction by ZEFSAII (Michael W. Deem and Ramdas Pophale) SiO2 
 PCOD8081255
Probable space group: C 2/M
;
_chemical_formula_sum "Si O2"
_cell_formula_units_Z 56
_cell_length_a 27.928105
_cell_length_b 9.075964
_cell_length_c 14.463269
_cell_angle_alpha 90.000000
_cell_angle_beta 78.152179
_cell_angle_gamma 90.000000
_cell_volume 3587.968931
_symmetry_space_group_name_H-M "C 2/M"
_symmetry_group_IT_number 12
_symmetry_cell_setting 'monoclinic'
loop_
_space_group_symop_operation_xyz
x,y,z
-x,y,-z
-x,-y,-z
x,-y,z
1/2+x,1/2+y,z
1/2-x,1/2+y,-z
1/2-x,1/2-y,-z
1/2+x,1/2-y,z
loop_
_atom_site_type_symbol
_atom_site_label
_atom_site_fract_x
_atom_site_fract_y
_atom_site_fract_z
Si Si1 0.852227 0.327244 0.850394
Si Si2 0.886730 0.329038 0.525001
Si Si3 0.216514 0.825503 0.437923
Si Si4 0.973936 0.166046 0.412021
Si Si5 0.792158 0.329418 0.037118
Si Si6 0.733490 0.671618 0.225601
Si Si7 0.439534 0.169396 0.697719
O O1 0.847527 0.500000 0.833023
O O2 0.812178 0.253553 0.801036
O O3 0.906726 0.278048 0.798393
O O4 0.843139 0.287748 0.963863
O O5 0.877046 0.500000 0.506631
O O6 0.837766 0.236709 0.532561
O O7 0.925431 0.265718 0.435325
O O8 0.906843 0.305891 0.619845
O O9 0.250000 0.750000 0.500000
O O10 0.239814 0.782133 0.329379
O O11 0.215300 0.000000 0.454007
O O12 0.000000 0.168592 0.500000
O O13 0.011437 0.233237 0.322165
O O14 0.960155 0.000000 0.388150
O O15 0.782875 0.500000 0.025838
O O16 0.784683 0.290969 0.149301
O O17 0.750000 0.250000 0.000000
O O18 0.721036 0.500000 0.223771
O O19 0.455897 0.000000 0.698920
#
# Coordination Sequence:
#
# PCOD8081255 Si02
#       7
#     8   8   8   8   8   8   8
#     4   9  15  24  40  61  85 112 140 167 200 248
#     4  10  18  30  45  59  81 110 141 177 215 251
#     4  11  22  33  45  61  82 110 148 186 218 251
#     4   9  17  27  40  59  82 110 142 172 205 247
#     4   8  14  24  38  57  80 107 137 167 202 245
#     4   9  17  28  41  57  80 109 140 176 213 246
#     4   9  16  25  39  61  86 113 141 168 202 246
#
# _framework density 15.607716999999999
#
# number of rings (size 3 to 8) (size 9 to 14) (size 15 to 20)
#    0.000    2.714    1.429    1.286    0.000    3.429 
#    0.000    0.000    0.000    0.000    0.000    0.000 
#    0.000    1.143    0.000   13.429    0.000    2.571 
#
# Total GULP energy -346866.927518 kJ/mol
# GULP energy per Si atom -12388.104554 kJ/mol
# Density = 1.557219 g / cm^3
# Si number density = 15.607717 Si / 1000 Ang^3
#
#
#
# Elastic Constant Matrix: (Units=GPa)
#
#
# Indices 1 2 3 4 5 6 
#
# 1 59.7806 35.1355 60.0090 0.0000 -26.7530 0.0000
# 2 35.1355 63.4324 41.5083 0.0000 -12.2875 0.0000
# 3 60.0090 41.5083 118.3276 0.0000 -38.0044 0.0000
# 4 0.0000 0.0000 0.0000 15.6290 0.0000 -5.4519
# 5 -26.7530 -12.2875 -38.0044 0.0000 30.2668 0.0000
# 6 0.0000 0.0000 0.0000 -5.4519 0.0000 24.8420
#
#
#
# Elastic Compliance Matrix: (Units=1/GPa)
#
#
# Indices 1 2 3 4 5 6 
#
# 1 0.045595 -0.013561 -0.012050 0.000000 0.019666 0.000000
# 2 -0.013561 0.024520 -0.003983 0.000000 -0.007033 0.000000
# 3 -0.012050 -0.003983 0.020142 0.000000 0.013024 0.000000
# 4 0.000000 0.000000 0.000000 0.069288 0.000000 0.015206
# 5 0.019666 -0.007033 0.013024 0.000000 0.063920 0.000000
# 6 0.000000 0.000000 0.000000 0.015206 0.000000 0.043592
#
#
# Mechanical properties :
#
#
# Convention : Reuss Voigt Hill
#
# Bulk Modulus (GPa) = 32.18553 57.20512 44.69533
# Shear Modulus (GPa) = 14.85438 21.14006 17.99722
#
# Velocity S-wave (km/s) = 3.08836 3.68429 3.39941
# Velocity P-wave (km/s) = 5.77786 7.40473 6.64130
#
# Compressibility (1/GPa) = 0.03106986
#
# Stress axis : x y z
#
# Youngs Moduli (GPa) = 21.93236 40.78270 49.64684
#
# Poissons Ratio (x) = 0.55304 0.59823
# Poissons Ratio (y) = 0.29742 0.19776
# Poissons Ratio (z) = 0.26428 0.16245
#
# Static dielectric constant tensor:
#      x y z
#    x 2.829410 0.000000 -0.515230 
#    y 0.000000 3.079750 0.000000 
#    z -0.515230 0.000000 3.439080 
# 
# 
# High freq. dielectric constant tensor:
#      x y z
#    x 1.557410 0.000000 -0.049950 
#    y 0.000000 1.609300 0.000000 
#    z -0.049950 0.000000 1.587970 
# 
# From -- ./inp_files/247826.got.cif
#   From: 2010.06.25/outbox.cif.g09.slc.cpg/sg12_124_cif.got.tgz:247826.got - 2010.06.28 00:19:55.
