data_PCOD8081145
_publ_section_title
;
Structure prediction by ZEFSAII (Michael W. Deem and Ramdas Pophale) SiO2 
 PCOD8081145
Probable space group: C 2/M
;
_chemical_formula_sum "Si O2"
_cell_formula_units_Z 56
_cell_length_a 19.974094
_cell_length_b 8.692993
_cell_length_c 21.456073
_cell_angle_alpha 90.000000
_cell_angle_beta 126.469648
_cell_angle_gamma 90.000000
_cell_volume 2995.956645
_symmetry_space_group_name_H-M "C 2/M"
_symmetry_group_IT_number 12
_symmetry_cell_setting 'monoclinic'
loop_
_space_group_symop_operation_xyz
x,y,z
-x,y,-z
-x,-y,-z
x,-y,z
1/2+x,1/2+y,z
1/2-x,1/2+y,-z
1/2-x,1/2-y,-z
1/2+x,1/2-y,z
loop_
_atom_site_type_symbol
_atom_site_label
_atom_site_fract_x
_atom_site_fract_y
_atom_site_fract_z
Si Si1 0.410458 0.318471 0.459759
Si Si2 0.655305 0.820528 0.125047
Si Si3 0.753107 0.177487 0.300851
Si Si4 0.609421 0.320476 0.292633
Si Si5 0.491199 0.317044 0.878085
Si Si6 0.179527 0.182092 0.006579
Si Si7 0.159418 0.816884 0.451063
O O1 0.500000 0.240777 0.500000
O O2 0.419276 0.500000 0.471497
O O3 0.349376 0.279621 0.367841
O O4 0.380067 0.249755 0.508239
O O5 0.727975 0.789294 0.215800
O O6 0.566343 0.753112 0.098674
O O7 0.691211 0.739183 0.083539
O O8 0.642601 0.000000 0.104833
O O9 0.700768 0.282592 0.318216
O O10 0.735270 0.000000 0.308032
O O11 0.595354 0.500000 0.284784
O O12 0.540888 0.251616 0.206730
O O13 0.604340 0.258958 0.360937
O O14 0.483192 0.500000 0.879586
O O15 0.586778 0.263297 0.935476
O O16 0.187639 0.000000 0.008370
O O17 0.250000 0.250000 0.000000
O O18 0.250000 0.750000 0.500000
O O19 0.165153 0.000000 0.453557
#
# Coordination Sequence:
#
# PCOD8081145 Si02
#       7
#     8   8   8   8   8   8   8
#     4   9  17  30  47  72 102 135 173 212 251 296
#     4  10  20  34  56  84 107 136 176 217 260 310
#     4   9  17  31  51  76 103 133 169 210 253 298
#     4   9  17  30  50  78 102 128 167 212 258 300
#     4   9  19  36  56  79 106 137 174 217 263 311
#     4  11  23  39  57  78 108 141 173 213 263 315
#     4  10  18  29  50  75 100 132 170 210 253 299
#
# _framework density 18.691860999999999
#
# number of rings (size 3 to 8) (size 9 to 14) (size 15 to 20)
#    0.000    2.429    1.429    1.286    0.000    3.429 
#    2.571    0.000    0.000    1.714    0.000    0.000 
#    0.000    0.000    0.000    0.000    0.000    0.000 
#
# Total GULP energy -346977.144671 kJ/mol
# GULP energy per Si atom -12392.040881 kJ/mol
# Density = 1.864932 g / cm^3
# Si number density = 18.691861 Si / 1000 Ang^3
#
#
#
# Elastic Constant Matrix: (Units=GPa)
#
#
# Indices 1 2 3 4 5 6 
#
# 1 148.1964 23.5243 86.1647 0.0000 -2.0239 0.0000
# 2 23.5243 26.4075 26.4322 0.0000 -5.2159 0.0000
# 3 86.1647 26.4322 148.0413 0.0000 -4.3099 0.0000
# 4 0.0000 0.0000 0.0000 20.1431 0.0000 -1.4001
# 5 -2.0239 -5.2159 -4.3099 0.0000 29.7514 0.0000
# 6 0.0000 0.0000 0.0000 -1.4001 0.0000 25.7134
#
#
#
# Elastic Compliance Matrix: (Units=1/GPa)
#
#
# Indices 1 2 3 4 5 6 
#
# 1 0.010545 -0.004120 -0.005425 0.000000 -0.000791 0.000000
# 2 -0.004120 0.049182 -0.006166 0.000000 0.007449 0.000000
# 3 -0.005425 -0.006166 0.011018 0.000000 0.000146 0.000000
# 4 0.000000 0.000000 0.000000 0.049834 0.000000 0.002713
# 5 -0.000791 0.007449 0.000146 0.000000 0.034885 0.000000
# 6 0.000000 0.000000 0.000000 0.002713 0.000000 0.039038
#
#
# Mechanical properties :
#
#
# Convention : Reuss Voigt Hill
#
# Bulk Modulus (GPa) = 25.43132 66.09862 45.76497
# Shear Modulus (GPa) = 20.91778 27.55651 24.23714
#
# Velocity S-wave (km/s) = 3.34890 3.84376 3.60483
# Velocity P-wave (km/s) = 5.34683 7.42552 6.47020
#
# Compressibility (1/GPa) = 0.03932160
#
# Stress axis : x y z
#
# Youngs Moduli (GPa) = 94.82933 20.33285 90.76313
#
# Poissons Ratio (x) = 0.08377 0.49240
# Poissons Ratio (y) = 0.39069 0.55968
# Poissons Ratio (z) = 0.51446 0.12538
#
# Static dielectric constant tensor:
#      x y z
#    x 3.699270 0.000000 -0.118340 
#    y 0.000000 3.266180 0.000000 
#    z -0.118340 0.000000 3.817890 
# 
# 
# High freq. dielectric constant tensor:
#      x y z
#    x 1.704590 0.000000 -0.003590 
#    y 0.000000 1.705080 0.000000 
#    z -0.003590 0.000000 1.748590 
# 
# From -- ./inp_files/314424.got.cif
#   From: 2010.06.25/outbox.cif.g09.slc.cpg/sg12_158_cif.got.tgz:314424.got - 2010.06.28 00:19:55.
