data_PCOD8081412
_publ_section_title
;
Structure prediction by ZEFSAII (Michael W. Deem and Ramdas Pophale) SiO2 
 PCOD8081412
Probable space group: C 2/M
;
_chemical_formula_sum "Si O2"
_cell_formula_units_Z 56
_cell_length_a 5.219908
_cell_length_b 25.879544
_cell_length_c 24.668200
_cell_angle_alpha 90.000000
_cell_angle_beta 71.678475
_cell_angle_gamma 90.000000
_cell_volume 3163.470713
_symmetry_space_group_name_H-M "C 2/M"
_symmetry_group_IT_number 12
_symmetry_cell_setting 'monoclinic'
loop_
_space_group_symop_operation_xyz
x,y,z
-x,y,-z
-x,-y,-z
x,-y,z
1/2+x,1/2+y,z
1/2-x,1/2+y,-z
1/2-x,1/2-y,-z
1/2+x,1/2-y,z
loop_
_atom_site_type_symbol
_atom_site_label
_atom_site_fract_x
_atom_site_fract_y
_atom_site_fract_z
Si Si1 0.347356 0.393819 0.935139
Si Si2 0.438783 0.715684 0.888859
Si Si3 0.322408 0.216131 0.642755
Si Si4 0.955034 0.781169 0.235329
Si Si5 0.657046 0.938910 0.061911
Si Si6 0.100367 0.942118 0.432136
Si Si7 0.899682 0.382082 0.567822
O O1 0.353292 0.331741 0.932561
O O2 0.641868 0.418971 0.904387
O O3 0.142968 0.418352 0.904359
O O4 0.249003 0.411370 0.000611
O O5 0.692659 0.744249 0.899230
O O6 0.517256 0.690571 0.824768
O O7 0.614939 0.240093 0.636064
O O8 0.198052 0.188685 0.705620
O O9 0.356998 0.174789 0.593491
O O10 0.755870 0.732514 0.235971
O O11 0.666360 0.000000 0.054250
O O12 0.383573 0.912288 0.409973
O O13 0.000000 0.944490 0.500000
O O14 0.880695 0.913014 0.410111
O O15 0.139692 0.000000 0.406862
O O16 0.000000 0.376155 0.500000
#
# Coordination Sequence:
#
# PCOD8081412 Si02
#       7
#     8   8   8   8   8   8   8
#     4  10  18  30  48  69  89 120 154 180 223 267
#     4  10  19  32  47  68  95 119 148 188 225 265
#     4  10  19  31  46  66  92 122 152 180 217 269
#     4   8  16  30  47  63  84 116 153 188 218 254
#     4  10  19  33  48  67  93 120 155 192 218 255
#     4   9  17  30  46  64  86 113 148 187 220 256
#     4  10  19  29  44  68  93 118 150 184 223 269
#
# _framework density 17.702076000000002
#
# number of rings (size 3 to 8) (size 9 to 14) (size 15 to 20)
#    0.000    2.429    0.000    4.286    0.000    2.286 
#    0.000    8.571    0.000    0.000    0.000    8.000 
#    0.000    0.000    0.000    0.000    0.000    0.000 
#
# Total GULP energy -346910.854559 kJ/mol
# GULP energy per Si atom -12389.673377 kJ/mol
# Density = 1.766179 g / cm^3
# Si number density = 17.702076 Si / 1000 Ang^3
#
#
#
# Elastic Constant Matrix: (Units=GPa)
#
#
# Indices 1 2 3 4 5 6 
#
# 1 159.1566 43.7000 14.8279 0.0000 0.2309 0.0000
# 2 43.7000 106.8413 34.8052 0.0000 -1.9073 0.0000
# 3 14.8279 34.8052 25.1054 0.0000 -0.7226 0.0000
# 4 0.0000 0.0000 0.0000 5.4118 0.0000 1.3173
# 5 0.2309 -1.9073 -0.7226 0.0000 10.6902 0.0000
# 6 0.0000 0.0000 0.0000 1.3173 0.0000 30.3221
#
#
#
# Elastic Compliance Matrix: (Units=1/GPa)
#
#
# Indices 1 2 3 4 5 6 
#
# 1 0.007084 -0.002809 -0.000310 0.000000 -0.000675 0.000000
# 2 -0.002809 0.018204 -0.023529 0.000000 0.001718 0.000000
# 3 -0.000310 -0.023529 0.072655 0.000000 0.000720 0.000000
# 4 0.000000 0.000000 0.000000 0.186755 0.000000 -0.008113
# 5 -0.000675 0.001718 0.000720 0.000000 0.093913 0.000000
# 6 0.000000 0.000000 0.000000 -0.008113 0.000000 0.033332
#
#
# Mechanical properties :
#
#
# Convention : Reuss Voigt Hill
#
# Bulk Modulus (GPa) = 22.39702 53.08550 37.74126
# Shear Modulus (GPa) = 10.41404 22.46952 16.44178
#
# Velocity S-wave (km/s) = 2.42811 3.56661 3.05094
# Velocity P-wave (km/s) = 4.53218 6.85670 5.81184
#
# Compressibility (1/GPa) = 0.04464880
#
# Stress axis : x y z
#
# Youngs Moduli (GPa) = 141.16036 54.93251 13.76360
#
# Poissons Ratio (x) = 0.15429 0.00426
# Poissons Ratio (y) = 0.39648 0.32385
# Poissons Ratio (z) = 0.04370 1.29251
#
# Static dielectric constant tensor:
#      x y z
#    x -3.093170 0.000000 -0.046250 
#    y 0.000000 3.043970 0.000000 
#    z -0.046250 0.000000 3.073050 
# 
# 
# High freq. dielectric constant tensor:
#      x y z
#    x 1.724510 0.000000 0.001510 
#    y 0.000000 1.659660 0.000000 
#    z 0.001510 0.000000 1.635680 
# 
# From -- ./inp_files/331255.got.cif
#   From: 2010.06.25/outbox.cif.g09.slc.cpg/sg12_166_cif.got.tgz:331255.got - 2010.06.28 00:19:55.
