data_PCOD8081740
_publ_section_title
;
Structure prediction by ZEFSAII (Michael W. Deem and Ramdas Pophale) SiO2 
 PCOD8081740
Probable space group: C 2/M
;
_chemical_formula_sum "Si O2"
_cell_formula_units_Z 56
_cell_length_a 16.049896
_cell_length_b 26.962192
_cell_length_c 8.749273
_cell_angle_alpha 90.000000
_cell_angle_beta 132.413163
_cell_angle_gamma 90.000000
_cell_volume 2795.326207
_symmetry_space_group_name_H-M "C 2/M"
_symmetry_group_IT_number 12
_symmetry_cell_setting 'monoclinic'
loop_
_space_group_symop_operation_xyz
x,y,z
-x,y,-z
-x,-y,-z
x,-y,z
1/2+x,1/2+y,z
1/2-x,1/2+y,-z
1/2-x,1/2-y,-z
1/2+x,1/2-y,z
loop_
_atom_site_type_symbol
_atom_site_label
_atom_site_fract_x
_atom_site_fract_y
_atom_site_fract_z
Si Si1 0.395571 0.055185 0.581448
Si Si2 0.655595 0.946361 0.816106
Si Si3 0.389705 0.308087 0.434825
Si Si4 0.068393 0.341143 0.291978
Si Si5 0.192420 0.648379 0.021250
Si Si6 0.890582 0.234527 0.769028
Si Si7 0.675442 0.795226 0.697431
O O1 0.320740 0.061959 0.335572
O O2 0.523732 0.057365 0.686744
O O3 0.376663 0.103365 0.671164
O O4 0.370337 0.000000 0.624573
O O5 0.719492 0.907175 0.000448
O O6 0.702692 0.000000 0.922043
O O7 0.500000 0.335570 0.500000
O O8 0.400606 0.296994 0.627077
O O9 0.383635 0.256443 0.333890
O O10 0.277376 0.340257 0.264319
O O11 0.123240 0.294248 0.272135
O O12 0.086979 0.330925 0.497100
O O13 0.936211 0.343031 0.082165
O O14 0.217934 0.682462 0.907385
O O15 0.780947 0.216362 0.719712
O O16 0.000000 0.221309 0.000000
#
# Coordination Sequence:
#
# PCOD8081740 Si02
#       7
#     8   8   8   8   8   8   8
#     4   8  13  24  44  73 108 135 162 202 246 301
#     4   8  14  25  45  76 108 132 160 204 256 303
#     4  11  22  35  50  72 100 134 180 220 255 299
#     4  10  18  30  50  77 107 141 172 204 253 307
#     4  11  19  31  54  79 105 137 172 214 256 304
#     4  11  23  38  51  69 102 144 180 216 258 305
#     4  11  20  33  50  75 106 139 174 210 254 306
#
# _framework density 20.033439000000001
#
# number of rings (size 3 to 8) (size 9 to 14) (size 15 to 20)
#    0.000    2.000    1.429    6.857    0.000    0.000 
#    0.000    0.000    0.000    0.857    0.000    7.000 
#    0.000    4.000    0.000    0.000    0.000    2.571 
#
# Total GULP energy -346892.119933 kJ/mol
# GULP energy per Si atom -12389.004283 kJ/mol
# Density = 1.998784 g / cm^3
# Si number density = 20.033439 Si / 1000 Ang^3
#
#
#
# Elastic Constant Matrix: (Units=GPa)
#
#
# Indices 1 2 3 4 5 6 
#
# 1 36.3349 -8.4485 4.8137 0.0000 2.8711 0.0000
# 2 -8.4485 95.3254 38.4394 0.0000 1.2498 0.0000
# 3 4.8137 38.4394 112.8869 0.0000 8.9415 0.0000
# 4 0.0000 0.0000 0.0000 -8.8154 0.0000 10.8008
# 5 2.8711 1.2498 8.9415 0.0000 23.3696 0.0000
# 6 0.0000 0.0000 0.0000 10.8008 0.0000 9.8645
#
#
#
# Elastic Compliance Matrix: (Units=1/GPa)
#
#
# Indices 1 2 3 4 5 6 
#
# 1 0.028848 0.003475 -0.002184 0.000000 -0.002894 0.000000
# 2 0.003475 0.012600 -0.004487 0.000000 0.000616 0.000000
# 3 -0.002184 -0.004487 0.010766 0.000000 -0.003611 0.000000
# 4 0.000000 0.000000 0.000000 -0.048447 0.000000 0.053045
# 5 -0.002894 0.000616 -0.003611 0.000000 0.044495 0.000000
# 6 0.000000 0.000000 0.000000 0.053045 0.000000 0.043294
#
#
# Mechanical properties :
#
#
# Convention : Reuss Voigt Hill
#
# Bulk Modulus (GPa) = 21.82412 34.90627 28.36520
# Shear Modulus (GPa) = 44.16122 18.86659 31.51391
#
# Velocity S-wave (km/s) = 4.70017 3.07213 3.97049
# Velocity P-wave (km/s) = 6.35397 5.48141 5.93375
#
# Compressibility (1/GPa) = 0.04582087
#
# Stress axis : x y z
#
# Youngs Moduli (GPa) = 34.66452 79.36601 92.88868
#
# Poissons Ratio (x) = -0.27584 0.20290
# Poissons Ratio (y) = -0.12048 0.41683
# Poissons Ratio (z) = 0.07572 0.35615
#
# Static dielectric constant tensor:
#      x y z
#    x 3.261640 0.000000 -0.039510 
#    y 0.000000 4.100060 0.000000 
#    z -0.039510 0.000000 3.951650 
# 
# 
# High freq. dielectric constant tensor:
#      x y z
#    x 1.742430 0.000000 -0.014240 
#    y 0.000000 1.774670 0.000000 
#    z -0.014240 0.000000 1.776940 
# 
# From -- ./inp_files/79713.got.cif
#   From: 2010.06.25/outbox.cif.g09.slc.cpg/sg12_40_cif.got.tgz:79713.got - 2010.06.28 00:19:55.
