data_PCOD8081337
_publ_section_title
;
Structure prediction by ZEFSAII (Michael W. Deem and Ramdas Pophale) SiO2 
 PCOD8081337
Probable space group: C 2/M
;
_chemical_formula_sum "Si O2"
_cell_formula_units_Z 64
_cell_length_a 28.362108
_cell_length_b 8.991203
_cell_length_c 20.913066
_cell_angle_alpha 90.000000
_cell_angle_beta 132.015317
_cell_angle_gamma 90.000000
_cell_volume 3962.259451
_symmetry_space_group_name_H-M "C 2/M"
_symmetry_group_IT_number 12
_symmetry_cell_setting 'monoclinic'
loop_
_space_group_symop_operation_xyz
x,y,z
-x,y,-z
-x,-y,-z
x,-y,z
1/2+x,1/2+y,z
1/2-x,1/2+y,-z
1/2-x,1/2-y,-z
1/2+x,1/2-y,z
loop_
_atom_site_type_symbol
_atom_site_label
_atom_site_fract_x
_atom_site_fract_y
_atom_site_fract_z
Si Si1 0.740868 0.827925 0.593307
Si Si2 0.950622 0.176731 0.506696
Si Si3 0.287694 0.823665 0.180802
Si Si4 0.188331 0.176145 0.662373
Si Si5 0.480177 0.327253 0.673924
Si Si6 0.842727 0.170581 0.584740
Si Si7 0.292938 0.172718 0.986930
Si Si8 0.605610 0.829770 0.823472
O O1 0.739513 0.731603 0.656791
O O2 0.809496 0.801380 0.622843
O O3 0.686100 0.776833 0.495160
O O4 0.729926 0.000000 0.600064
O O5 0.880389 0.229323 0.424500
O O6 0.969522 0.240324 0.593306
O O7 0.000000 0.242155 0.500000
O O8 0.952910 0.000000 0.509612
O O9 0.298593 0.756359 0.259668
O O10 0.345801 0.773934 0.187507
O O11 0.280692 0.000000 0.178014
O O12 0.221463 0.755048 0.093250
O O13 0.193333 0.000000 0.675970
O O14 0.494482 0.500000 0.680925
O O15 0.417494 0.295490 0.659486
O O16 0.540035 0.256997 0.762974
O O17 0.832108 0.000000 0.552162
O O18 0.364904 0.191439 0.078394
O O19 0.274882 0.000000 0.964487
O O20 0.250000 0.250000 0.000000
O O21 0.590059 0.000000 0.795700
#
# Coordination Sequence:
#
# PCOD8081337 Si02
#       8
#     8   8   8   8   8   8   8   8
#     4  10  19  31  49  69  92 121 157 202 248 284
#     4   9  17  28  42  62  90 125 162 194 222 264
#     4  10  20  33  48  70  99 127 162 200 236 282
#     4  11  20  32  49  68  95 127 162 198 237 285
#     4  10  18  30  47  67  93 126 165 198 228 278
#     4   9  18  33  49  67  91 123 161 201 240 283
#     4   9  17  31  49  69  95 126 160 198 240 281
#     4   9  19  32  46  69 100 127 155 196 238 279
#
# _framework density 16.152398999999999
#
# number of rings (size 3 to 8) (size 9 to 14) (size 15 to 20)
#    0.000    2.375    1.250    3.000    0.000    5.000 
#    0.000    0.000    0.000    2.625    0.000    0.875 
#    0.000    7.000    0.000    0.000    0.000    0.000 
#
# Total GULP energy -396702.110853 kJ/mol
# GULP energy per Si atom -12396.940964 kJ/mol
# Density = 1.611564 g / cm^3
# Si number density = 16.152399 Si / 1000 Ang^3
#
#
#
# Elastic Constant Matrix: (Units=GPa)
#
#
# Indices 1 2 3 4 5 6 
#
# 1 91.9115 36.5285 47.2481 0.0000 9.0275 0.0000
# 2 36.5285 69.5879 47.7379 0.0000 2.9535 0.0000
# 3 47.2481 47.7379 110.3123 0.0000 11.2836 0.0000
# 4 0.0000 0.0000 0.0000 30.1697 0.0000 -1.2271
# 5 9.0275 2.9535 11.2836 0.0000 11.2795 0.0000
# 6 0.0000 0.0000 0.0000 -1.2271 0.0000 22.9659
#
#
#
# Elastic Compliance Matrix: (Units=1/GPa)
#
#
# Indices 1 2 3 4 5 6 
#
# 1 0.015608 -0.005426 -0.003570 0.000000 -0.007500 0.000000
# 2 -0.005426 0.022479 -0.008072 0.000000 0.006531 0.000000
# 3 -0.003570 -0.008072 0.015127 0.000000 -0.010161 0.000000
# 4 0.000000 0.000000 0.000000 0.033218 0.000000 0.001775
# 5 -0.007500 0.006531 -0.010161 0.000000 0.103114 0.000000
# 6 0.000000 0.000000 0.000000 0.001775 0.000000 0.043638
#
#
# Mechanical properties :
#
#
# Convention : Reuss Voigt Hill
#
# Bulk Modulus (GPa) = 52.41550 59.42675 55.92112
# Shear Modulus (GPa) = 18.26967 22.23616 20.25291
#
# Velocity S-wave (km/s) = 3.36680 3.71435 3.54484
# Velocity P-wave (km/s) = 6.90180 7.43413 7.17291
#
# Compressibility (1/GPa) = 0.01907833
#
# Stress axis : x y z
#
# Youngs Moduli (GPa) = 64.06869 44.48690 66.10824
#
# Poissons Ratio (x) = 0.24138 0.23601
# Poissons Ratio (y) = 0.34762 0.53361
# Poissons Ratio (z) = 0.22873 0.35909
#
# Static dielectric constant tensor:
#      x y z
#    x 3.060930 0.000000 0.002030 
#    y 0.000000 3.098250 0.000000 
#    z 0.002030 0.000000 3.183070 
# 
# 
# High freq. dielectric constant tensor:
#      x y z
#    x 1.601280 0.000000 -0.000640 
#    y 0.000000 1.621650 0.000000 
#    z -0.000640 0.000000 1.611050 
# 
# From -- ./inp_files/326991.got.cif
#   From: 2010.06.25/outbox.cif.g09.slc.cpg/sg12_164_cif.got.tgz:326991.got - 2010.06.28 00:19:55.
