data_PCOD8081604
_publ_section_title
;
Structure prediction by ZEFSAII (Michael W. Deem and Ramdas Pophale) SiO2 
 PCOD8081604
Probable space group: C 2/M
;
_chemical_formula_sum "Si O2"
_cell_formula_units_Z 48
_cell_length_a 25.285218
_cell_length_b 8.675114
_cell_length_c 12.717073
_cell_angle_alpha 90.000000
_cell_angle_beta 109.475718
_cell_angle_gamma 90.000000
_cell_volume 2629.909125
_symmetry_space_group_name_H-M "C 2/M"
_symmetry_group_IT_number 12
_symmetry_cell_setting 'monoclinic'
loop_
_space_group_symop_operation_xyz
x,y,z
-x,y,-z
-x,-y,-z
x,-y,z
1/2+x,1/2+y,z
1/2-x,1/2+y,-z
1/2-x,1/2-y,-z
1/2+x,1/2-y,z
loop_
_atom_site_type_symbol
_atom_site_label
_atom_site_fract_x
_atom_site_fract_y
_atom_site_fract_z
Si Si1 0.936971 0.183258 0.626368
Si Si2 0.059403 0.816768 0.998034
Si Si3 0.359790 0.317413 0.765979
Si Si4 0.748139 0.682277 0.615036
Si Si5 0.870468 0.816693 0.382698
Si Si6 0.940632 0.183816 0.236746
O O1 0.897348 0.241159 0.694067
O O2 0.912172 0.246844 0.500612
O O3 0.999433 0.248790 0.684382
O O4 0.938629 0.000000 0.627967
O O5 0.071827 0.754066 0.888901
O O6 0.055360 0.000000 0.995443
O O7 0.109952 0.763038 0.106798
O O8 0.000000 0.750003 0.000000
O O9 0.351229 0.500000 0.756437
O O10 0.299708 0.236583 0.720433
O O11 0.747562 0.500000 0.604045
O O12 0.750000 0.750000 0.500000
O O13 0.692310 0.742904 0.637163
O O14 0.892405 0.755777 0.284207
O O15 0.871747 0.000000 0.386044
O O16 0.942434 0.000000 0.237315
#
# Coordination Sequence:
#
# PCOD8081604 Si02
#       6
#     8   8   8   8   8   8
#     4   9  14  23  42  69  99 123 149 195 247 288
#     4   9  15  25  44  71 101 128 156 198 243 282
#     4  10  18  30  49  75 102 124 157 201 242 285
#     4  11  21  34  51  71  97 129 165 201 238 285
#     4   9  17  27  41  66  98 127 156 197 245 287
#     4   9  15  24  41  69 101 127 154 196 248 287
#
# _framework density 18.251581000000002
#
# number of rings (size 3 to 8) (size 9 to 14) (size 15 to 20)
#    0.000    2.500    3.333    1.000    0.000    2.000 
#    0.000    0.833    0.000    0.500    0.000    4.667 
#    0.000    0.000    0.000    0.000    0.000    0.000 
#
# Total GULP energy -297516.152326 kJ/mol
# GULP energy per Si atom -12396.506347 kJ/mol
# Density = 1.821004 g / cm^3
# Si number density = 18.251581 Si / 1000 Ang^3
#
#
#
# Elastic Constant Matrix: (Units=GPa)
#
#
# Indices 1 2 3 4 5 6 
#
# 1 167.2979 15.8414 102.5266 0.0000 -4.4047 0.0000
# 2 15.8414 16.3664 13.5849 0.0000 1.6639 0.0000
# 3 102.5266 13.5849 178.0252 0.0000 -5.6451 0.0000
# 4 0.0000 0.0000 0.0000 12.2727 0.0000 5.8437
# 5 -4.4047 1.6639 -5.6451 0.0000 38.1469 0.0000
# 6 0.0000 0.0000 0.0000 5.8437 0.0000 18.7044
#
#
#
# Elastic Compliance Matrix: (Units=1/GPa)
#
#
# Indices 1 2 3 4 5 6 
#
# 1 0.009622 -0.005111 -0.005133 0.000000 0.000574 0.000000
# 2 -0.005111 0.068443 -0.002404 0.000000 -0.003931 0.000000
# 3 -0.005133 -0.002404 0.008783 0.000000 0.000812 0.000000
# 4 0.000000 0.000000 0.000000 0.095722 0.000000 -0.029906
# 5 0.000574 -0.003931 0.000812 0.000000 0.026572 0.000000
# 6 0.000000 0.000000 0.000000 -0.029906 0.000000 0.062806
#
#
# Mechanical properties :
#
#
# Convention : Reuss Voigt Hill
#
# Bulk Modulus (GPa) = 16.24662 69.51057 42.87860
# Shear Modulus (GPa) = 15.73501 29.14057 22.43779
#
# Velocity S-wave (km/s) = 2.93937 4.00009 3.51003
# Velocity P-wave (km/s) = 4.52114 7.71373 6.32227
#
# Compressibility (1/GPa) = 0.06155126
#
# Stress axis : x y z
#
# Youngs Moduli (GPa) = 103.92413 14.61069 113.85956
#
# Poissons Ratio (x) = 0.07468 0.58449
# Poissons Ratio (y) = 0.53117 0.27371
# Poissons Ratio (z) = 0.53348 0.03512
#
# Static dielectric constant tensor:
#      x y z
#    x 3.614240 0.000000 -0.042600 
#    y 0.000000 2.697240 0.000000 
#    z -0.042600 0.000000 3.635240 
# 
# 
# High freq. dielectric constant tensor:
#      x y z
#    x 1.712410 0.000000 0.001080 
#    y 0.000000 1.637170 0.000000 
#    z 0.001080 0.000000 1.714850 
# 
# From -- ./inp_files/172159.got.cif
#   From: 2010.06.25/outbox.cif.g09.slc.cpg/sg12_87_cif.got.tgz:172159.got - 2010.06.28 00:19:55.
