data_PCOD8081432
_publ_section_title
;
Structure prediction by ZEFSAII (Michael W. Deem and Ramdas Pophale) SiO2 
 PCOD8081432
Probable space group: C 2/M
;
_chemical_formula_sum "Si O2"
_cell_formula_units_Z 56
_cell_length_a 31.866441
_cell_length_b 9.018754
_cell_length_c 14.939146
_cell_angle_alpha 90.000000
_cell_angle_beta 134.109160
_cell_angle_gamma 90.000000
_cell_volume 3082.757840
_symmetry_space_group_name_H-M "C 2/M"
_symmetry_group_IT_number 12
_symmetry_cell_setting 'monoclinic'
loop_
_space_group_symop_operation_xyz
x,y,z
-x,y,-z
-x,-y,-z
x,-y,z
1/2+x,1/2+y,z
1/2-x,1/2+y,-z
1/2-x,1/2-y,-z
1/2+x,1/2-y,z
loop_
_atom_site_type_symbol
_atom_site_label
_atom_site_fract_x
_atom_site_fract_y
_atom_site_fract_z
Si Si1 0.381403 0.172641 0.308729
Si Si2 0.152382 0.325410 0.060795
Si Si3 0.679175 0.174880 0.482707
Si Si4 0.200886 0.326123 0.314988
Si Si5 0.069589 0.672867 0.428966
Si Si6 0.263010 0.324540 0.112752
Si Si7 0.058552 0.322947 0.784824
O O1 0.423985 0.201118 0.455658
O O2 0.323463 0.265883 0.242275
O O3 0.412248 0.231121 0.264478
O O4 0.364561 0.000000 0.275092
O O5 0.146643 0.500000 0.044127
O O6 0.155308 0.276132 0.169417
O O7 0.212203 0.272741 0.104111
O O8 0.096224 0.258925 0.924585
O O9 0.737487 0.246339 0.609257
O O10 0.672528 0.216391 0.367974
O O11 0.623026 0.242555 0.451109
O O12 0.684513 0.000000 0.505230
O O13 0.213770 0.500000 0.327169
O O14 0.069277 0.500000 0.406902
O O15 0.007315 0.741798 0.306036
O O16 0.265135 0.500000 0.104107
O O17 0.250000 0.250000 0.000000
O O18 0.056413 0.500000 0.780627
#
# Coordination Sequence:
#
# PCOD8081432 Si02
#       7
#     8   8   8   8   8   8   8
#     4  10  18  30  48  70  92 122 159 192 227 271
#     4   9  17  29  45  67  93 121 153 184 224 277
#     4   9  17  30  47  71  95 114 148 194 232 268
#     4   9  17  30  49  69  92 121 148 183 233 282
#     4   9  17  28  46  70  94 120 156 197 229 262
#     4  11  20  31  47  69  95 122 152 189 230 273
#     4   9  16  28  45  66  93 124 157 191 225 269
#
# _framework density 18.165552000000002
#
# number of rings (size 3 to 8) (size 9 to 14) (size 15 to 20)
#    0.000    2.571    1.429    1.714    0.000    1.714 
#    0.000    1.429    0.000    6.857    0.000    0.000 
#    0.000    4.571    0.000    0.000    0.000    0.000 
#
# Total GULP energy -347081.172137 kJ/mol
# GULP energy per Si atom -12395.756148 kJ/mol
# Density = 1.812421 g / cm^3
# Si number density = 18.165552 Si / 1000 Ang^3
#
#
#
# Elastic Constant Matrix: (Units=GPa)
#
#
# Indices 1 2 3 4 5 6 
#
# 1 96.1626 10.7216 69.8221 0.0000 3.9551 0.0000
# 2 10.7216 21.7538 17.3642 0.0000 2.3592 0.0000
# 3 69.8221 17.3642 152.3583 0.0000 2.8964 0.0000
# 4 0.0000 0.0000 0.0000 17.5566 0.0000 2.4745
# 5 3.9551 2.3592 2.8964 0.0000 32.5827 0.0000
# 6 0.0000 0.0000 0.0000 2.4745 0.0000 17.0478
#
#
#
# Elastic Compliance Matrix: (Units=1/GPa)
#
#
# Indices 1 2 3 4 5 6 
#
# 1 0.015721 -0.002080 -0.006946 0.000000 -0.001140 0.000000
# 2 -0.002080 0.051170 -0.004821 0.000000 -0.003024 0.000000
# 3 -0.006946 -0.004821 0.010291 0.000000 0.000277 0.000000
# 4 0.000000 0.000000 0.000000 0.058148 0.000000 -0.008440
# 5 -0.001140 -0.003024 0.000277 0.000000 0.031024 0.000000
# 6 0.000000 0.000000 0.000000 -0.008440 0.000000 0.059884
#
#
# Mechanical properties :
#
#
# Convention : Reuss Voigt Hill
#
# Bulk Modulus (GPa) = 20.20695 51.78784 35.99739
# Shear Modulus (GPa) = 18.48914 24.92852 21.70883
#
# Velocity S-wave (km/s) = 3.19378 3.70847 3.46071
# Velocity P-wave (km/s) = 4.97476 6.84892 5.98565
#
# Compressibility (1/GPa) = 0.04948792
#
# Stress axis : x y z
#
# Youngs Moduli (GPa) = 63.60843 19.54252 97.17454
#
# Poissons Ratio (x) = 0.04066 0.67496
# Poissons Ratio (y) = 0.13233 0.46848
# Poissons Ratio (z) = 0.44182 0.09421
#
# Static dielectric constant tensor:
#      x y z
#    x 3.810810 0.000000 0.033510 
#    y 0.000000 2.994680 0.000000 
#    z 0.033510 0.000000 3.707300 
# 
# 
# High freq. dielectric constant tensor:
#      x y z
#    x 1.699700 0.000000 -0.004550 
#    y 0.000000 1.652910 0.000000 
#    z -0.004550 0.000000 1.716340 
# 
# From -- ./inp_files/237445.got.cif
#   From: 2010.06.25/outbox.cif.g09.slc.cpg/sg12_119_cif.got.tgz:237445.got - 2010.06.28 00:19:55.
