data_PCOD8081510
_publ_section_title
;
Structure prediction by ZEFSAII (Michael W. Deem and Ramdas Pophale) SiO2 
 PCOD8081510
Probable space group: C 2/M
;
_chemical_formula_sum "Si O2"
_cell_formula_units_Z 56
_cell_length_a 19.602634
_cell_length_b 28.156855
_cell_length_c 9.455740
_cell_angle_alpha 90.000000
_cell_angle_beta 143.492234
_cell_angle_gamma 90.000000
_cell_volume 3104.997363
_symmetry_space_group_name_H-M "C 2/M"
_symmetry_group_IT_number 12
_symmetry_cell_setting 'monoclinic'
loop_
_space_group_symop_operation_xyz
x,y,z
-x,y,-z
-x,-y,-z
x,-y,z
1/2+x,1/2+y,z
1/2-x,1/2+y,-z
1/2-x,1/2-y,-z
1/2+x,1/2-y,z
loop_
_atom_site_type_symbol
_atom_site_label
_atom_site_fract_x
_atom_site_fract_y
_atom_site_fract_z
Si Si1 0.638786 0.878569 0.524489
Si Si2 0.581619 0.713914 0.747702
Si Si3 0.173997 0.309307 0.817816
Si Si4 0.572289 0.264252 0.249156
Si Si5 0.709306 0.172499 0.388651
Si Si6 0.135289 0.446431 0.753615
Si Si7 0.614175 0.874759 0.956318
O O1 0.608608 0.837235 0.586220
O O2 0.730589 0.861229 0.560933
O O3 0.688878 0.922805 0.699929
O O4 0.519134 0.888409 0.243278
O O5 0.500000 0.685537 0.500000
O O6 0.638735 0.754746 0.744297
O O7 0.512379 0.737375 0.759848
O O8 0.688530 0.682350 0.978226
O O9 0.134304 0.326381 0.905085
O O10 0.612615 0.211247 0.271431
O O11 0.676233 0.299397 0.461300
O O12 0.500000 0.286288 0.000000
O O13 0.672821 0.135710 0.204623
O O14 0.180751 0.500000 0.845251
O O15 0.169625 0.417790 0.954093
O O16 0.000000 0.444013 0.500000
#
# Coordination Sequence:
#
# PCOD8081510 Si02
#       7
#     8   8   8   8   8   8   8
#     4  10  18  30  49  68  94 126 156 189 228 284
#     4  11  20  30  44  63  89 121 162 206 234 259
#     4  10  19  30  45  64  87 122 164 195 230 277
#     4  11  22  33  45  63  98 135 164 199 232 264
#     4  11  21  32  46  68  95 130 168 194 226 274
#     4   8  16  31  50  72  96 122 149 185 238 292
#     4  10  18  30  49  69  94 123 153 192 230 278
#
# _framework density 18.035443000000001
#
# number of rings (size 3 to 8) (size 9 to 14) (size 15 to 20)
#    0.000    1.857    0.000    7.714    0.000    4.571 
#    0.000    0.714    0.000    3.429    0.000    0.000 
#    0.000   72.000    0.000    0.000    0.000    0.000 
#
# Total GULP energy -346957.803408 kJ/mol
# GULP energy per Si atom -12391.350122 kJ/mol
# Density = 1.799439 g / cm^3
# Si number density = 18.035443 Si / 1000 Ang^3
#
#
#
# Elastic Constant Matrix: (Units=GPa)
#
#
# Indices 1 2 3 4 5 6 
#
# 1 78.2492 22.7903 28.4639 0.0000 -10.1514 0.0000
# 2 22.7903 85.0548 20.5053 0.0000 -10.4161 0.0000
# 3 28.4639 20.5053 69.5877 0.0000 -8.4203 0.0000
# 4 0.0000 0.0000 0.0000 16.5320 0.0000 -3.7597
# 5 -10.1514 -10.4161 -8.4203 0.0000 33.1141 0.0000
# 6 0.0000 0.0000 0.0000 -3.7597 0.0000 15.6375
#
#
#
# Elastic Compliance Matrix: (Units=1/GPa)
#
#
# Indices 1 2 3 4 5 6 
#
# 1 0.015849 -0.002621 -0.005388 0.000000 0.002664 0.000000
# 2 -0.002621 0.013412 -0.002545 0.000000 0.002768 0.000000
# 3 -0.005388 -0.002545 0.017568 0.000000 0.002015 0.000000
# 4 0.000000 0.000000 0.000000 0.063987 0.000000 0.015384
# 5 0.002664 0.002768 0.002015 0.000000 0.032398 0.000000
# 6 0.000000 0.000000 0.000000 0.015384 0.000000 0.067647
#
#
# Mechanical properties :
#
#
# Convention : Reuss Voigt Hill
#
# Bulk Modulus (GPa) = 38.87998 41.82340 40.35169
# Shear Modulus (GPa) = 20.78623 23.79887 22.29255
#
# Velocity S-wave (km/s) = 3.39856 3.63652 3.51955
# Velocity P-wave (km/s) = 6.08315 6.39314 6.24007
#
# Compressibility (1/GPa) = 0.02572018
#
# Stress axis : x y z
#
# Youngs Moduli (GPa) = 63.09669 74.55982 56.92190
#
# Poissons Ratio (x) = 0.19546 0.30669
# Poissons Ratio (y) = 0.16541 0.14486
# Poissons Ratio (z) = 0.33996 0.18975
#
# Static dielectric constant tensor:
#      x y z
#    x 3.320260 0.000000 -0.077020 
#    y 0.000000 3.132590 0.000000 
#    z -0.077020 0.000000 3.474710 
# 
# 
# High freq. dielectric constant tensor:
#      x y z
#    x 1.697390 0.000000 -0.019420 
#    y 0.000000 1.649580 0.000000 
#    z -0.019420 0.000000 1.689870 
# 
# From -- ./inp_files/54154.got.cif
#   From: 2010.06.25/outbox.cif.g09.slc.cpg/sg12_28_cif.got.tgz:54154.got - 2010.06.28 00:19:55.
