data_PCOD8081361
_publ_section_title
;
Structure prediction by ZEFSAII (Michael W. Deem and Ramdas Pophale) SiO2 
 PCOD8081361
Probable space group: C 2/M
;
_chemical_formula_sum "Si O2"
_cell_formula_units_Z 64
_cell_length_a 33.801949
_cell_length_b 8.743402
_cell_length_c 30.486319
_cell_angle_alpha 90.000000
_cell_angle_beta 154.279761
_cell_angle_gamma 90.000000
_cell_volume 3910.157432
_symmetry_space_group_name_H-M "C 2/M"
_symmetry_group_IT_number 12
_symmetry_cell_setting 'monoclinic'
loop_
_space_group_symop_operation_xyz
x,y,z
-x,y,-z
-x,-y,-z
x,-y,z
1/2+x,1/2+y,z
1/2-x,1/2+y,-z
1/2-x,1/2-y,-z
1/2+x,1/2-y,z
loop_
_atom_site_type_symbol
_atom_site_label
_atom_site_fract_x
_atom_site_fract_y
_atom_site_fract_z
Si Si1 0.429008 0.819023 0.813973
Si Si2 0.559169 0.182011 0.017465
Si Si3 0.948927 0.319245 0.404638
Si Si4 0.747663 0.319355 0.674748
Si Si5 0.933076 0.180097 0.552954
Si Si6 0.147021 0.679378 0.447282
Si Si7 0.761936 0.818325 0.237069
Si Si8 0.157670 0.679305 0.359161
O O1 0.340262 0.747677 0.748685
O O2 0.422172 0.773549 0.755500
O O3 0.428638 0.000000 0.818244
O O4 0.516447 0.757770 0.928472
O O5 0.663574 0.239789 0.121513
O O6 0.559162 0.000000 0.020568
O O7 0.500000 0.244244 0.000000
O O8 0.951649 0.500000 0.408158
O O9 0.845384 0.261820 0.295893
O O10 0.000000 0.255525 0.500000
O O11 0.993662 0.260402 0.404583
O O12 0.757056 0.500000 0.685594
O O13 0.665278 0.267548 0.562262
O O14 0.729616 0.258076 0.705076
O O15 0.931387 0.240081 0.601476
O O16 0.950426 0.000000 0.568824
O O17 0.142472 0.500000 0.450945
O O18 0.122837 0.722540 0.372755
O O19 0.248811 0.736201 0.559764
O O20 0.772162 0.000000 0.242615
O O21 0.180120 0.500000 0.377706
#
# Coordination Sequence:
#
# PCOD8081361 Si02
#       8
#     8   8   8   8   8   8   8   8
#     4   9  14  24  42  68  96 125 159 192 228 268
#     4   9  15  23  42  72  99 120 153 200 233 260
#     4  11  23  35  47  67  95 126 158 194 234 276
#     4   9  15  23  42  67  93 121 153 188 222 265
#     4  11  20  32  50  69  90 124 163 196 233 281
#     4  10  19  29  43  67  97 125 157 198 238 278
#     4  10  18  30  47  70  95 124 160 196 232 268
#     4   9  17  29  45  65  94 131 163 191 230 281
#
# _framework density 16.367626999999999
#
# number of rings (size 3 to 8) (size 9 to 14) (size 15 to 20)
#    0.000    2.250    3.750    1.125    0.000    1.000 
#    0.000    0.000    0.000    1.125    0.000    0.875 
#    0.000    0.000    0.000    0.000    0.000    0.000 
#
# Total GULP energy -396524.130814 kJ/mol
# GULP energy per Si atom -12391.379088 kJ/mol
# Density = 1.633037 g / cm^3
# Si number density = 16.367627 Si / 1000 Ang^3
#
#
#
# Elastic Constant Matrix: (Units=GPa)
#
#
# Indices 1 2 3 4 5 6 
#
# 1 122.4609 30.7713 44.9098 0.0000 -2.3089 0.0000
# 2 30.7713 30.4421 40.0525 -0.0001 5.7888 0.0001
# 3 44.9098 40.0525 41.5573 0.0001 -8.4936 0.0001
# 4 0.0000 -0.0001 0.0001 11.8246 0.0000 1.2184
# 5 -2.3089 5.7888 -8.4936 0.0000 27.0996 0.0000
# 6 0.0000 0.0001 0.0001 1.2184 0.0000 19.6586
#
#
#
# Elastic Compliance Matrix: (Units=1/GPa)
#
#
# Indices 1 2 3 4 5 6 
#
# 1 0.011259 -0.011570 -0.000337 0.000000 0.003325 0.000000
# 2 -0.011570 -0.051163 0.068216 -0.000001 0.031324 0.000000
# 3 -0.000337 0.068216 -0.047335 0.000001 -0.029436 0.000000
# 4 0.000000 -0.000001 0.000001 0.085113 0.000000 -0.005275
# 5 0.003325 0.031324 -0.029436 0.000000 0.021267 0.000000
# 6 0.000000 0.000000 0.000000 -0.005275 0.000000 0.051195
#
#
# Mechanical properties :
#
#
# Convention : Reuss Voigt Hill
#
# Bulk Modulus (GPa) = 39.40215 47.32528 43.36372
# Shear Modulus (GPa) = -147.83894 16.96502 -65.43696
#
# Velocity S-wave (km/s) = -9.51420 3.22296 -6.32979
# Velocity P-wave (km/s) = 9.82690 6.54421 5.18369
#
# Compressibility (1/GPa) = 0.02537932
#
# Stress axis : x y z
#
# Youngs Moduli (GPa) = 88.81449 -19.54536 -21.12622
#
# Poissons Ratio (x) = -0.22614 -0.00712
# Poissons Ratio (y) = 1.02759 1.44114
# Poissons Ratio (z) = 0.02993 1.33330
#
# Static dielectric constant tensor:
#      x y z
#    x 3.240720 0.000000 -0.108900 
#    y 0.000000 2.772120 0.000000 
#    z -0.108900 0.000000 3.317000 
# 
# 
# High freq. dielectric constant tensor:
#      x y z
#    x 1.627890 0.000000 -0.008650 
#    y 0.000000 1.600720 0.000000 
#    z -0.008650 0.000000 1.608200 
# 
# From -- ./inp_files/384634.got.cif
#   From: 2010.06.25/outbox.cif.g09.slc.cpg/sg12_193_cif.got.tgz:384634.got - 2010.06.28 00:19:55.
