data_PCOD8081797
_publ_section_title
;
Structure prediction by ZEFSAII (Michael W. Deem and Ramdas Pophale) SiO2 
 PCOD8081797
Probable space group: C 2/M
;
_chemical_formula_sum "Si O2"
_cell_formula_units_Z 52
_cell_length_a 22.394805
_cell_length_b 13.681352
_cell_length_c 8.980056
_cell_angle_alpha 90.000000
_cell_angle_beta 88.277414
_cell_angle_gamma 90.000000
_cell_volume 2750.166830
_symmetry_space_group_name_H-M "C 2/M"
_symmetry_group_IT_number 12
_symmetry_cell_setting 'monoclinic'
loop_
_space_group_symop_operation_xyz
x,y,z
-x,y,-z
-x,-y,-z
x,-y,z
1/2+x,1/2+y,z
1/2-x,1/2+y,-z
1/2-x,1/2-y,-z
1/2+x,1/2-y,z
loop_
_atom_site_type_symbol
_atom_site_label
_atom_site_fract_x
_atom_site_fract_y
_atom_site_fract_z
Si Si1 0.000000 0.257600 0.000000
Si Si2 0.391890 0.757458 0.831601
Si Si3 0.940539 0.609631 0.241951
Si Si4 0.674031 0.888482 0.928499
Si Si5 0.411206 0.110177 0.566508
Si Si6 0.272820 0.302702 0.728566
Si Si7 0.272355 0.890775 0.563653
O O1 0.058332 0.201670 0.065789
O O2 0.980549 0.321917 0.139465
O O3 0.426823 0.814677 0.697110
O O4 0.342968 0.683538 0.767869
O O5 0.354590 0.838202 0.925474
O O6 0.962869 0.500000 0.211291
O O7 0.870869 0.618466 0.206719
O O8 0.948842 0.637422 0.415226
O O9 0.734442 0.834439 0.874064
O O10 0.688580 0.000000 0.970901
O O11 0.342202 0.117567 0.525614
O O12 0.427008 0.000000 0.617239
O O13 0.255603 0.190056 0.689482
O O14 0.262689 0.371592 0.587275
O O15 0.255132 0.000000 0.621400
#
# Coordination Sequence:
#
# PCOD8081797 Si02
#       7
#     4   8   8   8   8   8   8
#     4  10  21  34  42  60  97 138 176 208 241 280
#     4  10  21  32  45  68 100 137 176 208 239 287
#     4   9  17  29  48  68  95 131 165 200 245 302
#     4  10  18  31  50  75 106 136 163 203 254 305
#     4   9  16  29  47  69  95 126 160 200 246 297
#     4  10  18  30  51  75 101 135 169 202 255 305
#     4   9  17  30  50  78 107 129 157 205 261 310
#
# _framework density 18.907943
#
# number of rings (size 3 to 8) (size 9 to 14) (size 15 to 20)
#    0.000    2.462    1.538    1.615    0.000    3.077 
#    0.000    1.538    0.000    0.000    0.000    2.154 
#    0.000    7.385    0.000    0.308    0.000    0.692 
#
# Total GULP energy -322179.326691 kJ/mol
# GULP energy per Si atom -12391.512565 kJ/mol
# Density = 1.886491 g / cm^3
# Si number density = 18.907943 Si / 1000 Ang^3
#
#
#
# Elastic Constant Matrix: (Units=GPa)
#
#
# Indices 1 2 3 4 5 6 
#
# 1 75.0614 9.7949 28.6968 0.0000 26.7333 0.0000
# 2 9.7949 43.1588 2.2913 0.0000 1.6573 0.0000
# 3 28.6968 2.2913 74.2505 0.0000 6.3643 0.0000
# 4 0.0000 0.0000 0.0000 12.4830 0.0000 4.3146
# 5 26.7333 1.6573 6.3643 0.0000 44.1300 0.0000
# 6 0.0000 0.0000 0.0000 4.3146 0.0000 7.8831
#
#
#
# Elastic Compliance Matrix: (Units=1/GPa)
#
#
# Indices 1 2 3 4 5 6 
#
# 1 0.020438 -0.003844 -0.006816 0.000000 -0.011254 0.000000
# 2 -0.003844 0.023958 0.000632 0.000000 0.001338 0.000000
# 3 -0.006816 0.000632 0.015928 0.000000 0.001808 0.000000
# 4 0.000000 0.000000 0.000000 0.098799 0.000000 -0.054074
# 5 -0.011254 0.001338 0.001808 0.000000 0.029167 0.000000
# 6 0.000000 0.000000 0.000000 -0.054074 0.000000 0.156449
#
#
# Mechanical properties :
#
#
# Convention : Reuss Voigt Hill
#
# Bulk Modulus (GPa) = 24.83445 30.44854 27.64149
# Shear Modulus (GPa) = 13.21993 23.01172 18.11583
#
# Velocity S-wave (km/s) = 2.64706 3.49239 3.09869
# Velocity P-wave (km/s) = 4.74399 5.69218 5.23958
#
# Compressibility (1/GPa) = 0.04026664
#
# Stress axis : x y z
#
# Youngs Moduli (GPa) = 48.92895 41.74002 62.78402
#
# Poissons Ratio (x) = 0.16046 0.42792
# Poissons Ratio (y) = 0.18810 -0.03967
# Poissons Ratio (z) = 0.33349 -0.02637
#
# Static dielectric constant tensor:
#      x y z
#    x 3.632370 0.000000 0.194270 
#    y 0.000000 3.132210 0.000000 
#    z 0.194270 0.000000 3.601180 
# 
# 
# High freq. dielectric constant tensor:
#      x y z
#    x 1.739640 0.000000 0.014210 
#    y 0.000000 1.670680 0.000000 
#    z 0.014210 0.000000 1.752520 
# 
# From -- ./inp_files/95768.got.cif
#   From: 2010.06.25/outbox.cif.g09.slc.cpg/sg12_48_cif.got.tgz:95768.got - 2010.06.28 00:19:55.
