data_PCOD8081682
_publ_section_title
;
Structure prediction by ZEFSAII (Michael W. Deem and Ramdas Pophale) SiO2 
 PCOD8081682
Probable space group: C 2/M
;
_chemical_formula_sum "Si O2"
_cell_formula_units_Z 40
_cell_length_a 25.609033
_cell_length_b 8.764658
_cell_length_c 25.218387
_cell_angle_alpha 90.000000
_cell_angle_beta 156.585587
_cell_angle_gamma 90.000000
_cell_volume 2249.314025
_symmetry_space_group_name_H-M "C 2/M"
_symmetry_group_IT_number 12
_symmetry_cell_setting 'monoclinic'
loop_
_space_group_symop_operation_xyz
x,y,z
-x,y,-z
-x,-y,-z
x,-y,z
1/2+x,1/2+y,z
1/2-x,1/2+y,-z
1/2-x,1/2-y,-z
1/2+x,1/2-y,z
loop_
_atom_site_type_symbol
_atom_site_label
_atom_site_fract_x
_atom_site_fract_y
_atom_site_fract_z
Si Si1 0.103825 0.680214 0.140706
Si Si2 0.036588 0.180705 0.894258
Si Si3 0.369569 0.819589 0.347924
Si Si4 0.608028 0.820220 0.859192
Si Si5 0.325686 0.821214 0.190559
O O1 0.097841 0.500000 0.140257
O O2 0.248594 0.732145 0.260575
O O3 0.072581 0.753679 0.168329
O O4 0.000000 0.739678 0.000000
O O5 0.008067 0.241312 0.807581
O O6 0.027924 0.000000 0.886025
O O7 0.178913 0.246323 0.045249
O O8 0.500000 0.769246 0.500000
O O9 0.386266 0.763837 0.302424
O O10 0.344866 0.000000 0.329189
O O11 0.576060 0.782149 0.767204
O O12 0.610055 0.000000 0.871381
O O13 0.750000 0.750000 0.000000
O O14 0.304369 0.000000 0.173337
#
# Coordination Sequence:
#
# PCOD8081682 Si02
#       5
#     8   8   8   8   8
#     4  11  22  34  51  77 106 137 171 213 262 308
#     4  10  18  30  50  74 102 133 168 213 261 305
#     4  10  20  35  55  77 103 139 177 209 250 309
#     4   9  16  27  44  70 103 134 167 208 256 306
#     4   8  15  28  47  72 101 133 165 206 254 298
#
# _framework density 17.783199
#
# number of rings (size 3 to 8) (size 9 to 14) (size 15 to 20)
#    0.000    2.400    2.000    3.000    0.000    1.200 
#    0.000    1.000    0.000    1.200    0.000    0.000 
#    0.000    0.000    0.000    0.000    0.000    0.000 
#
# Total GULP energy -247856.561585 kJ/mol
# GULP energy per Si atom -12392.828079 kJ/mol
# Density = 1.774272 g / cm^3
# Si number density = 17.783199 Si / 1000 Ang^3
#
#
#
# Elastic Constant Matrix: (Units=GPa)
#
#
# Indices 1 2 3 4 5 6 
#
# 1 199.0039 52.1862 55.3258 0.0000 -9.6542 0.0000
# 2 52.1862 66.4870 26.8347 -0.0002 1.9305 -0.0001
# 3 55.3258 26.8347 68.9882 -0.0005 -5.8845 -0.0003
# 4 0.0000 -0.0002 -0.0005 15.7885 -0.0001 4.5940
# 5 -9.6542 1.9305 -5.8845 -0.0001 18.6175 -0.0001
# 6 0.0000 -0.0001 -0.0003 4.5940 -0.0001 31.6123
#
#
#
# Elastic Compliance Matrix: (Units=1/GPa)
#
#
# Indices 1 2 3 4 5 6 
#
# 1 0.007412 -0.004283 -0.004021 0.000000 0.003017 0.000000
# 2 -0.004283 0.020634 -0.005101 0.000000 -0.005973 0.000000
# 3 -0.004021 -0.005101 0.020114 0.000001 0.004801 0.000000
# 4 0.000000 0.000000 0.000001 0.066134 0.000001 -0.009611
# 5 0.003017 -0.005973 0.004801 0.000001 0.057414 0.000000
# 6 0.000000 0.000000 0.000000 -0.009611 0.000000 0.033030
#
#
# Mechanical properties :
#
#
# Convention : Reuss Voigt Hill
#
# Bulk Modulus (GPa) = 46.83752 67.01915 56.92834
# Shear Modulus (GPa) = 20.94982 26.54581 23.74782
#
# Velocity S-wave (km/s) = 3.43602 3.86780 3.65829
# Velocity P-wave (km/s) = 6.49130 7.59705 7.06583
#
# Compressibility (1/GPa) = 0.02135041
#
# Stress axis : x y z
#
# Youngs Moduli (GPa) = 134.90860 48.46297 49.71687
#
# Poissons Ratio (x) = 0.20755 0.19993
# Poissons Ratio (y) = 0.57776 0.25361
# Poissons Ratio (z) = 0.54251 0.24722
#
# Static dielectric constant tensor:
#      x y z
#    x 4.130610 0.000000 -0.378560 
#    y 0.000000 3.206170 0.000000 
#    z -0.378560 0.000000 3.020450 
# 
# 
# High freq. dielectric constant tensor:
#      x y z
#    x 1.716900 0.000000 -0.008400 
#    y 0.000000 1.680230 0.000000 
#    z -0.008400 0.000000 1.628260 
# 
# From -- ./inp_files/92913.got.cif
#   From: 2010.06.25/outbox.cif.g09.slc.cpg/sg12_47_cif.got.tgz:92913.got - 2010.06.28 00:19:55.
