data_PCOD8081129
_publ_section_title
;
Structure prediction by ZEFSAII (Michael W. Deem and Ramdas Pophale) SiO2 
 PCOD8081129
Probable space group: C 2/M
;
_chemical_formula_sum "Si O2"
_cell_formula_units_Z 64
_cell_length_a 23.757263
_cell_length_b 18.788723
_cell_length_c 8.318460
_cell_angle_alpha 90.000000
_cell_angle_beta 71.889075
_cell_angle_gamma 90.000000
_cell_volume 3529.139583
_symmetry_space_group_name_H-M "C 2/M"
_symmetry_group_IT_number 12
_symmetry_cell_setting 'monoclinic'
loop_
_space_group_symop_operation_xyz
x,y,z
-x,y,-z
-x,-y,-z
x,-y,z
1/2+x,1/2+y,z
1/2-x,1/2+y,-z
1/2-x,1/2-y,-z
1/2+x,1/2-y,z
loop_
_atom_site_type_symbol
_atom_site_label
_atom_site_fract_x
_atom_site_fract_y
_atom_site_fract_z
Si Si1 0.203832 0.582014 0.729243
Si Si2 0.659582 0.780667 0.650576
Si Si3 0.943032 0.185763 0.132551
Si Si4 0.954056 0.916333 0.403729
Si Si5 0.824220 0.080436 0.482817
Si Si6 0.243390 0.863680 0.019802
Si Si7 0.775084 0.260811 0.731499
Si Si8 0.357167 0.579765 0.090937
O O1 0.190277 0.500000 0.693596
O O2 0.154643 0.634385 0.695313
O O3 0.265506 0.618163 0.604544
O O4 0.209501 0.590206 0.917120
O O5 0.596361 0.745942 0.746657
O O6 0.708767 0.744345 0.719534
O O7 0.674717 0.764905 0.450811
O O8 0.969908 0.128967 0.233936
O O9 0.907241 0.140317 0.029241
O O10 0.000000 0.223159 0.000000
O O11 0.885917 0.896538 0.513091
O O12 0.000000 0.894758 0.500000
O O13 0.957858 0.000000 0.357932
O O14 0.827227 0.094085 0.290914
O O15 0.810729 0.000000 0.539927
O O16 0.212582 0.802920 0.155376
O O17 0.277973 0.832831 0.834805
O O18 0.190826 0.914918 0.007264
O O19 0.384363 0.500000 0.061186
#
# Coordination Sequence:
#
# PCOD8081129 Si02
#       8
#     8   8   8   8   8   8   8   8
#     4  10  20  32  53  84 110 135 169 219 275 328
#     4  10  20  37  57  73 105 143 178 218 267 324
#     4  11  23  37  53  74 101 140 188 228 259 313
#     4   9  19  35  51  72 105 146 188 223 255 294
#     4   8  16  30  49  73 105 141 178 214 257 312
#     4  10  18  29  49  84 113 136 170 220 264 313
#     4   9  19  33  54  79 105 142 176 211 267 320
#     4  10  19  32  50  73 107 149 185 219 256 299
#
# _framework density 18.134732
#
# number of rings (size 3 to 8) (size 9 to 14) (size 15 to 20)
#    0.000    2.375    1.250    2.250    8.750    2.000 
#    0.000    1.875    0.000    0.375    0.000    0.000 
#    0.000    1.500    0.000    0.000    0.000    0.000 
#
# Total GULP energy -396549.465153 kJ/mol
# GULP energy per Si atom -12392.170786 kJ/mol
# Density = 1.809346 g / cm^3
# Si number density = 18.134732 Si / 1000 Ang^3
#
#
#
# Elastic Constant Matrix: (Units=GPa)
#
#
# Indices 1 2 3 4 5 6 
#
# 1 62.4902 35.5032 44.2224 0.0000 -6.1409 0.0000
# 2 35.5032 88.6592 29.2462 0.0000 -6.2907 0.0000
# 3 44.2224 29.2462 79.8239 0.0000 -8.5440 0.0000
# 4 0.0000 0.0000 0.0000 23.0590 0.0000 4.8972
# 5 -6.1409 -6.2907 -8.5440 0.0000 32.4148 0.0000
# 6 0.0000 0.0000 0.0000 4.8972 0.0000 22.9088
#
#
#
# Elastic Compliance Matrix: (Units=1/GPa)
#
#
# Indices 1 2 3 4 5 6 
#
# 1 0.030121 -0.007434 -0.013899 0.000000 0.000600 0.000000
# 2 -0.007434 0.014717 -0.001151 0.000000 0.001144 0.000000
# 3 -0.013899 -0.001151 0.020934 0.000000 0.002661 0.000000
# 4 0.000000 0.000000 0.000000 0.045429 0.000000 -0.009711
# 5 0.000600 0.001144 0.002661 0.000000 0.031887 0.000000
# 6 0.000000 0.000000 0.000000 -0.009711 0.000000 0.045727
#
#
# Mechanical properties :
#
#
# Convention : Reuss Voigt Hill
#
# Bulk Modulus (GPa) = 48.06853 49.87963 48.97408
# Shear Modulus (GPa) = 20.77102 23.80997 22.29049
#
# Velocity S-wave (km/s) = 3.38801 3.62739 3.50974
# Velocity P-wave (km/s) = 6.47060 6.71630 6.59460
#
# Compressibility (1/GPa) = 0.02080363
#
# Stress axis : x y z
#
# Youngs Moduli (GPa) = 33.19919 67.94820 47.76878
#
# Poissons Ratio (x) = 0.50516 0.66394
# Poissons Ratio (y) = 0.24682 0.05498
# Poissons Ratio (z) = 0.46144 0.07820
#
# Static dielectric constant tensor:
#      x y z
#    x 3.118770 0.000000 0.164500 
#    y 0.000000 3.359740 0.000000 
#    z 0.164500 0.000000 3.459250 
# 
# 
# High freq. dielectric constant tensor:
#      x y z
#    x 1.657080 0.000000 0.014580 
#    y 0.000000 1.698860 0.000000 
#    z 0.014580 0.000000 1.702450 
# 
# From -- ./inp_files/98605.got.cif
#   From: 2010.06.25/outbox.cif.g09.slc.cpg/sg12_50_cif.got.tgz:98605.got - 2010.06.28 00:19:55.
