data_PCOD8081698
_publ_section_title
;
Structure prediction by ZEFSAII (Michael W. Deem and Ramdas Pophale) SiO2 
 PCOD8081698
Probable space group: C 2/M
;
_chemical_formula_sum "Si O2"
_cell_formula_units_Z 48
_cell_length_a 8.784665
_cell_length_b 22.644971
_cell_length_c 13.413831
_cell_angle_alpha 90.000000
_cell_angle_beta 97.077281
_cell_angle_gamma 90.000000
_cell_volume 2648.062235
_symmetry_space_group_name_H-M "C 2/M"
_symmetry_group_IT_number 12
_symmetry_cell_setting 'monoclinic'
loop_
_space_group_symop_operation_xyz
x,y,z
-x,y,-z
-x,-y,-z
x,-y,z
1/2+x,1/2+y,z
1/2-x,1/2+y,-z
1/2-x,1/2-y,-z
1/2+x,1/2-y,z
loop_
_atom_site_type_symbol
_atom_site_label
_atom_site_fract_x
_atom_site_fract_y
_atom_site_fract_z
Si Si1 0.683498 0.813929 0.520909
Si Si2 0.859220 0.065202 0.194194
Si Si3 0.796452 0.830424 0.330665
Si Si4 0.875999 0.786672 0.709387
Si Si5 0.899957 0.136726 0.893845
Si Si6 0.661544 0.934295 0.982547
O O1 0.500000 0.818946 0.500000
O O2 0.750000 0.750000 0.500000
O O3 0.764001 0.853760 0.441214
O O4 0.749791 0.826195 0.637392
O O5 0.781398 0.111182 0.263073
O O6 0.760324 0.060189 0.088428
O O7 0.024459 0.088093 0.172294
O O8 0.875556 0.000000 0.244882
O O9 0.662866 0.783036 0.293428
O O10 0.958997 0.797212 0.329384
O O11 0.875730 0.804883 0.825713
O O12 0.736239 0.110320 0.910298
O O13 0.000000 0.152371 0.000000
O O14 0.641797 0.000000 0.933612
O O15 0.500000 0.906400 0.000000
#
# Coordination Sequence:
#
# PCOD8081698 Si02
#       6
#     8   8   8   8   8   8
#     4  10  18  30  50  74  99 129 164 201 243 292
#     4   9  18  33  52  71  95 132 171 204 240 288
#     4  10  19  32  51  75 101 128 163 203 248 295
#     4  10  19  32  50  74 103 130 162 203 248 296
#     4   9  18  33  51  72  99 132 167 201 243 294
#     4   9  17  29  47  71  96 127 169 210 245 285
#
# _framework density 18.126463000000001
#
# number of rings (size 3 to 8) (size 9 to 14) (size 15 to 20)
#    0.000    2.500    0.000    5.000    0.000    4.667 
#    0.000    8.333    0.000    9.500    0.000    0.000 
#    0.000    0.000    0.000    0.000    0.000    0.000 
#
# Total GULP energy -297351.351658 kJ/mol
# GULP energy per Si atom -12389.639652 kJ/mol
# Density = 1.808521 g / cm^3
# Si number density = 18.126463 Si / 1000 Ang^3
#
#
#
# Elastic Constant Matrix: (Units=GPa)
#
#
# Indices 1 2 3 4 5 6 
#
# 1 96.5668 19.1147 18.4488 0.0000 -19.7522 0.0000
# 2 19.1147 82.1449 37.7854 0.0000 -9.7628 0.0000
# 3 18.4488 37.7854 85.3263 0.0000 -21.9211 0.0000
# 4 0.0000 0.0000 0.0000 19.4154 0.0000 -4.3099
# 5 -19.7522 -9.7628 -21.9211 0.0000 24.0175 0.0000
# 6 0.0000 0.0000 0.0000 -4.3099 0.0000 22.5394
#
#
#
# Elastic Compliance Matrix: (Units=1/GPa)
#
#
# Indices 1 2 3 4 5 6 
#
# 1 0.012738 -0.002123 0.000856 0.000000 0.010395 0.000000
# 2 -0.002123 0.015641 -0.006901 0.000000 -0.001686 0.000000
# 3 0.000856 -0.006901 0.018355 0.000000 0.014652 0.000000
# 4 0.000000 0.000000 0.000000 0.053789 0.000000 0.010285
# 5 0.010395 -0.001686 0.014652 0.000000 0.062873 0.000000
# 6 0.000000 0.000000 0.000000 0.010285 0.000000 0.046333
#
#
# Mechanical properties :
#
#
# Convention : Reuss Voigt Hill
#
# Bulk Modulus (GPa) = 32.89460 46.08176 39.48818
# Shear Modulus (GPa) = 21.16880 25.77372 23.47126
#
# Velocity S-wave (km/s) = 3.42107 3.77488 3.60232
# Velocity P-wave (km/s) = 5.81306 6.66912 6.25575
#
# Compressibility (1/GPa) = 0.03040013
#
# Stress axis : x y z
#
# Youngs Moduli (GPa) = 78.50340 63.93287 54.48224
#
# Poissons Ratio (x) = 0.13570 -0.04665
# Poissons Ratio (y) = 0.16663 0.37597
# Poissons Ratio (z) = -0.06722 0.44119
#
# Static dielectric constant tensor:
#      x y z
#    x 3.268720 0.000000 -0.286970 
#    y 0.000000 3.279830 0.000000 
#    z -0.286970 0.000000 3.713010 
# 
# 
# High freq. dielectric constant tensor:
#      x y z
#    x 1.712110 0.000000 -0.009490 
#    y 0.000000 1.664930 0.000000 
#    z -0.009490 0.000000 1.700480 
# 
# From -- ./inp_files/122023.got.cif
#   From: 2010.06.25/outbox.cif.g09.slc.cpg/sg12_62_cif.got.tgz:122023.got - 2010.06.28 00:19:55.
