data_PCOD8081362
_publ_section_title
;
Structure prediction by ZEFSAII (Michael W. Deem and Ramdas Pophale) SiO2 
 PCOD8081362
Probable space group: C 2/M
;
_chemical_formula_sum "Si O2"
_cell_formula_units_Z 64
_cell_length_a 26.932153
_cell_length_b 13.562015
_cell_length_c 10.403029
_cell_angle_alpha 90.000000
_cell_angle_beta 85.417751
_cell_angle_gamma 90.000000
_cell_volume 3787.605461
_symmetry_space_group_name_H-M "C 2/M"
_symmetry_group_IT_number 12
_symmetry_cell_setting 'monoclinic'
loop_
_space_group_symop_operation_xyz
x,y,z
-x,y,-z
-x,-y,-z
x,-y,z
1/2+x,1/2+y,z
1/2-x,1/2+y,-z
1/2-x,1/2-y,-z
1/2+x,1/2-y,z
loop_
_atom_site_type_symbol
_atom_site_label
_atom_site_fract_x
_atom_site_fract_y
_atom_site_fract_z
Si Si1 0.283793 0.107197 0.201422
Si Si2 0.023413 0.882937 0.627529
Si Si3 0.821886 0.111932 0.668196
Si Si4 0.191810 0.183871 0.824498
Si Si5 0.791225 0.388618 0.909802
Si Si6 0.366292 0.386807 0.399418
Si Si7 0.639119 0.712442 0.090570
Si Si8 0.536985 0.614319 0.110758
O O1 0.237324 0.118911 0.305607
O O2 0.318845 0.202054 0.216223
O O3 0.310112 0.000000 0.221700
O O4 0.266075 0.111308 0.056355
O O5 0.079222 0.838008 0.630786
O O6 0.000000 0.842048 0.500000
O O7 0.990366 0.848962 0.754587
O O8 0.025545 0.000000 0.625863
O O9 0.837721 0.160411 0.528162
O O10 0.849977 0.166037 0.775215
O O11 0.839985 0.000000 0.671857
O O12 0.251133 0.161254 0.821413
O O13 0.166741 0.118075 0.721609
O O14 0.167962 0.159654 0.967352
O O15 0.803366 0.500000 0.861873
O O16 0.843060 0.326995 0.903729
O O17 0.374694 0.500000 0.429663
O O18 0.580966 0.693202 0.076487
O O19 0.555764 0.500000 0.118636
O O20 0.500000 0.623496 0.000000
#
# Coordination Sequence:
#
# PCOD8081362 Si02
#       8
#     8   8   8   8   8   8   8   8
#     4   9  17  31  48  68  96 130 165 193 226 278
#     4   9  17  32  47  64  94 127 156 187 232 289
#     4  10  18  30  47  70  96 129 165 191 224 280
#     4  11  19  32  49  72  99 129 160 198 239 276
#     4  10  19  32  49  71  99 128 161 200 237 278
#     4  10  21  31  46  73 103 131 156 192 243 287
#     4  11  19  32  51  73  92 129 169 194 231 289
#     4  10  20  31  47  73  99 120 150 200 246 279
#
# _framework density 16.897220000000001
#
# number of rings (size 3 to 8) (size 9 to 14) (size 15 to 20)
#    0.000    2.000    2.500    3.000    0.000    5.000 
#    0.000    0.000    0.000    0.375    0.000    0.875 
#    0.000    2.000    0.000    0.000    0.000    0.000 
#
# Total GULP energy -396543.395388 kJ/mol
# GULP energy per Si atom -12391.981106 kJ/mol
# Density = 1.685876 g / cm^3
# Si number density = 16.897220 Si / 1000 Ang^3
#
#
#
# Elastic Constant Matrix: (Units=GPa)
#
#
# Indices 1 2 3 4 5 6 
#
# 1 91.7034 34.3114 40.1015 0.0000 -7.5968 0.0000
# 2 34.3114 59.2840 28.6210 0.0000 -8.7722 0.0000
# 3 40.1015 28.6210 95.2157 0.0000 -2.5091 0.0000
# 4 0.0000 0.0000 0.0000 12.9966 0.0000 -2.1125
# 5 -7.5968 -8.7722 -2.5091 0.0000 22.6471 0.0000
# 6 0.0000 0.0000 0.0000 -2.1125 0.0000 20.5727
#
#
#
# Elastic Compliance Matrix: (Units=1/GPa)
#
#
# Indices 1 2 3 4 5 6 
#
# 1 0.015477 -0.006450 -0.004522 0.000000 0.002192 0.000000
# 2 -0.006450 0.023594 -0.004204 0.000000 0.006509 0.000000
# 3 -0.004522 -0.004204 0.013627 0.000000 -0.001635 0.000000
# 4 0.000000 0.000000 0.000000 0.078249 0.000000 0.008035
# 5 0.002192 0.006509 -0.001635 0.000000 0.047231 0.000000
# 6 0.000000 0.000000 0.000000 0.008035 0.000000 0.049433
#
#
# Mechanical properties :
#
#
# Convention : Reuss Voigt Hill
#
# Bulk Modulus (GPa) = 44.74962 50.25232 47.50097
# Shear Modulus (GPa) = 18.83860 20.78790 19.81325
#
# Velocity S-wave (km/s) = 3.34262 3.51131 3.42800
# Velocity P-wave (km/s) = 6.43727 6.80026 6.62125
#
# Compressibility (1/GPa) = 0.02234656
#
# Stress axis : x y z
#
# Youngs Moduli (GPa) = 64.61180 42.38384 73.38126
#
# Poissons Ratio (x) = 0.27338 0.33181
# Poissons Ratio (y) = 0.41676 0.30849
# Poissons Ratio (z) = 0.29216 0.17818
#
# Static dielectric constant tensor:
#      x y z
#    x 3.100040 0.000000 -0.172460 
#    y 0.000000 3.114700 0.000000 
#    z -0.172460 0.000000 3.287070 
# 
# 
# High freq. dielectric constant tensor:
#      x y z
#    x 1.631540 0.000000 -0.004920 
#    y 0.000000 1.615760 0.000000 
#    z -0.004920 0.000000 1.659290 
# 
# From -- ./inp_files/104557.got.cif
#   From: 2010.06.25/outbox.cif.g09.slc.cpg/sg12_53_cif.got.tgz:104557.got - 2010.06.28 00:19:55.
