data_PCOD8081782
_publ_section_title
;
Structure prediction by ZEFSAII (Michael W. Deem and Ramdas Pophale) SiO2 
 PCOD8081782
Probable space group: C 2/M
;
_chemical_formula_sum "Si O2"
_cell_formula_units_Z 64
_cell_length_a 19.227638
_cell_length_b 9.022047
_cell_length_c 26.542439
_cell_angle_alpha 90.000000
_cell_angle_beta 50.836465
_cell_angle_gamma 90.000000
_cell_volume 3569.995955
_symmetry_space_group_name_H-M "C 2/M"
_symmetry_group_IT_number 12
_symmetry_cell_setting 'monoclinic'
loop_
_space_group_symop_operation_xyz
x,y,z
-x,y,-z
-x,-y,-z
x,-y,z
1/2+x,1/2+y,z
1/2-x,1/2+y,-z
1/2-x,1/2-y,-z
1/2+x,1/2-y,z
loop_
_atom_site_type_symbol
_atom_site_label
_atom_site_fract_x
_atom_site_fract_y
_atom_site_fract_z
Si Si1 0.063497 0.323259 0.925758
Si Si2 0.743125 0.169365 0.382846
Si Si3 0.838446 0.328268 0.478477
Si Si4 0.065106 0.672648 0.221044
Si Si5 0.427210 0.674419 0.354124
Si Si6 0.763722 0.330329 0.274750
Si Si7 0.470707 0.831202 0.167407
Si Si8 0.244333 0.828499 0.824006
O O1 0.075336 0.500000 0.918468
O O2 0.161572 0.254135 0.888489
O O3 0.021195 0.261337 0.892480
O O4 0.000000 0.271005 0.000000
O O5 0.662168 0.189012 0.460401
O O6 0.838543 0.217824 0.363043
O O7 0.718008 0.268689 0.346255
O O8 0.750092 0.000000 0.361664
O O9 0.836389 0.500000 0.464031
O O10 0.750000 0.250000 0.500000
O O11 0.921871 0.248754 0.412442
O O12 0.037093 0.500000 0.238196
O O13 0.036317 0.739933 0.179429
O O14 0.171218 0.693635 0.177908
O O15 0.015218 0.762906 0.287264
O O16 0.436565 0.500000 0.356860
O O17 0.735301 0.500000 0.279897
O O18 0.730709 0.239156 0.241600
O O19 0.869929 0.312559 0.233105
O O20 0.499452 0.000000 0.148532
O O21 0.220027 0.000000 0.827846
#
# Coordination Sequence:
#
# PCOD8081782 Si02
#       8
#     8   8   8   8   8   8   8   8
#     4   9  18  35  58  80 103 133 169 207 246 293
#     4   9  17  28  44  70 100 128 166 214 259 299
#     4   9  17  28  42  65  98 133 169 212 258 307
#     4  10  19  33  51  72 101 137 172 208 253 302
#     4  10  19  29  45  71 101 133 168 212 260 304
#     4  10  18  30  51  73  97 132 170 212 256 302
#     4   8  15  29  50  75  97 127 169 204 240 291
#     4  10  21  34  51  75 105 135 166 209 254 300
#
# _framework density 17.92719
#
# number of rings (size 3 to 8) (size 9 to 14) (size 15 to 20)
#    0.000    2.625    1.250    3.000    0.000    3.750 
#    0.000    0.625    0.000    0.750    0.000    5.250 
#    0.000    0.000    0.000    0.000    0.000    0.000 
#
# Total GULP energy -396644.574337 kJ/mol
# GULP energy per Si atom -12395.142948 kJ/mol
# Density = 1.788639 g / cm^3
# Si number density = 17.927190 Si / 1000 Ang^3
#
#
#
# Elastic Constant Matrix: (Units=GPa)
#
#
# Indices 1 2 3 4 5 6 
#
# 1 76.7794 29.3202 41.3393 -0.0002 5.8445 -0.0001
# 2 29.3202 74.1846 46.3338 -0.0011 4.4336 -0.0009
# 3 41.3393 46.3338 133.9176 -0.0001 13.0908 0.0000
# 4 -0.0002 -0.0011 -0.0001 27.8393 0.0000 -0.3287
# 5 5.8445 4.4336 13.0908 0.0000 17.8768 -0.0001
# 6 -0.0001 -0.0009 0.0000 -0.3287 -0.0001 19.8538
#
#
#
# Elastic Compliance Matrix: (Units=1/GPa)
#
#
# Indices 1 2 3 4 5 6 
#
# 1 0.016684 -0.004311 -0.003479 0.000000 -0.001838 0.000000
# 2 -0.004311 0.018310 -0.005060 0.000001 0.000574 0.000001
# 3 -0.003479 -0.005060 0.010834 0.000000 -0.005541 0.000000
# 4 0.000000 0.000001 0.000000 0.035927 0.000000 0.000595
# 5 -0.001838 0.000574 -0.005541 0.000000 0.060454 0.000000
# 6 0.000000 0.000001 0.000000 0.000595 0.000000 0.050378
#
#
# Mechanical properties :
#
#
# Convention : Reuss Voigt Hill
#
# Bulk Modulus (GPa) = 49.68579 57.65203 53.66891
# Shear Modulus (GPa) = 22.22252 24.30653 23.26452
#
# Velocity S-wave (km/s) = 3.52461 3.68618 3.60630
# Velocity P-wave (km/s) = 6.65878 7.09549 6.88060
#
# Compressibility (1/GPa) = 0.02012648
#
# Stress axis : x y z
#
# Youngs Moduli (GPa) = 59.93891 54.61462 92.30535
#
# Poissons Ratio (x) = 0.23546 0.32111
# Poissons Ratio (y) = 0.25842 0.46709
# Poissons Ratio (z) = 0.20852 0.27637
#
# Static dielectric constant tensor:
#      x y z
#    x 3.130230 0.000000 0.255300 
#    y 0.000000 3.298260 0.000000 
#    z 0.255300 0.000000 3.445730 
# 
# 
# High freq. dielectric constant tensor:
#      x y z
#    x 1.662910 0.000000 0.017770 
#    y 0.000000 1.689450 0.000000 
#    z 0.017770 0.000000 1.690560 
# 
# From -- ./inp_files/365163.got.cif
#   From: 2010.06.25/outbox.cif.g09.slc.cpg/sg12_183_cif.got.tgz:365163.got - 2010.06.28 00:19:55.
