data_PCOD8081083
_publ_section_title
;
Structure prediction by ZEFSAII (Michael W. Deem and Ramdas Pophale) SiO2 
 PCOD8081083
Probable space group: C 2/M
;
_chemical_formula_sum "Si O2"
_cell_formula_units_Z 56
_cell_length_a 19.190947
_cell_length_b 8.978631
_cell_length_c 28.588818
_cell_angle_alpha 90.000000
_cell_angle_beta 38.356320
_cell_angle_gamma 90.000000
_cell_volume 3056.888582
_symmetry_space_group_name_H-M "C 2/M"
_symmetry_group_IT_number 12
_symmetry_cell_setting 'monoclinic'
loop_
_space_group_symop_operation_xyz
x,y,z
-x,y,-z
-x,-y,-z
x,-y,z
1/2+x,1/2+y,z
1/2-x,1/2+y,-z
1/2-x,1/2-y,-z
1/2+x,1/2-y,z
loop_
_atom_site_type_symbol
_atom_site_label
_atom_site_fract_x
_atom_site_fract_y
_atom_site_fract_z
Si Si1 0.347014 0.672632 0.298520
Si Si2 0.593945 0.171817 0.413925
Si Si3 0.523388 0.826012 0.266334
Si Si4 0.626081 0.826037 0.812864
Si Si5 0.678780 0.828676 0.099379
Si Si6 0.414587 0.328436 0.940802
Si Si7 0.877680 0.174295 0.697020
O O1 0.378998 0.500000 0.279715
O O2 0.214222 0.697312 0.374968
O O3 0.409210 0.748660 0.309276
O O4 0.389569 0.748213 0.228788
O O5 0.500000 0.222284 0.500000
O O6 0.580245 0.274226 0.375786
O O7 0.579137 0.000000 0.406654
O O8 0.626776 0.790994 0.177091
O O9 0.552570 0.762093 0.301372
O O10 0.500324 0.000000 0.283034
O O11 0.525029 0.764276 0.898676
O O12 0.745743 0.786797 0.772720
O O13 0.612730 0.000000 0.811774
O O14 0.623921 0.721118 0.090400
O O15 0.654648 0.000000 0.097582
O O16 0.813178 0.799921 0.030784
O O17 0.448864 0.500000 0.920990
O O18 0.900145 0.000000 0.690659
#
# Coordination Sequence:
#
# PCOD8081083 Si02
#       7
#     8   8   8   8   8   8   8
#     4  10  19  32  55  83 107 136 176 216 257 313
#     4   9  19  38  62  86 111 138 170 211 260 315
#     4  11  21  35  54  77 109 144 178 219 268 317
#     4  10  19  33  51  74 104 139 179 224 268 312
#     4   9  19  32  47  72 105 139 176 223 273 315
#     4  10  18  29  49  75 101 135 180 227 271 314
#     4  10  22  37  55  79 109 142 178 219 263 314
#
# _framework density 18.319279999999999
#
# number of rings (size 3 to 8) (size 9 to 14) (size 15 to 20)
#    0.000    2.143    1.429    2.143    0.000    3.714 
#    0.000    1.429    0.000    4.286    0.000    0.000 
#    0.000    0.000    0.000    0.000    0.000    0.000 
#
# Total GULP energy -347240.889769 kJ/mol
# GULP energy per Si atom -12401.460349 kJ/mol
# Density = 1.827758 g / cm^3
# Si number density = 18.319280 Si / 1000 Ang^3
#
#
#
# Elastic Constant Matrix: (Units=GPa)
#
#
# Indices 1 2 3 4 5 6 
#
# 1 101.2842 48.5205 34.1005 0.0000 -5.4329 -0.0002
# 2 48.5205 92.5007 37.0519 -0.0001 -3.8535 -0.0002
# 3 34.1005 37.0519 99.5599 0.0000 -9.5917 0.0000
# 4 0.0000 -0.0001 0.0000 25.8288 0.0000 -2.0118
# 5 -5.4329 -3.8535 -9.5917 0.0000 18.4132 0.0000
# 6 -0.0002 -0.0002 0.0000 -2.0118 0.0000 29.1790
#
#
#
# Elastic Compliance Matrix: (Units=1/GPa)
#
#
# Indices 1 2 3 4 5 6 
#
# 1 0.013687 -0.006225 -0.002219 0.000000 0.001580 0.000000
# 2 -0.006225 0.015536 -0.003699 0.000000 -0.000512 0.000000
# 3 -0.002219 -0.003699 0.012680 0.000000 0.005176 0.000000
# 4 0.000000 0.000000 0.000000 0.038925 0.000000 0.002684
# 5 0.001580 -0.000512 0.005176 0.000000 0.057364 0.000000
# 6 0.000000 0.000000 0.000000 0.002684 0.000000 0.034456
#
#
# Mechanical properties :
#
#
# Convention : Reuss Voigt Hill
#
# Bulk Modulus (GPa) = 56.76441 59.18786 57.97614
# Shear Modulus (GPa) = 24.65395 26.26234 25.45815
#
# Velocity S-wave (km/s) = 3.67248 3.79039 3.73190
# Velocity P-wave (km/s) = 7.00259 7.17880 7.09124
#
# Compressibility (1/GPa) = 0.01761667
#
# Stress axis : x y z
#
# Youngs Moduli (GPa) = 73.06152 64.36554 78.86637
#
# Poissons Ratio (x) = 0.40066 0.17502
# Poissons Ratio (y) = 0.45479 0.29174
# Poissons Ratio (z) = 0.16214 0.23810
#
# Static dielectric constant tensor:
#      x y z
#    x 3.148480 0.000000 -0.248570 
#    y 0.000000 3.462660 0.000000 
#    z -0.248570 0.000000 3.500940 
# 
# 
# High freq. dielectric constant tensor:
#      x y z
#    x 1.686710 0.000000 -0.019720 
#    y 0.000000 1.722910 0.000000 
#    z -0.019720 0.000000 1.706040 
# 
# From -- ./inp_files/342029.got.cif
#   From: 2010.06.25/outbox.cif.g09.slc.cpg/sg12_172_cif.got.tgz:342029.got - 2010.06.28 00:19:55.
