data_PCOD8081752
_publ_section_title
;
Structure prediction by ZEFSAII (Michael W. Deem and Ramdas Pophale) SiO2 
 PCOD8081752
Probable space group: C 2/M
;
_chemical_formula_sum "Si O2"
_cell_formula_units_Z 56
_cell_length_a 27.327229
_cell_length_b 8.646098
_cell_length_c 20.176815
_cell_angle_alpha 90.000000
_cell_angle_beta 35.260989
_cell_angle_gamma 90.000000
_cell_volume 2752.144791
_symmetry_space_group_name_H-M "C 2/M"
_symmetry_group_IT_number 12
_symmetry_cell_setting 'monoclinic'
loop_
_space_group_symop_operation_xyz
x,y,z
-x,y,-z
-x,-y,-z
x,-y,z
1/2+x,1/2+y,z
1/2-x,1/2+y,-z
1/2-x,1/2-y,-z
1/2+x,1/2-y,z
loop_
_atom_site_type_symbol
_atom_site_label
_atom_site_fract_x
_atom_site_fract_y
_atom_site_fract_z
Si Si1 0.509201 0.316551 0.810860
Si Si2 0.805386 0.683490 0.379271
Si Si3 0.248356 0.683532 0.704970
Si Si4 0.277316 0.682391 0.901057
Si Si5 0.434831 0.315738 0.517725
Si Si6 0.037853 0.182661 0.281544
Si Si7 0.642185 0.816625 0.944718
O O1 0.519745 0.500000 0.799240
O O2 0.598870 0.238920 0.723325
O O3 0.474366 0.250748 0.779048
O O4 0.445519 0.266506 0.939855
O O5 0.801664 0.500000 0.386912
O O6 0.750000 0.750000 0.500000
O O7 0.768002 0.745963 0.350900
O O8 0.253404 0.500000 0.698206
O O9 0.338773 0.746359 0.632941
O O10 0.171646 0.734307 0.838425
O O11 0.271099 0.500000 0.910871
O O12 0.373955 0.736793 0.782530
O O13 0.216566 0.744802 0.910668
O O14 0.250000 0.750000 0.000000
O O15 0.500000 0.245735 0.500000
O O16 0.437065 0.500000 0.520954
O O17 0.463710 0.261104 0.412451
O O18 0.036707 0.000000 0.276119
O O19 0.628992 0.000000 0.964579
#
# Coordination Sequence:
#
# PCOD8081752 Si02
#       7
#     8   8   8   8   8   8   8
#     4  11  22  37  57  82 114 148 189 236 285 337
#     4  11  23  41  63  85 112 145 187 234 285 339
#     4   9  19  35  55  80 112 149 185 232 285 331
#     4  10  18  30  50  78 113 149 186 228 277 335
#     4   9  15  26  48  77 106 137 177 223 271 328
#     4   9  17  29  48  76 109 143 180 226 279 329
#     4  10  20  35  56  83 114 149 193 236 281 338
#
# _framework density 20.347767000000001
#
# number of rings (size 3 to 8) (size 9 to 14) (size 15 to 20)
#    0.000    2.143    1.429    2.571    0.000    6.286 
#    0.000    4.286    0.000    0.000    0.000    0.000 
#    0.000    9.143    0.000    0.000    0.000    0.000 
#
# Total GULP energy -347086.934448 kJ/mol
# GULP energy per Si atom -12395.961945 kJ/mol
# Density = 2.030145 g / cm^3
# Si number density = 20.347767 Si / 1000 Ang^3
#
#
#
# Elastic Constant Matrix: (Units=GPa)
#
#
# Indices 1 2 3 4 5 6 
#
# 1 137.2525 24.5426 76.0362 -0.0038 0.2643 0.0042
# 2 24.5426 26.6360 18.4983 -0.0046 -1.8661 0.0049
# 3 76.0362 18.4983 167.9978 -0.0066 -0.5763 0.0074
# 4 -0.0038 -0.0046 -0.0066 27.4264 0.0020 0.0954
# 5 0.2643 -1.8661 -0.5763 0.0020 41.8691 -0.0020
# 6 0.0042 0.0049 0.0074 0.0954 -0.0020 20.5713
#
#
#
# Elastic Compliance Matrix: (Units=1/GPa)
#
#
# Indices 1 2 3 4 5 6 
#
# 1 0.010853 -0.007167 -0.004125 -0.000001 -0.000445 0.000001
# 2 -0.007167 0.045513 -0.001761 0.000006 0.002049 -0.000009
# 3 -0.004125 -0.001761 0.008013 0.000001 0.000058 -0.000002
# 4 -0.000001 0.000006 0.000001 0.036462 -0.000001 -0.000169
# 5 -0.000445 0.002049 0.000058 -0.000001 0.023979 0.000002
# 6 0.000001 -0.000009 -0.000002 -0.000169 0.000002 0.048612
#
#
# Mechanical properties :
#
#
# Convention : Reuss Voigt Hill
#
# Bulk Modulus (GPa) = 26.12648 63.33786 44.73217
# Shear Modulus (GPa) = 23.55209 32.16063 27.85636
#
# Velocity S-wave (km/s) = 3.40586 3.97992 3.70403
# Velocity P-wave (km/s) = 5.32301 7.23291 6.35017
#
# Compressibility (1/GPa) = 0.03827534
#
# Stress axis : x y z
#
# Youngs Moduli (GPa) = 92.13872 21.97167 124.79236
#
# Poissons Ratio (x) = 0.15747 0.51471
# Poissons Ratio (y) = 0.66035 0.21972
# Poissons Ratio (z) = 0.38003 0.03868
#
# Static dielectric constant tensor:
#      x y z
#    x 3.800550 -0.000020 0.256280 
#    y -0.000020 3.212120 0.000060 
#    z 0.256280 0.000060 3.771590 
# 
# 
# High freq. dielectric constant tensor:
#      x y z
#    x 1.801980 0.000000 -0.000640 
#    y 0.000000 1.740610 0.000000 
#    z -0.000640 0.000000 1.814640 
# 
# From -- ./inp_files/329535.got.cif
#   From: 2010.06.25/outbox.cif.g09.slc.cpg/sg12_165_cif.got.tgz:329535.got - 2010.06.28 00:19:55.
