data_PCOD8081360
_publ_section_title
;
Structure prediction by ZEFSAII (Michael W. Deem and Ramdas Pophale) SiO2 
 PCOD8081360
Probable space group: C 2/M
;
_chemical_formula_sum "Si O2"
_cell_formula_units_Z 56
_cell_length_a 19.997332
_cell_length_b 10.278780
_cell_length_c 17.664116
_cell_angle_alpha 90.000000
_cell_angle_beta 55.448610
_cell_angle_gamma 90.000000
_cell_volume 2990.413726
_symmetry_space_group_name_H-M "C 2/M"
_symmetry_group_IT_number 12
_symmetry_cell_setting 'monoclinic'
loop_
_space_group_symop_operation_xyz
x,y,z
-x,y,-z
-x,-y,-z
x,-y,z
1/2+x,1/2+y,z
1/2-x,1/2+y,-z
1/2-x,1/2-y,-z
1/2+x,1/2-y,z
loop_
_atom_site_type_symbol
_atom_site_label
_atom_site_fract_x
_atom_site_fract_y
_atom_site_fract_z
Si Si1 0.877469 0.719280 0.913824
Si Si2 0.069562 0.151271 0.393862
Si Si3 0.029919 0.357531 0.898498
Si Si4 0.986119 0.148187 0.729974
Si Si5 0.708245 0.150197 0.301432
Si Si6 0.262688 0.355927 0.100847
Si Si7 0.620545 0.648997 0.753300
O O1 0.815953 0.636549 0.902680
O O2 0.952853 0.632478 0.891728
O O3 0.914417 0.833788 0.837514
O O4 0.832429 0.770137 0.017812
O O5 0.141935 0.247109 0.373167
O O6 0.000000 0.162550 0.500000
O O7 0.036125 0.213033 0.336200
O O8 0.099376 0.000000 0.368205
O O9 0.072360 0.500000 0.869303
O O10 0.092754 0.244486 0.837954
O O11 0.000000 0.320647 0.000000
O O12 0.073969 0.195239 0.706437
O O13 0.994366 0.000000 0.703285
O O14 0.738830 0.197341 0.198926
O O15 0.782186 0.158817 0.314577
O O16 0.675953 0.000000 0.318778
O O17 0.298237 0.500000 0.087738
O O18 0.594463 0.500000 0.789387
#
# Coordination Sequence:
#
# PCOD8081360 Si02
#       7
#     8   8   8   8   8   8   8
#     4  10  18  30  47  70 103 141 179 216 254 302
#     4  10  21  38  59  81 105 135 174 219 268 323
#     4  10  20  32  46  69 104 143 182 218 257 302
#     4   9  17  33  54  77 103 139 179 215 258 310
#     4  10  20  36  55  80 110 138 172 217 266 313
#     4  10  19  29  45  72 104 137 175 215 257 303
#     4   9  19  34  54  76 103 138 176 216 259 312
#
# _framework density 18.726506000000001
#
# number of rings (size 3 to 8) (size 9 to 14) (size 15 to 20)
#    0.000    2.286    1.429    1.714    0.000    1.714 
#    0.000    1.429    0.000    0.000    0.000    0.000 
#    0.000    0.000    0.000    0.000    0.000    0.000 
#
# Total GULP energy -346977.106027 kJ/mol
# GULP energy per Si atom -12392.039501 kJ/mol
# Density = 1.868388 g / cm^3
# Si number density = 18.726506 Si / 1000 Ang^3
#
#
#
# Elastic Constant Matrix: (Units=GPa)
#
#
# Indices 1 2 3 4 5 6 
#
# 1 80.3646 32.4074 26.5771 0.0000 -11.4943 0.0000
# 2 32.4074 83.6638 30.3864 0.0000 -14.0934 -0.0001
# 3 26.5771 30.3864 65.5832 0.0000 -8.3378 0.0000
# 4 0.0000 0.0000 0.0000 20.0731 0.0000 -2.3501
# 5 -11.4943 -14.0934 -8.3378 0.0000 18.4899 0.0000
# 6 0.0000 -0.0001 0.0000 -2.3501 0.0000 22.2748
#
#
#
# Elastic Compliance Matrix: (Units=1/GPa)
#
#
# Indices 1 2 3 4 5 6 
#
# 1 0.016098 -0.003881 -0.004062 0.000000 0.005217 0.000000
# 2 -0.003881 0.016664 -0.005134 0.000000 0.007973 0.000000
# 3 -0.004062 -0.005134 0.019576 0.000000 0.002389 0.000000
# 4 0.000000 0.000000 0.000000 0.050441 0.000000 0.005322
# 5 0.005217 0.007973 0.002389 0.000000 0.064482 0.000000
# 6 0.000000 0.000000 0.000000 0.005322 0.000000 0.045455
#
#
# Mechanical properties :
#
#
# Convention : Reuss Voigt Hill
#
# Bulk Modulus (GPa) = 38.19244 45.37260 41.78252
# Shear Modulus (GPa) = 20.19390 21.51695 20.85542
#
# Velocity S-wave (km/s) = 3.28740 3.39338 3.34081
# Velocity P-wave (km/s) = 5.90326 6.29564 6.10260
#
# Compressibility (1/GPa) = 0.02618319
#
# Stress axis : x y z
#
# Youngs Moduli (GPa) = 62.11941 60.00964 51.08182
#
# Poissons Ratio (x) = 0.23293 0.20749
# Poissons Ratio (y) = 0.24112 0.26227
# Poissons Ratio (z) = 0.25232 0.30810
#
# Static dielectric constant tensor:
#      x y z
#    x 3.671350 0.000000 0.122080 
#    y 0.000000 3.302940 0.000000 
#    z 0.122080 0.000000 3.121710 
# 
# 
# High freq. dielectric constant tensor:
#      x y z
#    x 1.740600 0.000000 0.006840 
#    y 0.000000 1.717630 0.000000 
#    z 0.006840 0.000000 1.690930 
# 
# From -- ./inp_files/282781.got.cif
#   From: 2010.06.25/outbox.cif.g09.slc.cpg/sg12_142_cif.got.tgz:282781.got - 2010.06.28 00:19:55.
