data_PCOD8081398
_publ_section_title
;
Structure prediction by ZEFSAII (Michael W. Deem and Ramdas Pophale) SiO2 
 PCOD8081398
Probable space group: C 2/M
;
_chemical_formula_sum "Si O2"
_cell_formula_units_Z 56
_cell_length_a 20.823957
_cell_length_b 28.611452
_cell_length_c 5.103161
_cell_angle_alpha 90.000000
_cell_angle_beta 93.840246
_cell_angle_gamma 90.000000
_cell_volume 3033.655044
_symmetry_space_group_name_H-M "C 2/M"
_symmetry_group_IT_number 12
_symmetry_cell_setting 'monoclinic'
loop_
_space_group_symop_operation_xyz
x,y,z
-x,y,-z
-x,-y,-z
x,-y,z
1/2+x,1/2+y,z
1/2-x,1/2+y,-z
1/2-x,1/2-y,-z
1/2+x,1/2-y,z
loop_
_atom_site_type_symbol
_atom_site_label
_atom_site_fract_x
_atom_site_fract_y
_atom_site_fract_z
Si Si1 0.767328 0.107812 0.580969
Si Si2 0.231047 0.052470 0.917283
Si Si3 0.422309 0.552544 0.130124
Si Si4 0.420687 0.391878 0.628554
Si Si5 0.066844 0.787292 0.424924
Si Si6 0.143261 0.234893 0.953241
Si Si7 0.260925 0.207834 0.297887
O O1 0.741897 0.078374 0.329673
O O2 0.843992 0.111657 0.606935
O O3 0.734253 0.158800 0.551883
O O4 0.742366 0.080824 0.828772
O O5 0.154325 0.051127 0.889404
O O6 0.258565 0.000000 0.933882
O O7 0.449303 0.500000 0.172929
O O8 0.447455 0.586766 0.365424
O O9 0.446906 0.573667 0.862080
O O10 0.447260 0.339682 0.679995
O O11 0.112877 0.790492 0.691942
O O12 0.000000 0.763606 0.500000
O O13 0.094498 0.757389 0.185575
O O14 0.174211 0.283392 0.855436
O O15 0.201274 0.202876 0.078795
O O16 0.250000 0.250000 0.500000
#
# Coordination Sequence:
#
# PCOD8081398 Si02
#       7
#     8   8   8   8   8   8   8
#     4  10  19  28  51  70  98 135 167 212 269 299
#     4   9  18  29  42  68 100 131 172 207 247 317
#     4   9  17  28  45  66  89 120 157 215 273 315
#     4  10  18  30  48  67  93 119 170 214 258 318
#     4  12  24  39  55  74 101 137 180 217 264 317
#     4  11  23  37  55  78 106 135 170 220 269 308
#     4  11  22  35  58  81 114 132 173 226 272 322
#
# _framework density 18.459579999999999
#
# number of rings (size 3 to 8) (size 9 to 14) (size 15 to 20)
#    0.000    1.714    2.857    2.143    8.000    3.429 
#    0.000    0.000    0.000    2.571    0.000    0.000 
#    0.000    0.000    0.000    0.000    0.000   50.000 
#
# Total GULP energy -347186.717639 kJ/mol
# GULP energy per Si atom -12399.525630 kJ/mol
# Density = 1.841757 g / cm^3
# Si number density = 18.459580 Si / 1000 Ang^3
#
#
#
# Elastic Constant Matrix: (Units=GPa)
#
#
# Indices 1 2 3 4 5 6 
#
# 1 46.5467 25.0899 27.0455 0.0000 -17.5768 0.0000
# 2 25.0899 112.2371 58.7960 0.0000 -13.8047 0.0000
# 3 27.0455 58.7960 148.9274 0.0000 -18.8825 0.0000
# 4 0.0000 0.0000 0.0000 33.5688 0.0000 -1.1516
# 5 -17.5768 -13.8047 -18.8825 0.0000 27.8888 0.0000
# 6 0.0000 0.0000 0.0000 -1.1516 0.0000 13.0900
#
#
#
# Elastic Compliance Matrix: (Units=1/GPa)
#
#
# Indices 1 2 3 4 5 6 
#
# 1 0.030837 -0.003840 -0.002036 0.000000 0.016156 0.000000
# 2 -0.003840 0.011914 -0.003900 0.000000 0.000837 0.000000
# 3 -0.002036 -0.003900 0.008988 0.000000 0.002872 0.000000
# 4 0.000000 0.000000 0.000000 0.029880 0.000000 0.002629
# 5 0.016156 0.000837 0.002872 0.000000 0.048398 0.000000
# 6 0.000000 0.000000 0.000000 0.002629 0.000000 0.076625
#
#
# Mechanical properties :
#
#
# Convention : Reuss Voigt Hill
#
# Bulk Modulus (GPa) = 31.06749 58.84156 44.95452
# Shear Modulus (GPa) = 21.10383 28.02817 24.56600
#
# Velocity S-wave (km/s) = 3.38486 3.90083 3.65197
# Velocity P-wave (km/s) = 5.66947 7.22729 6.49525
#
# Compressibility (1/GPa) = 0.03218799
#
# Stress axis : x y z
#
# Youngs Moduli (GPa) = 32.42827 83.93359 111.25547
#
# Poissons Ratio (x) = 0.32230 0.22648
# Poissons Ratio (y) = 0.12452 0.43393
# Poissons Ratio (z) = 0.06601 0.32736
#
# Static dielectric constant tensor:
#      x y z
#    x 3.171140 0.000000 -0.197120 
#    y 0.000000 3.327510 0.000000 
#    z -0.197120 0.000000 3.742700 
# 
# 
# High freq. dielectric constant tensor:
#      x y z
#    x 1.663050 0.000000 -0.012940 
#    y 0.000000 1.695400 0.000000 
#    z -0.012940 0.000000 1.744470 
# 
# From -- ./inp_files/22189.got.cif
#   From: 2010.06.25/outbox.cif.g09.slc.cpg/sg12_12_cif.got.tgz:22189.got - 2010.06.28 00:19:55.
