data_PCOD8081445
_publ_section_title
;
Structure prediction by ZEFSAII (Michael W. Deem and Ramdas Pophale) SiO2 
 PCOD8081445
Probable space group: C 2/M
;
_chemical_formula_sum "Si O2"
_cell_formula_units_Z 64
_cell_length_a 27.680155
_cell_length_b 8.871315
_cell_length_c 20.576169
_cell_angle_alpha 90.000000
_cell_angle_beta 46.505291
_cell_angle_gamma 90.000000
_cell_volume 3665.399346
_symmetry_space_group_name_H-M "C 2/M"
_symmetry_group_IT_number 12
_symmetry_cell_setting 'monoclinic'
loop_
_space_group_symop_operation_xyz
x,y,z
-x,y,-z
-x,-y,-z
x,-y,z
1/2+x,1/2+y,z
1/2-x,1/2+y,-z
1/2-x,1/2-y,-z
1/2+x,1/2-y,z
loop_
_atom_site_type_symbol
_atom_site_label
_atom_site_fract_x
_atom_site_fract_y
_atom_site_fract_z
Si Si1 0.509517 0.174528 0.317595
Si Si2 0.813536 0.678203 0.656698
Si Si3 0.855448 0.326714 0.475238
Si Si4 0.439953 0.321735 0.602801
Si Si5 0.667581 0.668523 0.628013
Si Si6 0.989706 0.167503 0.210102
Si Si7 0.956135 0.177734 0.102132
Si Si8 0.816376 0.321397 0.254059
O O1 0.432910 0.210020 0.400830
O O2 0.548746 0.273729 0.333384
O O3 0.527179 0.224874 0.227225
O O4 0.527905 0.000000 0.309563
O O5 0.810466 0.500000 0.670289
O O6 0.830554 0.725715 0.567819
O O7 0.870302 0.746026 0.649447
O O8 0.741640 0.752497 0.738361
O O9 0.842090 0.500000 0.473978
O O10 0.812996 0.238409 0.459901
O O11 0.500000 0.264217 0.500000
O O12 0.433218 0.500000 0.603879
O O13 0.697232 0.500000 0.606610
O O14 0.588455 0.666331 0.704545
O O15 0.696443 0.765760 0.660424
O O16 0.998224 0.224781 0.127757
O O17 0.019569 0.000000 0.190823
O O18 0.886885 0.265744 0.161299
O O19 0.939928 0.000000 0.120032
O O20 0.000000 0.223303 0.000000
O O21 0.813959 0.500000 0.254025
#
# Coordination Sequence:
#
# PCOD8081445 Si02
#       8
#     8   8   8   8   8   8   8   8
#     4  10  18  30  48  70  98 133 173 216 257 297
#     4  11  22  36  51  68  96 133 175 217 258 302
#     4   9  18  30  46  68  93 127 171 216 256 295
#     4  11  22  34  50  72  98 131 175 223 266 303
#     4   9  17  30  48  67  93 131 171 208 249 297
#     4   8  15  28  47  74 103 130 162 204 249 296
#     4   9  18  35  59  84 108 135 166 201 248 307
#     4  11  22  35  50  72 103 134 167 207 253 303
#
# _framework density 17.46058
#
# number of rings (size 3 to 8) (size 9 to 14) (size 15 to 20)
#    0.000    2.250    1.250    3.375    0.000    5.750 
#    0.000    0.000    0.000    0.000    0.000    0.875 
#    0.000    0.000    0.000    0.000    0.000    0.000 
#
# Total GULP energy -396733.866908 kJ/mol
# GULP energy per Si atom -12397.933341 kJ/mol
# Density = 1.742084 g / cm^3
# Si number density = 17.460580 Si / 1000 Ang^3
#
#
#
# Elastic Constant Matrix: (Units=GPa)
#
#
# Indices 1 2 3 4 5 6 
#
# 1 128.3022 62.2241 56.1414 -0.0010 -0.9456 -0.0009
# 2 62.2241 96.3828 28.5015 -0.0012 -3.2095 0.0003
# 3 56.1414 28.5015 56.0911 0.0049 13.7879 -0.0031
# 4 -0.0010 -0.0012 0.0049 18.3642 0.0012 3.7434
# 5 -0.9456 -3.2095 13.7879 0.0012 24.0460 0.0006
# 6 -0.0009 0.0003 -0.0031 3.7434 0.0006 30.5884
#
#
#
# Elastic Compliance Matrix: (Units=1/GPa)
#
#
# Indices 1 2 3 4 5 6 
#
# 1 0.019043 -0.006543 -0.018282 0.000005 0.010358 -0.000002
# 2 -0.006543 0.015261 -0.001912 0.000001 0.002876 -0.000001
# 3 -0.018282 -0.001912 0.043464 -0.000012 -0.025896 0.000006
# 4 0.000005 0.000001 -0.000012 0.055847 0.000005 -0.006835
# 5 0.010358 0.002876 -0.025896 0.000005 0.057227 -0.000004
# 6 -0.000002 -0.000001 0.000006 -0.006835 -0.000004 0.033529
#
#
# Mechanical properties :
#
#
# Convention : Reuss Voigt Hill
#
# Bulk Modulus (GPa) = 41.16399 63.83445 52.49922
# Shear Modulus (GPa) = 17.48594 23.52697 20.50645
#
# Velocity S-wave (km/s) = 3.16801 3.67472 3.43073
# Velocity P-wave (km/s) = 6.08344 7.39211 6.76947
#
# Compressibility (1/GPa) = 0.02429308
#
# Stress axis : x y z
#
# Youngs Moduli (GPa) = 52.51141 65.52719 23.00756
#
# Poissons Ratio (x) = 0.42876 0.42062
# Poissons Ratio (y) = 0.34359 0.04400
# Poissons Ratio (z) = 0.96001 0.12531
#
# Static dielectric constant tensor:
#      x y z
#    x 3.340050 -0.000010 0.147430 
#    y -0.000010 3.300300 0.000010 
#    z 0.147430 0.000010 3.056590 
# 
# 
# High freq. dielectric constant tensor:
#      x y z
#    x 1.675180 0.000000 0.010030 
#    y 0.000000 1.680860 0.000000 
#    z 0.010030 0.000000 1.633790 
# 
# From -- ./inp_files/326860.got.cif
#   From: 2010.06.25/outbox.cif.g09.slc.cpg/sg12_164_cif.got.tgz:326860.got - 2010.06.28 00:19:55.
