data_PCOD8081671
_publ_section_title
;
Structure prediction by ZEFSAII (Michael W. Deem and Ramdas Pophale) SiO2 
 PCOD8081671
Probable space group: C 2/M
;
_chemical_formula_sum "Si O2"
_cell_formula_units_Z 64
_cell_length_a 24.718022
_cell_length_b 17.368667
_cell_length_c 18.497616
_cell_angle_alpha 90.000000
_cell_angle_beta 153.597559
_cell_angle_gamma 90.000000
_cell_volume 3531.319840
_symmetry_space_group_name_H-M "C 2/M"
_symmetry_group_IT_number 12
_symmetry_cell_setting 'monoclinic'
loop_
_space_group_symop_operation_xyz
x,y,z
-x,y,-z
-x,-y,-z
x,-y,z
1/2+x,1/2+y,z
1/2-x,1/2+y,-z
1/2-x,1/2-y,-z
1/2+x,1/2-y,z
loop_
_atom_site_type_symbol
_atom_site_label
_atom_site_fract_x
_atom_site_fract_y
_atom_site_fract_z
Si Si1 0.049976 0.683091 0.687700
Si Si2 0.566454 0.302791 0.151999
Si Si3 0.002715 0.914852 0.815323
Si Si4 0.216665 0.711137 0.680677
Si Si5 0.355731 0.783838 0.971019
Si Si6 0.367050 0.679900 0.122983
Si Si7 0.773936 0.413653 0.201108
Si Si8 0.144752 0.408541 0.920294
O O1 0.120592 0.760391 0.796957
O O2 0.122448 0.637702 0.712985
O O3 0.034473 0.626279 0.739087
O O4 0.923537 0.715651 0.507280
O O5 0.579225 0.374621 0.221978
O O6 0.701361 0.273215 0.292676
O O7 0.500000 0.331846 0.000000
O O8 0.488002 0.234765 0.094942
O O9 0.006576 0.865805 0.744717
O O10 0.950390 0.000000 0.739984
O O11 0.145195 0.915583 0.007092
O O12 0.250988 0.772853 0.784835
O O13 0.247455 0.625084 0.746354
O O14 0.326974 0.726442 0.002831
O O15 0.358024 0.871795 0.002598
O O16 0.266167 0.616418 0.022662
O O17 0.824968 0.500000 0.271301
O O18 0.135887 0.500000 0.916097
#
# Coordination Sequence:
#
# PCOD8081671 Si02
#       8
#     8   8   8   8   8   8   8   8
#     4  11  22  31  52  79 109 132 167 209 265 307
#     4   9  17  32  53  72  97 134 178 212 241 294
#     4  10  18  30  50  73  99 129 168 209 245 294
#     4  11  20  35  51  76 104 139 168 213 258 301
#     4   9  18  34  54  74  99 135 182 215 243 297
#     4  10  18  33  51  74  98 136 175 206 241 306
#     4  11  20  30  47  75 107 134 158 199 256 310
#     4  11  20  33  54  78 105 136 172 212 255 308
#
# _framework density 18.123536000000001
#
# number of rings (size 3 to 8) (size 9 to 14) (size 15 to 20)
#    0.000    1.750    5.000    3.375    0.000    2.250 
#    0.000    5.625    0.000    5.625    0.000    0.000 
#    0.000    0.000    0.000    0.000    0.000    0.000 
#
# Total GULP energy -396464.486883 kJ/mol
# GULP energy per Si atom -12389.515215 kJ/mol
# Density = 1.808229 g / cm^3
# Si number density = 18.123536 Si / 1000 Ang^3
#
#
#
# Elastic Constant Matrix: (Units=GPa)
#
#
# Indices 1 2 3 4 5 6 
#
# 1 92.2272 32.2565 29.0632 0.0001 1.2340 0.0001
# 2 32.2565 102.6427 19.2444 0.0001 -13.0049 0.0001
# 3 29.0632 19.2444 67.1899 0.0001 4.3958 0.0001
# 4 0.0001 0.0001 0.0001 8.4668 0.0001 -6.1258
# 5 1.2340 -13.0049 4.3958 0.0001 16.7255 0.0001
# 6 0.0001 0.0001 0.0001 -6.1258 0.0001 23.0950
#
#
#
# Elastic Compliance Matrix: (Units=1/GPa)
#
#
# Indices 1 2 3 4 5 6 
#
# 1 0.013662 -0.003765 -0.004654 0.000000 -0.002712 0.000000
# 2 -0.003765 0.012836 -0.002767 0.000000 0.010986 0.000000
# 3 -0.004654 -0.002767 0.018119 0.000000 -0.006570 0.000000
# 4 0.000000 0.000000 0.000000 0.146156 -0.000001 0.038767
# 5 -0.002712 0.010986 -0.006570 -0.000001 0.070258 0.000000
# 6 0.000000 0.000000 0.000000 0.038767 0.000000 0.053582
#
#
# Mechanical properties :
#
#
# Convention : Reuss Voigt Hill
#
# Bulk Modulus (GPa) = 44.95136 47.02089 45.98612
# Shear Modulus (GPa) = 14.51803 21.75718 18.13760
#
# Velocity S-wave (km/s) = 2.83337 3.46857 3.16694
# Velocity P-wave (km/s) = 5.96327 6.48400 6.22908
#
# Compressibility (1/GPa) = 0.02224627
#
# Stress axis : x y z
#
# Youngs Moduli (GPa) = 73.19387 77.90426 55.19177
#
# Poissons Ratio (x) = 0.29328 0.25686
# Poissons Ratio (y) = 0.27554 0.15271
# Poissons Ratio (z) = 0.34065 0.21555
#
# Static dielectric constant tensor:
#      x y z
#    x 3.740460 0.000000 -0.041770 
#    y 0.000000 3.705570 0.000000 
#    z -0.041770 0.000000 3.069290 
# 
# 
# High freq. dielectric constant tensor:
#      x y z
#    x 1.712940 0.000000 0.003940 
#    y 0.000000 1.684270 0.000000 
#    z 0.003940 0.000000 1.658680 
# 
# From -- ./inp_files/290461.got.cif
#   From: 2010.06.25/outbox.cif.g09.slc.cpg/sg12_146_cif.got.tgz:290461.got - 2010.06.28 00:19:55.
