data_PCOD8081372
_publ_section_title
;
Structure prediction by ZEFSAII (Michael W. Deem and Ramdas Pophale) SiO2 
 PCOD8081372
Probable space group: C 2/M
;
_chemical_formula_sum "Si O2"
_cell_formula_units_Z 40
_cell_length_a 20.721332
_cell_length_b 7.702709
_cell_length_c 19.424278
_cell_angle_alpha 90.000000
_cell_angle_beta 133.979377
_cell_angle_gamma 90.000000
_cell_volume 2230.956164
_symmetry_space_group_name_H-M "C 2/M"
_symmetry_group_IT_number 12
_symmetry_cell_setting 'monoclinic'
loop_
_space_group_symop_operation_xyz
x,y,z
-x,y,-z
-x,-y,-z
x,-y,z
1/2+x,1/2+y,z
1/2-x,1/2+y,-z
1/2-x,1/2-y,-z
1/2+x,1/2-y,z
loop_
_atom_site_type_symbol
_atom_site_label
_atom_site_fract_x
_atom_site_fract_y
_atom_site_fract_z
Si Si1 0.230401 0.800049 0.750755
Si Si2 0.485418 0.000000 0.600726
Si Si3 0.069779 0.807375 0.734424
Si Si4 0.145876 0.500000 0.612179
Si Si5 0.406774 0.794245 0.959394
Si Si6 0.853092 0.295850 0.068554
O O1 0.163193 0.772424 0.764656
O O2 0.203662 0.674557 0.667828
O O3 0.327780 0.739944 0.848960
O O4 0.229412 0.000000 0.724361
O O5 0.494312 0.828811 0.654513
O O6 0.561502 0.000000 0.599779
O O7 0.388256 0.000000 0.492012
O O8 0.088034 0.793737 0.828908
O O9 0.033507 0.000000 0.690636
O O10 0.410831 0.000000 0.967070
O O11 0.500000 0.716511 0.000000
O O12 0.388171 0.720695 0.021849
O O13 0.866885 0.500000 0.084532
O O14 0.750000 0.250000 0.000000
#
# Coordination Sequence:
#
# PCOD8081372 Si02
#       6
#     8   4   8   4   8   8
#     4   9  17  30  48  70  99 135 168 203 250 303
#     4   9  18  32  46  72 101 130 162 213 262 300
#     4  10  18  30  47  72 102 130 166 209 250 303
#     4   9  18  30  49  70 100 130 167 209 258 306
#     4   9  18  32  49  72 106 140 172 208 250 302
#     4  11  19  29  49  74 102 140 173 203 250 304
#
# _framework density 17.929531000000001
#
# number of rings (size 3 to 8) (size 9 to 14) (size 15 to 20)
#    0.000    2.400    3.000    0.600    0.000    0.800 
#    1.800    4.500    0.000    0.000    0.000    1.400 
#    0.000    0.000    0.000    0.000    0.000    0.000 
#
# Total GULP energy -247972.613442 kJ/mol
# GULP energy per Si atom -12398.630672 kJ/mol
# Density = 1.788872 g / cm^3
# Si number density = 17.929531 Si / 1000 Ang^3
#
#
#
# Elastic Constant Matrix: (Units=GPa)
#
#
# Indices 1 2 3 4 5 6 
#
# 1 77.2337 20.7800 45.9657 0.0000 0.0853 0.0000
# 2 20.7800 105.5849 67.4297 0.0000 0.6282 0.0000
# 3 45.9657 67.4297 168.0214 0.0000 -4.1809 0.0000
# 4 0.0000 0.0000 0.0000 27.1057 0.0000 0.5518
# 5 0.0853 0.6282 -4.1809 0.0000 15.4252 0.0000
# 6 0.0000 0.0000 0.0000 0.5518 0.0000 10.0713
#
#
#
# Elastic Compliance Matrix: (Units=1/GPa)
#
#
# Indices 1 2 3 4 5 6 
#
# 1 0.015504 -0.000426 -0.004100 0.000000 -0.001180 0.000000
# 2 -0.000426 0.012803 -0.005069 0.000000 -0.001893 0.000000
# 3 -0.004100 -0.005069 0.009175 0.000000 0.002716 0.000000
# 4 0.000000 0.000000 0.000000 0.036934 0.000000 -0.002024
# 5 -0.001180 -0.001893 0.002716 0.000000 0.065649 0.000000
# 6 0.000000 0.000000 0.000000 -0.002024 0.000000 0.099403
#
#
# Mechanical properties :
#
#
# Convention : Reuss Voigt Hill
#
# Bulk Modulus (GPa) = 54.66614 68.79896 61.73255
# Shear Modulus (GPa) = 18.88552 24.96476 21.92514
#
# Velocity S-wave (km/s) = 3.24901 3.73551 3.50072
# Velocity P-wave (km/s) = 6.68060 7.55384 7.13060
#
# Compressibility (1/GPa) = 0.01829286
#
# Stress axis : x y z
#
# Youngs Moduli (GPa) = 64.50119 78.10576 108.99304
#
# Poissons Ratio (x) = 0.03327 0.44684
# Poissons Ratio (y) = 0.02748 0.55245
# Poissons Ratio (z) = 0.26444 0.39589
#
# Static dielectric constant tensor:
#      x y z
#    x 3.096380 0.000000 -0.050630 
#    y 0.000000 3.385030 0.000000 
#    z -0.050630 0.000000 3.441840 
# 
# 
# High freq. dielectric constant tensor:
#      x y z
#    x 1.642390 0.000000 -0.006360 
#    y 0.000000 1.700590 0.000000 
#    z -0.006360 0.000000 1.690430 
# 
# From -- ./inp_files/229112.got.cif
#   From: 2010.06.25/outbox.cif.g09.slc.cpg/sg12_115_cif.got.tgz:229112.got - 2010.06.28 00:19:55.
