data_PCOD8081762
_publ_section_title
;
Structure prediction by ZEFSAII (Michael W. Deem and Ramdas Pophale) SiO2 
 PCOD8081762
Probable space group: C 2/M
;
_chemical_formula_sum "Si O2"
_cell_formula_units_Z 44
_cell_length_a 20.150091
_cell_length_b 8.966550
_cell_length_c 12.939304
_cell_angle_alpha 90.000000
_cell_angle_beta 102.890892
_cell_angle_gamma 90.000000
_cell_volume 2278.910871
_symmetry_space_group_name_H-M "C 2/M"
_symmetry_group_IT_number 12
_symmetry_cell_setting 'monoclinic'
loop_
_space_group_symop_operation_xyz
x,y,z
-x,y,-z
-x,-y,-z
x,-y,z
1/2+x,1/2+y,z
1/2-x,1/2+y,-z
1/2-x,1/2-y,-z
1/2+x,1/2-y,z
loop_
_atom_site_type_symbol
_atom_site_label
_atom_site_fract_x
_atom_site_fract_y
_atom_site_fract_z
Si Si1 0.563472 0.166534 0.227266
Si Si2 0.338092 0.176057 0.234666
Si Si3 0.700513 0.178421 0.183656
Si Si4 0.000000 0.243170 0.000000
Si Si5 0.023454 0.323366 0.617840
Si Si6 0.141491 0.166386 0.972110
O O1 0.637973 0.238478 0.232850
O O2 0.522726 0.248972 0.305894
O O3 0.576495 0.000000 0.269318
O O4 0.519746 0.158476 0.106453
O O5 0.270474 0.257080 0.254003
O O6 0.397496 0.215134 0.336710
O O7 0.361361 0.240608 0.133381
O O8 0.325847 0.000000 0.220471
O O9 0.701635 0.000000 0.177703
O O10 0.691768 0.244907 0.065840
O O11 0.934307 0.145818 0.007457
O O12 0.013747 0.500000 0.615701
O O13 0.000000 0.255090 0.500000
O O14 0.170745 0.000000 0.962622
#
# Coordination Sequence:
#
# PCOD8081762 Si02
#       6
#     8   8   8   4   8   8
#     4   9  17  31  53  80 109 142 181 223 267 320
#     4  11  21  35  55  79 108 143 182 225 271 320
#     4  10  21  35  53  78 112 147 179 219 268 327
#     4  10  18  30  50  80 111 144 173 220 273 324
#     4   9  18  34  57  82 105 137 186 233 268 312
#     4  11  21  33  51  79 114 147 180 217 269 328
#
# _framework density 19.307468
#
# number of rings (size 3 to 8) (size 9 to 14) (size 15 to 20)
#    0.000    2.000    1.818    2.727    0.000    1.455 
#    0.000    0.909    0.000    2.182    0.000    0.000 
#    0.000    0.000    0.000    0.000    0.000    0.000 
#
# Total GULP energy -272660.717526 kJ/mol
# GULP energy per Si atom -12393.668978 kJ/mol
# Density = 1.926352 g / cm^3
# Si number density = 19.307468 Si / 1000 Ang^3
#
#
#
# Elastic Constant Matrix: (Units=GPa)
#
#
# Indices 1 2 3 4 5 6 
#
# 1 144.5907 32.0287 73.7536 0.0000 8.9267 0.0000
# 2 32.0287 72.3805 18.2319 0.0000 10.8855 0.0000
# 3 73.7536 18.2319 126.3439 0.0000 7.1718 0.0000
# 4 0.0000 0.0000 0.0000 11.5736 0.0000 2.3951
# 5 8.9267 10.8855 7.1718 0.0000 26.8179 0.0000
# 6 0.0000 0.0000 0.0000 2.3951 0.0000 23.4477
#
#
#
# Elastic Compliance Matrix: (Units=1/GPa)
#
#
# Indices 1 2 3 4 5 6 
#
# 1 0.010542 -0.003130 -0.005661 0.000000 -0.000725 0.000000
# 2 -0.003130 0.016063 -0.000183 0.000000 -0.005430 0.000000
# 3 -0.005661 -0.000183 0.011306 0.000000 -0.001065 0.000000
# 4 0.000000 0.000000 0.000000 0.088270 0.000000 -0.009017
# 5 -0.000725 -0.005430 -0.001065 0.000000 0.040018 0.000000
# 6 0.000000 0.000000 0.000000 -0.009017 0.000000 0.043569
#
#
# Mechanical properties :
#
#
# Convention : Reuss Voigt Hill
#
# Bulk Modulus (GPa) = 50.08928 65.70483 57.89705
# Shear Modulus (GPa) = 21.33372 26.98789 24.16080
#
# Velocity S-wave (km/s) = 3.32768 3.74277 3.54131
# Velocity P-wave (km/s) = 6.38466 7.26515 6.83909
#
# Compressibility (1/GPa) = 0.01996435
#
# Stress axis : x y z
#
# Youngs Moduli (GPa) = 94.86154 62.25321 88.44595
#
# Poissons Ratio (x) = 0.19484 0.50069
# Poissons Ratio (y) = 0.29690 0.01617
# Poissons Ratio (z) = 0.53701 0.01138
#
# Static dielectric constant tensor:
#      x y z
#    x 3.899210 0.000000 -0.070020 
#    y 0.000000 3.157040 0.000000 
#    z -0.070020 0.000000 3.540520 
# 
# 
# High freq. dielectric constant tensor:
#      x y z
#    x 1.773660 0.000000 -0.001210 
#    y 0.000000 1.720750 0.000000 
#    z -0.001210 0.000000 1.721310 
# 
# From -- ./inp_files/163230.got.cif
#   From: 2010.06.25/outbox.cif.g09.slc.cpg/sg12_82_cif.got.tgz:163230.got - 2010.06.28 00:19:55.
