data_PCOD8081168
_publ_section_title
;
Structure prediction by ZEFSAII (Michael W. Deem and Ramdas Pophale) SiO2 
 PCOD8081168
Probable space group: C 2/M
;
_chemical_formula_sum "Si O2"
_cell_formula_units_Z 64
_cell_length_a 20.420680
_cell_length_b 9.036274
_cell_length_c 21.697581
_cell_angle_alpha 90.000000
_cell_angle_beta 111.596760
_cell_angle_gamma 90.000000
_cell_volume 3722.709870
_symmetry_space_group_name_H-M "C 2/M"
_symmetry_group_IT_number 12
_symmetry_cell_setting 'monoclinic'
loop_
_space_group_symop_operation_xyz
x,y,z
-x,y,-z
-x,-y,-z
x,-y,z
1/2+x,1/2+y,z
1/2-x,1/2+y,-z
1/2-x,1/2-y,-z
1/2+x,1/2-y,z
loop_
_atom_site_type_symbol
_atom_site_label
_atom_site_fract_x
_atom_site_fract_y
_atom_site_fract_z
Si Si1 0.323543 0.828037 0.532110
Si Si2 0.370730 0.338562 0.192695
Si Si3 0.969625 0.176339 0.053683
Si Si4 0.579074 0.172716 0.545206
Si Si5 0.319669 0.677455 0.049849
Si Si6 0.070043 0.822511 0.666114
Si Si7 0.971719 0.836778 0.800426
Si Si8 0.933349 0.673612 0.670726
O O1 0.250000 0.750000 0.500000
O O2 0.372914 0.772017 0.493981
O O3 0.359911 0.792876 0.610492
O O4 0.309982 0.000000 0.520307
O O5 0.336628 0.500000 0.188979
O O6 0.327233 0.258821 0.122925
O O7 0.374820 0.263305 0.261737
O O8 0.450550 0.354549 0.198456
O O9 0.888467 0.228503 0.034711
O O10 0.020491 0.230875 0.127530
O O11 0.971360 0.000000 0.054521
O O12 0.000000 0.241001 0.000000
O O13 0.500000 0.211603 0.500000
O O14 0.601037 0.266545 0.612581
O O15 0.588200 0.000000 0.563081
O O16 0.313860 0.500000 0.047430
O O17 0.250000 0.750000 0.000000
O O18 0.993524 0.754244 0.652216
O O19 0.064145 0.000000 0.665801
O O20 0.927166 0.731389 0.739153
O O21 0.935881 0.000000 0.789713
O O22 0.950543 0.500000 0.677067
#
# Coordination Sequence:
#
# PCOD8081168 Si02
#       8
#     8   8   8   8   8   8   8   8
#     4  10  22  37  53  71  97 133 165 198 242 295
#     4   7  13  26  42  64  95 124 152 191 236 274
#     4   8  14  27  49  73  96 125 159 200 245 283
#     4  10  19  35  53  73 103 130 155 196 254 296
#     4   9  16  28  47  69  95 126 159 193 233 282
#     4  10  18  29  50  78  99 122 164 208 239 280
#     4   8  14  26  46  72  94 118 160 206 238 279
#     4  10  18  31  49  71  99 131 159 196 253 296
#
# _framework density 17.191779
#
# number of rings (size 3 to 8) (size 9 to 14) (size 15 to 20)
#    0.000    3.000    1.250    3.000    0.000    1.750 
#    0.000    6.250    2.750    1.500    0.000    0.000 
#    0.000    0.000    0.000    0.000    0.000    0.000 
#
# Total GULP energy -396423.477236 kJ/mol
# GULP energy per Si atom -12388.233664 kJ/mol
# Density = 1.715265 g / cm^3
# Si number density = 17.191779 Si / 1000 Ang^3
#
#
#
# Elastic Constant Matrix: (Units=GPa)
#
#
# Indices 1 2 3 4 5 6 
#
# 1 82.0953 28.6313 69.0429 0.0000 1.6382 0.0000
# 2 28.6313 46.9063 50.4323 0.0000 1.5838 0.0000
# 3 69.0429 50.4323 182.6807 0.0000 -5.2159 0.0000
# 4 0.0000 0.0000 0.0000 27.7189 0.0000 2.2024
# 5 1.6382 1.5838 -5.2159 0.0000 26.6942 0.0000
# 6 0.0000 0.0000 0.0000 2.2024 0.0000 20.8094
#
#
#
# Elastic Compliance Matrix: (Units=1/GPa)
#
#
# Indices 1 2 3 4 5 6 
#
# 1 0.018889 -0.005301 -0.005732 0.000000 -0.001965 0.000000
# 2 -0.005301 0.032126 -0.006949 0.000000 -0.002939 0.000000
# 3 -0.005732 -0.006949 0.009634 0.000000 0.002647 0.000000
# 4 0.000000 0.000000 0.000000 0.036382 0.000000 -0.003851
# 5 -0.001965 -0.002939 0.002647 0.000000 0.038273 0.000000
# 6 0.000000 0.000000 0.000000 -0.003851 0.000000 0.048463
#
#
# Mechanical properties :
#
#
# Convention : Reuss Voigt Hill
#
# Bulk Modulus (GPa) = 40.50988 67.54394 54.02691
# Shear Modulus (GPa) = 21.93360 25.94955 23.94157
#
# Velocity S-wave (km/s) = 3.57574 3.88934 3.73583
# Velocity P-wave (km/s) = 6.37672 7.71641 7.07833
#
# Compressibility (1/GPa) = 0.02468534
#
# Stress axis : x y z
#
# Youngs Moduli (GPa) = 52.93973 31.12765 103.79497
#
# Poissons Ratio (x) = 0.16501 0.59493
# Poissons Ratio (y) = 0.28063 0.72131
# Poissons Ratio (z) = 0.30344 0.21632
#
# Static dielectric constant tensor:
#      x y z
#    x 2.966790 0.000000 -0.264850 
#    y 0.000000 2.985260 0.000000 
#    z -0.264850 0.000000 3.929740 
# 
# 
# High freq. dielectric constant tensor:
#      x y z
#    x 1.617690 0.000000 -0.007230 
#    y 0.000000 1.637400 0.000000 
#    z -0.007230 0.000000 1.688450 
# 
# From -- ./inp_files/323719.got.cif
#   From: 2010.06.25/outbox.cif.g09.slc.cpg/sg12_162_cif.got.tgz:323719.got - 2010.06.28 00:19:55.
