data_PCOD8081620
_publ_section_title
;
Structure prediction by ZEFSAII (Michael W. Deem and Ramdas Pophale) SiO2 
 PCOD8081620
Probable space group: C 2/M
;
_chemical_formula_sum "Si O2"
_cell_formula_units_Z 56
_cell_length_a 20.507641
_cell_length_b 8.967394
_cell_length_c 22.615017
_cell_angle_alpha 90.000000
_cell_angle_beta 48.323278
_cell_angle_gamma 90.000000
_cell_volume 3106.320150
_symmetry_space_group_name_H-M "C 2/M"
_symmetry_group_IT_number 12
_symmetry_cell_setting 'monoclinic'
loop_
_space_group_symop_operation_xyz
x,y,z
-x,y,-z
-x,-y,-z
x,-y,z
1/2+x,1/2+y,z
1/2-x,1/2+y,-z
1/2-x,1/2-y,-z
1/2+x,1/2-y,z
loop_
_atom_site_type_symbol
_atom_site_label
_atom_site_fract_x
_atom_site_fract_y
_atom_site_fract_z
Si Si1 0.048624 0.824288 0.167154
Si Si2 0.684744 0.329069 0.996791
Si Si3 0.866358 0.172823 0.678336
Si Si4 0.434900 0.672985 0.412842
Si Si5 0.815906 0.325053 0.825223
Si Si6 0.606642 0.823329 0.683929
Si Si7 0.198550 0.176886 0.408393
O O1 0.112331 0.761636 0.179539
O O2 0.954896 0.745567 0.228092
O O3 0.037603 0.000000 0.184822
O O4 0.086359 0.787298 0.077864
O O5 0.698478 0.500000 0.002613
O O6 0.716575 0.294713 0.910466
O O7 0.750000 0.250000 0.000000
O O8 0.816672 0.265934 0.758370
O O9 0.832339 0.237154 0.636524
O O10 0.969804 0.196639 0.617497
O O11 0.841837 0.000000 0.701416
O O12 0.417592 0.500000 0.408032
O O13 0.426805 0.769629 0.359116
O O14 0.365656 0.736625 0.501862
O O15 0.838773 0.500000 0.812963
O O16 0.704396 0.764983 0.636439
O O17 0.601506 0.000000 0.690258
O O18 0.193469 0.000000 0.410934
#
# Coordination Sequence:
#
# PCOD8081620 Si02
#       7
#     8   8   8   8   8   8   8
#     4  10  18  31  50  73 100 133 172 204 242 297
#     4   8  16  28  45  70 100 130 160 201 246 296
#     4  10  19  33  54  76 101 134 173 208 244 299
#     4  10  19  34  56  76  97 130 174 214 251 299
#     4  10  18  30  49  76 106 130 159 204 259 299
#     4  11  21  33  51  75 106 135 166 210 256 297
#     4   9  20  36  52  73 101 138 174 206 248 300
#
# _framework density 18.027761000000002
#
# number of rings (size 3 to 8) (size 9 to 14) (size 15 to 20)
#    0.000    2.286    1.429    2.143    0.000    2.857 
#    0.000    2.857    0.000    2.571    0.000    6.000 
#    0.000    0.000    0.000    0.000    0.000    0.000 
#
# Total GULP energy -347016.330666 kJ/mol
# GULP energy per Si atom -12393.440381 kJ/mol
# Density = 1.798673 g / cm^3
# Si number density = 18.027761 Si / 1000 Ang^3
#
#
#
# Elastic Constant Matrix: (Units=GPa)
#
#
# Indices 1 2 3 4 5 6 
#
# 1 61.6377 22.4276 33.6643 0.0000 -8.6018 0.0002
# 2 22.4276 56.8802 43.4332 0.0001 -7.1763 0.0008
# 3 33.6643 43.4332 161.4354 0.0000 -21.4796 0.0000
# 4 0.0000 0.0001 0.0000 26.4093 0.0000 -2.7823
# 5 -8.6018 -7.1763 -21.4796 0.0000 13.4590 0.0001
# 6 0.0002 0.0008 0.0000 -2.7823 0.0001 16.5405
#
#
#
# Elastic Compliance Matrix: (Units=1/GPa)
#
#
# Indices 1 2 3 4 5 6 
#
# 1 0.020260 -0.005774 -0.001724 0.000000 0.007118 0.000000
# 2 -0.005774 0.023862 -0.005096 0.000000 0.000900 -0.000001
# 3 -0.001724 -0.005096 0.009416 0.000000 0.011209 0.000000
# 4 0.000000 0.000000 0.000000 0.038549 0.000000 0.006484
# 5 0.007118 0.000900 0.011209 0.000000 0.097217 -0.000001
# 6 0.000000 -0.000001 0.000000 0.006484 -0.000001 0.061548
#
#
# Mechanical properties :
#
#
# Convention : Reuss Voigt Hill
#
# Bulk Modulus (GPa) = 35.27323 53.22262 44.24792
# Shear Modulus (GPa) = 17.51368 23.31031 20.41199
#
# Velocity S-wave (km/s) = 3.12024 3.59976 3.36855
# Velocity P-wave (km/s) = 5.70875 6.84576 6.30294
#
# Compressibility (1/GPa) = 0.02835011
#
# Stress axis : x y z
#
# Youngs Moduli (GPa) = 49.35901 41.90706 106.19659
#
# Poissons Ratio (x) = 0.24195 0.18312
# Poissons Ratio (y) = 0.28498 0.54121
# Poissons Ratio (z) = 0.08511 0.21357
#
# Static dielectric constant tensor:
#      x y z
#    x 3.071670 0.000000 -0.170990 
#    y 0.000000 3.212040 0.000000 
#    z -0.170990 0.000000 4.130440 
# 
# 
# High freq. dielectric constant tensor:
#      x y z
#    x 1.656680 0.000000 -0.010140 
#    y 0.000000 1.689570 0.000000 
#    z -0.010140 0.000000 1.726010 
# 
# From -- ./inp_files/280423.got.cif
#   From: 2010.06.25/outbox.cif.g09.slc.cpg/sg12_141_cif.got.tgz:280423.got - 2010.06.28 00:19:55.
