data_PCOD8081964
_publ_section_title
;
Structure prediction by ZEFSAII (Michael W. Deem and Ramdas Pophale) SiO2 
 PCOD8081964
Probable space group: C 2/M
;
_chemical_formula_sum "Si O2"
_cell_formula_units_Z 64
_cell_length_a 24.767510
_cell_length_b 9.197218
_cell_length_c 28.948092
_cell_angle_alpha 90.000000
_cell_angle_beta 30.966139
_cell_angle_gamma 90.000000
_cell_volume 3392.896913
_symmetry_space_group_name_H-M "C 2/M"
_symmetry_group_IT_number 12
_symmetry_cell_setting 'monoclinic'
loop_
_space_group_symop_operation_xyz
x,y,z
-x,y,-z
-x,-y,-z
x,-y,z
1/2+x,1/2+y,z
1/2-x,1/2+y,-z
1/2-x,1/2-y,-z
1/2+x,1/2-y,z
loop_
_atom_site_type_symbol
_atom_site_label
_atom_site_fract_x
_atom_site_fract_y
_atom_site_fract_z
Si Si1 0.520857 0.836053 0.038178
Si Si2 0.513654 0.333037 0.800388
Si Si3 0.199955 0.335224 0.783003
Si Si4 0.618695 0.673607 0.288098
Si Si5 0.227209 0.335538 0.659710
Si Si6 0.340813 0.672103 0.000949
Si Si7 0.956381 0.826541 0.482793
Si Si8 0.135701 0.168355 0.171141
O O1 0.415334 0.764396 0.137760
O O2 0.545132 0.000000 0.038257
O O3 0.500000 0.834903 0.000000
O O4 0.617033 0.731400 0.980795
O O5 0.534453 0.500000 0.797048
O O6 0.625410 0.255152 0.720815
O O7 0.470586 0.312155 0.780082
O O8 0.424328 0.273010 0.901089
O O9 0.177393 0.500000 0.815795
O O10 0.274125 0.263765 0.767563
O O11 0.255812 0.329040 0.692920
O O12 0.618505 0.500000 0.289958
O O13 0.523817 0.731991 0.389710
O O14 0.612099 0.728969 0.240098
O O15 0.203530 0.500000 0.661317
O O16 0.336755 0.275570 0.558467
O O17 0.327731 0.500000 0.010290
O O18 0.226727 0.743083 0.077792
O O19 0.000000 0.764409 0.500000
O O20 0.959060 0.000000 0.483589
O O21 0.170335 0.000000 0.147439
#
# Coordination Sequence:
#
# PCOD8081964 Si02
#       8
#     8   8   8   8   8   8   8   8
#     4  10  19  31  49  74 105 139 175 212 253 310
#     4  10  22  38  53  73 104 143 181 216 257 308
#     4   9  15  25  45  75 104 128 160 205 256 301
#     4   9  16  29  51  79 107 132 166 216 264 305
#     4  10  18  30  53  81 105 132 168 213 261 306
#     4  11  22  35  52  75 104 136 175 221 268 311
#     4   9  15  26  49  83 113 130 158 212 267 309
#     4  10  21  37  56  75 100 139 183 220 257 306
#
# _framework density 18.862936000000001
#
# number of rings (size 3 to 8) (size 9 to 14) (size 15 to 20)
#    0.000    2.250    2.500    1.500    0.000    3.250 
#    0.000    0.625    0.000    1.125    0.000    0.000 
#    0.000    0.000    0.000    0.000    0.000    0.000 
#
# Total GULP energy -396546.050508 kJ/mol
# GULP energy per Si atom -12392.064078 kJ/mol
# Density = 1.882000 g / cm^3
# Si number density = 18.862936 Si / 1000 Ang^3
#
#
#
# Elastic Constant Matrix: (Units=GPa)
#
#
# Indices 1 2 3 4 5 6 
#
# 1 95.6758 26.7453 41.2494 0.0040 -10.7072 -0.0072
# 2 26.7453 39.4424 29.0807 0.0067 -9.3523 -0.0130
# 3 41.2494 29.0807 111.6001 0.0015 -13.8332 -0.0052
# 4 0.0040 0.0067 0.0015 17.6582 -0.0002 -2.4915
# 5 -10.7072 -9.3523 -13.8332 -0.0002 28.0034 0.0002
# 6 -0.0072 -0.0130 -0.0052 -2.4915 0.0002 6.5300
#
#
#
# Elastic Compliance Matrix: (Units=1/GPa)
#
#
# Indices 1 2 3 4 5 6 
#
# 1 0.013868 -0.006694 -0.003197 0.000000 0.001488 -0.000001
# 2 -0.006694 0.035902 -0.006085 -0.000003 0.006425 0.000058
# 3 -0.003197 -0.006085 0.012063 0.000001 0.002704 -0.000006
# 4 0.000000 -0.000003 0.000001 0.059853 0.000000 0.022837
# 5 0.001488 0.006425 0.002704 0.000000 0.039761 0.000015
# 6 -0.000001 0.000058 -0.000006 0.022837 0.000015 0.161852
#
#
# Mechanical properties :
#
#
# Convention : Reuss Voigt Hill
#
# Bulk Modulus (GPa) = 33.46520 48.98546 41.22533
# Shear Modulus (GPa) = 13.69072 20.41451 17.05262
#
# Velocity S-wave (km/s) = 2.69699 3.29333 3.00997
# Velocity P-wave (km/s) = 5.24196 6.36293 5.82945
#
# Compressibility (1/GPa) = 0.02988179
#
# Stress axis : x y z
#
# Youngs Moduli (GPa) = 72.10816 27.85353 82.89718
#
# Poissons Ratio (x) = 0.18644 0.26504
# Poissons Ratio (y) = 0.48267 0.50442
# Poissons Ratio (z) = 0.23055 0.16948
#
# Static dielectric constant tensor:
#      x y z
#    x 3.454660 0.000000 0.028350 
#    y 0.000000 2.986420 0.000010 
#    z 0.028350 0.000010 3.857640 
# 
# 
# High freq. dielectric constant tensor:
#      x y z
#    x 1.731580 0.000000 -0.007790 
#    y 0.000000 1.675620 0.000000 
#    z -0.007790 0.000000 1.742230 
# 
# From -- ./inp_files/238608.got.cif
#   From: 2010.06.25/outbox.cif.g09.slc.cpg/sg12_120_cif.got.tgz:238608.got - 2010.06.28 00:19:55.
