data_PCOD8081136
_publ_section_title
;
Structure prediction by ZEFSAII (Michael W. Deem and Ramdas Pophale) SiO2 
 PCOD8081136
Probable space group: C 2/M
;
_chemical_formula_sum "Si O2"
_cell_formula_units_Z 48
_cell_length_a 13.201417
_cell_length_b 24.164965
_cell_length_c 9.672919
_cell_angle_alpha 90.000000
_cell_angle_beta 113.948910
_cell_angle_gamma 90.000000
_cell_volume 2820.113867
_symmetry_space_group_name_H-M "C 2/M"
_symmetry_group_IT_number 12
_symmetry_cell_setting 'monoclinic'
loop_
_space_group_symop_operation_xyz
x,y,z
-x,y,-z
-x,-y,-z
x,-y,z
1/2+x,1/2+y,z
1/2-x,1/2+y,-z
1/2-x,1/2-y,-z
1/2+x,1/2-y,z
loop_
_atom_site_type_symbol
_atom_site_label
_atom_site_fract_x
_atom_site_fract_y
_atom_site_fract_z
Si Si1 0.098377 0.728644 0.162900
Si Si2 0.150248 0.938737 0.198336
Si Si3 0.587358 0.560833 0.844567
Si Si4 0.208977 0.166011 0.859258
Si Si5 0.747548 0.829497 0.798478
Si Si6 0.546971 0.757069 0.669759
O O1 0.192000 0.681624 0.190280
O O2 0.150193 0.789769 0.182590
O O3 0.052974 0.719881 0.292186
O O4 0.000000 0.721517 0.000000
O O5 0.237067 0.888881 0.268847
O O6 0.044942 0.929485 0.241185
O O7 0.202051 0.000000 0.255811
O O8 0.113660 0.934602 0.020025
O O9 0.618968 0.500000 0.804670
O O10 0.657617 0.605696 0.796503
O O11 0.109925 0.210044 0.791847
O O12 0.259244 0.166948 0.039914
O O13 0.631113 0.806570 0.678989
O O14 0.500000 0.733077 0.500000
#
# Coordination Sequence:
#
# PCOD8081136 Si02
#       6
#     8   8   8   8   8   8
#     4  11  18  31  50  69  94 130 162 192 233 285
#     4   8  14  24  43  71  99 122 152 196 240 275
#     4   8  14  25  44  72  98 120 152 199 239 274
#     4  10  18  30  50  72  94 130 161 191 236 290
#     4  10  18  29  50  72  95 128 163 192 235 287
#     4  11  22  33  46  72 101 125 159 201 238 279
#
# _framework density 17.020589000000001
#
# number of rings (size 3 to 8) (size 9 to 14) (size 15 to 20)
#    0.000    2.333    3.333    3.000    2.333    2.667 
#    0.000    0.000    0.000    2.500    0.000    2.333 
#    0.000    0.000    0.000    0.000    0.000    0.000 
#
# Total GULP energy -297473.073813 kJ/mol
# GULP energy per Si atom -12394.711409 kJ/mol
# Density = 1.698185 g / cm^3
# Si number density = 17.020589 Si / 1000 Ang^3
#
#
#
# Elastic Constant Matrix: (Units=GPa)
#
#
# Indices 1 2 3 4 5 6 
#
# 1 102.1879 59.0155 14.6021 0.0000 -7.5835 0.0000
# 2 59.0155 139.2642 1.8519 0.0000 0.0030 0.0000
# 3 14.6021 1.8519 34.1557 0.0000 -6.6718 0.0000
# 4 0.0000 0.0000 0.0000 3.4472 0.0000 0.3165
# 5 -7.5835 0.0030 -6.6718 0.0000 12.5135 0.0000
# 6 0.0000 0.0000 0.0000 0.3165 0.0000 25.6290
#
#
#
# Elastic Compliance Matrix: (Units=1/GPa)
#
#
# Indices 1 2 3 4 5 6 
#
# 1 0.014397 -0.006040 -0.004602 0.000000 0.006273 0.000000
# 2 -0.006040 0.009720 0.001495 0.000000 -0.002865 0.000000
# 3 -0.004602 0.001495 0.034179 0.000000 0.015434 0.000000
# 4 0.000000 0.000000 0.000000 0.290423 0.000000 -0.003587
# 5 0.006273 -0.002865 0.015434 0.000000 0.091945 0.000000
# 6 0.000000 0.000000 0.000000 -0.003587 0.000000 0.039063
#
#
# Mechanical properties :
#
#
# Convention : Reuss Voigt Hill
#
# Bulk Modulus (GPa) = 24.99826 47.39409 36.19618
# Shear Modulus (GPa) = 9.77795 21.66048 15.71922
#
# Velocity S-wave (km/s) = 2.39943 3.57123 3.04228
# Velocity P-wave (km/s) = 4.73237 6.70153 5.80111
#
# Compressibility (1/GPa) = 0.04000278
#
# Stress axis : x y z
#
# Youngs Moduli (GPa) = 69.45760 102.87716 29.25787
#
# Poissons Ratio (x) = 0.62138 0.13465
# Poissons Ratio (y) = 0.41953 -0.04375
# Poissons Ratio (z) = 0.31966 -0.15385
#
# Static dielectric constant tensor:
#      x y z
#    x 3.279170 0.000000 0.007050 
#    y 0.000000 3.463940 0.000000 
#    z 0.007050 0.000000 2.697130 
# 
# 
# High freq. dielectric constant tensor:
#      x y z
#    x 1.653800 0.000000 -0.001260 
#    y 0.000000 1.651970 0.000000 
#    z -0.001260 0.000000 1.608540 
# 
# From -- ./inp_files/50596.got.cif
#   From: 2010.06.25/outbox.cif.g09.slc.cpg/sg12_26_cif.got.tgz:50596.got - 2010.06.28 00:19:55.
