data_PCOD8081053
_publ_section_title
;
Structure prediction by ZEFSAII (Michael W. Deem and Ramdas Pophale) SiO2 
 PCOD8081053
Probable space group: C 2/M
;
_chemical_formula_sum "Si O2"
_cell_formula_units_Z 64
_cell_length_a 27.564373
_cell_length_b 14.736686
_cell_length_c 8.852067
_cell_angle_alpha 90.000000
_cell_angle_beta 79.587470
_cell_angle_gamma 90.000000
_cell_volume 3536.560742
_symmetry_space_group_name_H-M "C 2/M"
_symmetry_group_IT_number 12
_symmetry_cell_setting 'monoclinic'
loop_
_space_group_symop_operation_xyz
x,y,z
-x,y,-z
-x,-y,-z
x,-y,z
1/2+x,1/2+y,z
1/2-x,1/2+y,-z
1/2-x,1/2-y,-z
1/2+x,1/2-y,z
loop_
_atom_site_type_symbol
_atom_site_label
_atom_site_fract_x
_atom_site_fract_y
_atom_site_fract_z
Si Si1 0.346193 0.280414 0.649088
Si Si2 0.257676 0.395489 0.599634
Si Si3 0.877356 0.767355 0.290541
Si Si4 0.207759 0.101337 0.739992
Si Si5 0.283688 0.171472 0.911267
Si Si6 0.539544 0.398581 0.692603
Si Si7 0.432517 0.399137 0.671250
Si Si8 0.164088 0.605355 0.828524
O O1 0.305215 0.356956 0.654845
O O2 0.365305 0.247892 0.473859
O O3 0.322308 0.200428 0.759882
O O4 0.390157 0.324821 0.724081
O O5 0.258304 0.500000 0.639246
O O6 0.258137 0.373049 0.422568
O O7 0.207324 0.355904 0.695203
O O8 0.836889 0.828493 0.227148
O O9 0.928754 0.821483 0.240359
O O10 0.880999 0.671691 0.196114
O O11 0.243336 0.103442 0.864190
O O12 0.185792 0.000000 0.733256
O O13 0.250000 0.250000 0.000000
O O14 0.317361 0.118436 0.011776
O O15 0.547269 0.500000 0.758400
O O16 0.481909 0.370809 0.734377
O O17 0.556953 0.402613 0.511497
O O18 0.415614 0.500000 0.733120
O O19 0.149480 0.500000 0.810189
#
# Coordination Sequence:
#
# PCOD8081053 Si02
#       8
#     8   8   8   8   8   8   8   8
#     4  10  18  29  49  72  99 130 162 198 237 287
#     4   9  17  29  46  69  96 126 160 197 237 283
#     4  10  18  31  51  76  97 126 164 201 243 291
#     4  10  19  31  48  70  98 129 162 200 241 287
#     4  12  21  33  45  65  96 133 169 202 241 281
#     4   8  14  26  48  78 109 129 151 191 241 295
#     4   8  14  26  46  77 108 131 154 188 240 299
#     4  11  22  35  48  66  94 130 168 207 246 288
#
# _framework density 18.096675999999999
#
# number of rings (size 3 to 8) (size 9 to 14) (size 15 to 20)
#    0.000    2.250    2.500    2.625    0.000    5.000 
#    0.000    0.625    0.000    0.750    0.000   11.375 
#    0.000    0.000    0.000    0.000    0.000    0.000 
#
# Total GULP energy -396589.978191 kJ/mol
# GULP energy per Si atom -12393.436818 kJ/mol
# Density = 1.805549 g / cm^3
# Si number density = 18.096676 Si / 1000 Ang^3
#
#
#
# Elastic Constant Matrix: (Units=GPa)
#
#
# Indices 1 2 3 4 5 6 
#
# 1 88.7893 59.4697 19.4763 0.0000 21.8195 0.0000
# 2 59.4697 78.8160 28.7539 0.0000 13.7865 0.0000
# 3 19.4763 28.7539 36.0602 0.0000 16.8220 0.0000
# 4 0.0000 0.0000 0.0000 20.1097 0.0000 8.3423
# 5 21.8195 13.7865 16.8220 0.0000 17.7841 0.0000
# 6 0.0000 0.0000 0.0000 8.3423 0.0000 30.4428
#
#
#
# Elastic Compliance Matrix: (Units=1/GPa)
#
#
# Indices 1 2 3 4 5 6 
#
# 1 0.035531 -0.027638 0.023605 0.000000 -0.044496 0.000000
# 2 -0.027638 0.039396 -0.032319 0.000000 0.033940 0.000000
# 3 0.023605 -0.032319 0.076199 0.000000 -0.075984 0.000000
# 4 0.000000 0.000000 0.000000 0.056105 0.000000 -0.015375
# 5 -0.044496 0.033940 -0.075984 0.000000 0.156385 0.000000
# 6 0.000000 0.000000 0.000000 -0.015375 0.000000 0.037062
#
#
# Mechanical properties :
#
#
# Convention : Reuss Voigt Hill
#
# Bulk Modulus (GPa) = 12.75157 46.56284 29.65720
# Shear Modulus (GPa) = 10.00958 20.06503 15.03730
#
# Velocity S-wave (km/s) = 2.35439 3.33343 2.88573
# Velocity P-wave (km/s) = 3.80165 6.37194 5.24662
#
# Compressibility (1/GPa) = 0.07842172
#
# Stress axis : x y z
#
# Youngs Moduli (GPa) = 28.14468 25.38361 13.12348
#
# Poissons Ratio (x) = 0.70154 -0.30978
# Poissons Ratio (y) = 0.77785 0.42414
# Poissons Ratio (z) = -0.66435 0.82037
#
# Static dielectric constant tensor:
#      x y z
#    x 3.450390 0.000000 0.117110 
#    y 0.000000 3.309550 0.000000 
#    z 0.117110 0.000000 3.247090 
# 
# 
# High freq. dielectric constant tensor:
#      x y z
#    x 1.681690 0.000000 0.015560 
#    y 0.000000 1.692150 0.000000 
#    z 0.015560 0.000000 1.678200 
# 
# From -- ./inp_files/111156.got.cif
#   From: 2010.06.25/outbox.cif.g09.slc.cpg/sg12_56_cif.got.tgz:111156.got - 2010.06.28 00:19:55.
