data_PCOD8081038
_publ_section_title
;
Structure prediction by ZEFSAII (Michael W. Deem and Ramdas Pophale) SiO2 
 PCOD8081038
Probable space group: C 2/M
;
_chemical_formula_sum "Si O2"
_cell_formula_units_Z 64
_cell_length_a 22.288369
_cell_length_b 8.899694
_cell_length_c 21.931895
_cell_angle_alpha 90.000000
_cell_angle_beta 48.783221
_cell_angle_gamma 90.000000
_cell_volume 3272.469000
_symmetry_space_group_name_H-M "C 2/M"
_symmetry_group_IT_number 12
_symmetry_cell_setting 'monoclinic'
loop_
_space_group_symop_operation_xyz
x,y,z
-x,y,-z
-x,-y,-z
x,-y,z
1/2+x,1/2+y,z
1/2-x,1/2+y,-z
1/2-x,1/2-y,-z
1/2+x,1/2-y,z
loop_
_atom_site_type_symbol
_atom_site_label
_atom_site_fract_x
_atom_site_fract_y
_atom_site_fract_z
Si Si1 0.827029 0.330249 0.761136
Si Si2 0.057588 0.173044 0.513692
Si Si3 0.487192 0.178116 0.813418
Si Si4 0.797512 0.174074 0.661031
Si Si5 0.824694 0.677205 0.094774
Si Si6 0.993277 0.667336 0.332534
Si Si7 0.833750 0.821508 0.963837
Si Si8 0.124624 0.323075 0.806904
O O1 0.792663 0.500000 0.785059
O O2 0.839653 0.274241 0.683965
O O3 0.768176 0.219494 0.836618
O O4 0.911687 0.322745 0.736279
O O5 0.150949 0.199943 0.434695
O O6 0.000000 0.246840 0.500000
O O7 0.044954 0.231263 0.590100
O O8 0.035170 0.000000 0.531533
O O9 0.532336 0.212648 0.718959
O O10 0.403864 0.266858 0.872273
O O11 0.546816 0.242946 0.825667
O O12 0.470415 0.000000 0.831178
O O13 0.705224 0.225143 0.716383
O O14 0.801133 0.000000 0.679303
O O15 0.833237 0.500000 0.077893
O O16 0.870699 0.729647 0.125607
O O17 0.859879 0.765560 0.013676
O O18 0.965030 0.500000 0.367572
O O19 0.825294 0.000000 0.967740
O O20 0.750000 0.750000 0.000000
O O21 0.117086 0.500000 0.809985
#
# Coordination Sequence:
#
# PCOD8081038 Si02
#       8
#     8   8   8   8   8   8   8   8
#     4  10  18  29  48  78 111 144 180 229 286 339
#     4  10  19  31  51  79 110 144 183 233 285 338
#     4  10  21  40  60  80 110 152 194 232 277 335
#     4   9  17  32  52  77 106 142 187 231 279 337
#     4  10  20  36  59  86 113 149 191 233 276 328
#     4  10  21  33  50  76 109 144 181 227 283 341
#     4  12  25  41  61  88 118 148 181 227 283 337
#     4   8  17  35  60  82 107 149 198 235 271 329
#
# _framework density 19.557099000000001
#
# number of rings (size 3 to 8) (size 9 to 14) (size 15 to 20)
#    0.000    2.125    1.250    3.375    0.000    3.250 
#    0.000    6.250    0.000    0.000    0.000    0.000 
#    0.000    0.000    0.000    0.000    0.000    0.000 
#
# Total GULP energy -396650.066154 kJ/mol
# GULP energy per Si atom -12395.314567 kJ/mol
# Density = 1.951259 g / cm^3
# Si number density = 19.557099 Si / 1000 Ang^3
#
#
#
# Elastic Constant Matrix: (Units=GPa)
#
#
# Indices 1 2 3 4 5 6 
#
# 1 91.4178 28.7773 35.4930 0.0001 5.2754 -0.0002
# 2 28.7773 73.7560 37.5016 -0.0003 3.8173 -0.0001
# 3 35.4930 37.5016 106.6437 0.0000 9.7547 -0.0001
# 4 0.0001 -0.0003 0.0000 34.5520 0.0000 2.0522
# 5 5.2754 3.8173 9.7547 0.0000 24.4067 0.0000
# 6 -0.0002 -0.0001 -0.0001 2.0522 0.0000 16.0515
#
#
#
# Elastic Compliance Matrix: (Units=1/GPa)
#
#
# Indices 1 2 3 4 5 6 
#
# 1 0.013322 -0.003577 -0.003076 0.000000 -0.001091 0.000000
# 2 -0.003577 0.017473 -0.004956 0.000000 0.000021 0.000000
# 3 -0.003076 -0.004956 0.012468 0.000000 -0.003543 0.000000
# 4 0.000000 0.000000 0.000000 0.029163 0.000000 -0.003729
# 5 -0.001091 0.000021 -0.003543 0.000000 0.042621 0.000000
# 6 0.000000 0.000000 0.000000 -0.003729 0.000000 0.062776
#
#
# Mechanical properties :
#
#
# Convention : Reuss Voigt Hill
#
# Bulk Modulus (GPa) = 49.88999 52.81792 51.35396
# Shear Modulus (GPa) = 24.07061 26.33842 25.20451
#
# Velocity S-wave (km/s) = 3.51206 3.67378 3.59383
# Velocity P-wave (km/s) = 6.48162 6.71277 6.59821
#
# Compressibility (1/GPa) = 0.02004410
#
# Stress axis : x y z
#
# Youngs Moduli (GPa) = 75.06306 57.23243 80.20827
#
# Poissons Ratio (x) = 0.20474 0.24673
# Poissons Ratio (y) = 0.26853 0.39748
# Poissons Ratio (z) = 0.23090 0.28362
#
# Static dielectric constant tensor:
#      x y z
#    x 3.682960 0.000000 0.064190 
#    y 0.000000 3.424470 0.000000 
#    z 0.064190 0.000000 3.608940 
# 
# 
# High freq. dielectric constant tensor:
#      x y z
#    x 1.746890 0.000000 0.004430 
#    y 0.000000 1.742750 0.000000 
#    z 0.004430 0.000000 1.767020 
# 
# From -- ./inp_files/324109.got.cif
#   From: 2010.06.25/outbox.cif.g09.slc.cpg/sg12_163_cif.got.tgz:324109.got - 2010.06.28 00:19:55.
