data_PCOD8081973
_publ_section_title
;
Structure prediction by ZEFSAII (Michael W. Deem and Ramdas Pophale) SiO2 
 PCOD8081973
Probable space group: C 2/M
;
_chemical_formula_sum "Si O2"
_cell_formula_units_Z 52
_cell_length_a 16.913955
_cell_length_b 22.064952
_cell_length_c 11.065304
_cell_angle_alpha 90.000000
_cell_angle_beta 135.229760
_cell_angle_gamma 90.000000
_cell_volume 2908.358619
_symmetry_space_group_name_H-M "C 2/M"
_symmetry_group_IT_number 12
_symmetry_cell_setting 'monoclinic'
loop_
_space_group_symop_operation_xyz
x,y,z
-x,y,-z
-x,-y,-z
x,-y,z
1/2+x,1/2+y,z
1/2-x,1/2+y,-z
1/2-x,1/2-y,-z
1/2+x,1/2-y,z
loop_
_atom_site_type_symbol
_atom_site_label
_atom_site_fract_x
_atom_site_fract_y
_atom_site_fract_z
Si Si1 0.040978 0.125243 0.913193
Si Si2 0.463740 0.855066 0.321724
Si Si3 0.876842 0.929338 0.550446
Si Si4 0.000000 0.155942 0.500000
Si Si5 0.162588 0.430373 0.462215
Si Si6 0.879032 0.769909 0.165058
Si Si7 0.730493 0.931273 0.802931
O O1 0.077561 0.188948 0.896138
O O2 0.943383 0.088953 0.741869
O O3 0.142602 0.078142 0.019894
O O4 0.000000 0.143132 0.000000
O O5 0.500000 0.849392 0.500000
O O6 0.551430 0.890056 0.331506
O O7 0.452343 0.790586 0.246215
O O8 0.345884 0.890178 0.193141
O O9 0.746046 0.917043 0.440763
O O10 0.917195 0.886976 0.486012
O O11 0.895937 0.000000 0.539084
O O12 0.910741 0.195329 0.324932
O O13 0.125044 0.500000 0.420881
O O14 0.221586 0.413631 0.652771
O O15 0.750000 0.750000 0.000000
O O16 0.693092 0.000000 0.784417
#
# Coordination Sequence:
#
# PCOD8081973 Si02
#       7
#     8   8   8   4   8   8   8
#     4  11  21  34  53  85 115 146 189 238 288 334
#     4  10  19  35  55  80 111 149 190 230 277 335
#     4  10  20  36  59  84 114 149 185 234 290 342
#     4  10  23  40  58  86 111 152 200 230 280 344
#     4   9  18  32  54  83 112 143 180 231 291 339
#     4  11  22  40  59  79 113 156 194 237 279 333
#     4  10  18  30  53  82 113 144 181 232 289 340
#
# _framework density 17.879501000000001
#
# number of rings (size 3 to 8) (size 9 to 14) (size 15 to 20)
#    0.000    1.846    3.846    1.154    0.000    2.462 
#    2.769    1.538    0.000    0.000    0.000    2.154 
#    0.000    0.000    0.000    0.000    0.000    0.000 
#
# Total GULP energy -322269.964542 kJ/mol
# GULP energy per Si atom -12394.998636 kJ/mol
# Density = 1.783881 g / cm^3
# Si number density = 17.879501 Si / 1000 Ang^3
#
#
#
# Elastic Constant Matrix: (Units=GPa)
#
#
# Indices 1 2 3 4 5 6 
#
# 1 107.6973 59.5780 45.1120 0.0000 9.1254 0.0000
# 2 59.5780 106.3234 34.9802 0.0000 6.5822 0.0000
# 3 45.1120 34.9802 69.9681 0.0000 4.3827 0.0000
# 4 0.0000 0.0000 0.0000 28.4675 0.0000 4.6447
# 5 9.1254 6.5822 4.3827 0.0000 25.5800 0.0000
# 6 0.0000 0.0000 0.0000 4.6447 0.0000 24.9483
#
#
#
# Elastic Compliance Matrix: (Units=1/GPa)
#
#
# Indices 1 2 3 4 5 6 
#
# 1 0.016030 -0.006540 -0.006887 0.000000 -0.002856 0.000000
# 2 -0.006540 0.014022 -0.002743 0.000000 -0.000805 0.000000
# 3 -0.006887 -0.002743 0.020122 0.000000 -0.000285 0.000000
# 4 0.000000 0.000000 0.000000 0.036228 0.000000 -0.006745
# 5 -0.002856 -0.000805 -0.000285 0.000000 0.040368 0.000000
# 6 0.000000 0.000000 0.000000 -0.006745 0.000000 0.041339
#
#
# Mechanical properties :
#
#
# Convention : Reuss Voigt Hill
#
# Bulk Modulus (GPa) = 56.07273 62.59212 59.33243
# Shear Modulus (GPa) = 24.22565 25.42041 24.82303
#
# Velocity S-wave (km/s) = 3.68494 3.77472 3.73010
# Velocity P-wave (km/s) = 7.03808 7.35403 7.19779
#
# Compressibility (1/GPa) = 0.01783398
#
# Stress axis : x y z
#
# Youngs Moduli (GPa) = 62.38414 71.31560 49.69703
#
# Poissons Ratio (x) = 0.46638 0.34225
# Poissons Ratio (y) = 0.40797 0.13634
# Poissons Ratio (z) = 0.42963 0.19565
#
# Static dielectric constant tensor:
#      x y z
#    x 3.270080 0.000000 0.139040 
#    y 0.000000 3.370040 0.000000 
#    z 0.139040 0.000000 3.267990 
# 
# 
# High freq. dielectric constant tensor:
#      x y z
#    x 1.687690 0.000000 0.015600 
#    y 0.000000 1.703640 0.000000 
#    z 0.015600 0.000000 1.678280 
# 
# From -- ./inp_files/148855.got.cif
#   From: 2010.06.25/outbox.cif.g09.slc.cpg/sg12_75_cif.got.tgz:148855.got - 2010.06.28 00:19:55.
