data_PCOD8081169
_publ_section_title
;
Structure prediction by ZEFSAII (Michael W. Deem and Ramdas Pophale) SiO2 
 PCOD8081169
Probable space group: C 2/M
;
_chemical_formula_sum "Si O2"
_cell_formula_units_Z 64
_cell_length_a 20.718812
_cell_length_b 8.901135
_cell_length_c 18.527214
_cell_angle_alpha 90.000000
_cell_angle_beta 87.600572
_cell_angle_gamma 90.000000
_cell_volume 3413.810579
_symmetry_space_group_name_H-M "C 2/M"
_symmetry_group_IT_number 12
_symmetry_cell_setting 'monoclinic'
loop_
_space_group_symop_operation_xyz
x,y,z
-x,y,-z
-x,-y,-z
x,-y,z
1/2+x,1/2+y,z
1/2-x,1/2+y,-z
1/2-x,1/2-y,-z
1/2+x,1/2-y,z
loop_
_atom_site_type_symbol
_atom_site_label
_atom_site_fract_x
_atom_site_fract_y
_atom_site_fract_z
Si Si1 0.870044 0.322021 0.845551
Si Si2 0.492973 0.822048 0.419812
Si Si3 0.110974 0.824354 0.826915
Si Si4 0.606066 0.173269 0.317010
Si Si5 0.383437 0.670628 0.341522
Si Si6 0.753769 0.328779 0.685262
Si Si7 0.240385 0.324447 0.833708
Si Si8 0.014557 0.825484 0.082145
O O1 0.863829 0.500000 0.846577
O O2 0.890223 0.261566 0.764545
O O3 0.800725 0.253095 0.871796
O O4 0.922696 0.269163 0.900248
O O5 0.500000 0.755546 0.500000
O O6 0.549835 0.749468 0.367267
O O7 0.423733 0.778816 0.390981
O O8 0.498708 0.000000 0.422173
O O9 0.106204 0.784658 0.742449
O O10 0.171308 0.741247 0.862472
O O11 0.045634 0.767670 0.867597
O O12 0.121344 0.000000 0.838967
O O13 0.675730 0.195711 0.354267
O O14 0.587880 0.000000 0.311821
O O15 0.405802 0.500000 0.353913
O O16 0.307127 0.691943 0.365695
O O17 0.750712 0.500000 0.717852
O O18 0.746959 0.208864 0.748787
O O19 0.242219 0.500000 0.849405
O O20 0.028474 0.000000 0.096466
O O21 0.000000 0.793591 0.000000
#
# Coordination Sequence:
#
# PCOD8081169 Si02
#       8
#     8   8   8   8   8   8   8   8
#     4  10  19  33  54  76 100 132 169 207 249 298
#     4  10  20  32  46  67  97 130 162 199 242 287
#     4   9  18  34  54  76 103 133 164 200 248 300
#     4   8  15  30  51  71  92 124 163 198 235 286
#     4   9  17  30  50  72  93 122 159 199 240 286
#     4   8  15  30  50  71  95 124 160 200 246 294
#     4  10  18  29  50  79 105 127 161 208 252 294
#     4  10  21  36  53  75 104 134 165 206 251 293
#
# _framework density 18.747378000000001
#
# number of rings (size 3 to 8) (size 9 to 14) (size 15 to 20)
#    0.000    2.750    0.000    3.750    0.000    3.000 
#    0.000    3.750    0.000    0.000    0.000    0.000 
#    0.000    0.000    0.000    0.000    0.000    0.000 
#
# Total GULP energy -396611.721652 kJ/mol
# GULP energy per Si atom -12394.116302 kJ/mol
# Density = 1.870471 g / cm^3
# Si number density = 18.747378 Si / 1000 Ang^3
#
#
#
# Elastic Constant Matrix: (Units=GPa)
#
#
# Indices 1 2 3 4 5 6 
#
# 1 141.9316 39.5763 40.2367 0.0000 28.1817 0.0000
# 2 39.5763 57.1847 20.6485 0.0000 10.0111 0.0000
# 3 40.2367 20.6485 56.4911 0.0000 14.3839 0.0000
# 4 0.0000 0.0000 0.0000 15.1180 0.0000 7.8091
# 5 28.1817 10.0111 14.3839 0.0000 13.5160 0.0000
# 6 0.0000 0.0000 0.0000 7.8091 0.0000 32.1268
#
#
#
# Elastic Compliance Matrix: (Units=1/GPa)
#
#
# Indices 1 2 3 4 5 6 
#
# 1 0.013321 -0.004563 -0.002207 0.000000 -0.022048 0.000000
# 2 -0.004563 0.022685 -0.004370 0.000000 -0.002638 0.000000
# 3 -0.002207 -0.004370 0.025891 0.000000 -0.019716 0.000000
# 4 0.000000 0.000000 0.000000 0.075644 0.000000 -0.018387
# 5 -0.022048 -0.002638 -0.019716 0.000000 0.142893 0.000000
# 6 0.000000 0.000000 0.000000 -0.018387 0.000000 0.035596
#
#
# Mechanical properties :
#
#
# Convention : Reuss Voigt Hill
#
# Bulk Modulus (GPa) = 25.24107 50.72561 37.98334
# Shear Modulus (GPa) = 14.22412 22.49520 18.35966
#
# Velocity S-wave (km/s) = 2.75749 3.46773 3.13280
# Velocity P-wave (km/s) = 4.86121 6.56885 5.77845
#
# Compressibility (1/GPa) = 0.03961798
#
# Stress axis : x y z
#
# Youngs Moduli (GPa) = 75.06778 44.08245 38.62333
#
# Poissons Ratio (x) = 0.20114 0.08523
# Poissons Ratio (y) = 0.34252 0.16879
# Poissons Ratio (z) = 0.16565 0.19265
#
# Static dielectric constant tensor:
#      x y z
#    x 3.856470 0.000000 -0.107770 
#    y 0.000000 3.156150 0.000000 
#    z -0.107770 0.000000 3.181650 
# 
# 
# High freq. dielectric constant tensor:
#      x y z
#    x 1.752570 0.000000 0.004020 
#    y 0.000000 1.706340 0.000000 
#    z 0.004020 0.000000 1.682810 
# 
# From -- ./inp_files/319160.got.cif
#   From: 2010.06.25/outbox.cif.g09.slc.cpg/sg12_160_cif.got.tgz:319160.got - 2010.06.28 00:19:55.
