data_PCOD8081996
_publ_section_title
;
Structure prediction by ZEFSAII (Michael W. Deem and Ramdas Pophale) SiO2 
 PCOD8081996
Probable space group: C 2/M
;
_chemical_formula_sum "Si O2"
_cell_formula_units_Z 64
_cell_length_a 20.257685
_cell_length_b 19.753939
_cell_length_c 19.458543
_cell_angle_alpha 90.000000
_cell_angle_beta 28.124033
_cell_angle_gamma 90.000000
_cell_volume 3670.512430
_symmetry_space_group_name_H-M "C 2/M"
_symmetry_group_IT_number 12
_symmetry_cell_setting 'monoclinic'
loop_
_space_group_symop_operation_xyz
x,y,z
-x,y,-z
-x,-y,-z
x,-y,z
1/2+x,1/2+y,z
1/2-x,1/2+y,-z
1/2-x,1/2-y,-z
1/2+x,1/2-y,z
loop_
_atom_site_type_symbol
_atom_site_label
_atom_site_fract_x
_atom_site_fract_y
_atom_site_fract_z
Si Si1 0.370797 0.677690 0.443523
Si Si2 0.516482 0.303391 0.903477
Si Si3 0.763422 0.320080 0.581195
Si Si4 0.487273 0.078132 0.337416
Si Si5 0.185927 0.179551 0.141599
Si Si6 0.458816 0.848270 0.960187
Si Si7 0.252638 0.835246 0.925885
Si Si8 0.356067 0.923816 0.310602
O O1 0.334217 0.677412 0.396465
O O2 0.348364 0.750003 0.500290
O O3 0.531437 0.655207 0.303609
O O4 0.279572 0.623364 0.568438
O O5 0.666913 0.327900 0.737584
O O6 0.507784 0.225132 0.888574
O O7 0.500000 0.312935 0.000000
O O8 0.393459 0.345217 0.979717
O O9 0.873214 0.381583 0.487354
O O10 0.640877 0.110288 0.204147
O O11 0.441723 0.087489 0.301095
O O12 0.490537 0.000000 0.358016
O O13 0.184633 0.260817 0.142745
O O14 0.291451 0.148424 0.101496
O O15 0.230554 0.150553 0.026627
O O16 0.537012 0.906875 0.847852
O O17 0.500000 0.859895 0.000000
O O18 0.302460 0.000000 0.351816
#
# Coordination Sequence:
#
# PCOD8081996 Si02
#       8
#     8   8   8   8   8   8   8   8
#     4  10  18  30  54  83 105 137 184 230 264 315
#     4  10  20  34  55  83 111 137 179 229 273 320
#     4  10  18  31  55  81 106 143 176 224 279 318
#     4  10  20  34  54  83 111 138 179 228 274 324
#     4  10  18  30  55  83 103 134 188 226 267 314
#     4  10  20  34  53  78 112 146 179 222 264 320
#     4  10  18  31  54  82 105 137 177 227 273 315
#     4  10  20  34  52  78 113 148 178 215 269 322
#
# _framework density 17.436257999999999
#
# number of rings (size 3 to 8) (size 9 to 14) (size 15 to 20)
#    0.000    2.000    5.000    0.000    0.000    0.250 
#    0.000    3.125    0.000    3.000    0.000    0.000 
#    0.000    0.000    0.000    0.000    0.000    0.000 
#
# Total GULP energy -396830.248909 kJ/mol
# GULP energy per Si atom -12400.945278 kJ/mol
# Density = 1.739657 g / cm^3
# Si number density = 17.436258 Si / 1000 Ang^3
#
#
#
# Elastic Constant Matrix: (Units=GPa)
#
#
# Indices 1 2 3 4 5 6 
#
# 1 66.4065 17.9231 32.9161 -0.0006 -6.5888 -0.0001
# 2 17.9231 71.1940 41.5210 -0.0031 2.9223 0.0003
# 3 32.9161 41.5210 128.1389 -0.0074 -7.2004 0.0013
# 4 -0.0006 -0.0031 -0.0074 27.0991 0.0009 -2.0443
# 5 -6.5888 2.9223 -7.2004 0.0009 22.3818 0.0003
# 6 -0.0001 0.0003 0.0013 -2.0443 0.0003 12.4463
#
#
#
# Elastic Compliance Matrix: (Units=1/GPa)
#
#
# Indices 1 2 3 4 5 6 
#
# 1 0.017959 -0.002668 -0.003495 -0.000001 0.004511 0.000000
# 2 -0.002668 0.018101 -0.005455 0.000001 -0.004904 0.000000
# 3 -0.003495 -0.005455 0.010644 0.000002 0.003108 -0.000001
# 4 -0.000001 0.000001 0.000002 0.037364 -0.000001 0.006137
# 5 0.004511 -0.004904 0.003108 -0.000001 0.047647 -0.000001
# 6 0.000000 0.000000 -0.000001 0.006137 -0.000001 0.081353
#
#
# Mechanical properties :
#
#
# Convention : Reuss Voigt Hill
#
# Bulk Modulus (GPa) = 42.61354 50.05109 46.33231
# Shear Modulus (GPa) = 20.48108 23.94407 22.21257
#
# Velocity S-wave (km/s) = 3.43100 3.70974 3.57309
# Velocity P-wave (km/s) = 6.33943 6.86418 6.60702
#
# Compressibility (1/GPa) = 0.02346672
#
# Stress axis : x y z
#
# Youngs Moduli (GPa) = 55.68274 55.24657 93.94723
#
# Poissons Ratio (x) = 0.14738 0.32838
# Poissons Ratio (y) = 0.14855 0.51252
# Poissons Ratio (z) = 0.19463 0.30139
#
# Static dielectric constant tensor:
#      x y z
#    x 3.020230 0.000000 -0.105330 
#    y 0.000000 3.093200 0.000010 
#    z -0.105330 0.000010 3.235780 
# 
# 
# High freq. dielectric constant tensor:
#      x y z
#    x 1.648890 0.000000 -0.009130 
#    y 0.000000 1.650440 0.000000 
#    z -0.009130 0.000000 1.683720 
# 
# From -- ./inp_files/98857.got.cif
#   From: 2010.06.25/outbox.cif.g09.slc.cpg/sg12_50_cif.got.tgz:98857.got - 2010.06.28 00:19:55.
