data_PCOD8081667
_publ_section_title
;
Structure prediction by ZEFSAII (Michael W. Deem and Ramdas Pophale) SiO2 
 PCOD8081667
Probable space group: C 2/M
;
_chemical_formula_sum "Si O2"
_cell_formula_units_Z 64
_cell_length_a 18.911077
_cell_length_b 9.069176
_cell_length_c 23.320185
_cell_angle_alpha 90.000000
_cell_angle_beta 64.935450
_cell_angle_gamma 90.000000
_cell_volume 3622.958046
_symmetry_space_group_name_H-M "C 2/M"
_symmetry_group_IT_number 12
_symmetry_cell_setting 'monoclinic'
loop_
_space_group_symop_operation_xyz
x,y,z
-x,y,-z
-x,-y,-z
x,-y,z
1/2+x,1/2+y,z
1/2-x,1/2+y,-z
1/2-x,1/2-y,-z
1/2+x,1/2-y,z
loop_
_atom_site_type_symbol
_atom_site_label
_atom_site_fract_x
_atom_site_fract_y
_atom_site_fract_z
Si Si1 0.344452 0.671600 0.353138
Si Si2 0.106185 0.829403 0.538080
Si Si3 0.500083 0.827854 0.268649
Si Si4 0.572626 0.172421 0.010219
Si Si5 0.755879 0.327066 0.058683
Si Si6 0.947154 0.829143 0.641781
Si Si7 0.811111 0.170891 0.601878
Si Si8 0.606951 0.172039 0.125806
O O1 0.348161 0.500000 0.337382
O O2 0.344597 0.700877 0.421404
O O3 0.416789 0.748722 0.297343
O O4 0.265915 0.740328 0.355155
O O5 0.148815 0.756597 0.468638
O O6 0.018291 0.768679 0.577597
O O7 0.099473 0.000000 0.524957
O O8 0.556307 0.762806 0.298520
O O9 0.538889 0.795774 0.194215
O O10 0.487999 0.000000 0.283968
O O11 0.577785 0.233325 0.073862
O O12 0.556217 0.000000 0.020577
O O13 0.500000 0.245796 0.000000
O O14 0.655443 0.202353 0.948751
O O15 0.740619 0.500000 0.058093
O O16 0.686290 0.255052 0.120186
O O17 0.750000 0.250000 0.000000
O O18 0.866715 0.807957 0.636936
O O19 0.964018 0.000000 0.651414
O O20 0.789791 0.000000 0.599253
O O21 0.627644 0.000000 0.114805
#
# Coordination Sequence:
#
# PCOD8081667 Si02
#       8
#     8   8   8   8   8   8   8   8
#     4  10  20  33  49  70  98 128 161 201 242 292
#     4   8  15  29  49  71  94 123 157 196 245 297
#     4  10  20  35  52  68  92 129 169 204 242 291
#     4   8  14  27  48  74 100 122 148 186 229 269
#     4   9  16  27  47  73  99 127 158 192 229 271
#     4   9  18  32  50  72  96 123 159 203 246 291
#     4  10  18  30  50  73  97 124 156 198 250 301
#     4   9  18  32  51  72  94 124 160 197 236 282
#
# _framework density 17.665123999999999
#
# number of rings (size 3 to 8) (size 9 to 14) (size 15 to 20)
#    0.000    2.875    0.000    3.375    0.000    3.000 
#    0.000    3.750    0.000   16.125    0.000    0.000 
#    0.000    0.000    0.000    0.000    0.000    0.000 
#
# Total GULP energy -396609.707765 kJ/mol
# GULP energy per Si atom -12394.053368 kJ/mol
# Density = 1.762492 g / cm^3
# Si number density = 17.665124 Si / 1000 Ang^3
#
#
#
# Elastic Constant Matrix: (Units=GPa)
#
#
# Indices 1 2 3 4 5 6 
#
# 1 135.2605 56.0174 53.7790 0.0002 -9.0049 0.0006
# 2 56.0174 72.2361 41.6066 0.0003 -9.0103 0.0014
# 3 53.7790 41.6066 90.1784 0.0000 -12.0670 0.0001
# 4 0.0002 0.0003 0.0000 22.7994 0.0000 -3.6220
# 5 -9.0049 -9.0103 -12.0670 0.0000 16.4689 0.0001
# 6 0.0006 0.0014 0.0001 -3.6220 0.0001 28.2820
#
#
#
# Elastic Compliance Matrix: (Units=1/GPa)
#
#
# Indices 1 2 3 4 5 6 
#
# 1 0.011789 -0.006947 -0.003849 0.000000 -0.000175 0.000000
# 2 -0.006947 0.023236 -0.005970 0.000000 0.004540 -0.000001
# 3 -0.003849 -0.005970 0.017096 0.000000 0.007156 0.000000
# 4 0.000000 0.000000 0.000000 0.044772 0.000000 0.005734
# 5 -0.000175 0.004540 0.007156 0.000000 0.068352 0.000000
# 6 0.000000 -0.000001 0.000000 0.005734 0.000000 0.036093
#
#
# Mechanical properties :
#
#
# Convention : Reuss Voigt Hill
#
# Bulk Modulus (GPa) = 53.79403 66.72010 60.25707
# Shear Modulus (GPa) = 20.74132 23.26151 22.00142
#
# Velocity S-wave (km/s) = 3.43029 3.63272 3.53295
# Velocity P-wave (km/s) = 6.79760 7.44627 7.12932
#
# Compressibility (1/GPa) = 0.01858942
#
# Stress axis : x y z
#
# Youngs Moduli (GPa) = 84.82677 43.03734 58.49217
#
# Poissons Ratio (x) = 0.29898 0.22511
# Poissons Ratio (y) = 0.58929 0.34920
# Poissons Ratio (z) = 0.32646 0.25694
#
# Static dielectric constant tensor:
#      x y z
#    x 3.475320 0.000000 -0.038280 
#    y 0.000000 3.193060 0.000000 
#    z -0.038280 0.000000 3.034410 
# 
# 
# High freq. dielectric constant tensor:
#      x y z
#    x 1.688830 0.000000 -0.013470 
#    y 0.000000 1.662820 0.000000 
#    z -0.013470 0.000000 1.661610 
# 
# From -- ./inp_files/341950.got.cif
#   From: 2010.06.25/outbox.cif.g09.slc.cpg/sg12_171_cif.got.tgz:341950.got - 2010.06.28 00:19:55.
