data_PCOD8081085
_publ_section_title
;
Structure prediction by ZEFSAII (Michael W. Deem and Ramdas Pophale) SiO2 
 PCOD8081085
Probable space group: C 2/M
;
_chemical_formula_sum "Si O2"
_cell_formula_units_Z 56
_cell_length_a 24.702304
_cell_length_b 10.375190
_cell_length_c 18.713209
_cell_angle_alpha 90.000000
_cell_angle_beta 140.835235
_cell_angle_gamma 90.000000
_cell_volume 3028.944590
_symmetry_space_group_name_H-M "C 2/M"
_symmetry_group_IT_number 12
_symmetry_cell_setting 'monoclinic'
loop_
_space_group_symop_operation_xyz
x,y,z
-x,y,-z
-x,-y,-z
x,-y,z
1/2+x,1/2+y,z
1/2-x,1/2+y,-z
1/2-x,1/2-y,-z
1/2+x,1/2-y,z
loop_
_atom_site_type_symbol
_atom_site_label
_atom_site_fract_x
_atom_site_fract_y
_atom_site_fract_z
Si Si1 0.333166 0.856806 0.014548
Si Si2 0.180144 0.858087 0.605628
Si Si3 0.703539 0.150919 0.399358
Si Si4 0.991330 0.140346 0.647468
Si Si5 0.789354 0.360826 0.133121
Si Si6 0.511819 0.853865 0.239820
Si Si7 0.917642 0.718336 0.376327
O O1 0.325133 0.833396 0.091151
O O2 0.435035 0.841935 0.102634
O O3 0.300945 0.000000 0.959769
O O4 0.277745 0.751893 0.914261
O O5 0.266440 0.818979 0.651272
O O6 0.155286 0.758295 0.641642
O O7 0.109111 0.859180 0.470911
O O8 0.189904 0.000000 0.650035
O O9 0.750000 0.250000 0.500000
O O10 0.602076 0.178791 0.295791
O O11 0.722909 0.000000 0.439268
O O12 0.011670 0.254274 0.722163
O O13 0.043298 0.159707 0.626485
O O14 0.018441 0.000000 0.706472
O O15 0.742592 0.500000 0.087351
O O16 0.868688 0.370735 0.269521
O O17 0.512510 0.000000 0.272150
O O18 0.000000 0.649922 0.500000
#
# Coordination Sequence:
#
# PCOD8081085 Si02
#       7
#     8   8   8   8   8   8   8
#     4   9  19  35  53  75 105 140 176 218 265 310
#     4   9  18  32  47  72 107 141 177 214 253 309
#     4  10  19  32  52  75 104 140 177 221 265 309
#     4  10  18  29  49  75 104 139 175 210 254 308
#     4  10  20  35  53  78 108 137 175 218 263 317
#     4  10  19  32  51  76 106 136 170 216 267 312
#     4  10  20  33  51  78 112 144 172 209 265 318
#
# _framework density 18.488287
#
# number of rings (size 3 to 8) (size 9 to 14) (size 15 to 20)
#    0.000    2.286    2.857    0.429    0.000    3.714 
#    0.000    2.857    0.000    0.857    0.000    5.000 
#    0.000    0.000    0.000    0.000    0.000    0.000 
#
# Total GULP energy -346895.075596 kJ/mol
# GULP energy per Si atom -12389.109843 kJ/mol
# Density = 1.844621 g / cm^3
# Si number density = 18.488287 Si / 1000 Ang^3
#
#
#
# Elastic Constant Matrix: (Units=GPa)
#
#
# Indices 1 2 3 4 5 6 
#
# 1 85.0075 36.7954 25.0105 0.0000 14.2048 0.0000
# 2 36.7954 102.5609 43.0130 0.0000 12.7876 0.0000
# 3 25.0105 43.0130 85.3059 0.0000 15.3921 0.0000
# 4 0.0000 0.0000 0.0000 19.4792 0.0000 3.5270
# 5 14.2048 12.7876 15.3921 0.0000 25.7768 0.0000
# 6 0.0000 0.0000 0.0000 3.5270 0.0000 12.7810
#
#
#
# Elastic Compliance Matrix: (Units=1/GPa)
#
#
# Indices 1 2 3 4 5 6 
#
# 1 0.014818 -0.004099 -0.001313 0.000000 -0.005348 0.000000
# 2 -0.004099 0.013669 -0.005463 0.000000 -0.001260 0.000000
# 3 -0.001313 -0.005463 0.015962 0.000000 -0.006098 0.000000
# 4 0.000000 0.000000 0.000000 0.054037 0.000000 -0.014912
# 5 -0.005348 -0.001260 -0.006098 0.000000 0.046008 0.000000
# 6 0.000000 0.000000 0.000000 -0.014912 0.000000 0.082356
#
#
# Mechanical properties :
#
#
# Convention : Reuss Voigt Hill
#
# Bulk Modulus (GPa) = 44.05277 53.61245 48.83261
# Shear Modulus (GPa) = 19.51855 22.81109 21.16482
#
# Velocity S-wave (km/s) = 3.25272 3.51638 3.38711
# Velocity P-wave (km/s) = 6.16328 6.74889 6.46272
#
# Compressibility (1/GPa) = 0.02270005
#
# Stress axis : x y z
#
# Youngs Moduli (GPa) = 67.48682 73.15756 62.64756
#
# Poissons Ratio (x) = 0.29985 0.08223
# Poissons Ratio (y) = 0.27661 0.34226
# Poissons Ratio (z) = 0.08859 0.39967
#
# Static dielectric constant tensor:
#      x y z
#    x 3.323480 0.000000 0.305690 
#    y 0.000000 3.430680 0.000000 
#    z 0.305690 0.000000 3.329210 
# 
# 
# High freq. dielectric constant tensor:
#      x y z
#    x 1.696290 0.000000 0.024240 
#    y 0.000000 1.716090 0.000000 
#    z 0.024240 0.000000 1.694720 
# 
# From -- ./inp_files/289184.got.cif
#   From: 2010.06.25/outbox.cif.g09.slc.cpg/sg12_145_cif.got.tgz:289184.got - 2010.06.28 00:19:55.
