data_PCOD8081253
_publ_section_title
;
Structure prediction by ZEFSAII (Michael W. Deem and Ramdas Pophale) SiO2 
 PCOD8081253
Probable space group: C 2/M
;
_chemical_formula_sum "Si O2"
_cell_formula_units_Z 64
_cell_length_a 24.191188
_cell_length_b 17.447248
_cell_length_c 18.169327
_cell_angle_alpha 90.000000
_cell_angle_beta 29.172276
_cell_angle_gamma 90.000000
_cell_volume 3738.020315
_symmetry_space_group_name_H-M "C 2/M"
_symmetry_group_IT_number 12
_symmetry_cell_setting 'monoclinic'
loop_
_space_group_symop_operation_xyz
x,y,z
-x,y,-z
-x,-y,-z
x,-y,z
1/2+x,1/2+y,z
1/2-x,1/2+y,-z
1/2-x,1/2-y,-z
1/2+x,1/2-y,z
loop_
_atom_site_type_symbol
_atom_site_label
_atom_site_fract_x
_atom_site_fract_y
_atom_site_fract_z
Si Si1 0.497048 0.200833 0.653814
Si Si2 0.884684 0.312004 0.934948
Si Si3 0.113021 0.412082 0.416763
Si Si4 0.986171 0.136182 0.626895
Si Si5 0.834223 0.084615 0.679738
Si Si6 0.205195 0.086168 0.058222
Si Si7 0.761224 0.668719 0.854118
Si Si8 0.421876 0.910395 0.024199
O O1 0.478935 0.202477 0.762707
O O2 0.582053 0.133041 0.528554
O O3 0.546616 0.282574 0.571855
O O4 0.376391 0.199731 0.754345
O O5 0.781496 0.358621 0.019214
O O6 0.834488 0.235287 0.032001
O O7 0.952008 0.362254 0.916583
O O8 0.149701 0.500000 0.392249
O O9 0.214061 0.367106 0.255812
O O10 0.000000 0.413064 0.500000
O O11 0.890396 0.142190 0.673370
O O12 0.926158 0.102089 0.769052
O O13 0.089235 0.081692 0.482621
O O14 0.708126 0.109538 0.804522
O O15 0.832601 0.000000 0.717815
O O16 0.241985 0.000000 0.033433
O O17 0.218547 0.099880 0.955930
O O18 0.442143 0.000000 0.985098
O O19 0.500000 0.881655 0.000000
#
# Coordination Sequence:
#
# PCOD8081253 Si02
#       8
#     8   8   8   8   8   8   8   8
#     4  10  19  28  45  67  99 133 164 197 248 299
#     4  11  19  32  46  72  98 130 171 208 249 304
#     4   9  19  30  41  62  94 136 176 203 235 288
#     4  11  18  28  44  75 105 133 159 194 247 311
#     4  10  20  30  46  72 102 134 167 200 244 302
#     4  11  18  27  45  70 103 136 161 197 249 303
#     4  10  18  30  44  67 100 135 168 200 241 301
#     4  10  21  36  53  72  96 130 171 212 253 296
#
# _framework density 17.121362999999999
#
# number of rings (size 3 to 8) (size 9 to 14) (size 15 to 20)
#    0.000    1.750    3.750    3.000    7.000    3.500 
#    0.000    0.000    0.000    0.750    0.000    0.000 
#    0.000    2.000    0.000    0.250    0.000    0.375 
#
# Total GULP energy -396569.232758 kJ/mol
# GULP energy per Si atom -12392.788524 kJ/mol
# Density = 1.708239 g / cm^3
# Si number density = 17.121363 Si / 1000 Ang^3
#
#
#
# Elastic Constant Matrix: (Units=GPa)
#
#
# Indices 1 2 3 4 5 6 
#
# 1 62.3037 30.3371 39.9828 0.0000 7.6317 0.0000
# 2 30.3371 104.9298 39.8468 0.0000 15.3492 0.0000
# 3 39.9828 39.8468 97.4380 0.0000 26.7363 0.0000
# 4 0.0000 0.0000 0.0000 22.3749 0.0000 8.4262
# 5 7.6317 15.3492 26.7363 0.0000 23.2305 0.0000
# 6 0.0000 0.0000 0.0000 8.4262 0.0000 18.5928
#
#
#
# Elastic Compliance Matrix: (Units=1/GPa)
#
#
# Indices 1 2 3 4 5 6 
#
# 1 0.023446 -0.004001 -0.009642 0.000000 0.006037 0.000000
# 2 -0.004001 0.012123 -0.002161 0.000000 -0.004208 0.000000
# 3 -0.009642 -0.002161 0.020231 0.000000 -0.018689 0.000000
# 4 0.000000 0.000000 0.000000 0.053890 0.000000 -0.024423
# 5 0.006037 -0.004208 -0.018689 0.000000 0.065353 0.000000
# 6 0.000000 0.000000 0.000000 -0.024423 0.000000 0.064853
#
#
# Mechanical properties :
#
#
# Convention : Reuss Voigt Hill
#
# Bulk Modulus (GPa) = 41.33304 53.88944 47.61124
# Shear Modulus (GPa) = 17.88470 23.13997 20.51234
#
# Velocity S-wave (km/s) = 3.23551 3.68030 3.46505
# Velocity P-wave (km/s) = 6.17670 7.04292 6.62399
#
# Compressibility (1/GPa) = 0.02419372
#
# Stress axis : x y z
#
# Youngs Moduli (GPa) = 42.65082 82.48651 49.42858
#
# Poissons Ratio (x) = 0.32999 0.47657
# Poissons Ratio (y) = 0.17063 0.10683
# Poissons Ratio (z) = 0.41122 0.17829
#
# Static dielectric constant tensor:
#      x y z
#    x 2.732550 0.000000 0.394260 
#    y 0.000000 3.323340 0.000000 
#    z 0.394260 0.000000 3.466160 
# 
# 
# High freq. dielectric constant tensor:
#      x y z
#    x 1.583900 0.000000 0.040120 
#    y 0.000000 1.672170 0.000000 
#    z 0.040120 0.000000 1.666340 
# 
# From -- ./inp_files/290437.got.cif
#   From: 2010.06.25/outbox.cif.g09.slc.cpg/sg12_146_cif.got.tgz:290437.got - 2010.06.28 00:19:55.
