data_PCOD8081572
_publ_section_title
;
Structure prediction by ZEFSAII (Michael W. Deem and Ramdas Pophale) SiO2 
 PCOD8081572
Probable space group: C 2/M
;
_chemical_formula_sum "Si O2"
_cell_formula_units_Z 64
_cell_length_a 20.622650
_cell_length_b 9.182504
_cell_length_c 19.697318
_cell_angle_alpha 90.000000
_cell_angle_beta 102.629981
_cell_angle_gamma 90.000000
_cell_volume 3639.775621
_symmetry_space_group_name_H-M "C 2/M"
_symmetry_group_IT_number 12
_symmetry_cell_setting 'monoclinic'
loop_
_space_group_symop_operation_xyz
x,y,z
-x,y,-z
-x,-y,-z
x,-y,z
1/2+x,1/2+y,z
1/2-x,1/2+y,-z
1/2-x,1/2-y,-z
1/2+x,1/2-y,z
loop_
_atom_site_type_symbol
_atom_site_label
_atom_site_fract_x
_atom_site_fract_y
_atom_site_fract_z
Si Si1 0.694257 0.170918 0.771384
Si Si2 0.162888 0.172506 0.151635
Si Si3 0.574909 0.335518 0.491394
Si Si4 0.602875 0.331823 0.856764
Si Si5 0.683379 0.330005 0.005572
Si Si6 0.388801 0.168074 0.374611
Si Si7 0.965261 0.329324 0.644592
Si Si8 0.044004 0.828011 0.217421
O O1 0.769036 0.229480 0.798220
O O2 0.646326 0.241535 0.814885
O O3 0.670824 0.209386 0.689906
O O4 0.689667 0.000000 0.783433
O O5 0.158904 0.228362 0.073132
O O6 0.100210 0.232144 0.179161
O O7 0.160860 0.000000 0.152670
O O8 0.500000 0.332213 0.500000
O O9 0.599137 0.500000 0.483234
O O10 0.620768 0.264072 0.560079
O O11 0.580720 0.242094 0.424109
O O12 0.613755 0.500000 0.841268
O O13 0.526156 0.287417 0.832496
O O14 0.625064 0.296973 0.938656
O O15 0.700460 0.500000 0.013209
O O16 0.750000 0.250000 0.000000
O O17 0.457574 0.203267 0.352145
O O18 0.387021 0.000000 0.396320
O O19 0.950093 0.500000 0.643930
O O20 0.945504 0.255613 0.710228
O O21 0.050221 0.000000 0.232620
#
# Coordination Sequence:
#
# PCOD8081572 Si02
#       8
#     8   8   8   8   8   8   8   8
#     4  10  18  32  53  75 100 135 174 209 251 304
#     4   9  19  34  53  74 100 137 174 209 253 308
#     4   9  17  28  45  72 104 135 165 204 255 302
#     4  10  20  31  50  78 103 130 168 215 259 299
#     4  10  19  33  53  76 101 132 170 213 259 304
#     4   9  17  28  46  73 101 129 167 211 251 297
#     4  10  18  30  49  73 102 136 170 207 253 302
#     4  10  20  34  50  73 105 137 171 210 255 306
#
# _framework density 17.583503
#
# number of rings (size 3 to 8) (size 9 to 14) (size 15 to 20)
#    0.000    2.375    2.500    0.750    0.000    3.000 
#    0.000    3.750    0.000    0.750    0.000    2.625 
#    0.000    0.000    0.000    0.000    0.000    0.000 
#
# Total GULP energy -396805.621053 kJ/mol
# GULP energy per Si atom -12400.175658 kJ/mol
# Density = 1.754348 g / cm^3
# Si number density = 17.583503 Si / 1000 Ang^3
#
#
#
# Elastic Constant Matrix: (Units=GPa)
#
#
# Indices 1 2 3 4 5 6 
#
# 1 111.1856 35.9528 77.5324 0.0000 2.2857 0.0000
# 2 35.9528 54.0604 58.0396 0.0000 -1.1234 0.0000
# 3 77.5324 58.0396 168.9624 0.0000 8.5539 0.0000
# 4 0.0000 0.0000 0.0000 27.9259 0.0000 -0.5552
# 5 2.2857 -1.1234 8.5539 0.0000 25.5109 0.0000
# 6 0.0000 0.0000 0.0000 -0.5552 0.0000 16.8355
#
#
#
# Elastic Compliance Matrix: (Units=1/GPa)
#
#
# Indices 1 2 3 4 5 6 
#
# 1 0.013689 -0.003704 -0.005024 0.000000 0.000295 0.000000
# 2 -0.003704 0.030884 -0.009150 0.000000 0.004760 0.000000
# 3 -0.005024 -0.009150 0.011561 0.000000 -0.003829 0.000000
# 4 0.000000 0.000000 0.000000 0.035833 0.000000 0.001182
# 5 0.000295 0.004760 -0.003829 0.000000 0.040666 0.000000
# 6 0.000000 0.000000 0.000000 0.001182 0.000000 0.059437
#
#
# Mechanical properties :
#
#
# Convention : Reuss Voigt Hill
#
# Bulk Modulus (GPa) = 49.07398 75.25089 62.16243
# Shear Modulus (GPa) = 21.31126 24.90004 23.10565
#
# Velocity S-wave (km/s) = 3.48516 3.76720 3.62892
# Velocity P-wave (km/s) = 6.64566 7.86203 7.27930
#
# Compressibility (1/GPa) = 0.02037740
#
# Stress axis : x y z
#
# Youngs Moduli (GPa) = 73.05110 32.37973 86.49812
#
# Poissons Ratio (x) = 0.11992 0.43459
# Poissons Ratio (y) = 0.27056 0.79147
# Poissons Ratio (z) = 0.36703 0.29628
#
# Static dielectric constant tensor:
#      x y z
#    x 3.284210 0.000000 0.102960 
#    y 0.000000 3.183120 0.000000 
#    z 0.102960 0.000000 3.597840 
# 
# 
# High freq. dielectric constant tensor:
#      x y z
#    x 1.651430 0.000000 0.014780 
#    y 0.000000 1.667710 0.000000 
#    z 0.014780 0.000000 1.694250 
# 
# From -- ./inp_files/281258.got.cif
#   From: 2010.06.25/outbox.cif.g09.slc.cpg/sg12_141_cif.got.tgz:281258.got - 2010.06.28 00:19:55.
