data_PCOD8081542
_publ_section_title
;
Structure prediction by ZEFSAII (Michael W. Deem and Ramdas Pophale) SiO2 
 PCOD8081542
Probable space group: C 2/M
;
_chemical_formula_sum "Si O2"
_cell_formula_units_Z 48
_cell_length_a 22.569644
_cell_length_b 9.102233
_cell_length_c 15.930739
_cell_angle_alpha 90.000000
_cell_angle_beta 59.118140
_cell_angle_gamma 90.000000
_cell_volume 2808.736393
_symmetry_space_group_name_H-M "C 2/M"
_symmetry_group_IT_number 12
_symmetry_cell_setting 'monoclinic'
loop_
_space_group_symop_operation_xyz
x,y,z
-x,y,-z
-x,-y,-z
x,-y,z
1/2+x,1/2+y,z
1/2-x,1/2+y,-z
1/2-x,1/2-y,-z
1/2+x,1/2-y,z
loop_
_atom_site_type_symbol
_atom_site_label
_atom_site_fract_x
_atom_site_fract_y
_atom_site_fract_z
Si Si1 0.235611 0.327155 0.307757
Si Si2 0.501689 0.669874 0.901479
Si Si3 0.626940 0.172321 0.725761
Si Si4 0.184670 0.667605 0.515711
Si Si5 0.652020 0.669023 0.035172
Si Si6 0.232240 0.171057 0.142693
O O1 0.246939 0.500000 0.285337
O O2 0.308909 0.256535 0.279276
O O3 0.176269 0.294982 0.422498
O O4 0.206807 0.254307 0.244243
O O5 0.522239 0.500000 0.874974
O O6 0.556224 0.770669 0.815048
O O7 0.428288 0.705572 0.913265
O O8 0.500000 0.712744 0.000000
O O9 0.622905 0.201919 0.626707
O O10 0.635017 0.000000 0.739536
O O11 0.205505 0.500000 0.507964
O O12 0.250000 0.750000 0.500000
O O13 0.667349 0.500000 0.000597
O O14 0.675630 0.704286 0.112591
O O15 0.693083 0.769288 0.939582
O O16 0.239458 0.000000 0.156928
#
# Coordination Sequence:
#
# PCOD8081542 Si02
#       6
#     8   8   8   8   8   8
#     4  10  18  30  49  71  96 126 158 190 233 284
#     4  10  20  33  49  69  95 127 158 186 226 285
#     4  10  19  31  48  72  99 123 153 195 238 277
#     4   8  16  29  45  67  94 122 152 190 234 279
#     4   9  19  34  49  68  97 129 157 189 234 284
#     4  10  19  31  49  72  96 122 157 199 235 271
#
# _framework density 17.089535999999999
#
# number of rings (size 3 to 8) (size 9 to 14) (size 15 to 20)
#    0.000    2.500    0.000    2.500    0.000    4.333 
#    0.000    0.000    0.000    1.000    0.000    7.000 
#    0.000    0.000    0.000    0.000    0.000    0.000 
#
# Total GULP energy -297420.751043 kJ/mol
# GULP energy per Si atom -12392.531293 kJ/mol
# Density = 1.705064 g / cm^3
# Si number density = 17.089536 Si / 1000 Ang^3
#
#
#
# Elastic Constant Matrix: (Units=GPa)
#
#
# Indices 1 2 3 4 5 6 
#
# 1 64.2766 29.2341 47.4259 0.0000 3.8335 0.0000
# 2 29.2341 81.9520 65.5724 0.0000 5.9566 0.0000
# 3 47.4259 65.5724 150.8787 0.0000 11.6443 0.0000
# 4 0.0000 0.0000 0.0000 27.2619 0.0000 2.9965
# 5 3.8335 5.9566 11.6443 0.0000 20.8141 0.0000
# 6 0.0000 0.0000 0.0000 2.9965 0.0000 22.4795
#
#
#
# Elastic Compliance Matrix: (Units=1/GPa)
#
#
# Indices 1 2 3 4 5 6 
#
# 1 0.020843 -0.003362 -0.005088 0.000000 -0.000030 0.000000
# 2 -0.003362 0.019264 -0.007251 0.000000 -0.000837 0.000000
# 3 -0.005088 -0.007251 0.011649 0.000000 -0.003505 0.000000
# 4 0.000000 0.000000 0.000000 0.037227 0.000000 -0.004962
# 5 -0.000030 -0.000837 -0.003505 0.000000 0.050250 0.000000
# 6 0.000000 0.000000 0.000000 -0.004962 0.000000 0.045147
#
#
# Mechanical properties :
#
#
# Convention : Reuss Voigt Hill
#
# Bulk Modulus (GPa) = 49.12991 64.61914 56.87452
# Shear Modulus (GPa) = 22.46531 24.43610 23.45071
#
# Velocity S-wave (km/s) = 3.62963 3.78549 3.70838
# Velocity P-wave (km/s) = 6.81003 7.54988 7.18948
#
# Compressibility (1/GPa) = 0.02035420
#
# Stress axis : x y z
#
# Youngs Moduli (GPa) = 47.97821 51.91042 85.84448
#
# Poissons Ratio (x) = 0.17450 0.43680
# Poissons Ratio (y) = 0.16129 0.62245
# Poissons Ratio (z) = 0.24412 0.37640
#
# Static dielectric constant tensor:
#      x y z
#    x 2.905190 0.000000 0.168540 
#    y 0.000000 3.280230 0.000000 
#    z 0.168540 0.000000 3.847430 
# 
# 
# High freq. dielectric constant tensor:
#      x y z
#    x 1.619820 0.000000 0.013200 
#    y 0.000000 1.671340 0.000000 
#    z 0.013200 0.000000 1.675870 
# 
# From -- ./inp_files/229919.got.cif
#   From: 2010.06.25/outbox.cif.g09.slc.cpg/sg12_115_cif.got.tgz:229919.got - 2010.06.28 00:19:55.
