data_PCOD8081064
_publ_section_title
;
Structure prediction by ZEFSAII (Michael W. Deem and Ramdas Pophale) SiO2 
 PCOD8081064
Probable space group: C 2/M
;
_chemical_formula_sum "Si O2"
_cell_formula_units_Z 56
_cell_length_a 31.015003
_cell_length_b 9.162594
_cell_length_c 18.636813
_cell_angle_alpha 90.000000
_cell_angle_beta 33.988546
_cell_angle_gamma 90.000000
_cell_volume 2960.702880
_symmetry_space_group_name_H-M "C 2/M"
_symmetry_group_IT_number 12
_symmetry_cell_setting 'monoclinic'
loop_
_space_group_symop_operation_xyz
x,y,z
-x,y,-z
-x,-y,-z
x,-y,z
1/2+x,1/2+y,z
1/2-x,1/2+y,-z
1/2-x,1/2-y,-z
1/2+x,1/2-y,z
loop_
_atom_site_type_symbol
_atom_site_label
_atom_site_fract_x
_atom_site_fract_y
_atom_site_fract_z
Si Si1 0.845747 0.667937 0.938466
Si Si2 0.090324 0.663135 0.887040
Si Si3 0.234702 0.670821 0.596284
Si Si4 0.668643 0.661127 0.169708
Si Si5 0.813836 0.671410 0.619591
Si Si6 0.425464 0.665776 0.561733
Si Si7 0.660645 0.667031 0.913273
O O1 0.867660 0.500000 0.912216
O O2 0.880781 0.735839 0.816514
O O3 0.756557 0.707994 0.054928
O O4 0.873375 0.742797 0.973063
O O5 0.109645 0.500000 0.889635
O O6 0.143980 0.689829 0.742555
O O7 0.109179 0.787416 0.917456
O O8 0.000000 0.678039 0.000000
O O9 0.256377 0.500000 0.559786
O O10 0.250000 0.750000 0.500000
O O11 0.289187 0.743859 0.581604
O O12 0.661313 0.500000 0.146954
O O13 0.641117 0.667062 0.288339
O O14 0.824080 0.500000 0.587965
O O15 0.895288 0.736586 0.536620
O O16 0.749869 0.696408 0.769836
O O17 0.500000 0.732026 0.500000
O O18 0.443051 0.500000 0.510567
O O19 0.646244 0.500000 0.951187
#
# Coordination Sequence:
#
# PCOD8081064 Si02
#       7
#     8   8   8   8   8   8   8
#     4  10  18  29  49  73  98 130 167 209 254 301
#     4   9  19  36  57  81 109 141 176 218 270 324
#     4  10  20  36  60  86 113 143 181 227 275 330
#     4   9  18  31  47  70 100 130 164 209 257 302
#     4  10  20  34  54  79 107 139 181 224 265 318
#     4  10  20  35  54  75 103 140 180 222 269 317
#     4  10  19  31  51  78 106 136 172 216 261 312
#
# _framework density 18.914427
#
# number of rings (size 3 to 8) (size 9 to 14) (size 15 to 20)
#    0.000    2.286    1.429    1.714    0.000    3.429 
#    0.000    1.429    0.000    0.000    0.000    0.000 
#    0.000    0.000    0.000    0.000    0.000    0.000 
#
# Total GULP energy -346962.282625 kJ/mol
# GULP energy per Si atom -12391.510094 kJ/mol
# Density = 1.887138 g / cm^3
# Si number density = 18.914427 Si / 1000 Ang^3
#
#
#
# Elastic Constant Matrix: (Units=GPa)
#
#
# Indices 1 2 3 4 5 6 
#
# 1 80.3731 -6.6297 16.6741 -0.0067 -19.7822 0.0020
# 2 -6.6297 -115.7946 -40.1187 -0.0366 -58.3362 0.0104
# 3 16.6741 -40.1187 23.5441 -0.0096 -21.8371 0.0008
# 4 -0.0067 -0.0366 -0.0096 20.4941 -0.0095 6.9966
# 5 -19.7822 -58.3362 -21.8371 -0.0095 12.6760 0.0034
# 6 0.0020 0.0104 0.0008 6.9966 0.0034 39.5488
#
#
#
# Elastic Compliance Matrix: (Units=1/GPa)
#
#
# Indices 1 2 3 4 5 6 
#
# 1 0.015306 -0.001143 -0.007508 0.000003 0.005693 -0.000001
# 2 -0.001143 0.001065 -0.009229 -0.000010 -0.012780 0.000003
# 3 -0.007508 -0.009229 0.030434 -0.000007 -0.001758 0.000004
# 4 0.000003 -0.000010 -0.000007 0.051931 -0.000011 -0.009187
# 5 0.005693 -0.012780 -0.001758 -0.000011 0.025930 0.000003
# 6 -0.000001 0.000003 0.000004 -0.009187 0.000003 0.026911
#
#
# Mechanical properties :
#
#
# Convention : Reuss Voigt Hill
#
# Bulk Modulus (GPa) = 90.52485 -8.00291 41.26097
# Shear Modulus (GPa) = 26.17544 15.75690 20.96617
#
# Velocity S-wave (km/s) = 3.72410 2.88941 3.33299
# Velocity P-wave (km/s) = 8.15206 2.62513 6.05588
#
# Compressibility (1/GPa) = 0.01104669
#
# Stress axis : x y z
#
# Youngs Moduli (GPa) = 65.33215 938.75382 32.85770
#
# Poissons Ratio (x) = 1.07307 0.24669
# Poissons Ratio (y) = 0.07468 0.30323
# Poissons Ratio (z) = 0.49051 8.66343
#
# Static dielectric constant tensor:
#      x y z
#    x 3.781180 -0.000040 0.368830 
#    y -0.000040 3.594320 -0.000010 
#    z 0.368830 -0.000010 3.498870 
# 
# 
# High freq. dielectric constant tensor:
#      x y z
#    x 1.728580 0.000000 0.011830 
#    y 0.000000 1.743680 0.000000 
#    z 0.011830 0.000000 1.708280 
# 
# From -- ./inp_files/288490.got.cif
#   From: 2010.06.25/outbox.cif.g09.slc.cpg/sg12_145_cif.got.tgz:288490.got - 2010.06.28 00:19:55.
