data_PCOD8081159
_publ_section_title
;
Structure prediction by ZEFSAII (Michael W. Deem and Ramdas Pophale) SiO2 
 PCOD8081159
Probable space group: C 2/M
;
_chemical_formula_sum "Si O2"
_cell_formula_units_Z 40
_cell_length_a 20.506374
_cell_length_b 8.884342
_cell_length_c 14.130201
_cell_angle_alpha 90.000000
_cell_angle_beta 59.608792
_cell_angle_gamma 90.000000
_cell_volume 2220.585810
_symmetry_space_group_name_H-M "C 2/M"
_symmetry_group_IT_number 12
_symmetry_cell_setting 'monoclinic'
loop_
_space_group_symop_operation_xyz
x,y,z
-x,y,-z
-x,-y,-z
x,-y,z
1/2+x,1/2+y,z
1/2-x,1/2+y,-z
1/2-x,1/2-y,-z
1/2+x,1/2-y,z
loop_
_atom_site_type_symbol
_atom_site_label
_atom_site_fract_x
_atom_site_fract_y
_atom_site_fract_z
Si Si1 0.429059 0.666430 0.482724
Si Si2 0.057298 0.327510 0.038875
Si Si3 0.525091 0.828437 0.273988
Si Si4 0.215970 0.177480 0.931118
Si Si5 0.838389 0.177962 0.723262
O O1 0.500000 0.661147 0.500000
O O2 0.413330 0.500000 0.453030
O O3 0.446957 0.777298 0.382319
O O4 0.358467 0.720859 0.599321
O O5 0.083486 0.500000 0.004305
O O6 0.013951 0.309947 0.170250
O O7 0.129152 0.219842 0.981813
O O8 0.000000 0.274681 0.000000
O O9 0.595367 0.727223 0.254083
O O10 0.542403 0.000000 0.289731
O O11 0.261410 0.237589 0.806529
O O12 0.225213 0.000000 0.932346
O O13 0.250000 0.250000 0.000000
O O14 0.828161 0.000000 0.742237
#
# Coordination Sequence:
#
# PCOD8081159 Si02
#       5
#     8   8   8   8   8
#     4   8  16  29  46  71 104 139 171 211 268 317
#     4  10  22  39  56  77 109 147 182 218 267 323
#     4  10  18  29  50  77 105 139 177 219 263 313
#     4  12  23  35  55  81 109 141 178 224 271 317
#     4  10  19  32  51  76 107 140 173 217 269 319
#
# _framework density 18.013265000000001
#
# number of rings (size 3 to 8) (size 9 to 14) (size 15 to 20)
#    0.000    2.000    2.000    4.200    0.000    5.600 
#    0.000    0.000    0.000    1.200    0.000    0.000 
#    0.000    0.000    0.000    0.000    0.000    0.000 
#
# Total GULP energy -247976.670737 kJ/mol
# GULP energy per Si atom -12398.833537 kJ/mol
# Density = 1.797227 g / cm^3
# Si number density = 18.013265 Si / 1000 Ang^3
#
#
#
# Elastic Constant Matrix: (Units=GPa)
#
#
# Indices 1 2 3 4 5 6 
#
# 1 69.5831 40.0890 46.3924 0.0000 1.3781 0.0000
# 2 40.0890 118.2336 69.2239 0.0000 -5.8103 0.0000
# 3 46.3924 69.2239 152.8984 0.0000 -9.8782 0.0000
# 4 0.0000 0.0000 0.0000 34.9004 0.0000 -5.6150
# 5 1.3781 -5.8103 -9.8782 0.0000 18.9652 0.0000
# 6 0.0000 0.0000 0.0000 -5.6150 0.0000 19.7543
#
#
#
# Elastic Compliance Matrix: (Units=1/GPa)
#
#
# Indices 1 2 3 4 5 6 
#
# 1 0.019951 -0.004460 -0.004363 0.000000 -0.005089 0.000000
# 2 -0.004460 0.012519 -0.004187 0.000000 0.001979 0.000000
# 3 -0.004363 -0.004187 0.010035 0.000000 0.004261 0.000000
# 4 0.000000 0.000000 0.000000 0.030026 0.000000 0.008535
# 5 -0.005089 0.001979 0.004261 0.000000 0.055924 0.000000
# 6 0.000000 0.000000 0.000000 0.008535 0.000000 0.053048
#
#
# Mechanical properties :
#
#
# Convention : Reuss Voigt Hill
#
# Bulk Modulus (GPa) = 60.66233 72.45840 66.56036
# Shear Modulus (GPa) = 23.47248 27.05796 25.26522
#
# Velocity S-wave (km/s) = 3.61372 3.87992 3.74918
# Velocity P-wave (km/s) = 7.15273 7.77071 7.46812
#
# Compressibility (1/GPa) = 0.01648470
#
# Stress axis : x y z
#
# Youngs Moduli (GPa) = 50.12394 79.88148 99.65359
#
# Poissons Ratio (x) = 0.35629 0.43477
# Poissons Ratio (y) = 0.22357 0.41720
# Poissons Ratio (z) = 0.21868 0.33443
#
# Static dielectric constant tensor:
#      x y z
#    x 2.883000 0.000000 -0.120550 
#    y 0.000000 3.425490 0.000000 
#    z -0.120550 0.000000 3.987760 
# 
# 
# High freq. dielectric constant tensor:
#      x y z
#    x 1.635990 0.000000 -0.006790 
#    y 0.000000 1.705880 0.000000 
#    z -0.006790 0.000000 1.720640 
# 
# From -- ./inp_files/220590.got.cif
#   From: 2010.06.25/outbox.cif.g09.slc.cpg/sg12_111_cif.got.tgz:220590.got - 2010.06.28 00:19:55.
