data_PCOD8081208
_publ_section_title
;
Structure prediction by ZEFSAII (Michael W. Deem and Ramdas Pophale) SiO2 
 PCOD8081208
Probable space group: C 2/M
;
_chemical_formula_sum "Si O2"
_cell_formula_units_Z 64
_cell_length_a 22.121973
_cell_length_b 9.137141
_cell_length_c 16.726863
_cell_angle_alpha 90.000000
_cell_angle_beta 101.364884
_cell_angle_gamma 90.000000
_cell_volume 3314.732620
_symmetry_space_group_name_H-M "C 2/M"
_symmetry_group_IT_number 12
_symmetry_cell_setting 'monoclinic'
loop_
_space_group_symop_operation_xyz
x,y,z
-x,y,-z
-x,-y,-z
x,-y,z
1/2+x,1/2+y,z
1/2-x,1/2+y,-z
1/2-x,1/2-y,-z
1/2+x,1/2-y,z
loop_
_atom_site_type_symbol
_atom_site_label
_atom_site_fract_x
_atom_site_fract_y
_atom_site_fract_z
Si Si1 0.614436 0.332991 0.599863
Si Si2 0.718081 0.667053 0.752855
Si Si3 0.814132 0.829229 0.533884
Si Si4 0.972972 0.329991 0.307626
Si Si5 0.311025 0.831035 0.984623
Si Si6 0.331958 0.331454 0.828846
Si Si7 0.096792 0.832726 0.305272
Si Si8 0.131402 0.665972 0.839253
O O1 0.591408 0.500000 0.598002
O O2 0.677761 0.311309 0.664121
O O3 0.631945 0.283691 0.514990
O O4 0.560349 0.235521 0.622916
O O5 0.738699 0.500000 0.770836
O O6 0.776724 0.770760 0.760130
O O7 0.681134 0.718495 0.821258
O O8 0.750000 0.750000 0.500000
O O9 0.842181 0.788702 0.627859
O O10 0.799684 0.000000 0.521106
O O11 0.979236 0.500000 0.324934
O O12 0.935016 0.294995 0.216098
O O13 0.040484 0.266827 0.316075
O O14 0.338654 0.760004 0.911779
O O15 0.294051 0.000000 0.963705
O O16 0.250000 0.750000 0.000000
O O17 0.366464 0.819668 0.064132
O O18 0.320163 0.500000 0.848265
O O19 0.391186 0.313540 0.786625
O O20 0.079541 0.000000 0.320493
O O21 0.149649 0.500000 0.818212
#
# Coordination Sequence:
#
# PCOD8081208 Si02
#       8
#     8   8   8   8   8   8   8   8
#     4   9  19  35  56  83 113 147 186 230 280 334
#     4  10  18  29  51  81 110 142 180 224 277 332
#     4  10  21  38  60  86 117 150 186 229 282 336
#     4  10  21  38  60  83 108 145 192 236 277 325
#     4  11  21  34  55  84 115 144 180 226 282 339
#     4  11  22  35  52  77 112 149 186 227 279 336
#     4  10  23  41  58  78 110 154 192 229 279 334
#     4   9  19  35  54  78 110 143 177 224 278 330
#
# _framework density 19.307739999999999
#
# number of rings (size 3 to 8) (size 9 to 14) (size 15 to 20)
#    0.000    2.000    1.250    2.250    0.000    4.000 
#    0.000    3.125    0.000    3.750    0.000    0.000 
#    0.000    0.000    0.000    0.000    0.000    0.000 
#
# Total GULP energy -396720.887136 kJ/mol
# GULP energy per Si atom -12397.527723 kJ/mol
# Density = 1.926380 g / cm^3
# Si number density = 19.307740 Si / 1000 Ang^3
#
#
#
# Elastic Constant Matrix: (Units=GPa)
#
#
# Indices 1 2 3 4 5 6 
#
# 1 96.1456 54.1163 35.2795 0.0000 -6.9232 0.0000
# 2 54.1163 107.3276 43.5136 0.0000 -9.4521 0.0000
# 3 35.2795 43.5136 100.8594 0.0000 -17.5138 0.0000
# 4 0.0000 0.0000 0.0000 28.0330 0.0000 0.8106
# 5 -6.9232 -9.4521 -17.5138 0.0000 20.6024 0.0000
# 6 0.0000 0.0000 0.0000 0.8106 0.0000 31.8311
#
#
#
# Elastic Compliance Matrix: (Units=1/GPa)
#
#
# Indices 1 2 3 4 5 6 
#
# 1 0.014988 -0.006584 -0.002407 0.000000 -0.000031 0.000000
# 2 -0.006584 0.014211 -0.003613 0.000000 0.001236 0.000000
# 3 -0.002407 -0.003613 0.013946 0.000000 0.009389 0.000000
# 4 0.000000 0.000000 0.000000 0.035699 0.000000 -0.000909
# 5 -0.000031 0.001236 0.009389 0.000000 0.057076 0.000000
# 6 0.000000 0.000000 0.000000 -0.000909 0.000000 0.031439
#
#
# Mechanical properties :
#
#
# Convention : Reuss Voigt Hill
#
# Bulk Modulus (GPa) = 55.75582 63.35015 59.55298
# Shear Modulus (GPa) = 25.18316 27.52152 26.35234
#
# Velocity S-wave (km/s) = 3.61543 3.77956 3.69841
# Velocity P-wave (km/s) = 6.80945 7.20616 7.01061
#
# Compressibility (1/GPa) = 0.01793535
#
# Stress axis : x y z
#
# Youngs Moduli (GPa) = 66.72103 70.36963 71.70447
#
# Poissons Ratio (x) = 0.46329 0.17263
# Poissons Ratio (y) = 0.43927 0.25910
# Poissons Ratio (z) = 0.16063 0.25428
#
# Static dielectric constant tensor:
#      x y z
#    x 3.256440 0.000000 0.056850 
#    y 0.000000 3.614170 0.000000 
#    z 0.056850 0.000000 3.797890 
# 
# 
# High freq. dielectric constant tensor:
#      x y z
#    x 1.726960 0.000000 -0.000440 
#    y 0.000000 1.757330 0.000000 
#    z -0.000440 0.000000 1.760520 
# 
# From -- ./inp_files/287725.got.cif
#   From: 2010.06.25/outbox.cif.g09.slc.cpg/sg12_144_cif.got.tgz:287725.got - 2010.06.28 00:19:55.
