data_PCOD8081389
_publ_section_title
;
Structure prediction by ZEFSAII (Michael W. Deem and Ramdas Pophale) SiO2 
 PCOD8081389
Probable space group: C 2/M
;
_chemical_formula_sum "Si O2"
_cell_formula_units_Z 36
_cell_length_a 11.880495
_cell_length_b 31.203134
_cell_length_c 5.431132
_cell_angle_alpha 90.000000
_cell_angle_beta 76.207822
_cell_angle_gamma 90.000000
_cell_volume 1955.315997
_symmetry_space_group_name_H-M "C 2/M"
_symmetry_group_IT_number 12
_symmetry_cell_setting 'monoclinic'
loop_
_space_group_symop_operation_xyz
x,y,z
-x,y,-z
-x,-y,-z
x,-y,z
1/2+x,1/2+y,z
1/2-x,1/2+y,-z
1/2-x,1/2-y,-z
1/2+x,1/2-y,z
loop_
_atom_site_type_symbol
_atom_site_label
_atom_site_fract_x
_atom_site_fract_y
_atom_site_fract_z
Si Si1 0.624109 0.266781 0.812600
Si Si2 0.137876 0.405875 0.933016
Si Si3 0.137716 0.451609 0.432811
Si Si4 0.182817 0.313910 0.069728
Si Si5 0.500000 0.220410 0.500000
O O1 0.707628 0.308108 0.799434
O O2 0.599713 0.252951 0.544451
O O3 0.500000 0.276121 0.000000
O O4 0.690162 0.224895 0.877322
O O5 0.183465 0.426921 0.653948
O O6 0.182879 0.430883 0.153502
O O7 0.191266 0.358398 0.920967
O O8 0.000000 0.404676 0.000000
O O9 0.185233 0.500000 0.422286
O O10 0.000000 0.451354 0.500000
O O11 0.058145 0.311420 0.272279
#
# Coordination Sequence:
#
# PCOD8081389 Si02
#       5
#     8   8   8   8   4
#     4   9  19  34  46  65  95 131 166 202 246 284
#     4  10  19  29  47  71  98 128 166 200 238 293
#     4   9  18  31  46  66  97 132 160 193 245 301
#     4  10  20  30  47  69  96 128 167 204 241 286
#     4  10  18  30  48  66  93 132 161 204 242 292
#
# _framework density 18.411346000000002
#
# number of rings (size 3 to 8) (size 9 to 14) (size 15 to 20)
#    0.000    2.444    0.000    3.333    7.778    2.667 
#    0.000    0.000    0.000    0.000    0.000    0.000 
#    0.000    5.333    0.000    0.000    0.000    0.000 
#
# Total GULP energy -223034.807016 kJ/mol
# GULP energy per Si atom -12390.822612 kJ/mol
# Density = 1.836944 g / cm^3
# Si number density = 18.411346 Si / 1000 Ang^3
#
#
#
# Elastic Constant Matrix: (Units=GPa)
#
#
# Indices 1 2 3 4 5 6 
#
# 1 56.8414 42.4541 23.2239 0.0000 18.3250 0.0000
# 2 42.4541 125.9631 48.0629 0.0000 20.8022 0.0000
# 3 23.2239 48.0629 95.0105 0.0000 32.9853 0.0000
# 4 0.0000 0.0000 0.0000 23.2539 0.0000 10.5723
# 5 18.3250 20.8022 32.9853 0.0000 26.4898 0.0000
# 6 0.0000 0.0000 0.0000 10.5723 0.0000 22.5751
#
#
#
# Elastic Compliance Matrix: (Units=1/GPa)
#
#
# Indices 1 2 3 4 5 6 
#
# 1 0.027458 -0.007620 0.002924 0.000000 -0.016652 0.000000
# 2 -0.007620 0.012063 -0.004899 0.000000 0.001898 0.000000
# 3 0.002924 -0.004899 0.020531 0.000000 -0.023741 0.000000
# 4 0.000000 0.000000 0.000000 0.054637 0.000000 -0.025587
# 5 -0.016652 0.001898 -0.023741 0.000000 0.077342 0.000000
# 6 0.000000 0.000000 0.000000 -0.025587 0.000000 0.056280
#
#
# Mechanical properties :
#
#
# Convention : Reuss Voigt Hill
#
# Bulk Modulus (GPa) = 24.47239 56.14411 40.30825
# Shear Modulus (GPa) = 17.78606 25.40203 21.59405
#
# Velocity S-wave (km/s) = 3.11149 3.71845 3.42843
# Velocity P-wave (km/s) = 5.12146 6.99974 6.13293
#
# Compressibility (1/GPa) = 0.04086238
#
# Stress axis : x y z
#
# Youngs Moduli (GPa) = 36.41951 82.90029 48.70742
#
# Poissons Ratio (x) = 0.63171 -0.14243
# Poissons Ratio (y) = 0.27752 0.23860
# Poissons Ratio (z) = -0.10650 0.40610
#
# Static dielectric constant tensor:
#      x y z
#    x 3.367520 0.000000 0.414610 
#    y 0.000000 3.323260 0.000000 
#    z 0.414610 0.000000 3.499640 
# 
# 
# High freq. dielectric constant tensor:
#      x y z
#    x 1.673240 0.000000 0.033630 
#    y 0.000000 1.695120 0.000000 
#    z 0.033630 0.000000 1.716800 
# 
# From -- ./inp_files/7381.got.cif
#   From: 2010.06.25/outbox.cif.g09.slc.cpg/sg12_4_cif.got.tgz:7381.got - 2010.06.28 00:19:55.
