data_PCOD8081577
_publ_section_title
;
Structure prediction by ZEFSAII (Michael W. Deem and Ramdas Pophale) SiO2 
 PCOD8081577
Probable space group: C 2/M
;
_chemical_formula_sum "Si O2"
_cell_formula_units_Z 56
_cell_length_a 28.786411
_cell_length_b 8.773422
_cell_length_c 14.520792
_cell_angle_alpha 90.000000
_cell_angle_beta 119.454873
_cell_angle_gamma 90.000000
_cell_volume 3193.279773
_symmetry_space_group_name_H-M "C 2/M"
_symmetry_group_IT_number 12
_symmetry_cell_setting 'monoclinic'
loop_
_space_group_symop_operation_xyz
x,y,z
-x,y,-z
-x,-y,-z
x,-y,z
1/2+x,1/2+y,z
1/2-x,1/2+y,-z
1/2-x,1/2-y,-z
1/2+x,1/2-y,z
loop_
_atom_site_type_symbol
_atom_site_label
_atom_site_fract_x
_atom_site_fract_y
_atom_site_fract_z
Si Si1 0.663607 0.830615 0.175555
Si Si2 0.783948 0.174444 0.273434
Si Si3 0.696104 0.318294 0.905312
Si Si4 0.700758 0.682648 0.509003
Si Si5 0.498315 0.318222 0.891498
Si Si6 0.103369 0.674848 0.931931
Si Si7 0.613169 0.323577 0.288310
O O1 0.721723 0.803005 0.191212
O O2 0.652702 0.706143 0.242135
O O3 0.659621 0.000000 0.215504
O O4 0.621556 0.810375 0.054199
O O5 0.811938 0.240296 0.208662
O O6 0.799367 0.250497 0.386667
O O7 0.800281 0.000000 0.299466
O O8 0.701931 0.500000 0.914372
O O9 0.643205 0.267200 0.905953
O O10 0.750000 0.250000 0.000000
O O11 0.707136 0.500000 0.513456
O O12 0.750000 0.750000 0.500000
O O13 0.644003 0.735852 0.409583
O O14 0.501815 0.500000 0.891385
O O15 0.544984 0.248887 0.874011
O O16 0.444636 0.251011 0.790369
O O17 0.500000 0.263426 0.000000
O O18 0.101347 0.500000 0.896943
O O19 0.603256 0.500000 0.288939
#
# Coordination Sequence:
#
# PCOD8081577 Si02
#       7
#     8   8   8   8   8   8   8
#     4  10  18  30  49  73 105 137 167 202 245 303
#     4   9  18  33  50  72 104 138 167 202 249 302
#     4  11  21  35  54  76 104 138 172 210 258 304
#     4  10  19  32  51  75 103 134 168 206 248 300
#     4  10  20  34  51  74 105 137 170 211 259 304
#     4  11  22  35  51  76 105 136 175 211 252 306
#     4  10  20  32  49  76 105 134 171 209 249 299
#
# _framework density 17.536828
#
# number of rings (size 3 to 8) (size 9 to 14) (size 15 to 20)
#    0.000    1.857    4.286    0.857    0.000    1.429 
#    0.000    1.429    0.000    0.857    0.000    6.000 
#    0.000    0.000    0.000    0.000    0.000    0.000 
#
# Total GULP energy -346977.359598 kJ/mol
# GULP energy per Si atom -12392.048557 kJ/mol
# Density = 1.749691 g / cm^3
# Si number density = 17.536828 Si / 1000 Ang^3
#
#
#
# Elastic Constant Matrix: (Units=GPa)
#
#
# Indices 1 2 3 4 5 6 
#
# 1 109.2840 28.2966 65.1496 0.0000 -7.8852 0.0000
# 2 28.2966 30.5778 30.8255 0.0000 1.0279 0.0000
# 3 65.1496 30.8255 118.3031 0.0000 7.2206 0.0000
# 4 0.0000 0.0000 0.0000 15.6803 0.0000 0.2994
# 5 -7.8852 1.0279 7.2206 0.0000 25.4222 0.0000
# 6 0.0000 0.0000 0.0000 0.2994 0.0000 27.4793
#
#
#
# Elastic Compliance Matrix: (Units=1/GPa)
#
#
# Indices 1 2 3 4 5 6 
#
# 1 0.016005 -0.007759 -0.007240 0.000000 0.007334 0.000000
# 2 -0.007759 0.048173 -0.008155 0.000000 -0.002038 0.000000
# 3 -0.007240 -0.008155 0.014941 0.000000 -0.006159 0.000000
# 4 0.000000 0.000000 0.000000 0.063788 0.000000 -0.000695
# 5 0.007334 -0.002038 -0.006159 0.000000 0.043442 0.000000
# 6 0.000000 0.000000 0.000000 -0.000695 0.000000 0.036399
#
#
# Mechanical properties :
#
#
# Convention : Reuss Voigt Hill
#
# Bulk Modulus (GPa) = 30.47735 56.30091 43.38913
# Shear Modulus (GPa) = 17.85773 22.64256 20.25015
#
# Velocity S-wave (km/s) = 3.19454 3.59715 3.40181
# Velocity P-wave (km/s) = 5.56988 7.03041 6.34233
#
# Compressibility (1/GPa) = 0.03281125
#
# Stress axis : x y z
#
# Youngs Moduli (GPa) = 62.48230 20.75852 66.93163
#
# Poissons Ratio (x) = 0.16106 0.48457
# Poissons Ratio (y) = 0.48478 0.54583
# Poissons Ratio (z) = 0.45235 0.16929
#
# Static dielectric constant tensor:
#      x y z
#    x 3.229500 0.000000 0.049450 
#    y 0.000000 3.141410 0.000000 
#    z 0.049450 0.000000 3.687370 
# 
# 
# High freq. dielectric constant tensor:
#      x y z
#    x 1.667330 0.000000 0.002680 
#    y 0.000000 1.660870 0.000000 
#    z 0.002680 0.000000 1.676390 
# 
# From -- ./inp_files/244295.got.cif
#   From: 2010.06.25/outbox.cif.g09.slc.cpg/sg12_123_cif.got.tgz:244295.got - 2010.06.28 00:19:55.
