data_PCOD8081367
_publ_section_title
;
Structure prediction by ZEFSAII (Michael W. Deem and Ramdas Pophale) SiO2 
 PCOD8081367
Probable space group: C 2/M
;
_chemical_formula_sum "Si O2"
_cell_formula_units_Z 48
_cell_length_a 15.279545
_cell_length_b 17.928053
_cell_length_c 11.914783
_cell_angle_alpha 90.000000
_cell_angle_beta 120.543071
_cell_angle_gamma 90.000000
_cell_volume 2810.979009
_symmetry_space_group_name_H-M "C 2/M"
_symmetry_group_IT_number 12
_symmetry_cell_setting 'monoclinic'
loop_
_space_group_symop_operation_xyz
x,y,z
-x,y,-z
-x,-y,-z
x,-y,z
1/2+x,1/2+y,z
1/2-x,1/2+y,-z
1/2-x,1/2-y,-z
1/2+x,1/2-y,z
loop_
_atom_site_type_symbol
_atom_site_label
_atom_site_fract_x
_atom_site_fract_y
_atom_site_fract_z
Si Si1 0.112454 0.840066 0.091772
Si Si2 0.246384 0.414370 0.646944
Si Si3 0.862918 0.414490 0.640826
Si Si4 0.888891 0.662791 0.890176
Si Si5 0.412435 0.084273 0.271422
Si Si6 0.227512 0.336427 0.978305
O O1 0.160623 0.868328 0.239735
O O2 0.110384 0.751450 0.099106
O O3 0.176919 0.871804 0.026572
O O4 0.000000 0.872380 0.000000
O O5 0.278926 0.500000 0.673280
O O6 0.226092 0.390641 0.504195
O O7 0.141017 0.400800 0.644510
O O8 0.849091 0.500000 0.670962
O O9 0.859300 0.362037 0.746631
O O10 0.967369 0.405074 0.640045
O O11 0.798921 0.632262 0.914435
O O12 0.000000 0.631491 0.000000
O O13 0.386621 0.000000 0.212484
O O14 0.373660 0.146146 0.158526
O O15 0.250000 0.250000 0.000000
#
# Coordination Sequence:
#
# PCOD8081367 Si02
#       6
#     8   8   8   8   8   8
#     4   9  19  33  51  70  90 125 167 206 235 269
#     4   9  18  32  48  70  97 126 163 201 238 280
#     4  10  19  29  47  73 103 130 151 189 246 299
#     4  10  18  30  47  71 101 128 153 189 239 296
#     4   9  16  28  47  71  98 126 156 194 240 288
#     4   9  17  30  47  68  97 128 157 194 236 279
#
# _framework density 17.075901000000002
#
# number of rings (size 3 to 8) (size 9 to 14) (size 15 to 20)
#    0.000    2.667    1.667    0.500    0.000    4.000 
#    0.000    0.000    0.000    1.000    0.000    2.333 
#    0.000    0.000    0.000    0.000    0.000    0.000 
#
# Total GULP energy -297342.493929 kJ/mol
# GULP energy per Si atom -12389.270580 kJ/mol
# Density = 1.703704 g / cm^3
# Si number density = 17.075901 Si / 1000 Ang^3
#
#
#
# Elastic Constant Matrix: (Units=GPa)
#
#
# Indices 1 2 3 4 5 6 
#
# 1 91.8899 15.9327 59.1373 0.0000 1.0885 0.0000
# 2 15.9327 30.6913 31.1911 0.0000 2.6399 0.0000
# 3 59.1373 31.1911 126.3326 0.0000 -0.5370 0.0000
# 4 0.0000 0.0000 0.0000 29.4653 0.0000 0.9546
# 5 1.0885 2.6399 -0.5370 0.0000 24.8094 0.0000
# 6 0.0000 0.0000 0.0000 0.9546 0.0000 14.0947
#
#
#
# Elastic Compliance Matrix: (Units=1/GPa)
#
#
# Indices 1 2 3 4 5 6 
#
# 1 0.015607 -0.000813 -0.007108 0.000000 -0.000752 0.000000
# 2 -0.000813 0.044133 -0.010536 0.000000 -0.004889 0.000000
# 3 -0.007108 -0.010536 0.013852 0.000000 0.001733 0.000000
# 4 0.000000 0.000000 0.000000 0.034013 0.000000 -0.002303
# 5 -0.000752 -0.004889 0.001733 0.000000 0.040898 0.000000
# 6 0.000000 0.000000 0.000000 -0.002303 0.000000 0.071105
#
#
# Mechanical properties :
#
#
# Convention : Reuss Voigt Hill
#
# Bulk Modulus (GPa) = 27.26567 51.27066 39.26817
# Shear Modulus (GPa) = 18.60472 23.18405 20.89438
#
# Velocity S-wave (km/s) = 3.30439 3.68870 3.50182
# Velocity P-wave (km/s) = 5.52817 6.94495 6.27666
#
# Compressibility (1/GPa) = 0.03667615
#
# Stress axis : x y z
#
# Youngs Moduli (GPa) = 64.07325 22.65867 72.19295
#
# Poissons Ratio (x) = 0.01843 0.51316
# Poissons Ratio (y) = 0.05212 0.76065
# Poissons Ratio (z) = 0.45544 0.23874
#
# Static dielectric constant tensor:
#      x y z
#    x 3.415980 0.000000 -0.154730 
#    y 0.000000 3.003720 0.000000 
#    z -0.154730 0.000000 3.205920 
# 
# 
# High freq. dielectric constant tensor:
#      x y z
#    x 1.650310 0.000000 -0.008300 
#    y 0.000000 1.636160 0.000000 
#    z -0.008300 0.000000 1.655930 
# 
# From -- ./inp_files/63634.got.cif
#   From: 2010.06.25/outbox.cif.g09.slc.cpg/sg12_32_cif.got.tgz:63634.got - 2010.06.28 00:19:55.
