data_PCOD8081631
_publ_section_title
;
Structure prediction by ZEFSAII (Michael W. Deem and Ramdas Pophale) SiO2 
 PCOD8081631
Probable space group: C 2/M
;
_chemical_formula_sum "Si O2"
_cell_formula_units_Z 56
_cell_length_a 20.350620
_cell_length_b 9.129221
_cell_length_c 20.882116
_cell_angle_alpha 90.000000
_cell_angle_beta 114.134981
_cell_angle_gamma 90.000000
_cell_volume 3540.454818
_symmetry_space_group_name_H-M "C 2/M"
_symmetry_group_IT_number 12
_symmetry_cell_setting 'monoclinic'
loop_
_space_group_symop_operation_xyz
x,y,z
-x,y,-z
-x,-y,-z
x,-y,z
1/2+x,1/2+y,z
1/2-x,1/2+y,-z
1/2-x,1/2-y,-z
1/2+x,1/2-y,z
loop_
_atom_site_type_symbol
_atom_site_label
_atom_site_fract_x
_atom_site_fract_y
_atom_site_fract_z
Si Si1 0.452485 0.328299 0.541374
Si Si2 0.176524 0.665558 0.472521
Si Si3 0.059227 0.326484 0.076092
Si Si4 0.995147 0.671588 0.183125
Si Si5 0.318432 0.329751 0.945049
Si Si6 0.161471 0.331047 0.915866
Si Si7 0.049629 0.666423 0.338179
O O1 0.500000 0.287290 0.500000
O O2 0.441226 0.500000 0.545316
O O3 0.375464 0.250031 0.498170
O O4 0.488562 0.262534 0.620919
O O5 0.189784 0.500000 0.501183
O O6 0.250000 0.750000 0.500000
O O7 0.136158 0.668218 0.386759
O O8 0.069778 0.500000 0.080728
O O9 0.136308 0.253849 0.091268
O O10 0.032068 0.263896 0.133741
O O11 0.000000 0.280081 0.000000
O O12 0.008783 0.500000 0.186598
O O13 0.909953 0.707259 0.152926
O O14 0.032586 0.736759 0.261954
O O15 0.337696 0.500000 0.948989
O O16 0.232500 0.302665 0.900802
O O17 0.339863 0.271483 0.023097
O O18 0.159502 0.500000 0.938734
O O19 0.019816 0.500000 0.330049
#
# Coordination Sequence:
#
# PCOD8081631 Si02
#       7
#     8   8   8   8   8   8   8
#     4   9  17  30  50  74  99 126 155 192 236 283
#     4   9  17  29  50  75  99 126 160 196 234 280
#     4  10  18  30  50  69  89 124 165 199 233 284
#     4   9  16  31  52  69  87 123 169 199 232 283
#     4  10  19  29  44  69  96 117 150 203 248 280
#     4   9  17  31  50  66  87 123 159 191 235 291
#     4   8  17  30  49  73  95 123 160 200 237 281
#
# _framework density 15.817176999999999
#
# number of rings (size 3 to 8) (size 9 to 14) (size 15 to 20)
#    0.857    2.000    1.429    0.857    0.000    2.000 
#    0.000    1.429    3.143    0.000    0.000    0.000 
#    0.000    0.000    0.000    0.000    0.000    0.000 
#
# Total GULP energy -346906.210208 kJ/mol
# GULP energy per Si atom -12389.507507 kJ/mol
# Density = 1.578118 g / cm^3
# Si number density = 15.817177 Si / 1000 Ang^3
#
#
#
# Elastic Constant Matrix: (Units=GPa)
#
#
# Indices 1 2 3 4 5 6 
#
# 1 134.3896 54.6079 62.1058 0.0000 -4.4169 0.0000
# 2 54.6079 67.4204 36.9844 0.0000 -4.5833 0.0000
# 3 62.1058 36.9844 97.7984 0.0000 -9.4853 0.0000
# 4 0.0000 0.0000 0.0000 12.4664 0.0000 -1.2671
# 5 -4.4169 -4.5833 -9.4853 0.0000 23.1270 0.0000
# 6 0.0000 0.0000 0.0000 -1.2671 0.0000 29.6911
#
#
#
# Elastic Compliance Matrix: (Units=1/GPa)
#
#
# Indices 1 2 3 4 5 6 
#
# 1 0.013053 -0.007627 -0.005530 0.000000 -0.001287 0.000000
# 2 -0.007627 0.023186 -0.003771 0.000000 0.001592 0.000000
# 3 -0.005530 -0.003771 0.015609 0.000000 0.004598 0.000000
# 4 0.000000 0.000000 0.000000 0.080565 0.000000 0.003438
# 5 -0.001287 0.001592 0.004598 0.000000 0.045195 0.000000
# 6 0.000000 0.000000 0.000000 0.003438 0.000000 0.033827
#
#
# Mechanical properties :
#
#
# Convention : Reuss Voigt Hill
#
# Bulk Modulus (GPa) = 55.57489 67.44496 61.50992
# Shear Modulus (GPa) = 19.89747 22.78426 21.34086
#
# Velocity S-wave (km/s) = 3.55063 3.79948 3.67716
# Velocity P-wave (km/s) = 7.21258 7.87280 7.54991
#
# Compressibility (1/GPa) = 0.01799374
#
# Stress axis : x y z
#
# Youngs Moduli (GPa) = 76.60858 43.12897 64.06619
#
# Poissons Ratio (x) = 0.32893 0.35429
# Poissons Ratio (y) = 0.58426 0.24158
# Poissons Ratio (z) = 0.42365 0.16263
#
# Static dielectric constant tensor:
#      x y z
#    x 3.039120 0.000000 0.004800 
#    y 0.000000 2.941840 0.000000 
#    z 0.004800 0.000000 2.931160 
# 
# 
# High freq. dielectric constant tensor:
#      x y z
#    x 1.603580 0.000000 0.004280 
#    y 0.000000 1.603040 0.000000 
#    z 0.004280 0.000000 1.578680 
# 
# From -- ./inp_files/319331.got.cif
#   From: 2010.06.25/outbox.cif.g09.slc.cpg/sg12_160_cif.got.tgz:319331.got - 2010.06.28 00:19:55.
