data_PCOD8081694
_publ_section_title
;
Structure prediction by ZEFSAII (Michael W. Deem and Ramdas Pophale) SiO2 
 PCOD8081694
Probable space group: C 2/M
;
_chemical_formula_sum "Si O2"
_cell_formula_units_Z 56
_cell_length_a 20.588067
_cell_length_b 9.079501
_cell_length_c 19.095697
_cell_angle_alpha 90.000000
_cell_angle_beta 84.320071
_cell_angle_gamma 90.000000
_cell_volume 3552.021304
_symmetry_space_group_name_H-M "C 2/M"
_symmetry_group_IT_number 12
_symmetry_cell_setting 'monoclinic'
loop_
_space_group_symop_operation_xyz
x,y,z
-x,y,-z
-x,-y,-z
x,-y,z
1/2+x,1/2+y,z
1/2-x,1/2+y,-z
1/2-x,1/2-y,-z
1/2+x,1/2-y,z
loop_
_atom_site_type_symbol
_atom_site_label
_atom_site_fract_x
_atom_site_fract_y
_atom_site_fract_z
Si Si1 0.335593 0.671876 0.935351
Si Si2 0.098635 0.824762 0.818912
Si Si3 0.564982 0.332870 0.527923
Si Si4 0.712905 0.328124 0.905467
Si Si5 0.811992 0.325684 0.460527
Si Si6 0.481456 0.675623 0.925309
Si Si7 0.378029 0.667032 0.338273
O O1 0.329364 0.500000 0.921667
O O2 0.283385 0.751032 0.890444
O O3 0.408862 0.728891 0.911155
O O4 0.320524 0.710897 0.017345
O O5 0.164020 0.768642 0.850808
O O6 0.100067 0.767372 0.738758
O O7 0.033748 0.761994 0.863673
O O8 0.095689 0.000000 0.822662
O O9 0.500000 0.266642 0.500000
O O10 0.576862 0.500000 0.499437
O O11 0.625800 0.228708 0.499660
O O12 0.560423 0.332333 0.613914
O O13 0.725094 0.500000 0.895983
O O14 0.804988 0.500000 0.462967
O O15 0.750000 0.250000 0.500000
O O16 0.821038 0.267748 0.379201
O O17 0.482893 0.500000 0.927819
O O18 0.500000 0.737493 0.000000
O O19 0.351394 0.500000 0.331859
#
# Coordination Sequence:
#
# PCOD8081694 Si02
#       7
#     8   8   8   8   8   8   8
#     4   9  16  26  41  63  88 111 145 194 237 271
#     4   9  15  26  46  66  86 119 159 193 229 272
#     4   8  15  29  49  72  97 124 154 189 228 273
#     4   9  16  26  43  63  84 115 150 187 232 278
#     4  10  18  30  50  74  97 121 153 191 231 276
#     4   9  14  23  42  68  89 109 151 200 230 259
#     4   8  16  29  46  69  94 122 156 190 231 279
#
# _framework density 15.76567
#
# number of rings (size 3 to 8) (size 9 to 14) (size 15 to 20)
#    0.857    2.286    1.429    0.857    0.000    0.286 
#    0.000    0.714    3.143    2.143    0.000    0.000 
#    0.000    0.000    0.000    0.000    0.000    0.000 
#
# Total GULP energy -346875.560057 kJ/mol
# GULP energy per Si atom -12388.412859 kJ/mol
# Density = 1.572979 g / cm^3
# Si number density = 15.765670 Si / 1000 Ang^3
#
#
#
# Elastic Constant Matrix: (Units=GPa)
#
#
# Indices 1 2 3 4 5 6 
#
# 1 154.3321 41.1066 69.3726 0.0000 -1.0408 0.0000
# 2 41.1066 52.1120 29.2010 0.0000 -4.9277 0.0000
# 3 69.3726 29.2010 95.5213 0.0000 -6.4558 0.0000
# 4 0.0000 0.0000 0.0000 13.9019 0.0000 1.0562
# 5 -1.0408 -4.9277 -6.4558 0.0000 24.1840 0.0000
# 6 0.0000 0.0000 0.0000 1.0562 0.0000 24.3582
#
#
#
# Elastic Compliance Matrix: (Units=1/GPa)
#
#
# Indices 1 2 3 4 5 6 
#
# 1 0.010671 -0.005072 -0.006352 0.000000 -0.002270 0.000000
# 2 -0.005072 0.025766 -0.003924 0.000000 0.003984 0.000000
# 3 -0.006352 -0.003924 0.016507 0.000000 0.003334 0.000000
# 4 0.000000 0.000000 0.000000 0.072170 0.000000 -0.003129
# 5 -0.002270 0.003984 0.003334 0.000000 0.042954 0.000000
# 6 0.000000 0.000000 0.000000 -0.003129 0.000000 0.041190
#
#
# Mechanical properties :
#
#
# Convention : Reuss Voigt Hill
#
# Bulk Modulus (GPa) = 44.94990 64.59175 54.77082
# Shear Modulus (GPa) = 20.21267 23.30783 21.76025
#
# Velocity S-wave (km/s) = 3.58448 3.84916 3.71917
# Velocity P-wave (km/s) = 6.76051 7.79830 7.29788
#
# Compressibility (1/GPa) = 0.02224699
#
# Stress axis : x y z
#
# Youngs Moduli (GPa) = 93.71517 38.81109 60.57993
#
# Poissons Ratio (x) = 0.19686 0.38483
# Poissons Ratio (y) = 0.47534 0.23770
# Poissons Ratio (z) = 0.59532 0.15228
#
# Static dielectric constant tensor:
#      x y z
#    x 3.090560 0.000000 0.000760 
#    y 0.000000 2.707000 0.000000 
#    z 0.000760 0.000000 2.879590 
# 
# 
# High freq. dielectric constant tensor:
#      x y z
#    x 1.604060 0.000000 0.004310 
#    y 0.000000 1.575100 0.000000 
#    z 0.004310 0.000000 1.579680 
# 
# From -- ./inp_files/318835.got.cif
#   From: 2010.06.25/outbox.cif.g09.slc.cpg/sg12_160_cif.got.tgz:318835.got - 2010.06.28 00:19:55.
