data_PCOD8081116
_publ_section_title
;
Structure prediction by ZEFSAII (Michael W. Deem and Ramdas Pophale) SiO2 
 PCOD8081116
Probable space group: C 2/M
;
_chemical_formula_sum "Si O2"
_cell_formula_units_Z 56
_cell_length_a 20.043279
_cell_length_b 8.762490
_cell_length_c 22.346490
_cell_angle_alpha 90.000000
_cell_angle_beta 136.210756
_cell_angle_gamma 90.000000
_cell_volume 2715.917235
_symmetry_space_group_name_H-M "C 2/M"
_symmetry_group_IT_number 12
_symmetry_cell_setting 'monoclinic'
loop_
_space_group_symop_operation_xyz
x,y,z
-x,y,-z
-x,-y,-z
x,-y,z
1/2+x,1/2+y,z
1/2-x,1/2+y,-z
1/2-x,1/2-y,-z
1/2+x,1/2-y,z
loop_
_atom_site_type_symbol
_atom_site_label
_atom_site_fract_x
_atom_site_fract_y
_atom_site_fract_z
Si Si1 0.169317 0.169235 0.586435
Si Si2 0.866591 0.670712 0.652700
Si Si3 0.347889 0.820849 0.086672
Si Si4 0.352656 0.675361 0.216723
Si Si5 0.549916 0.678961 0.404995
Si Si6 0.538909 0.678866 0.175466
Si Si7 0.714232 0.179777 0.229415
O O1 0.253280 0.169174 0.591120
O O2 0.076876 0.238021 0.490304
O O3 0.209537 0.252051 0.672487
O O4 0.140182 0.000000 0.588484
O O5 0.909444 0.500000 0.689102
O O6 0.883475 0.727965 0.597042
O O7 0.920834 0.784298 0.732860
O O8 0.362672 0.782644 0.166134
O O9 0.433952 0.755134 0.101493
O O10 0.343861 0.000000 0.075397
O O11 0.250000 0.750000 0.000000
O O12 0.355963 0.500000 0.197041
O O13 0.438046 0.709855 0.318976
O O14 0.253230 0.709671 0.187849
O O15 0.574997 0.500000 0.416152
O O16 0.527623 0.500000 0.159693
O O17 0.610104 0.742404 0.169908
O O18 0.701756 0.000000 0.235025
#
# Coordination Sequence:
#
# PCOD8081116 Si02
#       7
#     8   8   8   8   8   8   8
#     4   8  16  29  47  76 113 157 205 245 285 333
#     4  10  18  30  49  76 112 154 199 247 296 344
#     4  12  25  43  68  94 121 148 184 235 291 353
#     4  10  21  37  59  88 122 158 197 241 293 350
#     4  10  18  29  49  78 115 157 201 247 289 341
#     4  11  21  37  61  88 117 152 197 242 291 349
#     4   9  19  37  58  83 121 164 203 242 287 342
#
# _framework density 20.619185999999999
#
# number of rings (size 3 to 8) (size 9 to 14) (size 15 to 20)
#    0.000    2.000    1.429    4.286    0.000    1.143 
#    0.000    6.429    0.000    4.286    0.000    6.000 
#    0.000    0.000    0.000    0.000    0.000    0.000 
#
# Total GULP energy -347052.502447 kJ/mol
# GULP energy per Si atom -12394.732230 kJ/mol
# Density = 2.057226 g / cm^3
# Si number density = 20.619186 Si / 1000 Ang^3
#
#
#
# Elastic Constant Matrix: (Units=GPa)
#
#
# Indices 1 2 3 4 5 6 
#
# 1 81.5370 36.5575 20.6186 0.0000 3.2459 0.0000
# 2 36.5575 104.7997 25.7812 0.0000 9.1507 0.0000
# 3 20.6186 25.7812 68.6384 0.0000 25.8260 0.0000
# 4 0.0000 0.0000 0.0000 23.4871 0.0000 0.4390
# 5 3.2459 9.1507 25.8260 0.0000 20.4211 0.0000
# 6 0.0000 0.0000 0.0000 0.4390 0.0000 27.7330
#
#
#
# Elastic Compliance Matrix: (Units=1/GPa)
#
#
# Indices 1 2 3 4 5 6 
#
# 1 0.015420 -0.004635 -0.005247 0.000000 0.006262 0.000000
# 2 -0.004635 0.011910 -0.002576 0.000000 -0.001342 0.000000
# 3 -0.005247 -0.002576 0.031222 0.000000 -0.037497 0.000000
# 4 0.000000 0.000000 0.000000 0.042589 0.000000 -0.000674
# 5 0.006262 -0.001342 -0.037497 0.000000 0.095996 0.000000
# 6 0.000000 0.000000 0.000000 -0.000674 0.000000 0.036069
#
#
# Mechanical properties :
#
#
# Convention : Reuss Voigt Hill
#
# Bulk Modulus (GPa) = 29.73131 46.76549 38.24840
# Shear Modulus (GPa) = 18.56429 25.79608 22.18019
#
# Velocity S-wave (km/s) = 3.00382 3.54089 3.28335
# Velocity P-wave (km/s) = 5.14598 6.28068 5.74143
#
# Compressibility (1/GPa) = 0.03363458
#
# Stress axis : x y z
#
# Youngs Moduli (GPa) = 64.85040 83.96484 32.02904
#
# Poissons Ratio (x) = 0.38917 0.16807
# Poissons Ratio (y) = 0.30058 0.08251
# Poissons Ratio (z) = 0.34030 0.21631
#
# Static dielectric constant tensor:
#      x y z
#    x 3.780470 0.000000 0.160060 
#    y 0.000000 3.525770 0.000000 
#    z 0.160060 0.000000 3.676580 
# 
# 
# High freq. dielectric constant tensor:
#      x y z
#    x 1.808470 0.000000 0.010600 
#    y 0.000000 1.780160 0.000000 
#    z 0.010600 0.000000 1.794040 
# 
# From -- ./inp_files/348621.got.cif
#   From: 2010.06.25/outbox.cif.g09.slc.cpg/sg12_175_cif.got.tgz:348621.got - 2010.06.28 00:19:55.
