data_PCOD8081737
_publ_section_title
;
Structure prediction by ZEFSAII (Michael W. Deem and Ramdas Pophale) SiO2 
 PCOD8081737
Probable space group: C 2/M
;
_chemical_formula_sum "Si O2"
_cell_formula_units_Z 64
_cell_length_a 12.020138
_cell_length_b 19.998821
_cell_length_c 27.440172
_cell_angle_alpha 90.000000
_cell_angle_beta 149.332567
_cell_angle_gamma 90.000000
_cell_volume 3364.471969
_symmetry_space_group_name_H-M "C 2/M"
_symmetry_group_IT_number 12
_symmetry_cell_setting 'monoclinic'
loop_
_space_group_symop_operation_xyz
x,y,z
-x,y,-z
-x,-y,-z
x,-y,z
1/2+x,1/2+y,z
1/2-x,1/2+y,-z
1/2-x,1/2-y,-z
1/2+x,1/2-y,z
loop_
_atom_site_type_symbol
_atom_site_label
_atom_site_fract_x
_atom_site_fract_y
_atom_site_fract_z
Si Si1 0.301410 0.869434 0.396187
Si Si2 0.543577 0.075706 0.346805
Si Si3 0.631831 0.834576 0.798189
Si Si4 0.928904 0.303413 0.580790
Si Si5 0.916728 0.166263 0.086208
Si Si6 0.419279 0.286305 0.281527
Si Si7 0.051075 0.318866 0.878489
Si Si8 0.584835 0.428605 0.224508
O O1 0.500000 0.907642 0.500000
O O2 0.425994 0.813750 0.411933
O O3 0.151921 0.915252 0.305815
O O4 0.133693 0.832362 0.369547
O O5 0.532182 0.111830 0.289671
O O6 0.665096 0.126387 0.431276
O O7 0.300499 0.068384 0.273954
O O8 0.649434 0.000000 0.384030
O O9 0.566187 0.756867 0.762881
O O10 0.610090 0.847078 0.847447
O O11 0.878659 0.845152 0.872621
O O12 0.750000 0.250000 0.500000
O O13 0.093896 0.270676 0.681903
O O14 0.895138 0.240952 0.097479
O O15 0.923178 0.123807 0.138682
O O16 0.702847 0.143734 0.975262
O O17 0.202927 0.331923 0.203962
O O18 0.465405 0.500000 0.179097
#
# Coordination Sequence:
#
# PCOD8081737 Si02
#       8
#     8   8   8   8   8   8   8   8
#     4  11  20  32  52  76 103 129 172 219 261 314
#     4   8  16  30  50  75 103 135 169 212 260 307
#     4   9  16  29  50  74 104 134 169 207 251 307
#     4  10  18  31  50  78 106 132 167 217 267 309
#     4   9  18  31  50  76 105 133 170 208 257 312
#     4  10  19  31  48  76 107 133 165 211 267 310
#     4  10  18  30  50  77 106 134 165 211 262 307
#     4   9  18  34  53  74 102 134 173 218 258 303
#
# _framework density 19.022300000000001
#
# number of rings (size 3 to 8) (size 9 to 14) (size 15 to 20)
#    0.000    2.500    1.250    4.125    0.000    0.250 
#    0.000    2.500    0.000    5.250    0.000   14.875 
#    0.000    0.000    0.000    0.000    0.000    0.000 
#
# Total GULP energy -396434.519551 kJ/mol
# GULP energy per Si atom -12388.578736 kJ/mol
# Density = 1.897900 g / cm^3
# Si number density = 19.022300 Si / 1000 Ang^3
#
#
#
# Elastic Constant Matrix: (Units=GPa)
#
#
# Indices 1 2 3 4 5 6 
#
# 1 64.7203 23.4761 30.1935 0.0001 -13.9460 0.0001
# 2 23.4761 89.6261 43.1079 0.0000 -5.8474 0.0000
# 3 30.1935 43.1079 104.8707 0.0010 -12.0465 0.0000
# 4 0.0001 0.0000 0.0010 19.6521 0.0002 -2.5329
# 5 -13.9460 -5.8474 -12.0465 0.0002 29.3950 0.0002
# 6 0.0001 0.0000 0.0000 -2.5329 0.0002 8.2462
#
#
#
# Elastic Compliance Matrix: (Units=1/GPa)
#
#
# Indices 1 2 3 4 5 6 
#
# 1 0.019799 -0.002956 -0.003646 0.000000 0.007312 0.000000
# 2 -0.002956 0.014354 -0.005124 0.000000 -0.000647 0.000000
# 3 -0.003646 -0.005124 0.012987 -0.000001 0.002573 0.000000
# 4 0.000000 0.000000 -0.000001 0.052983 -0.000001 0.016274
# 5 0.007312 -0.000647 0.002573 -0.000001 0.038414 -0.000001
# 6 0.000000 0.000000 0.000000 0.016274 -0.000001 0.126267
#
#
# Mechanical properties :
#
#
# Convention : Reuss Voigt Hill
#
# Bulk Modulus (GPa) = 42.21124 50.30800 46.25962
# Shear Modulus (GPa) = 16.88333 22.28798 19.58565
#
# Velocity S-wave (km/s) = 2.98242 3.42669 3.21224
# Velocity P-wave (km/s) = 5.83938 6.49311 6.17490
#
# Compressibility (1/GPa) = 0.02369037
#
# Stress axis : x y z
#
# Youngs Moduli (GPa) = 50.50635 69.66826 77.00092
#
# Poissons Ratio (x) = 0.20591 0.28072
# Poissons Ratio (y) = 0.14928 0.39452
# Poissons Ratio (z) = 0.18413 0.35695
#
# Static dielectric constant tensor:
#      x y z
#    x 3.270960 0.000000 -0.276430 
#    y 0.000000 3.691000 0.000000 
#    z -0.276430 0.000000 3.729540 
# 
# 
# High freq. dielectric constant tensor:
#      x y z
#    x 1.719040 0.000000 -0.023060 
#    y 0.000000 1.709440 0.000000 
#    z -0.023060 0.000000 1.737120 
# 
# From -- ./inp_files/359020.got.cif
#   From: 2010.06.25/outbox.cif.g09.slc.cpg/sg12_180_cif.got.tgz:359020.got - 2010.06.28 00:19:55.
