data_PCOD8081868
_publ_section_title
;
Structure prediction by ZEFSAII (Michael W. Deem and Ramdas Pophale) SiO2 
 PCOD8081868
Probable space group: C 2/M
;
_chemical_formula_sum "Si O2"
_cell_formula_units_Z 56
_cell_length_a 19.676448
_cell_length_b 9.019695
_cell_length_c 27.365091
_cell_angle_alpha 90.000000
_cell_angle_beta 144.603659
_cell_angle_gamma 90.000000
_cell_volume 2813.104304
_symmetry_space_group_name_H-M "C 2/M"
_symmetry_group_IT_number 12
_symmetry_cell_setting 'monoclinic'
loop_
_space_group_symop_operation_xyz
x,y,z
-x,y,-z
-x,-y,-z
x,-y,z
1/2+x,1/2+y,z
1/2-x,1/2+y,-z
1/2-x,1/2-y,-z
1/2+x,1/2-y,z
loop_
_atom_site_type_symbol
_atom_site_label
_atom_site_fract_x
_atom_site_fract_y
_atom_site_fract_z
Si Si1 0.103126 0.826364 0.376850
Si Si2 0.618497 0.171230 0.783276
Si Si3 0.093972 0.827170 0.221619
Si Si4 0.347643 0.171047 0.088727
Si Si5 0.492604 0.670121 0.574402
Si Si6 0.709585 0.829903 0.733805
Si Si7 0.245320 0.826574 0.605479
O O1 0.070403 0.782118 0.412405
O O2 0.213923 0.728032 0.424568
O O3 0.994380 0.777095 0.278629
O O4 0.128850 0.000000 0.385137
O O5 0.687233 0.191514 0.874642
O O6 0.698716 0.222114 0.784106
O O7 0.578291 0.000000 0.753839
O O8 0.158308 0.799053 0.207160
O O9 0.186531 0.772519 0.315972
O O10 0.974654 0.737007 0.151348
O O11 0.067355 0.000000 0.214833
O O12 0.350959 0.000000 0.075871
O O13 0.250000 0.250000 0.000000
O O14 0.528417 0.500000 0.596723
O O15 0.615690 0.754330 0.641930
O O16 0.396651 0.699417 0.475082
O O17 0.677753 0.000000 0.710978
O O18 0.274472 0.000000 0.629676
#
# Coordination Sequence:
#
# PCOD8081868 Si02
#       7
#     8   8   8   8   8   8   8
#     4  10  18  30  51  79 110 146 192 241 285 328
#     4   9  18  36  60  84 111 148 189 227 278 336
#     4  11  23  39  59  85 116 149 189 236 287 338
#     4  11  23  40  65  92 117 144 180 228 284 344
#     4   9  20  34  50  77 112 153 197 240 282 329
#     4   9  20  38  59  82 113 153 194 236 279 330
#     4  11  21  33  50  76 114 155 195 237 285 337
#
# _framework density 19.906832999999999
#
# number of rings (size 3 to 8) (size 9 to 14) (size 15 to 20)
#    0.000    2.000    1.429    2.143    0.000    4.000 
#    0.000    3.571    0.000    4.286    0.000    0.000 
#    0.000    0.000    0.000    0.000    0.000    0.000 
#
# Total GULP energy -347086.073021 kJ/mol
# GULP energy per Si atom -12395.931179 kJ/mol
# Density = 1.986152 g / cm^3
# Si number density = 19.906833 Si / 1000 Ang^3
#
#
#
# Elastic Constant Matrix: (Units=GPa)
#
#
# Indices 1 2 3 4 5 6 
#
# 1 60.4090 33.1104 41.5060 0.0000 11.3113 0.0000
# 2 33.1104 76.8598 46.9948 0.0000 2.0837 0.0000
# 3 41.5060 46.9948 122.0333 0.0000 1.3131 0.0000
# 4 0.0000 0.0000 0.0000 35.7231 0.0000 1.6920
# 5 11.3113 2.0837 1.3131 0.0000 19.0792 0.0000
# 6 0.0000 0.0000 0.0000 1.6920 0.0000 25.2329
#
#
#
# Elastic Compliance Matrix: (Units=1/GPa)
#
#
# Indices 1 2 3 4 5 6 
#
# 1 0.028083 -0.007772 -0.006393 0.000000 -0.015360 0.000000
# 2 -0.007772 0.019207 -0.004784 0.000000 0.002839 0.000000
# 3 -0.006393 -0.004784 0.012174 0.000000 0.003475 0.000000
# 4 0.000000 0.000000 0.000000 0.028082 0.000000 -0.001883
# 5 -0.015360 0.002839 0.003475 0.000000 0.060970 0.000000
# 6 0.000000 0.000000 0.000000 -0.001883 0.000000 0.039757
#
#
# Mechanical properties :
#
#
# Convention : Reuss Voigt Hill
#
# Bulk Modulus (GPa) = 46.37112 55.83607 51.10360
# Shear Modulus (GPa) = 21.42624 25.18642 23.30633
#
# Velocity S-wave (km/s) = 3.28430 3.56084 3.42536
# Velocity P-wave (km/s) = 6.14222 6.70938 6.43205
#
# Compressibility (1/GPa) = 0.02156515
#
# Stress axis : x y z
#
# Youngs Moduli (GPa) = 35.60932 52.06493 82.14469
#
# Poissons Ratio (x) = 0.40466 0.52516
# Poissons Ratio (y) = 0.27677 0.39294
# Poissons Ratio (z) = 0.22765 0.24905
#
# Static dielectric constant tensor:
#      x y z
#    x 4.055910 0.000000 -0.033850 
#    y 0.000000 3.614150 0.000000 
#    z -0.033850 0.000000 3.493330 
# 
# 
# High freq. dielectric constant tensor:
#      x y z
#    x 1.786030 0.000000 -0.001020 
#    y 0.000000 1.779020 0.000000 
#    z -0.001020 0.000000 1.752140 
# 
# From -- ./inp_files/320243.got.cif
#   From: 2010.06.25/outbox.cif.g09.slc.cpg/sg12_161_cif.got.tgz:320243.got - 2010.06.28 00:19:55.
