data_PCOD8081306
_publ_section_title
;
Structure prediction by ZEFSAII (Michael W. Deem and Ramdas Pophale) SiO2 
 PCOD8081306
Probable space group: C 2/M
;
_chemical_formula_sum "Si O2"
_cell_formula_units_Z 64
_cell_length_a 25.604962
_cell_length_b 19.802533
_cell_length_c 11.909681
_cell_angle_alpha 90.000000
_cell_angle_beta 137.520934
_cell_angle_gamma 90.000000
_cell_volume 4078.074237
_symmetry_space_group_name_H-M "C 2/M"
_symmetry_group_IT_number 12
_symmetry_cell_setting 'monoclinic'
loop_
_space_group_symop_operation_xyz
x,y,z
-x,y,-z
-x,-y,-z
x,-y,z
1/2+x,1/2+y,z
1/2-x,1/2+y,-z
1/2-x,1/2-y,-z
1/2+x,1/2-y,z
loop_
_atom_site_type_symbol
_atom_site_label
_atom_site_fract_x
_atom_site_fract_y
_atom_site_fract_z
Si Si1 0.133495 0.920345 0.889111
Si Si2 0.307982 0.422120 0.777438
Si Si3 0.318366 0.421894 0.271328
Si Si4 0.660817 0.925963 0.411400
Si Si5 0.918178 0.309657 0.819361
Si Si6 0.876040 0.835544 0.691052
Si Si7 0.962462 0.078006 0.653856
Si Si8 0.269705 0.140671 0.673684
O O1 0.178503 0.892280 0.850460
O O2 0.045991 0.891822 0.752992
O O3 0.128526 0.000000 0.865522
O O4 0.179729 0.899798 0.074246
O O5 0.334899 0.500000 0.800960
O O6 0.216633 0.415104 0.606814
O O7 0.356990 0.371081 0.778810
O O8 0.294270 0.500000 0.236208
O O9 0.403301 0.411178 0.458076
O O10 0.253173 0.381431 0.237427
O O11 0.598221 0.865182 0.305629
O O12 0.714148 0.923928 0.382356
O O13 0.620844 0.000000 0.354496
O O14 0.921571 0.234263 0.778652
O O15 0.848070 0.313966 0.800377
O O16 0.000000 0.330168 0.000000
O O17 0.933729 0.884903 0.719024
O O18 0.800093 0.818475 0.496450
O O19 0.969615 0.000000 0.698187
#
# Coordination Sequence:
#
# PCOD8081306 Si02
#       8
#     8   8   8   8   8   8   8   8
#     4   9  17  26  40  69  99 124 157 192 222 265
#     4   9  17  28  45  68  95 126 155 184 223 278
#     4   9  15  27  46  66  92 125 160 193 228 268
#     4   8  16  31  48  67  91 115 146 193 242 285
#     4  10  21  31  46  74  93 118 152 194 246 283
#     4  10  18  30  46  66  94 130 152 184 230 283
#     4   9  17  27  42  68  98 130 159 190 225 265
#     4   8  17  30  48  67  91 117 151 186 231 282
#
# _framework density 15.693683
#
# number of rings (size 3 to 8) (size 9 to 14) (size 15 to 20)
#    0.750    2.250    0.000    1.500    1.750    4.750 
#    0.000    1.875    0.000    0.750    0.000    0.875 
#    0.000    4.000    0.000    0.000    0.000    0.000 
#
# Total GULP energy -396491.531315 kJ/mol
# GULP energy per Si atom -12390.360354 kJ/mol
# Density = 1.565796 g / cm^3
# Si number density = 15.693683 Si / 1000 Ang^3
#
#
#
# Elastic Constant Matrix: (Units=GPa)
#
#
# Indices 1 2 3 4 5 6 
#
# 1 80.4236 13.4709 46.9422 0.0000 -12.4105 0.0000
# 2 13.4709 60.9312 30.3962 0.0000 -7.6671 0.0000
# 3 46.9422 30.3962 81.2757 0.0000 -6.9316 0.0000
# 4 0.0000 0.0000 0.0000 18.3059 0.0000 2.0550
# 5 -12.4105 -7.6671 -6.9316 0.0000 26.0521 0.0000
# 6 0.0000 0.0000 0.0000 2.0550 0.0000 8.3721
#
#
#
# Elastic Compliance Matrix: (Units=1/GPa)
#
#
# Indices 1 2 3 4 5 6 
#
# 1 0.020059 0.002380 -0.011870 0.000000 0.007098 0.000000
# 2 0.002380 0.020879 -0.008761 0.000000 0.004947 0.000000
# 3 -0.011870 -0.008761 0.022239 0.000000 -0.002316 0.000000
# 4 0.000000 0.000000 0.000000 0.056175 0.000000 -0.013789
# 5 0.007098 0.004947 -0.002316 0.000000 0.042606 0.000000
# 6 0.000000 0.000000 0.000000 -0.013789 0.000000 0.122829
#
#
# Mechanical properties :
#
#
# Convention : Reuss Voigt Hill
#
# Bulk Modulus (GPa) = 37.48971 44.91655 41.20313
# Shear Modulus (GPa) = 15.14321 19.33410 17.23866
#
# Velocity S-wave (km/s) = 3.10969 3.51375 3.31788
# Velocity P-wave (km/s) = 6.06909 6.71899 6.40229
#
# Compressibility (1/GPa) = 0.02667399
#
# Stress axis : x y z
#
# Youngs Moduli (GPa) = 49.85199 47.89527 44.96651
#
# Poissons Ratio (x) = -0.11399 0.53377
# Poissons Ratio (y) = -0.11865 0.39396
# Poissons Ratio (z) = 0.59176 0.41962
#
# Static dielectric constant tensor:
#      x y z
#    x 2.851260 0.000000 -0.058340 
#    y 0.000000 2.731730 0.000000 
#    z -0.058340 0.000000 2.919800 
# 
# 
# High freq. dielectric constant tensor:
#      x y z
#    x 1.576190 0.000000 -0.001140 
#    y 0.000000 1.578830 0.000000 
#    z -0.001140 0.000000 1.595090 
# 
# From -- ./inp_files/184525.got.cif
#   From: 2010.06.25/outbox.cif.g09.slc.cpg/sg12_93_cif.got.tgz:184525.got - 2010.06.28 00:19:55.
