data_PCOD8081025
_publ_section_title
;
Structure prediction by ZEFSAII (Michael W. Deem and Ramdas Pophale) SiO2 
 PCOD8081025
Probable space group: C 2/M
;
_chemical_formula_sum "Si O2"
_cell_formula_units_Z 56
_cell_length_a 19.289634
_cell_length_b 8.609095
_cell_length_c 18.129165
_cell_angle_alpha 90.000000
_cell_angle_beta 80.013328
_cell_angle_gamma 90.000000
_cell_volume 2965.026297
_symmetry_space_group_name_H-M "C 2/M"
_symmetry_group_IT_number 12
_symmetry_cell_setting 'monoclinic'
loop_
_space_group_symop_operation_xyz
x,y,z
-x,y,-z
-x,-y,-z
x,-y,z
1/2+x,1/2+y,z
1/2-x,1/2+y,-z
1/2-x,1/2-y,-z
1/2+x,1/2-y,z
loop_
_atom_site_type_symbol
_atom_site_label
_atom_site_fract_x
_atom_site_fract_y
_atom_site_fract_z
Si Si1 0.446017 0.179990 0.309267
Si Si2 0.643649 0.677792 0.559324
Si Si3 0.719853 0.320895 0.402326
Si Si4 0.521834 0.182327 0.914799
Si Si5 0.788100 0.180244 0.763886
Si Si6 0.858571 0.181046 0.198043
Si Si7 0.065067 0.818064 0.197107
O O1 0.420766 0.220409 0.396773
O O2 0.382427 0.222587 0.265429
O O3 0.515485 0.276385 0.275623
O O4 0.463927 0.000000 0.299237
O O5 0.623240 0.500000 0.575782
O O6 0.655468 0.715354 0.470503
O O7 0.715046 0.711262 0.590768
O O8 0.744013 0.500000 0.407194
O O9 0.693939 0.284638 0.324824
O O10 0.593220 0.272099 0.880316
O O11 0.458917 0.224206 0.870528
O O12 0.536812 0.000000 0.908593
O O13 0.500000 0.237001 0.000000
O O14 0.722226 0.279523 0.804899
O O15 0.855354 0.230910 0.799244
O O16 0.770430 0.000000 0.778522
O O17 0.867658 0.000000 0.212768
O O18 0.058625 0.000000 0.182431
#
# Coordination Sequence:
#
# PCOD8081025 Si02
#       7
#     8   8   8   8   8   8   8
#     4  11  20  33  52  74 105 144 184 227 273 318
#     4  10  18  29  48  76 103 135 185 232 272 317
#     4   9  18  31  49  73 105 142 177 224 278 320
#     4  10  21  39  62  85 110 141 175 213 261 316
#     4  10  20  36  55  79 111 145 178 218 271 324
#     4  11  21  33  56  85 109 139 179 221 262 312
#     4  10  21  36  57  82 109 141 178 220 267 318
#
# _framework density 18.886846999999999
#
# number of rings (size 3 to 8) (size 9 to 14) (size 15 to 20)
#    0.000    1.857    1.429    5.571    0.000    2.857 
#    0.000    1.429    0.000    4.286    0.000    0.000 
#    0.000    0.000    0.000    0.000    0.000    0.000 
#
# Total GULP energy -347250.809942 kJ/mol
# GULP energy per Si atom -12401.814641 kJ/mol
# Density = 1.884386 g / cm^3
# Si number density = 18.886847 Si / 1000 Ang^3
#
#
#
# Elastic Constant Matrix: (Units=GPa)
#
#
# Indices 1 2 3 4 5 6 
#
# 1 102.6798 19.7696 40.0136 0.0000 -6.4418 0.0000
# 2 19.7696 52.8945 23.3657 0.0000 -3.3889 0.0000
# 3 40.0136 23.3657 112.8173 0.0000 -14.7680 0.0000
# 4 0.0000 0.0000 0.0000 26.4464 0.0000 -4.9726
# 5 -6.4418 -3.3889 -14.7680 0.0000 20.3495 0.0000
# 6 0.0000 0.0000 0.0000 -4.9726 0.0000 28.6722
#
#
#
# Elastic Compliance Matrix: (Units=1/GPa)
#
#
# Indices 1 2 3 4 5 6 
#
# 1 0.011672 -0.002784 -0.003470 0.000000 0.000713 0.000000
# 2 -0.002784 0.021476 -0.003434 0.000000 0.000203 0.000000
# 3 -0.003470 -0.003434 0.011698 0.000000 0.006820 0.000000
# 4 0.000000 0.000000 0.000000 0.039087 0.000000 0.006779
# 5 0.000713 0.000203 0.006820 0.000000 0.054350 0.000000
# 6 0.000000 0.000000 0.000000 0.006779 0.000000 0.036053
#
#
# Mechanical properties :
#
#
# Convention : Reuss Voigt Hill
#
# Bulk Modulus (GPa) = 39.26041 48.29881 43.77961
# Shear Modulus (GPa) = 24.72780 27.44313 26.08546
#
# Velocity S-wave (km/s) = 3.62230 3.81600 3.72041
# Velocity P-wave (km/s) = 6.19088 6.71148 6.45643
#
# Compressibility (1/GPa) = 0.02547095
#
# Stress axis : x y z
#
# Youngs Moduli (GPa) = 85.67553 46.56356 85.48150
#
# Poissons Ratio (x) = 0.12963 0.29660
# Poissons Ratio (y) = 0.23852 0.29353
# Poissons Ratio (z) = 0.29728 0.15989
#
# Static dielectric constant tensor:
#      x y z
#    x 3.286730 0.000000 -0.192040 
#    y 0.000000 3.457740 0.000000 
#    z -0.192040 0.000000 3.529820 
# 
# 
# High freq. dielectric constant tensor:
#      x y z
#    x 1.712630 0.000000 -0.020330 
#    y 0.000000 1.740800 0.000000 
#    z -0.020330 0.000000 1.726070 
# 
# From -- ./inp_files/280218.got.cif
#   From: 2010.06.25/outbox.cif.g09.slc.cpg/sg12_141_cif.got.tgz:280218.got - 2010.06.28 00:19:55.
