data_PCOD8081350
_publ_section_title
;
Structure prediction by ZEFSAII (Michael W. Deem and Ramdas Pophale) SiO2 
 PCOD8081350
Probable space group: C 2/M
;
_chemical_formula_sum "Si O2"
_cell_formula_units_Z 64
_cell_length_a 15.492945
_cell_length_b 25.974352
_cell_length_c 9.879447
_cell_angle_alpha 90.000000
_cell_angle_beta 70.328612
_cell_angle_gamma 90.000000
_cell_volume 3743.653673
_symmetry_space_group_name_H-M "C 2/M"
_symmetry_group_IT_number 12
_symmetry_cell_setting 'monoclinic'
loop_
_space_group_symop_operation_xyz
x,y,z
-x,y,-z
-x,-y,-z
x,-y,z
1/2+x,1/2+y,z
1/2-x,1/2+y,-z
1/2-x,1/2-y,-z
1/2+x,1/2-y,z
loop_
_atom_site_type_symbol
_atom_site_label
_atom_site_fract_x
_atom_site_fract_y
_atom_site_fract_z
Si Si1 0.914891 0.441227 0.138135
Si Si2 0.277248 0.145354 0.520475
Si Si3 0.083149 0.558972 0.551196
Si Si4 0.604615 0.246404 0.927200
Si Si5 0.716334 0.149649 0.799554
Si Si6 0.596306 0.311010 0.670186
Si Si7 0.891770 0.193166 0.811454
Si Si8 0.600158 0.232584 0.430521
O O1 0.884006 0.500000 0.128919
O O2 0.945731 0.432955 0.277389
O O3 0.829375 0.405289 0.142884
O O4 0.000000 0.425826 0.000000
O O5 0.325815 0.091565 0.530387
O O6 0.287167 0.159525 0.358261
O O7 0.170529 0.142459 0.623283
O O8 0.322748 0.191013 0.581734
O O9 0.108142 0.500000 0.506708
O O10 0.000000 0.577665 0.500000
O O11 0.664993 0.195206 0.906289
O O12 0.622632 0.271274 0.772878
O O13 0.500000 0.228759 0.000000
O O14 0.631109 0.289174 0.024442
O O15 0.820513 0.149636 0.799618
O O16 0.493264 0.332310 0.746606
O O17 0.605757 0.281795 0.523978
O O18 0.885382 0.245735 0.727841
O O19 0.500000 0.206203 0.500000
#
# Coordination Sequence:
#
# PCOD8081350 Si02
#       8
#     8   8   8   8   8   8   8   8
#     4   9  19  36  55  73  97 128 159 197 248 296
#     4  11  19  30  51  73  94 128 166 196 237 289
#     4   9  19  36  54  74 100 124 155 204 251 288
#     4  10  20  33  46  68 101 132 158 200 243 280
#     4  11  19  31  50  72  97 127 164 200 237 285
#     4  10  19  33  48  66  98 132 162 193 236 281
#     4  10  21  32  47  70  99 132 164 198 236 278
#     4  10  18  30  47  69  94 127 164 195 228 285
#
# _framework density 17.095597999999999
#
# number of rings (size 3 to 8) (size 9 to 14) (size 15 to 20)
#    0.000    2.000    2.500    2.250    0.000    0.000 
#    4.500    0.000    0.000    0.750    0.000    3.500 
#    0.000    3.000    0.000    0.000    0.000    0.000 
#
# Total GULP energy -396787.440300 kJ/mol
# GULP energy per Si atom -12399.607509 kJ/mol
# Density = 1.705669 g / cm^3
# Si number density = 17.095598 Si / 1000 Ang^3
#
#
#
# Elastic Constant Matrix: (Units=GPa)
#
#
# Indices 1 2 3 4 5 6 
#
# 1 135.3724 64.8235 36.1658 0.0000 -7.5934 0.0000
# 2 64.8235 67.6854 20.7578 0.0000 -10.9726 0.0000
# 3 36.1658 20.7578 46.2021 0.0000 -6.7830 0.0000
# 4 0.0000 0.0000 0.0000 17.8773 0.0000 -0.0118
# 5 -7.5934 -10.9726 -6.7830 0.0000 25.1793 0.0000
# 6 0.0000 0.0000 0.0000 -0.0118 0.0000 25.5234
#
#
#
# Elastic Compliance Matrix: (Units=1/GPa)
#
#
# Indices 1 2 3 4 5 6 
#
# 1 0.015191 -0.013029 -0.006454 0.000000 -0.002835 0.000000
# 2 -0.013029 0.029108 -0.001659 0.000000 0.008309 0.000000
# 3 -0.006454 -0.001659 0.028163 0.000000 0.004918 0.000000
# 4 0.000000 0.000000 0.000000 0.055937 0.000000 0.000026
# 5 -0.002835 0.008309 0.004918 0.000000 0.043806 0.000000
# 6 0.000000 0.000000 0.000000 0.000026 0.000000 0.039180
#
#
# Mechanical properties :
#
#
# Convention : Reuss Voigt Hill
#
# Bulk Modulus (GPa) = 33.13604 54.75047 43.94325
# Shear Modulus (GPa) = 18.95886 22.21686 20.58786
#
# Velocity S-wave (km/s) = 3.33376 3.60886 3.47404
# Velocity P-wave (km/s) = 5.85180 7.03283 6.46932
#
# Compressibility (1/GPa) = 0.03017862
#
# Stress axis : x y z
#
# Youngs Moduli (GPa) = 65.82708 34.35436 35.50734
#
# Poissons Ratio (x) = 0.44762 0.22916
# Poissons Ratio (y) = 0.85769 0.05891
# Poissons Ratio (z) = 0.42483 0.05699
#
# Static dielectric constant tensor:
#      x y z
#    x 3.478330 0.000000 0.006780 
#    y 0.000000 2.911150 0.000000 
#    z 0.006780 0.000000 3.262850 
# 
# 
# High freq. dielectric constant tensor:
#      x y z
#    x 1.667210 0.000000 0.002350 
#    y 0.000000 1.617920 0.000000 
#    z 0.002350 0.000000 1.667090 
# 
# From -- ./inp_files/66968.got.cif
#   From: 2010.06.25/outbox.cif.g09.slc.cpg/sg12_34_cif.got.tgz:66968.got - 2010.06.28 00:19:55.
