data_PCOD8081980
_publ_section_title
;
Structure prediction by ZEFSAII (Michael W. Deem and Ramdas Pophale) SiO2 
 PCOD8081980
Probable space group: C 2/M
;
_chemical_formula_sum "Si O2"
_cell_formula_units_Z 48
_cell_length_a 15.037154
_cell_length_b 19.058067
_cell_length_c 14.564174
_cell_angle_alpha 90.000000
_cell_angle_beta 37.859277
_cell_angle_gamma 90.000000
_cell_volume 2561.554535
_symmetry_space_group_name_H-M "C 2/M"
_symmetry_group_IT_number 12
_symmetry_cell_setting 'monoclinic'
loop_
_space_group_symop_operation_xyz
x,y,z
-x,y,-z
-x,-y,-z
x,-y,z
1/2+x,1/2+y,z
1/2-x,1/2+y,-z
1/2-x,1/2-y,-z
1/2+x,1/2-y,z
loop_
_atom_site_type_symbol
_atom_site_label
_atom_site_fract_x
_atom_site_fract_y
_atom_site_fract_z
Si Si1 0.343796 0.578445 0.600905
Si Si2 0.903262 0.277228 0.671198
Si Si3 0.100681 0.225618 0.667458
Si Si4 0.194221 0.922854 0.582726
Si Si5 0.132845 0.302455 0.825588
Si Si6 0.482983 0.925140 0.621112
O O1 0.500000 0.611684 0.500000
O O2 0.329922 0.500000 0.653661
O O3 0.335890 0.577178 0.499374
O O4 0.215471 0.624336 0.746798
O O5 0.741655 0.252887 0.782475
O O6 0.000000 0.273638 0.500000
O O7 0.973946 0.232111 0.695419
O O8 0.884037 0.357682 0.722673
O O9 0.250000 0.250000 0.500000
O O10 0.108383 0.143837 0.694740
O O11 0.070416 0.273420 0.780499
O O12 0.363066 0.909406 0.458991
O O13 0.148565 0.000000 0.661304
O O14 0.000000 0.317082 0.000000
O O15 0.500000 0.933736 0.500000
O O16 0.420005 0.000000 0.710976
#
# Coordination Sequence:
#
# PCOD8081980 Si02
#       6
#     8   8   8   8   8   8
#     4  10  20  36  59  85 110 145 190 233 280 340
#     4  11  19  34  59  80 107 146 191 237 279 338
#     4  12  19  35  60  83 110 150 192 237 285 337
#     4  10  18  30  53  85 110 134 183 240 282 326
#     4  12  25  37  54  85 120 153 189 234 288 342
#     4   9  16  26  45  76 106 132 172 230 283 319
#
# _framework density 18.738621999999999
#
# number of rings (size 3 to 8) (size 9 to 14) (size 15 to 20)
#    0.000    1.333    5.000    2.500    0.000    1.000 
#    0.000    0.000    0.000    2.000    0.000    0.000 
#    0.000    0.000    0.000    0.000    0.000    0.000 
#
# Total GULP energy -297446.959634 kJ/mol
# GULP energy per Si atom -12393.623318 kJ/mol
# Density = 1.869597 g / cm^3
# Si number density = 18.738622 Si / 1000 Ang^3
#
#
#
# Elastic Constant Matrix: (Units=GPa)
#
#
# Indices 1 2 3 4 5 6 
#
# 1 113.4882 16.5580 18.5514 -0.0017 4.5952 0.0007
# 2 16.5580 142.8266 27.1359 -0.0011 -7.1981 0.0008
# 3 18.5514 27.1359 75.0462 -0.0064 -2.9098 0.0049
# 4 -0.0017 -0.0011 -0.0064 7.3557 0.0058 1.0013
# 5 4.5952 -7.1981 -2.9098 0.0058 19.2996 -0.0041
# 6 0.0007 0.0008 0.0049 1.0013 -0.0041 31.4330
#
#
#
# Elastic Compliance Matrix: (Units=1/GPa)
#
#
# Indices 1 2 3 4 5 6 
#
# 1 0.009397 -0.000828 -0.002135 0.000003 -0.002868 0.000000
# 2 -0.000828 0.007704 -0.002476 -0.000003 0.002697 0.000001
# 3 -0.002135 -0.002476 0.014819 0.000011 0.001819 -0.000002
# 4 0.000003 -0.000003 0.000011 0.136542 -0.000042 -0.004350
# 5 -0.002868 0.002697 0.001819 -0.000042 0.053778 0.000008
# 6 0.000000 0.000001 -0.000002 -0.004350 0.000008 0.031952
#
#
# Mechanical properties :
#
#
# Convention : Reuss Voigt Hill
#
# Bulk Modulus (GPa) = 47.52564 50.65017 49.08791
# Shear Modulus (GPa) = 18.37663 29.55870 23.96766
#
# Velocity S-wave (km/s) = 3.13498 3.97598 3.58026
# Velocity P-wave (km/s) = 6.20658 6.94020 6.58362
#
# Compressibility (1/GPa) = 0.02104127
#
# Stress axis : x y z
#
# Youngs Moduli (GPa) = 106.41179 129.80360 67.48207
#
# Poissons Ratio (x) = 0.10753 0.14406
# Poissons Ratio (y) = 0.08816 0.16711
# Poissons Ratio (z) = 0.22716 0.32143
#
# Static dielectric constant tensor:
#      x y z
#    x 3.779810 -0.000010 0.161370 
#    y -0.000010 4.467890 0.000000 
#    z 0.161370 0.000000 2.787100 
# 
# 
# High freq. dielectric constant tensor:
#      x y z
#    x 1.756540 0.000000 0.012720 
#    y 0.000000 1.760370 0.000000 
#    z 0.012720 0.000000 1.640060 
# 
# From -- ./inp_files/147909.got.cif
#   From: 2010.06.25/outbox.cif.g09.slc.cpg/sg12_74_cif.got.tgz:147909.got - 2010.06.28 00:19:55.
