data_PCOD8081897
_publ_section_title
;
Structure prediction by ZEFSAII (Michael W. Deem and Ramdas Pophale) SiO2 
 PCOD8081897
Probable space group: C 2/M
;
_chemical_formula_sum "Si O2"
_cell_formula_units_Z 64
_cell_length_a 30.849503
_cell_length_b 8.973293
_cell_length_c 14.653866
_cell_angle_alpha 90.000000
_cell_angle_beta 118.425931
_cell_angle_gamma 90.000000
_cell_volume 3567.427084
_symmetry_space_group_name_H-M "C 2/M"
_symmetry_group_IT_number 12
_symmetry_cell_setting 'monoclinic'
loop_
_space_group_symop_operation_xyz
x,y,z
-x,y,-z
-x,-y,-z
x,-y,z
1/2+x,1/2+y,z
1/2-x,1/2+y,-z
1/2-x,1/2-y,-z
1/2+x,1/2-y,z
loop_
_atom_site_type_symbol
_atom_site_label
_atom_site_fract_x
_atom_site_fract_y
_atom_site_fract_z
Si Si1 0.036913 0.326072 0.867370
Si Si2 0.622116 0.825917 0.094716
Si Si3 0.689818 0.173007 0.850215
Si Si4 0.804619 0.172676 0.958333
Si Si5 0.881925 0.828448 0.359692
Si Si6 0.927162 0.674223 0.775803
Si Si7 0.972914 0.828291 0.322539
Si Si8 0.423847 0.175233 0.567591
O O1 0.034453 0.500000 0.838751
O O2 0.053615 0.235653 0.794443
O O3 0.982987 0.265569 0.843047
O O4 0.074540 0.293494 0.985478
O O5 0.668773 0.735312 0.104719
O O6 0.609156 0.761356 0.182601
O O7 0.635886 0.000000 0.108908
O O8 0.746987 0.202225 0.887301
O O9 0.660284 0.247895 0.739280
O O10 0.676470 0.000000 0.841491
O O11 0.674663 0.243358 0.931890
O O12 0.816677 0.000000 0.983167
O O13 0.935125 0.809485 0.367238
O O14 0.884694 0.754305 0.462278
O O15 0.866986 0.000000 0.354808
O O16 0.929477 0.500000 0.796549
O O17 0.907039 0.711681 0.654611
O O18 0.021405 0.735520 0.395393
O O19 0.987578 0.000000 0.322781
O O20 0.423994 0.000000 0.548840
#
# Coordination Sequence:
#
# PCOD8081897 Si02
#       8
#     8   8   8   8   8   8   8   8
#     4   9  17  29  47  72 101 133 169 206 243 289
#     4  10  18  30  52  76  99 132 171 206 246 299
#     4  10  21  37  56  76 100 132 166 199 242 299
#     4  10  21  36  53  77 107 131 157 201 251 296
#     4  11  22  34  51  75 103 132 164 207 254 297
#     4   8  16  31  49  71  99 132 171 212 246 281
#     4  10  20  32  46  69 103 136 164 201 250 297
#     4  10  20  34  52  72  98 134 174 211 244 287
#
# _framework density 17.940100999999999
#
# number of rings (size 3 to 8) (size 9 to 14) (size 15 to 20)
#    0.000    2.250    0.000    4.125    0.000    9.000 
#    0.000    3.125    0.000    4.500    0.000    0.000 
#    0.000    0.000    0.000    0.000    0.000    0.000 
#
# Total GULP energy -396842.466398 kJ/mol
# GULP energy per Si atom -12401.327075 kJ/mol
# Density = 1.789927 g / cm^3
# Si number density = 17.940101 Si / 1000 Ang^3
#
#
#
# Elastic Constant Matrix: (Units=GPa)
#
#
# Indices 1 2 3 4 5 6 
#
# 1 75.3998 42.8794 38.8976 0.0000 -17.2246 0.0000
# 2 42.8794 94.7146 60.0081 0.0000 -4.0877 0.0000
# 3 38.8976 60.0081 116.0450 0.0000 -8.1272 0.0000
# 4 0.0000 0.0000 0.0000 24.5722 0.0000 2.4087
# 5 -17.2246 -4.0877 -8.1272 0.0000 23.0233 0.0000
# 6 0.0000 0.0000 0.0000 2.4087 0.0000 25.7308
#
#
#
# Elastic Compliance Matrix: (Units=1/GPa)
#
#
# Indices 1 2 3 4 5 6 
#
# 1 0.022318 -0.008004 -0.002330 0.000000 0.014454 0.000000
# 2 -0.008004 0.018573 -0.007290 0.000000 -0.005264 0.000000
# 3 -0.002330 -0.007290 0.013284 0.000000 0.001652 0.000000
# 4 0.000000 0.000000 0.000000 0.041073 0.000000 -0.003845
# 5 0.014454 -0.005264 0.001652 0.000000 0.053896 0.000000
# 6 0.000000 0.000000 0.000000 -0.003845 0.000000 0.039224
#
#
# Mechanical properties :
#
#
# Convention : Reuss Voigt Hill
#
# Bulk Modulus (GPa) = 52.83366 63.30328 58.06847
# Shear Modulus (GPa) = 21.74616 24.29022 23.01819
#
# Velocity S-wave (km/s) = 3.48538 3.68361 3.58587
# Velocity P-wave (km/s) = 6.76100 7.31126 7.04151
#
# Compressibility (1/GPa) = 0.01892733
#
# Stress axis : x y z
#
# Youngs Moduli (GPa) = 44.80639 53.84054 75.27991
#
# Poissons Ratio (x) = 0.43095 0.17537
# Poissons Ratio (y) = 0.35864 0.54881
# Poissons Ratio (z) = 0.10438 0.39251
#
# Static dielectric constant tensor:
#      x y z
#    x 3.307270 0.000000 -0.196900 
#    y 0.000000 3.329150 0.000000 
#    z -0.196900 0.000000 3.359340 
# 
# 
# High freq. dielectric constant tensor:
#      x y z
#    x 1.677920 0.000000 -0.009880 
#    y 0.000000 1.692030 0.000000 
#    z -0.009880 0.000000 1.692000 
# 
# From -- ./inp_files/249158.got.cif
#   From: 2010.06.25/outbox.cif.g09.slc.cpg/sg12_125_cif.got.tgz:249158.got - 2010.06.28 00:19:55.
