data_PCOD8081359
_publ_section_title
;
Structure prediction by ZEFSAII (Michael W. Deem and Ramdas Pophale) SiO2 
 PCOD8081359
Probable space group: C 2/M
;
_chemical_formula_sum "Si O2"
_cell_formula_units_Z 64
_cell_length_a 25.046900
_cell_length_b 8.838886
_cell_length_c 17.526033
_cell_angle_alpha 90.000000
_cell_angle_beta 101.977638
_cell_angle_gamma 90.000000
_cell_volume 3795.557085
_symmetry_space_group_name_H-M "C 2/M"
_symmetry_group_IT_number 12
_symmetry_cell_setting 'monoclinic'
loop_
_space_group_symop_operation_xyz
x,y,z
-x,y,-z
-x,-y,-z
x,-y,z
1/2+x,1/2+y,z
1/2-x,1/2+y,-z
1/2-x,1/2-y,-z
1/2+x,1/2-y,z
loop_
_atom_site_type_symbol
_atom_site_label
_atom_site_fract_x
_atom_site_fract_y
_atom_site_fract_z
Si Si1 0.155000 0.679285 0.847883
Si Si2 0.790607 0.821692 0.668830
Si Si3 0.819429 0.177603 0.408851
Si Si4 0.307839 0.678148 0.999341
Si Si5 0.226700 0.822537 0.169307
Si Si6 0.097186 0.178967 0.695713
Si Si7 0.882119 0.177729 0.579511
Si Si8 0.495032 0.822256 0.586487
O O1 0.150851 0.500000 0.849085
O O2 0.213079 0.740750 0.833096
O O3 0.107402 0.745747 0.780940
O O4 0.147438 0.743507 0.932267
O O5 0.739138 0.755362 0.609022
O O6 0.793825 0.754602 0.756166
O O7 0.845962 0.777510 0.642017
O O8 0.782913 0.000000 0.666659
O O9 0.855472 0.233078 0.348035
O O10 0.849961 0.227778 0.494463
O O11 0.810216 0.000000 0.403991
O O12 0.306676 0.500000 0.014786
O O13 0.317126 0.712840 0.911462
O O14 0.250000 0.750000 0.000000
O O15 0.233562 0.000000 0.180295
O O16 0.039317 0.233492 0.648391
O O17 0.096128 0.000000 0.703932
O O18 0.936657 0.274923 0.602011
O O19 0.896307 0.000000 0.581426
O O20 0.500000 0.772076 0.500000
O O21 0.504162 0.000000 0.598990
#
# Coordination Sequence:
#
# PCOD8081359 Si02
#       8
#     8   8   8   8   8   8   8   8
#     4  10  18  30  47  70 101 131 166 206 246 295
#     4  10  19  32  51  73 100 136 171 202 243 295
#     4  10  20  32  47  72 102 132 165 205 249 291
#     4   9  16  27  43  66  98 133 167 201 244 295
#     4   8  15  27  44  68  98 131 163 198 237 288
#     4  11  21  33  52  74 100 132 166 206 253 300
#     4  10  21  36  52  71  98 133 171 210 250 293
#     4  11  23  37  54  73  94 127 170 214 257 297
#
# _framework density 16.861819000000001
#
# number of rings (size 3 to 8) (size 9 to 14) (size 15 to 20)
#    0.000    2.125    2.500    2.625    0.000    2.000 
#    0.000    0.625    0.000    0.000    0.000    0.875 
#    0.000    7.000    0.000    0.000    0.000    0.000 
#
# Total GULP energy -396724.076374 kJ/mol
# GULP energy per Si atom -12397.627387 kJ/mol
# Density = 1.682344 g / cm^3
# Si number density = 16.861819 Si / 1000 Ang^3
#
#
#
# Elastic Constant Matrix: (Units=GPa)
#
#
# Indices 1 2 3 4 5 6 
#
# 1 72.9206 26.9559 39.2981 0.0000 3.3997 0.0000
# 2 26.9559 56.5743 40.0851 0.0000 5.1436 0.0000
# 3 39.2981 40.0851 124.0034 0.0000 17.9082 0.0000
# 4 0.0000 0.0000 0.0000 25.7101 0.0000 6.6716
# 5 3.3997 5.1436 17.9082 0.0000 16.7736 0.0000
# 6 0.0000 0.0000 0.0000 6.6716 0.0000 24.0358
#
#
#
# Elastic Compliance Matrix: (Units=1/GPa)
#
#
# Indices 1 2 3 4 5 6 
#
# 1 0.018015 -0.005848 -0.004198 0.000000 0.002624 0.000000
# 2 -0.005848 0.024841 -0.006204 0.000000 0.000192 0.000000
# 3 -0.004198 -0.006204 0.013008 0.000000 -0.011135 0.000000
# 4 0.000000 0.000000 0.000000 0.041914 0.000000 -0.011634
# 5 0.002624 0.000192 -0.011135 0.000000 0.070915 0.000000
# 6 0.000000 0.000000 0.000000 -0.011634 0.000000 0.044834
#
#
# Mechanical properties :
#
#
# Convention : Reuss Voigt Hill
#
# Bulk Modulus (GPa) = 42.80066 51.79740 47.29903
# Shear Modulus (GPa) = 19.69933 23.11452 21.40693
#
# Velocity S-wave (km/s) = 3.42172 3.70648 3.56694
# Velocity P-wave (km/s) = 6.40696 7.00733 6.71386
#
# Compressibility (1/GPa) = 0.02336413
#
# Stress axis : x y z
#
# Youngs Moduli (GPa) = 55.50867 40.25622 76.87401
#
# Poissons Ratio (x) = 0.23542 0.32270
# Poissons Ratio (y) = 0.32461 0.47696
# Poissons Ratio (z) = 0.23301 0.24977
#
# Static dielectric constant tensor:
#      x y z
#    x 2.903370 0.000000 -0.071440 
#    y 0.000000 3.077920 0.000000 
#    z -0.071440 0.000000 3.703690 
# 
# 
# High freq. dielectric constant tensor:
#      x y z
#    x 1.608910 0.000000 0.007580 
#    y 0.000000 1.647610 0.000000 
#    z 0.007580 0.000000 1.662920 
# 
# From -- ./inp_files/287765.got.cif
#   From: 2010.06.25/outbox.cif.g09.slc.cpg/sg12_144_cif.got.tgz:287765.got - 2010.06.28 00:19:55.
