data_PCOD8081771
_publ_section_title
;
Structure prediction by ZEFSAII (Michael W. Deem and Ramdas Pophale) SiO2 
 PCOD8081771
Probable space group: C 2/M
;
_chemical_formula_sum "Si O2"
_cell_formula_units_Z 56
_cell_length_a 12.609303
_cell_length_b 28.312865
_cell_length_c 15.633298
_cell_angle_alpha 90.000000
_cell_angle_beta 36.073530
_cell_angle_gamma 90.000000
_cell_volume 3286.323256
_symmetry_space_group_name_H-M "C 2/M"
_symmetry_group_IT_number 12
_symmetry_cell_setting 'monoclinic'
loop_
_space_group_symop_operation_xyz
x,y,z
-x,y,-z
-x,-y,-z
x,-y,z
1/2+x,1/2+y,z
1/2-x,1/2+y,-z
1/2-x,1/2-y,-z
1/2+x,1/2-y,z
loop_
_atom_site_type_symbol
_atom_site_label
_atom_site_fract_x
_atom_site_fract_y
_atom_site_fract_z
Si Si1 0.348519 0.446940 0.526222
Si Si2 0.294124 0.310127 0.541361
Si Si3 0.193548 0.230166 0.908309
Si Si4 0.636588 0.123782 0.769594
Si Si5 0.770318 0.328842 0.023471
Si Si6 0.429676 0.622139 0.710933
Si Si7 0.467992 0.788608 0.427320
O O1 0.500000 0.445772 0.500000
O O2 0.286377 0.500000 0.544766
O O3 0.176630 0.417468 0.673115
O O4 0.438184 0.423615 0.382169
O O5 0.207728 0.326525 0.686534
O O6 0.478371 0.337323 0.405245
O O7 0.337736 0.255840 0.527254
O O8 0.149068 0.321256 0.559965
O O9 0.232314 0.191091 0.955005
O O10 0.342522 0.225290 0.737971
O O11 0.187828 0.284109 0.943593
O O12 0.000000 0.216108 0.000000
O O13 0.425879 0.131484 0.922100
O O14 0.734774 0.111863 0.795100
O O15 0.600104 0.358349 0.173277
O O16 0.500000 0.812436 0.500000
#
# Coordination Sequence:
#
# PCOD8081771 Si02
#       7
#     8   8   8   8   8   8   8
#     4   8  16  31  51  74 100 127 158 198 246 296
#     4  10  20  32  45  67  93 126 172 206 236 279
#     4  11  24  35  47  67 102 139 170 210 247 274
#     4  10  18  32  49  70  99 131 165 194 240 291
#     4  11  22  34  47  70 102 134 173 203 237 293
#     4  10  18  30  51  72  95 134 160 198 239 294
#     4  11  22  32  48  65  92 128 173 214 244 275
#
# _framework density 17.040319
#
# number of rings (size 3 to 8) (size 9 to 14) (size 15 to 20)
#    0.000    1.857    2.857    3.429    4.000    0.000 
#    0.000    0.714    0.000    3.429    0.000    0.000 
#    0.000   21.714    0.000    0.000    0.000    0.000 
#
# Total GULP energy -347004.309805 kJ/mol
# GULP energy per Si atom -12393.011064 kJ/mol
# Density = 1.700153 g / cm^3
# Si number density = 17.040319 Si / 1000 Ang^3
#
#
#
# Elastic Constant Matrix: (Units=GPa)
#
#
# Indices 1 2 3 4 5 6 
#
# 1 62.3713 6.4295 14.6030 0.0000 0.4278 0.0000
# 2 6.4295 73.8510 23.4454 0.0000 2.3201 0.0000
# 3 14.6030 23.4454 77.6588 0.0002 9.7098 0.0001
# 4 0.0000 0.0000 0.0002 12.4492 -0.0001 -0.4999
# 5 0.4278 2.3201 9.7098 -0.0001 25.4684 -0.0001
# 6 0.0000 0.0000 0.0001 -0.4999 -0.0001 12.3430
#
#
#
# Elastic Compliance Matrix: (Units=1/GPa)
#
#
# Indices 1 2 3 4 5 6 
#
# 1 0.016811 -0.000500 -0.003130 0.000000 0.000956 0.000000
# 2 -0.000500 0.014995 -0.004477 0.000000 0.000349 0.000000
# 3 -0.003130 -0.004477 0.015498 0.000000 -0.005448 0.000000
# 4 0.000000 0.000000 0.000000 0.080457 0.000000 0.003258
# 5 0.000956 0.000349 -0.005448 0.000000 0.041294 0.000000
# 6 0.000000 0.000000 0.000000 0.003258 0.000000 0.081150
#
#
# Mechanical properties :
#
#
# Convention : Reuss Voigt Hill
#
# Bulk Modulus (GPa) = 32.16386 33.64854 32.90620
# Shear Modulus (GPa) = 18.06488 21.34566 19.70527
#
# Velocity S-wave (km/s) = 3.25949 3.54313 3.40426
# Velocity P-wave (km/s) = 5.75168 6.04381 5.89955
#
# Compressibility (1/GPa) = 0.03109080
#
# Stress axis : x y z
#
# Youngs Moduli (GPa) = 59.48575 66.69112 64.52436
#
# Poissons Ratio (x) = 0.03335 0.20194
# Poissons Ratio (y) = 0.02974 0.28884
# Poissons Ratio (z) = 0.18617 0.29854
#
# Static dielectric constant tensor:
#      x y z
#    x 3.167190 0.000000 0.028660 
#    y 0.000000 3.065510 0.000000 
#    z 0.028660 0.000000 3.353580 
# 
# 
# High freq. dielectric constant tensor:
#      x y z
#    x 1.628920 0.000000 0.001660 
#    y 0.000000 1.615590 0.000000 
#    z 0.001660 0.000000 1.673990 
# 
# From -- ./inp_files/67632.got.cif
#   From: 2010.06.25/outbox.cif.g09.slc.cpg/sg12_34_cif.got.tgz:67632.got - 2010.06.28 00:19:55.
