data_PCOD8081712
_publ_section_title
;
Structure prediction by ZEFSAII (Michael W. Deem and Ramdas Pophale) SiO2 
 PCOD8081712
Probable space group: C 2/M
;
_chemical_formula_sum "Si O2"
_cell_formula_units_Z 40
_cell_length_a 17.274433
_cell_length_b 21.178128
_cell_length_c 9.349825
_cell_angle_alpha 90.000000
_cell_angle_beta 42.271772
_cell_angle_gamma 90.000000
_cell_volume 2300.820464
_symmetry_space_group_name_H-M "C 2/M"
_symmetry_group_IT_number 12
_symmetry_cell_setting 'monoclinic'
loop_
_space_group_symop_operation_xyz
x,y,z
-x,y,-z
-x,-y,-z
x,-y,z
1/2+x,1/2+y,z
1/2-x,1/2+y,-z
1/2-x,1/2-y,-z
1/2+x,1/2-y,z
loop_
_atom_site_type_symbol
_atom_site_label
_atom_site_fract_x
_atom_site_fract_y
_atom_site_fract_z
Si Si1 0.184698 0.669942 0.447695
Si Si2 0.497371 0.070148 0.333733
Si Si3 0.424212 0.700147 0.743643
Si Si4 0.820558 0.331190 0.885618
Si Si5 0.081551 0.787154 0.761801
O O1 0.116332 0.604879 0.573987
O O2 0.177587 0.678611 0.287583
O O3 0.126688 0.728084 0.608559
O O4 0.317116 0.667511 0.317699
O O5 0.500000 0.065589 0.500000
O O6 0.611543 0.109767 0.140409
O O7 0.502440 0.000000 0.258977
O O8 0.500000 0.705052 0.500000
O O9 0.381689 0.768364 0.861153
O O10 0.503788 0.670768 0.760179
O O11 0.309069 0.658901 0.877994
O O12 0.000000 0.762192 0.000000
#
# Coordination Sequence:
#
# PCOD8081712 Si02
#       5
#     8   8   8   8   8
#     4  10  19  31  48  74 105 130 166 202 250 300
#     4   9  17  32  53  75  98 129 171 210 243 284
#     4  11  19  31  49  75 104 131 163 204 255 301
#     4  10  18  30  50  75 104 130 163 210 245 297
#     4  11  20  31  48  76 106 136 157 202 260 303
#
# _framework density 17.385103000000001
#
# number of rings (size 3 to 8) (size 9 to 14) (size 15 to 20)
#    0.000    1.800    6.000    0.600    0.000    0.000 
#    0.000    0.000    0.000    3.000    0.000    0.000 
#    0.000    0.000    0.000    0.000    0.000    0.000 
#
# Total GULP energy -247795.534591 kJ/mol
# GULP energy per Si atom -12389.776730 kJ/mol
# Density = 1.734553 g / cm^3
# Si number density = 17.385103 Si / 1000 Ang^3
#
#
#
# Elastic Constant Matrix: (Units=GPa)
#
#
# Indices 1 2 3 4 5 6 
#
# 1 113.7878 38.3154 36.2330 0.0000 -28.7186 0.0000
# 2 38.3154 93.2759 23.5162 0.0000 -25.8689 0.0000
# 3 36.2330 23.5162 98.1894 0.0000 -27.5893 0.0000
# 4 0.0000 0.0000 0.0000 14.9147 0.0000 -5.0008
# 5 -28.7186 -25.8689 -27.5893 0.0000 32.5282 0.0000
# 6 0.0000 0.0000 0.0000 -5.0008 0.0000 18.8159
#
#
#
# Elastic Compliance Matrix: (Units=1/GPa)
#
#
# Indices 1 2 3 4 5 6 
#
# 1 0.011997 -0.002514 -0.001852 0.000000 0.007022 0.000000
# 2 -0.002514 0.014288 0.000098 0.000000 0.009227 0.000000
# 3 -0.001852 0.000098 0.013663 0.000000 0.010032 0.000000
# 4 0.000000 0.000000 0.000000 0.073607 0.000000 0.019563
# 5 0.007022 0.009227 0.010032 0.000000 0.052788 0.000000
# 6 0.000000 0.000000 0.000000 0.019563 0.000000 0.058346
#
#
# Mechanical properties :
#
#
# Convention : Reuss Voigt Hill
#
# Bulk Modulus (GPa) = 31.83443 55.70915 43.77179
# Shear Modulus (GPa) = 20.51755 27.06432 23.79093
#
# Velocity S-wave (km/s) = 3.43910 3.94985 3.70329
# Velocity P-wave (km/s) = 5.84132 7.27431 6.59684
#
# Compressibility (1/GPa) = 0.03141253
#
# Stress axis : x y z
#
# Youngs Moduli (GPa) = 83.35689 69.99119 73.19088
#
# Poissons Ratio (x) = 0.17593 0.13554
# Poissons Ratio (y) = 0.20952 -0.00719
# Poissons Ratio (z) = 0.15437 -0.00687
#
# Static dielectric constant tensor:
#      x y z
#    x 3.623620 0.000000 -0.326810 
#    y 0.000000 3.084090 0.000000 
#    z -0.326810 0.000000 3.334610 
# 
# 
# High freq. dielectric constant tensor:
#      x y z
#    x 1.685100 0.000000 -0.020390 
#    y 0.000000 1.612660 0.000000 
#    z -0.020390 0.000000 1.674050 
# 
# From -- ./inp_files/50050.got.cif
#   From: 2010.06.25/outbox.cif.g09.slc.cpg/sg12_26_cif.got.tgz:50050.got - 2010.06.28 00:19:55.
