data_PCOD8081002
_publ_section_title
;
Structure prediction by ZEFSAII (Michael W. Deem and Ramdas Pophale) SiO2 
 PCOD8081002
Probable space group: C 2/M
;
_chemical_formula_sum "Si O2"
_cell_formula_units_Z 64
_cell_length_a 26.293145
_cell_length_b 17.174618
_cell_length_c 23.337317
_cell_angle_alpha 90.000000
_cell_angle_beta 158.452684
_cell_angle_gamma 90.000000
_cell_volume 3870.484775
_symmetry_space_group_name_H-M "C 2/M"
_symmetry_group_IT_number 12
_symmetry_cell_setting 'monoclinic'
loop_
_space_group_symop_operation_xyz
x,y,z
-x,y,-z
-x,-y,-z
x,-y,z
1/2+x,1/2+y,z
1/2-x,1/2+y,-z
1/2-x,1/2-y,-z
1/2+x,1/2-y,z
loop_
_atom_site_type_symbol
_atom_site_label
_atom_site_fract_x
_atom_site_fract_y
_atom_site_fract_z
Si Si1 0.349632 0.588694 0.825098
Si Si2 0.291403 0.413350 0.544072
Si Si3 0.461214 0.089005 0.194611
Si Si4 0.850308 0.314440 0.184255
Si Si5 0.886136 0.588942 0.334748
Si Si6 0.054649 0.262530 0.877454
Si Si7 0.674762 0.679722 0.312139
Si Si8 0.080082 0.221548 0.380811
O O1 0.350152 0.500000 0.803244
O O2 0.261524 0.596836 0.790146
O O3 0.291447 0.642440 0.713627
O O4 0.500000 0.617967 0.000000
O O5 0.342063 0.500000 0.585523
O O6 0.353297 0.387140 0.670110
O O7 0.360690 0.365555 0.563789
O O8 0.126179 0.407601 0.373484
O O9 0.386966 0.122865 0.173630
O O10 0.413395 0.144153 0.090446
O O11 0.411556 0.000000 0.132320
O O12 0.889948 0.353020 0.285712
O O13 0.938208 0.234059 0.268249
O O14 0.690019 0.290687 0.012870
O O15 0.914023 0.500000 0.343487
O O16 0.000000 0.615159 0.500000
O O17 0.964090 0.234224 0.837068
O O18 0.948153 0.253083 0.712556
O O19 0.807207 0.727872 0.468867
#
# Coordination Sequence:
#
# PCOD8081002 Si02
#       8
#     8   8   8   8   8   8   8   8
#     4  10  21  34  47  68  98 130 165 206 240 271
#     4  10  18  29  48  73  96 122 161 200 234 283
#     4  10  18  30  48  71  97 126 161 192 235 292
#     4  11  20  32  49  69  99 137 160 190 248 288
#     4  10  21  35  49  71  99 129 172 209 230 268
#     4  10  19  32  46  71 100 128 159 198 241 288
#     4  11  17  32  51  68  94 131 168 194 238 285
#     4  10  18  32  47  70  95 123 165 198 234 287
#
# _framework density 16.535395999999999
#
# number of rings (size 3 to 8) (size 9 to 14) (size 15 to 20)
#    0.000    1.750    3.750    4.500    0.000    0.000 
#    0.000    8.750    0.000    0.000    0.000    0.000 
#    0.000   20.000    0.000    0.000    0.000    0.000 
#
# Total GULP energy -396536.137058 kJ/mol
# GULP energy per Si atom -12391.754283 kJ/mol
# Density = 1.649776 g / cm^3
# Si number density = 16.535396 Si / 1000 Ang^3
#
#
#
# Elastic Constant Matrix: (Units=GPa)
#
#
# Indices 1 2 3 4 5 6 
#
# 1 39.8912 18.2046 -1.5786 0.0035 -4.1854 0.0029
# 2 18.2046 92.5651 9.6915 -0.0086 -8.8800 -0.0055
# 3 -1.5786 9.6915 42.2173 -0.0141 7.9644 -0.0100
# 4 0.0035 -0.0086 -0.0141 22.5234 -0.0125 1.6104
# 5 -4.1854 -8.8800 7.9644 -0.0125 21.8781 -0.0031
# 6 0.0029 -0.0055 -0.0100 1.6104 -0.0031 24.8612
#
#
#
# Elastic Compliance Matrix: (Units=1/GPa)
#
#
# Indices 1 2 3 4 5 6 
#
# 1 0.027881 -0.005438 0.001827 -0.000004 0.002461 -0.000003
# 2 -0.005438 0.012865 -0.004237 0.000006 0.005724 0.000002
# 3 0.001827 -0.004237 0.026829 0.000008 -0.011137 0.000008
# 4 -0.000004 0.000006 0.000008 0.044605 0.000024 -0.002889
# 5 0.002461 0.005724 -0.011137 0.000024 0.052556 0.000001
# 6 -0.000003 0.000002 0.000008 -0.002889 0.000001 0.040410
#
#
# Mechanical properties :
#
#
# Convention : Reuss Voigt Hill
#
# Bulk Modulus (GPa) = 19.27593 25.25651 22.26622
# Shear Modulus (GPa) = 20.99647 23.74296 22.36971
#
# Velocity S-wave (km/s) = 3.56728 3.79342 3.68208
# Velocity P-wave (km/s) = 5.35257 5.87317 5.61890
#
# Compressibility (1/GPa) = 0.05187818
#
# Stress axis : x y z
#
# Youngs Moduli (GPa) = 35.86731 77.72774 37.27342
#
# Poissons Ratio (x) = 0.42271 -0.06808
# Poissons Ratio (y) = 0.19506 0.15791
# Poissons Ratio (z) = -0.06552 0.32930
#
# Static dielectric constant tensor:
#      x y z
#    x 3.079890 -0.000010 0.212520 
#    y -0.000010 3.428090 -0.000010 
#    z 0.212520 -0.000010 3.087160 
# 
# 
# High freq. dielectric constant tensor:
#      x y z
#    x 1.613520 0.000000 0.025470 
#    y 0.000000 1.628120 0.000000 
#    z 0.025470 0.000000 1.637300 
# 
# From -- ./inp_files/352291.got.cif
#   From: 2010.06.25/outbox.cif.g09.slc.cpg/sg12_177_cif.got.tgz:352291.got - 2010.06.28 00:19:55.
