data_PCOD8081430
_publ_section_title
;
Structure prediction by ZEFSAII (Michael W. Deem and Ramdas Pophale) SiO2 
 PCOD8081430
Probable space group: C 2/M
;
_chemical_formula_sum "Si O2"
_cell_formula_units_Z 64
_cell_length_a 28.960678
_cell_length_b 9.130691
_cell_length_c 14.420515
_cell_angle_alpha 90.000000
_cell_angle_beta 86.050556
_cell_angle_gamma 90.000000
_cell_volume 3804.175618
_symmetry_space_group_name_H-M "C 2/M"
_symmetry_group_IT_number 12
_symmetry_cell_setting 'monoclinic'
loop_
_space_group_symop_operation_xyz
x,y,z
-x,y,-z
-x,-y,-z
x,-y,z
1/2+x,1/2+y,z
1/2-x,1/2+y,-z
1/2-x,1/2-y,-z
1/2+x,1/2-y,z
loop_
_atom_site_type_symbol
_atom_site_label
_atom_site_fract_x
_atom_site_fract_y
_atom_site_fract_z
Si Si1 0.613374 0.674495 0.632921
Si Si2 0.180871 0.827207 0.776577
Si Si3 0.203217 0.828256 0.975530
Si Si4 0.512651 0.671547 0.599311
Si Si5 0.583358 0.669860 0.316948
Si Si6 0.146831 0.327208 0.451899
Si Si7 0.278770 0.829095 0.701760
Si Si8 0.841790 0.167840 0.833453
O O1 0.616080 0.500000 0.621940
O O2 0.634756 0.726094 0.728931
O O3 0.560874 0.736192 0.632061
O O4 0.645244 0.745691 0.549677
O O5 0.184581 0.762648 0.880372
O O6 0.225376 0.778483 0.709023
O O7 0.179227 0.000000 0.785825
O O8 0.214373 0.000000 0.965420
O O9 0.250000 0.750000 0.000000
O O10 0.162381 0.798361 0.056425
O O11 0.500000 0.738826 0.500000
O O12 0.520166 0.500000 0.586147
O O13 0.471445 0.706708 0.677998
O O14 0.590531 0.500000 0.344335
O O15 0.605657 0.769694 0.392765
O O16 0.606682 0.704326 0.213542
O O17 0.140935 0.500000 0.466644
O O18 0.196047 0.285454 0.397705
O O19 0.303155 0.759040 0.786621
O O20 0.283322 0.000000 0.718038
O O21 0.830040 0.000000 0.814722
#
# Coordination Sequence:
#
# PCOD8081430 Si02
#       8
#     8   8   8   8   8   8   8   8
#     4  10  19  32  48  64  86 122 160 185 218 267
#     4   9  18  31  47  65  89 122 154 184 218 267
#     4  10  18  30  48  70  92 117 150 185 223 264
#     4   9  15  26  47  69  85 111 154 194 220 256
#     4   9  16  29  47  67  91 116 147 187 225 265
#     4  10  19  29  43  66  94 120 147 184 225 265
#     4   9  17  30  45  63  91 123 150 177 218 270
#     4   9  17  27  45  71  92 113 145 187 226 260
#
# _framework density 16.823619000000001
#
# number of rings (size 3 to 8) (size 9 to 14) (size 15 to 20)
#    0.000    2.625    2.500    0.375    0.000    1.000 
#    0.000    2.500    0.000    0.750    0.000    5.250 
#    0.000    0.000    0.000    8.500    0.000    9.000 
#
# Total GULP energy -396543.351182 kJ/mol
# GULP energy per Si atom -12391.979724 kJ/mol
# Density = 1.678533 g / cm^3
# Si number density = 16.823619 Si / 1000 Ang^3
#
#
#
# Elastic Constant Matrix: (Units=GPa)
#
#
# Indices 1 2 3 4 5 6 
#
# 1 126.7891 16.6582 78.2050 0.0000 3.7976 0.0000
# 2 16.6582 21.9496 20.4096 0.0000 -0.0956 0.0000
# 3 78.2050 20.4096 129.7604 0.0000 1.7311 0.0000
# 4 0.0000 0.0000 0.0000 16.5172 0.0000 -1.8834
# 5 3.7976 -0.0956 1.7311 0.0000 23.7802 0.0000
# 6 0.0000 0.0000 0.0000 -1.8834 0.0000 15.5411
#
#
#
# Elastic Compliance Matrix: (Units=1/GPa)
#
#
# Indices 1 2 3 4 5 6 
#
# 1 0.012771 -0.003000 -0.007205 0.000000 -0.001527 0.000000
# 2 -0.003000 0.054084 -0.006715 0.000000 0.001185 0.000000
# 3 -0.007205 -0.006715 0.013103 0.000000 0.000170 0.000000
# 4 0.000000 0.000000 0.000000 0.061391 0.000000 0.007440
# 5 -0.001527 0.001185 0.000170 0.000000 0.042288 0.000000
# 6 0.000000 0.000000 0.000000 0.007440 0.000000 0.065247
#
#
# Mechanical properties :
#
#
# Convention : Reuss Voigt Hill
#
# Bulk Modulus (GPa) = 21.68280 56.56054 39.12167
# Shear Modulus (GPa) = 16.77317 22.04947 19.41132
#
# Velocity S-wave (km/s) = 3.16096 3.62418 3.40047
# Velocity P-wave (km/s) = 5.12235 7.15581 6.22271
#
# Compressibility (1/GPa) = 0.04611952
#
# Stress axis : x y z
#
# Youngs Moduli (GPa) = 78.30299 18.48972 76.32101
#
# Poissons Ratio (x) = 0.05546 0.54987
# Poissons Ratio (y) = 0.23488 0.51247
# Poissons Ratio (z) = 0.56415 0.12415
#
# Static dielectric constant tensor:
#      x y z
#    x 3.385560 0.000000 -0.182010 
#    y 0.000000 2.953730 0.000000 
#    z -0.182010 0.000000 3.374770 
# 
# 
# High freq. dielectric constant tensor:
#      x y z
#    x 1.640280 0.000000 -0.019220 
#    y 0.000000 1.621970 0.000000 
#    z -0.019220 0.000000 1.639750 
# 
# From -- ./inp_files/248343.got.cif
#   From: 2010.06.25/outbox.cif.g09.slc.cpg/sg12_125_cif.got.tgz:248343.got - 2010.06.28 00:19:55.
