data_PCOD8081166
_publ_section_title
;
Structure prediction by ZEFSAII (Michael W. Deem and Ramdas Pophale) SiO2 
 PCOD8081166
Probable space group: C 2/M
;
_chemical_formula_sum "Si O2"
_cell_formula_units_Z 64
_cell_length_a 20.327607
_cell_length_b 9.063206
_cell_length_c 23.963949
_cell_angle_alpha 90.000000
_cell_angle_beta 52.873667
_cell_angle_gamma 90.000000
_cell_volume 3520.074533
_symmetry_space_group_name_H-M "C 2/M"
_symmetry_group_IT_number 12
_symmetry_cell_setting 'monoclinic'
loop_
_space_group_symop_operation_xyz
x,y,z
-x,y,-z
-x,-y,-z
x,-y,z
1/2+x,1/2+y,z
1/2-x,1/2+y,-z
1/2-x,1/2-y,-z
1/2+x,1/2-y,z
loop_
_atom_site_type_symbol
_atom_site_label
_atom_site_fract_x
_atom_site_fract_y
_atom_site_fract_z
Si Si1 0.723389 0.174304 0.867429
Si Si2 0.537028 0.829319 0.358229
Si Si3 0.892245 0.329983 0.795510
Si Si4 0.926331 0.833243 0.493818
Si Si5 0.573816 0.325812 0.002754
Si Si6 0.179639 0.672091 0.765094
Si Si7 0.181651 0.327334 0.368548
Si Si8 0.010644 0.669677 0.141650
O O1 0.813096 0.226442 0.840534
O O2 0.706676 0.224466 0.812701
O O3 0.715794 0.000000 0.878216
O O4 0.657742 0.249489 0.941328
O O5 0.553278 0.786489 0.286001
O O6 0.457783 0.738176 0.419983
O O7 0.618494 0.787551 0.351360
O O8 0.515284 0.000000 0.377289
O O9 0.863297 0.500000 0.805785
O O10 0.948620 0.301211 0.819805
O O11 0.848342 0.744552 0.558048
O O12 0.000000 0.823847 0.500000
O O13 0.898705 0.000000 0.496241
O O14 0.586290 0.500000 0.995111
O O15 0.554567 0.274734 0.074978
O O16 0.500000 0.274890 0.000000
O O17 0.197516 0.500000 0.747445
O O18 0.230067 0.761376 0.692962
O O19 0.084731 0.712631 0.804694
O O20 0.190320 0.500000 0.373774
O O21 0.020385 0.500000 0.117430
#
# Coordination Sequence:
#
# PCOD8081166 Si02
#       8
#     8   8   8   8   8   8   8   8
#     4  11  22  36  59  84 110 144 182 226 273 325
#     4   9  17  30  49  75 107 141 177 217 267 323
#     4  10  21  38  58  82 113 147 183 224 271 327
#     4   9  17  28  45  73 108 142 177 220 268 318
#     4  11  23  38  59  84 111 142 181 230 277 323
#     4  10  20  34  54  81 109 141 181 224 270 322
#     4  10  18  29  50  78 108 141 177 224 272 317
#     4  10  22  40  60  81 110 147 183 223 274 330
#
# _framework density 18.181432000000001
#
# number of rings (size 3 to 8) (size 9 to 14) (size 15 to 20)
#    0.000    2.000    2.500    1.500    0.000    5.000 
#    0.000    0.000    0.000    0.750    0.000    0.000 
#    0.000    0.000    0.000    0.000    0.000    0.000 
#
# Total GULP energy -396940.324605 kJ/mol
# GULP energy per Si atom -12404.385144 kJ/mol
# Density = 1.814005 g / cm^3
# Si number density = 18.181432 Si / 1000 Ang^3
#
#
#
# Elastic Constant Matrix: (Units=GPa)
#
#
# Indices 1 2 3 4 5 6 
#
# 1 64.6239 32.8789 53.4117 -0.0001 -6.5851 -0.0001
# 2 32.8789 84.2109 70.1752 0.0000 -7.6069 -0.0005
# 3 53.4117 70.1752 160.5477 0.0000 -9.1652 -0.0001
# 4 -0.0001 0.0000 0.0000 38.8205 0.0000 -2.7718
# 5 -6.5851 -7.6069 -9.1652 0.0000 23.2325 0.0000
# 6 -0.0001 -0.0005 -0.0001 -2.7718 0.0000 18.1660
#
#
#
# Elastic Compliance Matrix: (Units=1/GPa)
#
#
# Indices 1 2 3 4 5 6 
#
# 1 0.022329 -0.003782 -0.005611 0.000000 0.002877 0.000000
# 2 -0.003782 0.019521 -0.007131 0.000000 0.002506 0.000000
# 3 -0.005611 -0.007131 0.011241 0.000000 0.000509 0.000000
# 4 0.000000 0.000000 0.000000 0.026043 0.000000 0.003974
# 5 0.002877 0.002506 0.000509 0.000000 0.044880 0.000000
# 6 0.000000 0.000000 0.000000 0.003974 0.000000 0.055654
#
#
# Mechanical properties :
#
#
# Convention : Reuss Voigt Hill
#
# Bulk Modulus (GPa) = 49.89436 69.14601 59.52019
# Shear Modulus (GPa) = 22.78955 26.23824 24.51390
#
# Velocity S-wave (km/s) = 3.54425 3.80298 3.67589
# Velocity P-wave (km/s) = 6.65214 7.57610 7.12910
#
# Compressibility (1/GPa) = 0.02004235
#
# Stress axis : x y z
#
# Youngs Moduli (GPa) = 44.78425 51.22803 88.95666
#
# Poissons Ratio (x) = 0.19376 0.49914
# Poissons Ratio (y) = 0.16939 0.63435
# Poissons Ratio (z) = 0.25129 0.36531
#
# Static dielectric constant tensor:
#      x y z
#    x 3.080410 0.000000 -0.032900 
#    y 0.000000 3.362830 0.000000 
#    z -0.032900 0.000000 3.489790 
# 
# 
# High freq. dielectric constant tensor:
#      x y z
#    x 1.671200 0.000000 -0.006290 
#    y 0.000000 1.708950 0.000000 
#    z -0.006290 0.000000 1.719370 
# 
# From -- ./inp_files/346000.got.cif
#   From: 2010.06.25/outbox.cif.g09.slc.cpg/sg12_173_cif.got.tgz:346000.got - 2010.06.28 00:19:55.
