data_PCOD8081186
_publ_section_title
;
Structure prediction by ZEFSAII (Michael W. Deem and Ramdas Pophale) SiO2 
 PCOD8081186
Probable space group: C 2/M
;
_chemical_formula_sum "Si O2"
_cell_formula_units_Z 64
_cell_length_a 22.482871
_cell_length_b 13.782085
_cell_length_c 12.683165
_cell_angle_alpha 90.000000
_cell_angle_beta 110.437229
_cell_angle_gamma 90.000000
_cell_volume 3682.642464
_symmetry_space_group_name_H-M "C 2/M"
_symmetry_group_IT_number 12
_symmetry_cell_setting 'monoclinic'
loop_
_space_group_symop_operation_xyz
x,y,z
-x,y,-z
-x,-y,-z
x,-y,z
1/2+x,1/2+y,z
1/2-x,1/2+y,-z
1/2-x,1/2-y,-z
1/2+x,1/2-y,z
loop_
_atom_site_type_symbol
_atom_site_label
_atom_site_fract_x
_atom_site_fract_y
_atom_site_fract_z
Si Si1 0.525259 0.276359 0.397652
Si Si2 0.778171 0.613209 0.659820
Si Si3 0.195402 0.298308 0.103640
Si Si4 0.638426 0.388955 0.544256
Si Si5 0.590039 0.892351 0.328887
Si Si6 0.408140 0.612380 0.255994
Si Si7 0.799736 0.886990 0.023441
Si Si8 0.431840 0.110660 0.931142
O O1 0.500000 0.270050 0.500000
O O2 0.591880 0.333307 0.436408
O O3 0.540849 0.170594 0.364463
O O4 0.473546 0.326890 0.289851
O O5 0.782339 0.500000 0.701054
O O6 0.782849 0.683813 0.763270
O O7 0.711593 0.632736 0.559701
O O8 0.834983 0.634793 0.611830
O O9 0.237660 0.365012 0.053688
O O10 0.122361 0.329324 0.042297
O O11 0.201036 0.183727 0.078827
O O12 0.620722 0.500000 0.517586
O O13 0.628832 0.359021 0.660231
O O14 0.576870 0.882465 0.198109
O O15 0.577398 0.000000 0.362958
O O16 0.427221 0.500000 0.268278
O O17 0.362800 0.637089 0.130090
O O18 0.798880 0.000000 0.987515
O O19 0.428465 0.000000 0.969303
O O20 0.500000 0.157096 0.000000
#
# Coordination Sequence:
#
# PCOD8081186 Si02
#       8
#     8   8   8   8   8   8   8   8
#     4  10  20  31  48  73 100 128 162 198 242 301
#     4   9  16  31  53  74  95 122 164 209 249 284
#     4  10  18  29  51  73  96 129 162 202 242 298
#     4   9  16  29  51  74  95 119 155 206 250 283
#     4   9  19  33  49  69  95 130 166 203 244 286
#     4   9  17  30  48  70  99 125 154 199 247 289
#     4  10  19  30  48  75 102 131 161 199 246 297
#     4   9  18  32  51  74  96 121 164 214 245 275
#
# _framework density 17.378824000000002
#
# number of rings (size 3 to 8) (size 9 to 14) (size 15 to 20)
#    0.000    2.625    1.250    2.250    1.750    2.250 
#    0.000    0.000    0.000    7.125    0.000    0.000 
#    0.000    0.000    0.000    0.000    0.000    0.000 
#
# Total GULP energy -396667.985394 kJ/mol
# GULP energy per Si atom -12395.874544 kJ/mol
# Density = 1.733927 g / cm^3
# Si number density = 17.378824 Si / 1000 Ang^3
#
#
#
# Elastic Constant Matrix: (Units=GPa)
#
#
# Indices 1 2 3 4 5 6 
#
# 1 106.3620 43.1481 26.4576 0.0000 30.6982 0.0000
# 2 43.1481 86.8997 26.2779 0.0000 8.9060 0.0000
# 3 26.4576 26.2779 32.6249 0.0000 15.0159 0.0000
# 4 0.0000 0.0000 0.0000 19.4613 0.0000 -1.0727
# 5 30.6982 8.9060 15.0159 0.0000 22.9696 0.0000
# 6 0.0000 0.0000 0.0000 -1.0727 0.0000 29.2824
#
#
#
# Elastic Compliance Matrix: (Units=1/GPa)
#
#
# Indices 1 2 3 4 5 6 
#
# 1 0.018676 -0.007320 0.001333 0.000000 -0.022993 0.000000
# 2 -0.007320 0.018230 -0.014299 0.000000 0.012062 0.000000
# 3 0.001333 -0.014299 0.056293 0.000000 -0.033038 0.000000
# 4 0.000000 0.000000 0.000000 0.051488 0.000000 0.001886
# 5 -0.022993 0.012062 -0.033038 0.000000 0.091187 0.000000
# 6 0.000000 0.000000 0.000000 0.001886 0.000000 0.034219
#
#
# Mechanical properties :
#
#
# Convention : Reuss Voigt Hill
#
# Bulk Modulus (GPa) = 19.00120 46.40598 32.70359
# Shear Modulus (GPa) = 15.23429 23.00953 19.12191
#
# Velocity S-wave (km/s) = 2.96396 3.64263 3.32067
# Velocity P-wave (km/s) = 4.76137 6.66725 5.79322
#
# Compressibility (1/GPa) = 0.05262825
#
# Stress axis : x y z
#
# Youngs Moduli (GPa) = 53.54458 54.85578 17.76407
#
# Poissons Ratio (x) = 0.40153 -0.02368
# Poissons Ratio (y) = 0.39193 0.25400
# Poissons Ratio (z) = -0.07138 0.78436
#
# Static dielectric constant tensor:
#      x y z
#    x 3.521310 0.000000 0.293470 
#    y 0.000000 3.153570 0.000000 
#    z 0.293470 0.000000 2.933570 
# 
# 
# High freq. dielectric constant tensor:
#      x y z
#    x 1.681410 0.000000 0.025120 
#    y 0.000000 1.659220 0.000000 
#    z 0.025120 0.000000 1.640570 
# 
# From -- ./inp_files/239689.got.cif
#   From: 2010.06.25/outbox.cif.g09.slc.cpg/sg12_120_cif.got.tgz:239689.got - 2010.06.28 00:19:55.
