data_PCOD8081013
_publ_section_title
;
Structure prediction by ZEFSAII (Michael W. Deem and Ramdas Pophale) SiO2 
 PCOD8081013
Probable space group: C 2/M
;
_chemical_formula_sum "Si O2"
_cell_formula_units_Z 56
_cell_length_a 21.408719
_cell_length_b 12.393895
_cell_length_c 12.247473
_cell_angle_alpha 90.000000
_cell_angle_beta 92.875175
_cell_angle_gamma 90.000000
_cell_volume 3245.622041
_symmetry_space_group_name_H-M "C 2/M"
_symmetry_group_IT_number 12
_symmetry_cell_setting 'monoclinic'
loop_
_space_group_symop_operation_xyz
x,y,z
-x,y,-z
-x,-y,-z
x,-y,z
1/2+x,1/2+y,z
1/2-x,1/2+y,-z
1/2-x,1/2-y,-z
1/2+x,1/2-y,z
loop_
_atom_site_type_symbol
_atom_site_label
_atom_site_fract_x
_atom_site_fract_y
_atom_site_fract_z
Si Si1 0.461028 0.120431 0.863309
Si Si2 0.184105 0.873706 0.978762
Si Si3 0.734960 0.247530 0.183059
Si Si4 0.862652 0.376932 0.679560
Si Si5 0.911376 0.301052 0.070158
Si Si6 0.069717 0.627869 0.526257
Si Si7 0.846455 0.378102 0.268437
O O1 0.430027 0.129793 0.743563
O O2 0.517174 0.206222 0.881072
O O3 0.488733 0.000000 0.882498
O O4 0.408419 0.144157 0.950476
O O5 0.236762 0.844473 0.893602
O O6 0.118840 0.817525 0.938822
O O7 0.172487 0.000000 0.978002
O O8 0.204158 0.837488 0.102056
O O9 0.686364 0.198441 0.264194
O O10 0.786015 0.301803 0.267308
O O11 0.837408 0.500000 0.677300
O O12 0.879310 0.334495 0.559995
O O13 0.871938 0.376357 0.147418
O O14 0.063160 0.500000 0.519870
O O15 0.099151 0.664675 0.644786
O O16 0.000000 0.678140 0.500000
O O17 0.827294 0.500000 0.297939
#
# Coordination Sequence:
#
# PCOD8081013 Si02
#       7
#     8   8   8   8   8   8   8
#     4  10  18  29  48  75 102 128 162 205 248 295
#     4  10  20  34  49  69 102 135 167 208 248 294
#     4  10  20  33  49  72  97 133 173 201 240 302
#     4  10  19  32  51  73 103 132 161 204 248 294
#     4  10  18  30  48  72  99 127 166 201 247 302
#     4   9  18  32  50  75 101 126 157 199 253 298
#     4  10  19  31  49  72 100 132 163 200 247 294
#
# _framework density 17.254010999999998
#
# number of rings (size 3 to 8) (size 9 to 14) (size 15 to 20)
#    0.000    2.143    1.429    3.429    0.000    2.857 
#    0.000    1.429    0.000    0.000    0.000    1.000 
#    0.000   21.143    0.000    0.000    0.000    0.000 
#
# Total GULP energy -347072.293327 kJ/mol
# GULP energy per Si atom -12395.439047 kJ/mol
# Density = 1.721474 g / cm^3
# Si number density = 17.254011 Si / 1000 Ang^3
#
#
#
# Elastic Constant Matrix: (Units=GPa)
#
#
# Indices 1 2 3 4 5 6 
#
# 1 95.0563 44.8311 34.7825 0.0000 -1.1784 0.0000
# 2 44.8311 84.5325 29.5658 0.0000 2.9700 0.0000
# 3 34.7825 29.5658 72.8889 0.0000 0.8567 0.0000
# 4 0.0000 0.0000 0.0000 17.3519 0.0000 0.5061
# 5 -1.1784 2.9700 0.8567 0.0000 27.6960 0.0000
# 6 0.0000 0.0000 0.0000 0.5061 0.0000 23.4550
#
#
#
# Elastic Compliance Matrix: (Units=1/GPa)
#
#
# Indices 1 2 3 4 5 6 
#
# 1 0.015341 -0.006552 -0.004681 0.000000 0.001500 0.000000
# 2 -0.006552 0.016631 -0.003597 0.000000 -0.001951 0.000000
# 3 -0.004681 -0.003597 0.017416 0.000000 -0.000352 0.000000
# 4 0.000000 0.000000 0.000000 0.057667 0.000000 -0.001244
# 5 0.001500 -0.001951 -0.000352 0.000000 0.036390 0.000000
# 6 0.000000 0.000000 0.000000 -0.001244 0.000000 0.042662
#
#
# Mechanical properties :
#
#
# Convention : Reuss Voigt Hill
#
# Bulk Modulus (GPa) = 50.68401 52.31518 51.49959
# Shear Modulus (GPa) = 22.48781 23.25379 22.87080
#
# Velocity S-wave (km/s) = 3.61409 3.67513 3.64474
# Velocity P-wave (km/s) = 6.84504 6.95667 6.90108
#
# Compressibility (1/GPa) = 0.01973009
#
# Stress axis : x y z
#
# Youngs Moduli (GPa) = 65.18269 60.12908 57.41751
#
# Poissons Ratio (x) = 0.39395 0.26877
# Poissons Ratio (y) = 0.42706 0.20651
# Poissons Ratio (z) = 0.30512 0.21626
#
# Static dielectric constant tensor:
#      x y z
#    x 3.304210 0.000000 0.033270 
#    y 0.000000 2.863450 0.000000 
#    z 0.033270 0.000000 3.341970 
# 
# 
# High freq. dielectric constant tensor:
#      x y z
#    x 1.669750 0.000000 0.001220 
#    y 0.000000 1.621330 0.000000 
#    z 0.001220 0.000000 1.673710 
# 
# From -- ./inp_files/164925.got.cif
#   From: 2010.06.25/outbox.cif.g09.slc.cpg/sg12_83_cif.got.tgz:164925.got - 2010.06.28 00:19:55.
