data_PCOD8081157
_publ_section_title
;
Structure prediction by ZEFSAII (Michael W. Deem and Ramdas Pophale) SiO2 
 PCOD8081157
Probable space group: C 2/M
;
_chemical_formula_sum "Si O2"
_cell_formula_units_Z 64
_cell_length_a 29.419737
_cell_length_b 8.607348
_cell_length_c 15.662534
_cell_angle_alpha 90.000000
_cell_angle_beta 118.299660
_cell_angle_gamma 90.000000
_cell_volume 3492.124773
_symmetry_space_group_name_H-M "C 2/M"
_symmetry_group_IT_number 12
_symmetry_cell_setting 'monoclinic'
loop_
_space_group_symop_operation_xyz
x,y,z
-x,y,-z
-x,-y,-z
x,-y,z
1/2+x,1/2+y,z
1/2-x,1/2+y,-z
1/2-x,1/2-y,-z
1/2+x,1/2-y,z
loop_
_atom_site_type_symbol
_atom_site_label
_atom_site_fract_x
_atom_site_fract_y
_atom_site_fract_z
Si Si1 0.885645 0.183509 0.351849
Si Si2 0.333094 0.819125 0.548097
Si Si3 0.433152 0.683798 0.571076
Si Si4 0.320266 0.680349 0.716636
Si Si5 0.217755 0.817234 0.659692
Si Si6 0.543588 0.683285 0.731752
Si Si7 0.471689 0.819615 0.103531
Si Si8 0.921562 0.681481 0.880897
O O1 0.922617 0.230346 0.463607
O O2 0.827297 0.244526 0.316206
O O3 0.910227 0.252392 0.286468
O O4 0.882965 0.000000 0.343996
O O5 0.393149 0.772500 0.596475
O O6 0.314603 0.782271 0.626666
O O7 0.299772 0.718370 0.452533
O O8 0.325051 0.000000 0.521167
O O9 0.426848 0.500000 0.580051
O O10 0.489351 0.745889 0.647218
O O11 0.319367 0.500000 0.692483
O O12 0.270516 0.726702 0.729645
O O13 0.372115 0.717399 0.814045
O O14 0.226804 0.000000 0.677856
O O15 0.544160 0.500000 0.724743
O O16 0.551703 0.730413 0.836660
O O17 0.530145 0.765622 0.134759
O O18 0.471910 0.000000 0.125083
O O19 0.434867 0.783841 0.990987
O O20 0.909853 0.500000 0.856275
#
# Coordination Sequence:
#
# PCOD8081157 Si02
#       8
#     8   8   8   8   8   8   8   8
#     4   8  16  31  50  71  98 134 172 207 244 288
#     4  11  21  33  49  72 104 137 169 204 244 292
#     4   9  17  30  48  72 103 137 171 205 243 289
#     4  12  23  34  51  76 102 128 164 207 251 297
#     4  10  20  36  54  71  97 134 173 209 246 289
#     4  10  18  29  50  77 102 131 168 207 246 294
#     4   9  19  35  54  76 103 132 161 199 246 297
#     4   9  19  37  56  74 100 133 165 197 243 299
#
# _framework density 18.326951000000001
#
# number of rings (size 3 to 8) (size 9 to 14) (size 15 to 20)
#    0.000    2.250    0.000    5.625    0.000    5.000 
#    0.000    4.375    0.000    4.500    0.000    0.000 
#    0.000    0.000    0.000    0.000    0.000    0.000 
#
# Total GULP energy -396777.672457 kJ/mol
# GULP energy per Si atom -12399.302264 kJ/mol
# Density = 1.828524 g / cm^3
# Si number density = 18.326951 Si / 1000 Ang^3
#
#
#
# Elastic Constant Matrix: (Units=GPa)
#
#
# Indices 1 2 3 4 5 6 
#
# 1 125.4287 23.6591 50.9134 0.0000 -0.1192 0.0000
# 2 23.6591 42.2371 13.2302 0.0000 3.7814 0.0000
# 3 50.9134 13.2302 59.4226 0.0000 -1.7152 0.0000
# 4 0.0000 0.0000 0.0000 24.4930 0.0000 1.0453
# 5 -0.1192 3.7814 -1.7152 0.0000 30.4392 0.0000
# 6 0.0000 0.0000 0.0000 1.0453 0.0000 23.4050
#
#
#
# Elastic Compliance Matrix: (Units=1/GPa)
#
#
# Indices 1 2 3 4 5 6 
#
# 1 0.012830 -0.004022 -0.010098 0.000000 -0.000019 0.000000
# 2 -0.004022 0.027087 -0.002687 0.000000 -0.003532 0.000000
# 3 -0.010098 -0.002687 0.026130 0.000000 0.001767 0.000000
# 4 0.000000 0.000000 0.000000 0.040906 0.000000 -0.001827
# 5 -0.000019 -0.003532 0.001767 0.000000 0.033391 0.000000
# 6 0.000000 0.000000 0.000000 -0.001827 0.000000 0.042808
#
#
# Mechanical properties :
#
#
# Convention : Reuss Voigt Hill
#
# Bulk Modulus (GPa) = 30.83251 44.74376 37.78813
# Shear Modulus (GPa) = 21.97077 24.95315 23.46196
#
# Velocity S-wave (km/s) = 3.46616 3.69393 3.58185
# Velocity P-wave (km/s) = 5.73403 6.53151 6.14572
#
# Compressibility (1/GPa) = 0.03243330
#
# Stress axis : x y z
#
# Youngs Moduli (GPa) = 77.94074 36.91866 38.27055
#
# Poissons Ratio (x) = 0.14849 0.38646
# Poissons Ratio (y) = 0.31348 0.10281
# Poissons Ratio (z) = 0.78705 0.09918
#
# Static dielectric constant tensor:
#      x y z
#    x 3.786760 0.000000 -0.033430 
#    y 0.000000 3.142950 0.000000 
#    z -0.033430 0.000000 3.201280 
# 
# 
# High freq. dielectric constant tensor:
#      x y z
#    x 1.718270 0.000000 0.002930 
#    y 0.000000 1.695030 0.000000 
#    z 0.002930 0.000000 1.684850 
# 
# From -- ./inp_files/249177.got.cif
#   From: 2010.06.25/outbox.cif.g09.slc.cpg/sg12_125_cif.got.tgz:249177.got - 2010.06.28 00:19:55.
