data_PCOD8081766
_publ_section_title
;
Structure prediction by ZEFSAII (Michael W. Deem and Ramdas Pophale) SiO2 
 PCOD8081766
Probable space group: C 2/M
;
_chemical_formula_sum "Si O2"
_cell_formula_units_Z 44
_cell_length_a 23.383594
_cell_length_b 11.262233
_cell_length_c 12.619581
_cell_angle_alpha 90.000000
_cell_angle_beta 137.718856
_cell_angle_gamma 90.000000
_cell_volume 2235.870877
_symmetry_space_group_name_H-M "C 2/M"
_symmetry_group_IT_number 12
_symmetry_cell_setting 'monoclinic'
loop_
_space_group_symop_operation_xyz
x,y,z
-x,y,-z
-x,-y,-z
x,-y,z
1/2+x,1/2+y,z
1/2-x,1/2+y,-z
1/2-x,1/2-y,-z
1/2+x,1/2-y,z
loop_
_atom_site_type_symbol
_atom_site_label
_atom_site_fract_x
_atom_site_fract_y
_atom_site_fract_z
Si Si1 0.828817 0.708980 0.486388
Si Si2 0.820891 0.370584 0.705123
Si Si3 0.420486 0.630774 0.312221
Si Si4 0.500000 0.228388 0.000000
Si Si5 0.398660 0.870534 0.368031
Si Si6 0.481646 0.634481 0.765304
O O1 0.812687 0.627706 0.566211
O O2 0.740410 0.770601 0.328826
O O3 0.866567 0.629120 0.444648
O O4 0.893455 0.812593 0.605217
O O5 0.792742 0.500000 0.707767
O O6 0.917725 0.352316 0.872283
O O7 0.500000 0.628636 0.500000
O O8 0.374296 0.500000 0.260436
O O9 0.363688 0.748980 0.262833
O O10 0.447890 0.648109 0.228835
O O11 0.482786 0.306574 0.080012
O O12 0.500000 0.865975 0.500000
O O13 0.368904 0.000000 0.278970
O O14 0.461680 0.500000 0.765370
#
# Coordination Sequence:
#
# PCOD8081766 Si02
#       6
#     8   8   8   4   8   8
#     4  10  19  33  55  84 111 143 188 238 284 333
#     4  10  21  36  54  78 112 151 191 237 286 338
#     4   9  16  28  49  80 111 141 181 231 278 327
#     4  10  22  36  52  78 110 152 192 226 284 352
#     4  10  18  30  50  84 119 145 174 226 291 339
#     4  10  18  32  53  80 111 143 185 233 281 334
#
# _framework density 19.679133
#
# number of rings (size 3 to 8) (size 9 to 14) (size 15 to 20)
#    0.000    2.182    3.636    1.636    0.000    0.727 
#    0.000    3.636    0.000    1.091    0.000    0.000 
#    0.000    0.000    0.000    0.000    0.000    0.000 
#
# Total GULP energy -272554.726071 kJ/mol
# GULP energy per Si atom -12388.851185 kJ/mol
# Density = 1.963434 g / cm^3
# Si number density = 19.679133 Si / 1000 Ang^3
#
#
#
# Elastic Constant Matrix: (Units=GPa)
#
#
# Indices 1 2 3 4 5 6 
#
# 1 80.9362 29.5071 15.4092 0.0000 -11.0369 0.0000
# 2 29.5071 168.5241 27.2855 0.0000 -7.0592 0.0000
# 3 15.4092 27.2855 60.4008 0.0000 1.3617 0.0000
# 4 0.0000 0.0000 0.0000 0.0073 0.0000 -9.3243
# 5 -11.0369 -7.0592 1.3617 0.0000 27.8362 0.0000
# 6 0.0000 0.0000 0.0000 -9.3243 0.0000 14.9614
#
#
#
# Elastic Compliance Matrix: (Units=1/GPa)
#
#
# Indices 1 2 3 4 5 6 
#
# 1 0.014306 -0.001802 -0.002957 0.000000 0.005360 0.000000
# 2 -0.001802 0.006717 -0.002600 0.000000 0.001116 0.000000
# 3 -0.002957 -0.002600 0.018547 0.000000 -0.002739 0.000000
# 4 0.000000 0.000000 0.000000 -0.172301 0.000000 -0.107382
# 5 0.005360 0.001116 -0.002739 0.000000 0.038467 0.000000
# 6 0.000000 0.000000 0.000000 -0.107382 0.000000 -0.000084
#
#
# Mechanical properties :
#
#
# Convention : Reuss Voigt Hill
#
# Bulk Modulus (GPa) = 40.23611 50.47384 45.35498
# Shear Modulus (GPa) = -70.07957 24.40494 -22.83731
#
# Velocity S-wave (km/s) = -5.97398 3.52539 -3.41028
# Velocity P-wave (km/s) = 5.20520 6.50194 2.75510
#
# Compressibility (1/GPa) = 0.02485330
#
# Stress axis : x y z
#
# Youngs Moduli (GPa) = 69.90044 148.87541 53.91827
#
# Poissons Ratio (x) = 0.26822 0.15942
# Poissons Ratio (y) = 0.12593 0.14018
# Poissons Ratio (z) = 0.20667 0.38706
#
# Static dielectric constant tensor:
#      x y z
#    x 3.667030 0.000000 -0.233760 
#    y 0.000000 4.242130 0.000000 
#    z -0.233760 0.000000 3.176790 
# 
# 
# High freq. dielectric constant tensor:
#      x y z
#    x 1.763320 0.000000 -0.016970 
#    y 0.000000 1.790870 0.000000 
#    z -0.016970 0.000000 1.710080 
# 
# From -- ./inp_files/175392.got.cif
#   From: 2010.06.25/outbox.cif.g09.slc.cpg/sg12_88_cif.got.tgz:175392.got - 2010.06.28 00:19:55.
