data_PCOD8081091
_publ_section_title
;
Structure prediction by ZEFSAII (Michael W. Deem and Ramdas Pophale) SiO2 
 PCOD8081091
Probable space group: C 2/M
;
_chemical_formula_sum "Si O2"
_cell_formula_units_Z 56
_cell_length_a 19.100873
_cell_length_b 8.926982
_cell_length_c 24.052984
_cell_angle_alpha 90.000000
_cell_angle_beta 132.233667
_cell_angle_gamma 90.000000
_cell_volume 3036.679633
_symmetry_space_group_name_H-M "C 2/M"
_symmetry_group_IT_number 12
_symmetry_cell_setting 'monoclinic'
loop_
_space_group_symop_operation_xyz
x,y,z
-x,y,-z
-x,-y,-z
x,-y,z
1/2+x,1/2+y,z
1/2-x,1/2+y,-z
1/2-x,1/2-y,-z
1/2+x,1/2-y,z
loop_
_atom_site_type_symbol
_atom_site_label
_atom_site_fract_x
_atom_site_fract_y
_atom_site_fract_z
Si Si1 0.297105 0.172531 0.441626
Si Si2 0.553191 0.322866 0.195268
Si Si3 0.247489 0.825193 0.686659
Si Si4 0.438903 0.825865 0.914947
Si Si5 0.121882 0.672154 0.401150
Si Si6 0.054402 0.326357 0.766103
Si Si7 0.720898 0.328014 0.796993
O O1 0.321968 0.266668 0.399232
O O2 0.194545 0.219090 0.409505
O O3 0.375752 0.203544 0.531121
O O4 0.293856 0.000000 0.422883
O O5 0.559524 0.500000 0.199808
O O6 0.652270 0.255122 0.268063
O O7 0.526630 0.268980 0.119331
O O8 0.471930 0.267751 0.193546
O O9 0.202483 0.788388 0.722382
O O10 0.267138 0.000000 0.690918
O O11 0.329427 0.794824 0.870015
O O12 0.454788 0.000000 0.909385
O O13 0.500000 0.773331 0.000000
O O14 0.151845 0.500000 0.405326
O O15 0.017619 0.706757 0.322986
O O16 0.055527 0.500000 0.782895
O O17 0.157949 0.278148 0.801533
O O18 0.694425 0.500000 0.794788
#
# Coordination Sequence:
#
# PCOD8081091 Si02
#       7
#     8   8   8   8   8   8   8
#     4  10  18  29  49  76 101 134 182 232 276 316
#     4  11  21  33  55  84 110 139 179 222 261 311
#     4  10  19  34  53  75 105 142 182 226 272 320
#     4   9  19  39  64  86 110 141 174 212 263 318
#     4   9  19  32  47  71 105 141 178 225 276 320
#     4  11  21  35  54  77 109 146 181 219 268 322
#     4   9  20  36  55  79 108 139 175 219 265 317
#
# _framework density 18.441195
#
# number of rings (size 3 to 8) (size 9 to 14) (size 15 to 20)
#    0.000    2.143    1.429    3.429    0.000    4.286 
#    0.000    1.429    0.000    4.286    0.000    0.000 
#    0.000    0.000    0.000    0.000    0.000    0.000 
#
# Total GULP energy -347239.175924 kJ/mol
# GULP energy per Si atom -12401.399140 kJ/mol
# Density = 1.839922 g / cm^3
# Si number density = 18.441195 Si / 1000 Ang^3
#
#
#
# Elastic Constant Matrix: (Units=GPa)
#
#
# Indices 1 2 3 4 5 6 
#
# 1 95.2158 48.2588 40.3175 0.0000 -10.4482 0.0000
# 2 48.2588 99.5761 40.4437 0.0000 -12.9168 0.0000
# 3 40.3175 40.4437 102.4216 0.0000 -17.3937 0.0000
# 4 0.0000 0.0000 0.0000 26.7979 0.0000 -5.5265
# 5 -10.4482 -12.9168 -17.3937 0.0000 21.3133 0.0000
# 6 0.0000 0.0000 0.0000 -5.5265 0.0000 32.1531
#
#
#
# Elastic Compliance Matrix: (Units=1/GPa)
#
#
# Indices 1 2 3 4 5 6 
#
# 1 0.014982 -0.005719 -0.003460 0.000000 0.001055 0.000000
# 2 -0.005719 0.014436 -0.002832 0.000000 0.003634 0.000000
# 3 -0.003460 -0.002832 0.013541 0.000000 0.007638 0.000000
# 4 0.000000 0.000000 0.000000 0.038688 0.000000 0.006650
# 5 0.001055 0.003634 0.007638 0.000000 0.055872 0.000000
# 6 0.000000 0.000000 0.000000 0.006650 0.000000 0.032244
#
#
# Mechanical properties :
#
#
# Convention : Reuss Voigt Hill
#
# Bulk Modulus (GPa) = 52.80704 61.69485 57.25095
# Shear Modulus (GPa) = 24.98797 27.26577 26.12687
#
# Velocity S-wave (km/s) = 3.68504 3.84933 3.76808
# Velocity P-wave (km/s) = 6.84131 7.29959 7.07416
#
# Compressibility (1/GPa) = 0.01893687
#
# Stress axis : x y z
#
# Youngs Moduli (GPa) = 66.74786 69.27263 73.84921
#
# Poissons Ratio (x) = 0.39614 0.25553
# Poissons Ratio (y) = 0.38170 0.20915
# Poissons Ratio (z) = 0.23096 0.19618
#
# Static dielectric constant tensor:
#      x y z
#    x 3.145090 0.000000 -0.246820 
#    y 0.000000 3.397530 0.000000 
#    z -0.246820 0.000000 3.531610 
# 
# 
# High freq. dielectric constant tensor:
#      x y z
#    x 1.693520 0.000000 -0.020970 
#    y 0.000000 1.721130 0.000000 
#    z -0.020970 0.000000 1.709890 
# 
# From -- ./inp_files/342570.got.cif
#   From: 2010.06.25/outbox.cif.g09.slc.cpg/sg12_172_cif.got.tgz:342570.got - 2010.06.28 00:19:55.
