data_PCOD8081087
_publ_section_title
;
Structure prediction by ZEFSAII (Michael W. Deem and Ramdas Pophale) SiO2 
 PCOD8081087
Probable space group: C 2/M
;
_chemical_formula_sum "Si O2"
_cell_formula_units_Z 28
_cell_length_a 11.757284
_cell_length_b 18.588611
_cell_length_c 15.796342
_cell_angle_alpha 90.000000
_cell_angle_beta 28.397684
_cell_angle_gamma 90.000000
_cell_volume 1641.882065
_symmetry_space_group_name_H-M "C 2/M"
_symmetry_group_IT_number 12
_symmetry_cell_setting 'monoclinic'
loop_
_space_group_symop_operation_xyz
x,y,z
-x,y,-z
-x,-y,-z
x,-y,z
1/2+x,1/2+y,z
1/2-x,1/2+y,-z
1/2-x,1/2-y,-z
1/2+x,1/2-y,z
loop_
_atom_site_type_symbol
_atom_site_label
_atom_site_fract_x
_atom_site_fract_y
_atom_site_fract_z
Si Si1 0.206257 0.166551 0.544452
Si Si2 0.500000 0.199701 0.500000
Si Si3 0.219403 0.580654 0.665525
Si Si4 0.215108 0.689666 0.802913
O O1 0.250000 0.250000 0.500000
O O2 0.329935 0.148549 0.553792
O O3 0.333669 0.117496 0.390069
O O4 0.919396 0.155126 0.730409
O O5 0.671669 0.248939 0.330118
O O6 0.500000 0.580910 0.500000
O O7 0.113694 0.500000 0.734752
O O8 0.100673 0.627366 0.818320
O O9 0.000000 0.721779 0.000000
#
# Coordination Sequence:
#
# PCOD8081087 Si02
#       4
#     8   4   8   8
#     4   9  16  32  49  68  98 125 154 194 233 277
#     4  10  18  34  46  70 102 122 156 196 226 284
#     4   9  16  30  49  69  95 124 156 196 234 273
#     4  10  18  29  49  75  93 122 157 194 242 272
#
# _framework density 17.053601
#
# number of rings (size 3 to 8) (size 9 to 14) (size 15 to 20)
#    0.000    2.571    7.143    0.000    0.000    1.714 
#    0.000    0.714    0.000    0.000    0.000    2.000 
#    0.000    0.000    0.000    0.000    0.000    0.000 
#
# Total GULP energy -173456.298635 kJ/mol
# GULP energy per Si atom -12389.735617 kJ/mol
# Density = 1.701479 g / cm^3
# Si number density = 17.053601 Si / 1000 Ang^3
#
#
#
# Elastic Constant Matrix: (Units=GPa)
#
#
# Indices 1 2 3 4 5 6 
#
# 1 158.0824 33.5389 36.3263 -0.0198 10.1948 0.0045
# 2 33.5389 67.6850 19.2373 -0.0321 11.6040 0.0200
# 3 36.3263 19.2373 105.6850 0.0339 14.2814 0.0070
# 4 -0.0198 -0.0321 0.0339 4.0146 -0.0070 2.1992
# 5 10.1948 11.6040 14.2814 -0.0070 14.5373 -0.0104
# 6 0.0045 0.0200 0.0070 2.1992 -0.0104 22.8135
#
#
#
# Elastic Compliance Matrix: (Units=1/GPa)
#
#
# Indices 1 2 3 4 5 6 
#
# 1 0.007457 -0.002989 -0.001885 0.000028 -0.000992 -0.000001
# 2 -0.002989 0.018514 -0.000725 0.000137 -0.011969 -0.000034
# 3 -0.001885 -0.000725 0.011514 -0.000132 -0.009410 0.000006
# 4 0.000028 0.000137 -0.000132 0.262980 0.000109 -0.025351
# 5 -0.000992 -0.011969 -0.009410 0.000109 0.088283 0.000043
# 6 -0.000001 -0.000034 0.000006 -0.025351 0.000043 0.046278
#
#
# Mechanical properties :
#
#
# Convention : Reuss Voigt Hill
#
# Bulk Modulus (GPa) = 38.04356 56.62859 47.33608
# Shear Modulus (GPa) = 10.98935 24.42973 17.70954
#
# Velocity S-wave (km/s) = 2.54126 3.78898 3.22602
# Velocity P-wave (km/s) = 5.56483 7.24018 6.45707
#
# Compressibility (1/GPa) = 0.02628566
#
# Stress axis : x y z
#
# Youngs Moduli (GPa) = 134.09918 54.01378 86.85326
#
# Poissons Ratio (x) = 0.16147 0.16373
# Poissons Ratio (y) = 0.40087 0.06297
# Poissons Ratio (z) = 0.25279 0.03916
#
# Static dielectric constant tensor:
#      x y z
#    x 4.132700 -0.000100 0.050010 
#    y -0.000100 3.121320 0.000140 
#    z 0.050010 0.000140 2.830520 
# 
# 
# High freq. dielectric constant tensor:
#      x y z
#    x 1.665250 -0.000010 0.012640 
#    y -0.000010 1.625160 0.000020 
#    z 0.012640 0.000020 1.624190 
# 
# From -- ./inp_files/45745.got.cif
#   From: 2010.06.25/outbox.cif.g09.slc.cpg/sg12_23_cif.got.tgz:45745.got - 2010.06.28 00:19:55.
