data_PCOD8081037
_publ_section_title
;
Structure prediction by ZEFSAII (Michael W. Deem and Ramdas Pophale) SiO2 
 PCOD8081037
Probable space group: C 2/M
;
_chemical_formula_sum "Si O2"
_cell_formula_units_Z 64
_cell_length_a 20.569601
_cell_length_b 8.948452
_cell_length_c 25.144677
_cell_angle_alpha 90.000000
_cell_angle_beta 49.738302
_cell_angle_gamma 90.000000
_cell_volume 3531.844709
_symmetry_space_group_name_H-M "C 2/M"
_symmetry_group_IT_number 12
_symmetry_cell_setting 'monoclinic'
loop_
_space_group_symop_operation_xyz
x,y,z
-x,y,-z
-x,-y,-z
x,-y,z
1/2+x,1/2+y,z
1/2-x,1/2+y,-z
1/2-x,1/2-y,-z
1/2+x,1/2-y,z
loop_
_atom_site_type_symbol
_atom_site_label
_atom_site_fract_x
_atom_site_fract_y
_atom_site_fract_z
Si Si1 0.820387 0.822578 0.000000
Si Si2 0.327569 0.827863 0.641747
Si Si3 0.917916 0.831286 0.506309
Si Si4 0.930071 0.176639 0.764791
Si Si5 0.485458 0.676421 0.849960
Si Si6 0.233366 0.323769 0.865075
Si Si7 0.666542 0.674851 0.795868
Si Si8 0.983792 0.675748 0.632128
O O1 0.814311 0.761645 0.062596
O O2 0.808587 0.000000 0.005211
O O3 0.750000 0.750000 0.000000
O O4 0.912600 0.773208 0.929473
O O5 0.338799 0.736943 0.580980
O O6 0.233651 0.796696 0.713287
O O7 0.395674 0.776504 0.650193
O O8 0.343003 0.000000 0.619685
O O9 0.000000 0.820756 0.500000
O O10 0.935549 0.738734 0.443310
O O11 0.895659 0.000000 0.502169
O O12 0.965664 0.239879 0.801751
O O13 0.831733 0.224434 0.812314
O O14 0.984977 0.253504 0.689808
O O15 0.940421 0.000000 0.753938
O O16 0.487433 0.500000 0.844335
O O17 0.576068 0.734841 0.822825
O O18 0.223247 0.500000 0.878864
O O19 0.189691 0.274189 0.833922
O O20 0.664925 0.500000 0.812821
O O21 0.993393 0.500000 0.632032
#
# Coordination Sequence:
#
# PCOD8081037 Si02
#       8
#     8   8   8   8   8   8   8   8
#     4  11  21  37  59  83 109 142 183 226 274 323
#     4   9  17  29  48  75 105 136 172 218 267 313
#     4   9  17  28  45  72 105 142 175 209 262 319
#     4  10  19  34  54  77 106 141 181 220 265 320
#     4   9  20  38  58  79 106 143 183 221 268 329
#     4  11  22  36  56  82 111 143 180 225 272 320
#     4  10  20  37  58  80 108 144 184 221 267 326
#     4  10  18  29  48  78 108 134 173 224 269 309
#
# _framework density 18.120842
#
# number of rings (size 3 to 8) (size 9 to 14) (size 15 to 20)
#    0.000    2.125    2.500    1.500    0.000    3.500 
#    0.000    4.375    0.000    0.750    0.000    0.000 
#    0.000    0.000    0.000    0.000    0.000    0.000 
#
# Total GULP energy -396864.833277 kJ/mol
# GULP energy per Si atom -12402.026040 kJ/mol
# Density = 1.807960 g / cm^3
# Si number density = 18.120842 Si / 1000 Ang^3
#
#
#
# Elastic Constant Matrix: (Units=GPa)
#
#
# Indices 1 2 3 4 5 6 
#
# 1 101.1541 29.4135 52.6516 0.0000 0.5019 0.0003
# 2 29.4135 63.0854 49.4590 0.0000 5.0340 0.0006
# 3 52.6516 49.4590 142.4938 0.0001 10.1939 0.0003
# 4 0.0000 0.0000 0.0001 35.9534 0.0000 6.0963
# 5 0.5019 5.0340 10.1939 0.0000 25.7411 0.0000
# 6 0.0003 0.0006 0.0003 6.0963 0.0000 20.8225
#
#
#
# Elastic Compliance Matrix: (Units=1/GPa)
#
#
# Indices 1 2 3 4 5 6 
#
# 1 0.012744 -0.003152 -0.003747 0.000000 0.001852 0.000000
# 2 -0.003152 0.022600 -0.006554 0.000000 -0.001763 -0.000001
# 3 -0.003747 -0.006554 0.010889 0.000000 -0.002957 0.000000
# 4 0.000000 0.000000 0.000000 0.029267 0.000000 -0.008569
# 5 0.001852 -0.001763 -0.002957 0.000000 0.040328 0.000000
# 6 0.000000 -0.000001 0.000000 -0.008569 0.000000 0.050534
#
#
# Mechanical properties :
#
#
# Convention : Reuss Voigt Hill
#
# Bulk Modulus (GPa) = 51.74103 63.30904 57.52504
# Shear Modulus (GPa) = 25.03652 28.18401 26.61026
#
# Velocity S-wave (km/s) = 3.72108 3.94805 3.83624
# Velocity P-wave (km/s) = 6.86128 7.46966 7.17193
#
# Compressibility (1/GPa) = 0.01932702
#
# Stress axis : x y z
#
# Youngs Moduli (GPa) = 78.47029 44.24844 91.83726
#
# Poissons Ratio (x) = 0.13945 0.34415
# Poissons Ratio (y) = 0.24730 0.60187
# Poissons Ratio (z) = 0.29406 0.28999
#
# Static dielectric constant tensor:
#      x y z
#    x 3.216450 0.000000 0.014200 
#    y 0.000000 3.267950 0.000000 
#    z 0.014200 0.000000 3.586810 
# 
# 
# High freq. dielectric constant tensor:
#      x y z
#    x 1.669690 0.000000 0.006770 
#    y 0.000000 1.695340 0.000000 
#    z 0.006770 0.000000 1.719020 
# 
# From -- ./inp_files/345945.got.cif
#   From: 2010.06.25/outbox.cif.g09.slc.cpg/sg12_173_cif.got.tgz:345945.got - 2010.06.28 00:19:55.
