data_PCOD8081708
_publ_section_title
;
Structure prediction by ZEFSAII (Michael W. Deem and Ramdas Pophale) SiO2 
 PCOD8081708
Probable space group: C 2/M
;
_chemical_formula_sum "Si O2"
_cell_formula_units_Z 56
_cell_length_a 19.195776
_cell_length_b 9.271436
_cell_length_c 31.294166
_cell_angle_alpha 90.000000
_cell_angle_beta 145.231967
_cell_angle_gamma 90.000000
_cell_volume 3176.036008
_symmetry_space_group_name_H-M "C 2/M"
_symmetry_group_IT_number 12
_symmetry_cell_setting 'monoclinic'
loop_
_space_group_symop_operation_xyz
x,y,z
-x,y,-z
-x,-y,-z
x,-y,z
1/2+x,1/2+y,z
1/2-x,1/2+y,-z
1/2-x,1/2-y,-z
1/2+x,1/2-y,z
loop_
_atom_site_type_symbol
_atom_site_label
_atom_site_fract_x
_atom_site_fract_y
_atom_site_fract_z
Si Si1 0.150911 0.664285 0.424000
Si Si2 0.148182 0.832537 0.799171
Si Si3 0.249996 0.164743 0.937656
Si Si4 0.089880 0.334593 0.299906
Si Si5 0.694286 0.832717 0.261400
Si Si6 0.436250 0.832243 0.099812
Si Si7 0.372328 0.170539 0.294921
O O1 0.170472 0.500000 0.446540
O O2 0.250000 0.750000 0.500000
O O3 0.170398 0.689674 0.383140
O O4 0.014637 0.713340 0.368479
O O5 0.253935 0.812485 0.888452
O O6 0.187410 0.743171 0.777231
O O7 0.023403 0.773773 0.756899
O O8 0.131706 0.000000 0.778554
O O9 0.143136 0.259339 0.903592
O O10 0.217347 0.000000 0.932233
O O11 0.381353 0.204465 0.025125
O O12 0.040641 0.500000 0.274403
O O13 0.173354 0.302753 0.300986
O O14 0.576462 0.782014 0.174344
O O15 0.807819 0.734929 0.304260
O O16 0.725065 0.000000 0.268589
O O17 0.431266 0.000000 0.108021
O O18 0.353222 0.000000 0.282692
#
# Coordination Sequence:
#
# PCOD8081708 Si02
#       7
#     8   8   8   8   8   8   8
#     4   9  19  36  57  79 102 129 163 203 248 299
#     4  10  18  30  50  75 101 133 176 217 253 300
#     4   9  17  28  45  73 102 130 172 218 256 296
#     4   9  18  33  53  78 105 134 169 208 248 297
#     4  10  19  33  53  76 103 137 174 209 253 302
#     4   9  17  29  47  71 101 136 170 211 258 299
#     4  10  22  37  53  74 104 136 168 209 255 302
#
# _framework density 17.632042999999999
#
# number of rings (size 3 to 8) (size 9 to 14) (size 15 to 20)
#    0.000    2.571    1.429    1.714    0.000    4.571 
#    0.000    1.429    0.000    8.571    0.000    0.000 
#    0.000    0.000    0.000    0.000    0.000    0.000 
#
# Total GULP energy -347105.561455 kJ/mol
# GULP energy per Si atom -12396.627195 kJ/mol
# Density = 1.759191 g / cm^3
# Si number density = 17.632043 Si / 1000 Ang^3
#
#
#
# Elastic Constant Matrix: (Units=GPa)
#
#
# Indices 1 2 3 4 5 6 
#
# 1 108.0280 44.4456 48.7702 0.0000 -4.4483 0.0000
# 2 44.4456 65.0331 38.7001 0.0000 -0.6077 0.0000
# 3 48.7702 38.7001 100.9632 0.0000 -8.6800 0.0000
# 4 0.0000 0.0000 0.0000 25.5648 0.0000 -0.7619
# 5 -4.4483 -0.6077 -8.6800 0.0000 18.9268 0.0000
# 6 0.0000 0.0000 0.0000 -0.7619 0.0000 31.4671
#
#
#
# Elastic Compliance Matrix: (Units=1/GPa)
#
#
# Indices 1 2 3 4 5 6 
#
# 1 0.014063 -0.007284 -0.003890 0.000000 0.001287 0.000000
# 2 -0.007284 0.023856 -0.005941 0.000000 -0.003671 0.000000
# 3 -0.003890 -0.005941 0.014540 0.000000 0.005563 0.000000
# 4 0.000000 0.000000 0.000000 0.039145 0.000000 0.000948
# 5 0.001287 -0.003671 0.005563 0.000000 0.055571 0.000000
# 6 0.000000 0.000000 0.000000 0.000948 0.000000 0.031802
#
#
# Mechanical properties :
#
#
# Convention : Reuss Voigt Hill
#
# Bulk Modulus (GPa) = 54.86318 59.76179 57.31248
# Shear Modulus (GPa) = 22.80149 24.66562 23.73355
#
# Velocity S-wave (km/s) = 3.59999 3.74426 3.67283
# Velocity P-wave (km/s) = 6.96154 7.25672 7.11066
#
# Compressibility (1/GPa) = 0.01822716
#
# Stress axis : x y z
#
# Youngs Moduli (GPa) = 71.10825 41.91788 68.77811
#
# Poissons Ratio (x) = 0.30533 0.26758
# Poissons Ratio (y) = 0.51795 0.40863
# Poissons Ratio (z) = 0.27665 0.24905
#
# Static dielectric constant tensor:
#      x y z
#    x 3.153100 0.000000 -0.190730 
#    y 0.000000 3.303110 0.000000 
#    z -0.190730 0.000000 3.326820 
# 
# 
# High freq. dielectric constant tensor:
#      x y z
#    x 1.662760 0.000000 -0.018830 
#    y 0.000000 1.684940 0.000000 
#    z -0.018830 0.000000 1.675450 
# 
# From -- ./inp_files/314458.got.cif
#   From: 2010.06.25/outbox.cif.g09.slc.cpg/sg12_158_cif.got.tgz:314458.got - 2010.06.28 00:19:55.
