data_PCOD8081245
_publ_section_title
;
Structure prediction by ZEFSAII (Michael W. Deem and Ramdas Pophale) SiO2 
 PCOD8081245
Probable space group: C 2/M
;
_chemical_formula_sum "Si O2"
_cell_formula_units_Z 56
_cell_length_a 28.939563
_cell_length_b 8.857819
_cell_length_c 28.800140
_cell_angle_alpha 90.000000
_cell_angle_beta 28.023024
_cell_angle_gamma 90.000000
_cell_volume 3468.572078
_symmetry_space_group_name_H-M "C 2/M"
_symmetry_group_IT_number 12
_symmetry_cell_setting 'monoclinic'
loop_
_space_group_symop_operation_xyz
x,y,z
-x,y,-z
-x,-y,-z
x,-y,z
1/2+x,1/2+y,z
1/2-x,1/2+y,-z
1/2-x,1/2-y,-z
1/2+x,1/2-y,z
loop_
_atom_site_type_symbol
_atom_site_label
_atom_site_fract_x
_atom_site_fract_y
_atom_site_fract_z
Si Si1 0.200836 0.670173 0.262309
Si Si2 0.148903 0.677073 0.746069
Si Si3 0.593347 0.320360 0.887300
Si Si4 0.116988 0.676614 0.586999
Si Si5 0.165342 0.175696 0.637237
Si Si6 0.481794 0.179428 0.625127
Si Si7 0.651370 0.171674 0.408835
O O1 0.222863 0.500000 0.227180
O O2 0.308100 0.746752 0.174680
O O3 0.128528 0.746076 0.287450
O O4 0.137679 0.674424 0.365735
O O5 0.131927 0.500000 0.762284
O O6 0.082676 0.751470 0.845375
O O7 0.117489 0.739909 0.723617
O O8 0.261911 0.717473 0.653630
O O9 0.602051 0.500000 0.874129
O O10 0.500000 0.270176 0.000000
O O11 0.111822 0.500000 0.603232
O O12 0.108530 0.768893 0.641869
O O13 0.218552 0.713622 0.470077
O O14 0.025674 0.730509 0.635791
O O15 0.146403 0.000000 0.660172
O O16 0.553862 0.233340 0.520058
O O17 0.474881 0.000000 0.629365
O O18 0.676986 0.000000 0.402823
#
# Coordination Sequence:
#
# PCOD8081245 Si02
#       7
#     8   8   8   8   8   8   8
#     4   8  14  23  42  67  88 113 148 184 217 259
#     4  11  20  29  45  67  91 119 151 186 226 266
#     4   9  18  33  51  70  91 115 147 186 226 269
#     4   9  17  27  41  62  89 120 154 188 219 254
#     4  10  18  30  44  61  87 120 156 188 220 260
#     4   9  14  23  40  64  90 118 151 184 215 253
#     4   9  15  26  41  61  88 120 154 182 211 253
#
# _framework density 16.144973
#
# number of rings (size 3 to 8) (size 9 to 14) (size 15 to 20)
#    0.000    2.714    1.429    3.000    0.000    2.571 
#    0.000    0.000    0.000   10.286    0.000    1.000 
#    0.000    0.000    0.000    0.000    0.000    0.000 
#
# Total GULP energy -346972.504023 kJ/mol
# GULP energy per Si atom -12391.875144 kJ/mol
# Density = 1.610823 g / cm^3
# Si number density = 16.144973 Si / 1000 Ang^3
#
#
#
# Elastic Constant Matrix: (Units=GPa)
#
#
# Indices 1 2 3 4 5 6 
#
# 1 117.4394 32.6420 59.0406 -0.0012 2.8695 0.0012
# 2 32.6420 46.4730 26.7685 -0.0032 7.3718 0.0092
# 3 59.0406 26.7685 89.9181 -0.0019 6.8736 0.0105
# 4 -0.0012 -0.0032 -0.0019 11.6772 0.0001 4.2815
# 5 2.8695 7.3718 6.8736 0.0001 18.3570 -0.0059
# 6 0.0012 0.0092 0.0105 4.2815 -0.0059 20.3396
#
#
#
# Elastic Compliance Matrix: (Units=1/GPa)
#
#
# Indices 1 2 3 4 5 6 
#
# 1 0.013896 -0.005856 -0.007612 -0.000004 0.003030 0.000008
# 2 -0.005856 0.029558 -0.004238 0.000013 -0.009368 -0.000016
# 3 -0.007612 -0.004238 0.017666 0.000004 -0.003723 -0.000009
# 4 -0.000004 0.000013 0.000004 0.092799 -0.000013 -0.019534
# 5 0.003030 -0.009368 -0.003723 -0.000013 0.059158 0.000026
# 6 0.000008 -0.000016 -0.000009 -0.019534 0.000026 0.053277
#
#
# Mechanical properties :
#
#
# Convention : Reuss Voigt Hill
#
# Bulk Modulus (GPa) = 38.90050 54.52586 46.71318
# Shear Modulus (GPa) = 16.11164 19.10007 17.60585
#
# Velocity S-wave (km/s) = 3.16244 3.44326 3.30583
# Velocity P-wave (km/s) = 6.12221 7.04656 6.60059
#
# Compressibility (1/GPa) = 0.02570661
#
# Stress axis : x y z
#
# Youngs Moduli (GPa) = 71.96551 33.83148 56.60688
#
# Poissons Ratio (x) = 0.19812 0.43090
# Poissons Ratio (y) = 0.42144 0.23991
# Poissons Ratio (z) = 0.54781 0.14339
#
# Static dielectric constant tensor:
#      x y z
#    x 3.279770 -0.000010 -0.030830 
#    y -0.000010 2.757660 0.000020 
#    z -0.030830 0.000020 2.870000 
# 
# 
# High freq. dielectric constant tensor:
#      x y z
#    x 1.626110 0.000000 0.003690 
#    y 0.000000 1.590880 0.000000 
#    z 0.003690 0.000000 1.578940 
# 
# From -- ./inp_files/248593.got.cif
#   From: 2010.06.25/outbox.cif.g09.slc.cpg/sg12_125_cif.got.tgz:248593.got - 2010.06.28 00:19:55.
