data_PCOD8081482
_publ_section_title
;
Structure prediction by ZEFSAII (Michael W. Deem and Ramdas Pophale) SiO2 
 PCOD8081482
Probable space group: C 2/M
;
_chemical_formula_sum "Si O2"
_cell_formula_units_Z 48
_cell_length_a 18.577914
_cell_length_b 16.882310
_cell_length_c 9.883974
_cell_angle_alpha 90.000000
_cell_angle_beta 56.943571
_cell_angle_gamma 90.000000
_cell_volume 2598.206999
_symmetry_space_group_name_H-M "C 2/M"
_symmetry_group_IT_number 12
_symmetry_cell_setting 'monoclinic'
loop_
_space_group_symop_operation_xyz
x,y,z
-x,y,-z
-x,-y,-z
x,-y,z
1/2+x,1/2+y,z
1/2-x,1/2+y,-z
1/2-x,1/2-y,-z
1/2+x,1/2-y,z
loop_
_atom_site_type_symbol
_atom_site_label
_atom_site_fract_x
_atom_site_fract_y
_atom_site_fract_z
Si Si1 0.401156 0.406784 0.465063
Si Si2 0.088597 0.335779 0.255627
Si Si3 0.912020 0.848978 0.747861
Si Si4 0.736966 0.592733 0.910995
Si Si5 0.079207 0.591963 0.558438
Si Si6 0.733161 0.591832 0.610876
O O1 0.388542 0.500000 0.500785
O O2 0.382220 0.363005 0.625004
O O3 0.496898 0.389649 0.315421
O O4 0.334264 0.369852 0.424890
O O5 0.081745 0.243662 0.231494
O O6 0.179211 0.367515 0.104842
O O7 0.084972 0.355820 0.417537
O O8 0.004673 0.378027 0.272040
O O9 0.845834 0.889035 0.916741
O O10 0.755458 0.500000 0.885392
O O11 0.722842 0.626871 0.773223
O O12 0.069068 0.500000 0.529513
O O13 0.169296 0.605146 0.545051
O O14 0.709926 0.500000 0.642223
#
# Coordination Sequence:
#
# PCOD8081482 Si02
#       6
#     8   8   8   8   8   8
#     4  10  19  34  51  71  97 132 168 199 234 287
#     4  10  18  30  48  74 103 127 156 202 246 287
#     4  11  21  32  48  73 102 132 161 196 243 293
#     4  10  19  34  53  74  95 126 165 203 242 288
#     4   9  15  29  52  76  97 127 164 201 239 285
#     4   8  17  31  52  76  96 120 164 209 239 274
#
# _framework density 18.474278000000002
#
# number of rings (size 3 to 8) (size 9 to 14) (size 15 to 20)
#    0.000    2.333    0.000    7.500    0.000    0.667 
#    0.000   10.000    0.000    3.000    0.000    4.667 
#    0.000    0.000    0.000    0.333    0.000    0.000 
#
# Total GULP energy -297444.842152 kJ/mol
# GULP energy per Si atom -12393.535090 kJ/mol
# Density = 1.843223 g / cm^3
# Si number density = 18.474278 Si / 1000 Ang^3
#
#
#
# Elastic Constant Matrix: (Units=GPa)
#
#
# Indices 1 2 3 4 5 6 
#
# 1 119.9240 9.3226 73.5583 0.0000 -27.4463 0.0000
# 2 9.3226 51.1418 11.3335 0.0000 -4.1745 0.0000
# 3 73.5583 11.3335 85.3763 0.0000 -17.6220 0.0000
# 4 0.0000 0.0000 0.0000 -2.1527 0.0000 3.4139
# 5 -27.4463 -4.1745 -17.6220 0.0000 16.8481 0.0000
# 6 0.0000 0.0000 0.0000 3.4139 0.0000 0.1237
#
#
#
# Elastic Compliance Matrix: (Units=1/GPa)
#
#
# Indices 1 2 3 4 5 6 
#
# 1 0.022188 0.000964 -0.014965 0.000000 0.020731 0.000000
# 2 0.000964 0.020292 -0.002758 0.000000 0.003714 0.000000
# 3 -0.014965 -0.002758 0.025251 0.000000 0.001348 0.000000
# 4 0.000000 0.000000 0.000000 -0.010375 0.000000 0.286375
# 5 0.020731 0.003714 0.001348 0.000000 0.095455 0.000000
# 6 0.000000 0.000000 0.000000 0.286375 0.000000 0.180580
#
#
# Mechanical properties :
#
#
# Convention : Reuss Voigt Hill
#
# Bulk Modulus (GPa) = 29.22910 49.43009 39.32960
# Shear Modulus (GPa) = 13.21655 13.77899 13.49777
#
# Velocity S-wave (km/s) = 2.67760 2.73398 2.70594
# Velocity P-wave (km/s) = 5.04136 6.06469 5.57655
#
# Compressibility (1/GPa) = 0.03421248
#
# Stress axis : x y z
#
# Youngs Moduli (GPa) = 45.07028 49.28040 39.60218
#
# Poissons Ratio (x) = -0.04751 0.59266
# Poissons Ratio (y) = -0.04345 0.10921
# Poissons Ratio (z) = 0.67450 0.13590
#
# Static dielectric constant tensor:
#      x y z
#    x 3.790360 0.000000 -0.452640 
#    y 0.000000 3.277530 0.000000 
#    z -0.452640 0.000000 3.396880 
# 
# 
# High freq. dielectric constant tensor:
#      x y z
#    x 1.711520 0.000000 -0.037850 
#    y 0.000000 1.711320 0.000000 
#    z -0.037850 0.000000 1.696030 
# 
# From -- ./inp_files/157672.got.cif
#   From: 2010.06.25/outbox.cif.g09.slc.cpg/sg12_79_cif.got.tgz:157672.got - 2010.06.28 00:19:55.
