data_PCOD8081531
_publ_section_title
;
Structure prediction by ZEFSAII (Michael W. Deem and Ramdas Pophale) SiO2 
 PCOD8081531
Probable space group: C 2/M
;
_chemical_formula_sum "Si O2"
_cell_formula_units_Z 64
_cell_length_a 19.274167
_cell_length_b 8.990192
_cell_length_c 21.998724
_cell_angle_alpha 90.000000
_cell_angle_beta 70.770556
_cell_angle_gamma 90.000000
_cell_volume 3599.228366
_symmetry_space_group_name_H-M "C 2/M"
_symmetry_group_IT_number 12
_symmetry_cell_setting 'monoclinic'
loop_
_space_group_symop_operation_xyz
x,y,z
-x,y,-z
-x,-y,-z
x,-y,z
1/2+x,1/2+y,z
1/2-x,1/2+y,-z
1/2-x,1/2-y,-z
1/2+x,1/2-y,z
loop_
_atom_site_type_symbol
_atom_site_label
_atom_site_fract_x
_atom_site_fract_y
_atom_site_fract_z
Si Si1 0.401154 0.822851 0.651834
Si Si2 0.931466 0.322597 0.382204
Si Si3 0.173818 0.826875 0.217881
Si Si4 0.913353 0.662811 0.517868
Si Si5 0.340860 0.827163 0.173561
Si Si6 0.897351 0.170975 0.273133
Si Si7 0.448939 0.669393 0.832750
Si Si8 0.028077 0.822805 0.926272
O O1 0.483098 0.776562 0.648598
O O2 0.341795 0.754157 0.714184
O O3 0.383961 0.758198 0.588245
O O4 0.393722 0.000000 0.653428
O O5 0.923037 0.500000 0.380691
O O6 0.898826 0.259923 0.456326
O O7 0.884940 0.245327 0.342336
O O8 0.257878 0.802544 0.174549
O O9 0.122208 0.756864 0.179153
O O10 0.154972 0.000000 0.232598
O O11 0.876926 0.500000 0.525252
O O12 0.000000 0.643908 0.500000
O O13 0.348256 0.755114 0.237817
O O14 0.392665 0.748930 0.108933
O O15 0.361386 0.000000 0.172253
O O16 0.982615 0.187260 0.231848
O O17 0.872410 0.000000 0.282308
O O18 0.428854 0.500000 0.851299
O O19 0.470184 0.739058 0.892398
O O20 0.037233 0.000000 0.918245
O O21 0.000000 0.772051 0.000000
#
# Coordination Sequence:
#
# PCOD8081531 Si02
#       8
#     8   8   8   8   8   8   8   8
#     4   9  16  26  44  69  96 128 164 202 243 290
#     4   9  15  25  44  69  96 125 162 205 248 295
#     4  10  19  32  48  69 100 133 162 200 249 290
#     4   7  12  23  38  61  94 127 157 196 248 296
#     4  10  21  34  50  72 100 131 163 200 242 289
#     4  10  18  30  49  70  96 128 163 207 251 291
#     4   8  15  29  49  71  95 126 159 191 233 284
#     4   9  18  35  58  79 100 129 162 196 235 282
#
# _framework density 17.781590000000001
#
# number of rings (size 3 to 8) (size 9 to 14) (size 15 to 20)
#    0.000    3.000    1.250    3.000    0.000    1.250 
#    0.000    1.250    0.000    3.000    0.000    0.000 
#    0.000    0.000    0.000    0.000    0.000    0.000 
#
# Total GULP energy -396472.814950 kJ/mol
# GULP energy per Si atom -12389.775467 kJ/mol
# Density = 1.774112 g / cm^3
# Si number density = 17.781590 Si / 1000 Ang^3
#
#
#
# Elastic Constant Matrix: (Units=GPa)
#
#
# Indices 1 2 3 4 5 6 
#
# 1 79.2770 24.0048 44.5730 0.0000 5.9689 0.0000
# 2 24.0048 42.7151 30.7208 0.0000 3.4253 0.0001
# 3 44.5730 30.7208 131.6664 0.0000 18.6626 0.0000
# 4 0.0000 0.0000 0.0000 23.3080 0.0000 0.5586
# 5 5.9689 3.4253 18.6626 0.0000 21.3446 0.0000
# 6 0.0000 0.0001 0.0000 0.5586 0.0000 18.3421
#
#
#
# Elastic Compliance Matrix: (Units=1/GPa)
#
#
# Indices 1 2 3 4 5 6 
#
# 1 0.016955 -0.006489 -0.004225 0.000000 -0.000006 0.000000
# 2 -0.006489 0.030652 -0.005154 0.000000 0.001402 0.000000
# 3 -0.004225 -0.005154 0.011350 0.000000 -0.007915 0.000000
# 4 0.000000 0.000000 0.000000 0.042935 0.000000 -0.001308
# 5 -0.000006 0.001402 -0.007915 0.000000 0.053547 0.000000
# 6 0.000000 0.000000 0.000000 -0.001308 0.000000 0.054559
#
#
# Mechanical properties :
#
#
# Convention : Reuss Voigt Hill
#
# Bulk Modulus (GPa) = 36.73667 50.25062 43.49364
# Shear Modulus (GPa) = 19.93570 22.88961 21.41266
#
# Velocity S-wave (km/s) = 3.35198 3.59174 3.47393
# Velocity P-wave (km/s) = 5.97376 6.74700 6.37212
#
# Compressibility (1/GPa) = 0.02722076
#
# Stress axis : x y z
#
# Youngs Moduli (GPa) = 58.98071 32.62452 88.10956
#
# Poissons Ratio (x) = 0.21171 0.37224
# Poissons Ratio (y) = 0.38274 0.45409
# Poissons Ratio (z) = 0.24918 0.16814
#
# Static dielectric constant tensor:
#      x y z
#    x 3.185030 0.000000 0.292370 
#    y 0.000000 3.020560 0.000000 
#    z 0.292370 0.000000 3.411040 
# 
# 
# High freq. dielectric constant tensor:
#      x y z
#    x 1.665560 0.000000 0.021450 
#    y 0.000000 1.659430 0.000000 
#    z 0.021450 0.000000 1.685580 
# 
# From -- ./inp_files/319867.got.cif
#   From: 2010.06.25/outbox.cif.g09.slc.cpg/sg12_160_cif.got.tgz:319867.got - 2010.06.28 00:19:55.
