data_PCOD8081624
_publ_section_title
;
Structure prediction by ZEFSAII (Michael W. Deem and Ramdas Pophale) SiO2 
 PCOD8081624
Probable space group: C 2/M
;
_chemical_formula_sum "Si O2"
_cell_formula_units_Z 48
_cell_length_a 15.001821
_cell_length_b 12.238264
_cell_length_c 23.364347
_cell_angle_alpha 90.000000
_cell_angle_beta 36.359922
_cell_angle_gamma 90.000000
_cell_volume 2543.117705
_symmetry_space_group_name_H-M "C 2/M"
_symmetry_group_IT_number 12
_symmetry_cell_setting 'monoclinic'
loop_
_space_group_symop_operation_xyz
x,y,z
-x,y,-z
-x,-y,-z
x,-y,z
1/2+x,1/2+y,z
1/2-x,1/2+y,-z
1/2-x,1/2-y,-z
1/2+x,1/2-y,z
loop_
_atom_site_type_symbol
_atom_site_label
_atom_site_fract_x
_atom_site_fract_y
_atom_site_fract_z
Si Si1 0.138024 0.271659 0.895277
Si Si2 0.288309 0.875580 0.908197
Si Si3 0.070846 0.239763 0.736885
Si Si4 0.364121 0.374081 0.613430
Si Si5 0.570346 0.625036 0.291736
Si Si6 0.502876 0.378575 0.121781
O O1 0.196178 0.171304 0.902765
O O2 0.261988 0.364217 0.820582
O O3 0.089299 0.217259 0.861217
O O4 0.000000 0.329374 0.000000
O O5 0.448938 0.818413 0.830192
O O6 0.324104 0.000000 0.876315
O O7 0.183601 0.861701 0.019180
O O8 0.232573 0.295555 0.658730
O O9 0.039865 0.207040 0.686534
O O10 0.048498 0.128984 0.785337
O O11 0.500000 0.359081 0.500000
O O12 0.307694 0.500000 0.644241
O O13 0.424932 0.338280 0.644443
O O14 0.515851 0.500000 0.314136
O O15 0.460292 0.500000 0.121524
#
# Coordination Sequence:
#
# PCOD8081624 Si02
#       6
#     8   8   8   8   8   8
#     4   9  17  31  51  77 109 149 187 221 262 322
#     4   9  18  30  48  76 110 146 188 226 259 316
#     4  11  20  34  57  80 111 145 184 225 280 327
#     4  10  22  41  63  83 106 142 187 231 278 329
#     4  10  21  37  56  83 114 144 180 228 280 327
#     4  10  18  30  49  76 111 151 185 220 268 320
#
# _framework density 18.874471
#
# number of rings (size 3 to 8) (size 9 to 14) (size 15 to 20)
#    0.000    2.167    1.667    2.000    0.000    3.000 
#    0.000    0.000    0.000    2.000    0.000    0.000 
#    0.000    0.000    0.000    0.000    0.000    0.000 
#
# Total GULP energy -297460.290319 kJ/mol
# GULP energy per Si atom -12394.178763 kJ/mol
# Density = 1.883151 g / cm^3
# Si number density = 18.874471 Si / 1000 Ang^3
#
#
#
# Elastic Constant Matrix: (Units=GPa)
#
#
# Indices 1 2 3 4 5 6 
#
# 1 104.8787 35.6294 51.2388 -0.0001 8.4438 0.0000
# 2 35.6294 66.6468 32.2059 -0.0001 -1.8376 0.0000
# 3 51.2388 32.2059 91.0541 -0.0008 8.2602 0.0003
# 4 -0.0001 -0.0001 -0.0008 19.3761 0.0003 0.3354
# 5 8.4438 -1.8376 8.2602 0.0003 25.8450 -0.0001
# 6 0.0000 0.0000 0.0003 0.3354 -0.0001 22.5723
#
#
#
# Elastic Compliance Matrix: (Units=1/GPa)
#
#
# Indices 1 2 3 4 5 6 
#
# 1 0.014418 -0.004835 -0.006122 0.000000 -0.003097 0.000000
# 2 -0.004835 0.020019 -0.004771 0.000000 0.004528 0.000000
# 3 -0.006122 -0.004771 0.016441 0.000001 -0.003594 0.000000
# 4 0.000000 0.000000 0.000001 0.051623 -0.000001 -0.000767
# 5 -0.003097 0.004528 -0.003594 -0.000001 0.041175 0.000000
# 6 0.000000 0.000000 0.000000 -0.000767 0.000000 0.044314
#
#
# Mechanical properties :
#
#
# Convention : Reuss Voigt Hill
#
# Bulk Modulus (GPa) = 51.48679 55.63639 53.56159
# Shear Modulus (GPa) = 22.13176 23.12571 22.62874
#
# Velocity S-wave (km/s) = 3.42801 3.50414 3.46628
# Velocity P-wave (km/s) = 6.55790 6.77591 6.66780
#
# Compressibility (1/GPa) = 0.01942246
#
# Stress axis : x y z
#
# Youngs Moduli (GPa) = 69.35947 49.95146 60.82291
#
# Poissons Ratio (x) = 0.24150 0.37237
# Poissons Ratio (y) = 0.33533 0.29019
# Poissons Ratio (z) = 0.42463 0.23832
#
# Static dielectric constant tensor:
#      x y z
#    x 3.450930 0.000000 0.125950 
#    y 0.000000 3.300010 0.000000 
#    z 0.125950 0.000000 3.409530 
# 
# 
# High freq. dielectric constant tensor:
#      x y z
#    x 1.732390 0.000000 0.010140 
#    y 0.000000 1.725620 0.000000 
#    z 0.010140 0.000000 1.717390 
# 
# From -- ./inp_files/143117.got.cif
#   From: 2010.06.25/outbox.cif.g09.slc.cpg/sg12_72_cif.got.tgz:143117.got - 2010.06.28 00:19:55.
