data_PCOD8081863
_publ_section_title
;
Structure prediction by ZEFSAII (Michael W. Deem and Ramdas Pophale) SiO2 
 PCOD8081863
Probable space group: C 2/M
;
_chemical_formula_sum "Si O2"
_cell_formula_units_Z 64
_cell_length_a 23.923515
_cell_length_b 8.915839
_cell_length_c 19.861648
_cell_angle_alpha 90.000000
_cell_angle_beta 122.425057
_cell_angle_gamma 90.000000
_cell_volume 3575.963279
_symmetry_space_group_name_H-M "C 2/M"
_symmetry_group_IT_number 12
_symmetry_cell_setting 'monoclinic'
loop_
_space_group_symop_operation_xyz
x,y,z
-x,y,-z
-x,-y,-z
x,-y,z
1/2+x,1/2+y,z
1/2-x,1/2+y,-z
1/2-x,1/2-y,-z
1/2+x,1/2-y,z
loop_
_atom_site_type_symbol
_atom_site_label
_atom_site_fract_x
_atom_site_fract_y
_atom_site_fract_z
Si Si1 0.856833 0.822173 0.959681
Si Si2 0.840956 0.826221 0.601910
Si Si3 0.365229 0.825640 0.827869
Si Si4 0.707256 0.176746 0.848526
Si Si5 0.772224 0.322712 0.285902
Si Si6 0.096878 0.676354 0.877744
Si Si7 0.212116 0.826671 0.573864
Si Si8 0.948582 0.671379 0.752721
O O1 0.887520 0.749985 0.912209
O O2 0.780285 0.769378 0.917962
O O3 0.862276 0.000000 0.957264
O O4 0.898297 0.763512 0.049212
O O5 0.838779 0.797215 0.520058
O O6 0.785129 0.729051 0.601986
O O7 0.912378 0.777187 0.675297
O O8 0.827546 0.000000 0.609341
O O9 0.300779 0.746107 0.756211
O O10 0.424071 0.799890 0.812871
O O11 0.350295 0.000000 0.830411
O O12 0.693582 0.226840 0.762365
O O13 0.651910 0.244602 0.862298
O O14 0.702686 0.000000 0.850444
O O15 0.765784 0.500000 0.285999
O O16 0.813952 0.260554 0.376476
O O17 0.106618 0.500000 0.897683
O O18 0.025986 0.710143 0.799180
O O19 0.217772 0.000000 0.595852
O O20 0.935163 0.500000 0.723011
#
# Coordination Sequence:
#
# PCOD8081863 Si02
#       8
#     8   8   8   8   8   8   8   8
#     4  10  20  34  52  76 100 126 166 218 259 300
#     4  10  20  32  50  74 104 137 166 203 247 292
#     4  10  19  32  49  72 101 134 166 205 251 304
#     4   8  17  33  53  75 100 127 168 214 254 295
#     4  10  18  30  51  79 104 131 164 208 255 297
#     4  10  20  36  54  72  97 135 171 210 255 299
#     4  10  19  31  49  77 106 133 166 201 246 301
#     4  10  21  34  51  73 102 135 171 206 247 303
#
# _framework density 17.897275
#
# number of rings (size 3 to 8) (size 9 to 14) (size 15 to 20)
#    0.000    2.250    1.250    3.000    0.000    3.000 
#    0.000    5.625    0.000    0.750    0.000    5.250 
#    0.000    0.000    0.000    0.000    0.000    0.000 
#
# Total GULP energy -396799.930418 kJ/mol
# GULP energy per Si atom -12399.997826 kJ/mol
# Density = 1.785654 g / cm^3
# Si number density = 17.897275 Si / 1000 Ang^3
#
#
#
# Elastic Constant Matrix: (Units=GPa)
#
#
# Indices 1 2 3 4 5 6 
#
# 1 43.5358 21.3921 27.0334 0.0000 -0.2537 0.0000
# 2 21.3921 78.0293 43.2402 0.0000 -6.3842 0.0000
# 3 27.0334 43.2402 107.6873 0.0000 -12.8788 0.0000
# 4 0.0000 0.0000 0.0000 34.1386 0.0000 -3.7971
# 5 -0.2537 -6.3842 -12.8788 0.0000 23.3451 0.0000
# 6 0.0000 0.0000 0.0000 -3.7971 0.0000 18.3960
#
#
#
# Elastic Compliance Matrix: (Units=1/GPa)
#
#
# Indices 1 2 3 4 5 6 
#
# 1 0.029026 -0.005126 -0.005736 0.000000 -0.004251 0.000000
# 2 -0.005126 0.017407 -0.005503 0.000000 0.001669 0.000000
# 3 -0.005736 -0.005503 0.013649 0.000000 0.005962 0.000000
# 4 0.000000 0.000000 0.000000 0.029981 0.000000 0.006188
# 5 -0.004251 0.001669 0.005962 0.000000 0.046535 0.000000
# 6 0.000000 0.000000 0.000000 0.006188 0.000000 0.055637
#
#
# Mechanical properties :
#
#
# Convention : Reuss Voigt Hill
#
# Bulk Modulus (GPa) = 36.56318 45.84262 41.20290
# Shear Modulus (GPa) = 21.35990 24.34840 22.85415
#
# Velocity S-wave (km/s) = 3.45841 3.69243 3.57734
# Velocity P-wave (km/s) = 6.03501 6.62183 6.33522
#
# Compressibility (1/GPa) = 0.02734992
#
# Stress axis : x y z
#
# Youngs Moduli (GPa) = 34.45204 57.44734 73.26558
#
# Poissons Ratio (x) = 0.29450 0.42029
# Poissons Ratio (y) = 0.17662 0.40319
# Poissons Ratio (z) = 0.19763 0.31614
#
# Static dielectric constant tensor:
#      x y z
#    x 3.308990 0.000000 -0.252860 
#    y 0.000000 3.282430 0.000000 
#    z -0.252860 0.000000 3.410610 
# 
# 
# High freq. dielectric constant tensor:
#      x y z
#    x 1.667040 0.000000 -0.021870 
#    y 0.000000 1.692670 0.000000 
#    z -0.021870 0.000000 1.694120 
# 
# From -- ./inp_files/324272.got.cif
#   From: 2010.06.25/outbox.cif.g09.slc.cpg/sg12_163_cif.got.tgz:324272.got - 2010.06.28 00:19:55.
