data_PCOD8081206
_publ_section_title
;
Structure prediction by ZEFSAII (Michael W. Deem and Ramdas Pophale) SiO2 
 PCOD8081206
Probable space group: C 2/M
;
_chemical_formula_sum "Si O2"
_cell_formula_units_Z 64
_cell_length_a 21.133658
_cell_length_b 16.843592
_cell_length_c 19.897600
_cell_angle_alpha 90.000000
_cell_angle_beta 151.270121
_cell_angle_gamma 90.000000
_cell_volume 3404.606365
_symmetry_space_group_name_H-M "C 2/M"
_symmetry_group_IT_number 12
_symmetry_cell_setting 'monoclinic'
loop_
_space_group_symop_operation_xyz
x,y,z
-x,y,-z
-x,-y,-z
x,-y,z
1/2+x,1/2+y,z
1/2-x,1/2+y,-z
1/2-x,1/2-y,-z
1/2+x,1/2-y,z
loop_
_atom_site_type_symbol
_atom_site_label
_atom_site_fract_x
_atom_site_fract_y
_atom_site_fract_z
Si Si1 0.110524 0.268599 0.335141
Si Si2 0.264475 0.244703 0.354372
Si Si3 0.247034 0.591641 0.117874
Si Si4 0.859791 0.281192 0.897607
Si Si5 0.196908 0.659405 0.806572
Si Si6 0.914126 0.408683 0.165439
Si Si7 0.847222 0.412050 0.370966
Si Si8 0.011522 0.797009 0.657887
O O1 0.250000 0.250000 0.500000
O O2 0.130322 0.250444 0.274383
O O3 0.049148 0.357354 0.286913
O O4 0.009146 0.211231 0.280362
O O5 0.243856 0.275477 0.259998
O O6 0.304364 0.151553 0.387667
O O7 0.373223 0.303211 0.489216
O O8 0.259325 0.500000 0.145988
O O9 0.148509 0.630145 0.080795
O O10 0.393170 0.628145 0.262466
O O11 0.184071 0.609047 0.987128
O O12 0.823039 0.219173 0.923472
O O13 0.000000 0.259018 0.000000
O O14 0.178492 0.608463 0.856487
O O15 0.218949 0.602566 0.763191
O O16 0.071209 0.716831 0.681950
O O17 0.960399 0.500000 0.209831
O O18 0.807294 0.500000 0.359773
O O19 0.000000 0.406033 0.500000
#
# Coordination Sequence:
#
# PCOD8081206 Si02
#       8
#     8   8   8   8   8   8   8   8
#     4   9  19  35  55  81 108 140 180 221 263 323
#     4  10  19  35  54  77 112 144 178 221 272 322
#     4  10  22  37  54  78 106 140 186 234 275 317
#     4  10  21  34  55  80 107 144 183 221 268 328
#     4   9  18  32  54  80 108 135 177 217 264 323
#     4  10  20  36  58  81 109 142 180 230 274 313
#     4  10  18  29  51  81 110 137 170 216 263 315
#     4   9  18  35  55  77 104 140 179 225 269 323
#
# _framework density 18.798061000000001
#
# number of rings (size 3 to 8) (size 9 to 14) (size 15 to 20)
#    0.000    2.375    1.250    1.125    0.000    5.750 
#    0.000    5.000    0.000   10.875    0.000    0.000 
#    0.000    0.000    0.000    0.000    0.000    0.000 
#
# Total GULP energy -396457.006642 kJ/mol
# GULP energy per Si atom -12389.281458 kJ/mol
# Density = 1.875528 g / cm^3
# Si number density = 18.798061 Si / 1000 Ang^3
#
#
#
# Elastic Constant Matrix: (Units=GPa)
#
#
# Indices 1 2 3 4 5 6 
#
# 1 106.9092 47.8613 24.3146 -0.0003 9.5095 0.0003
# 2 47.8613 115.8377 44.6939 -0.0002 1.6418 0.0008
# 3 24.3146 44.6939 66.1268 -0.0006 4.0293 0.0018
# 4 -0.0003 -0.0002 -0.0006 22.4085 -0.0002 -2.8456
# 5 9.5095 1.6418 4.0293 -0.0002 28.4634 0.0008
# 6 0.0003 0.0008 0.0018 -2.8456 0.0008 20.6216
#
#
#
# Elastic Compliance Matrix: (Units=1/GPa)
#
#
# Indices 1 2 3 4 5 6 
#
# 1 0.011916 -0.004418 -0.001178 0.000000 -0.003560 0.000000
# 2 -0.004418 0.013322 -0.007487 0.000000 0.001768 0.000000
# 3 -0.001178 -0.007487 0.020745 0.000000 -0.002111 -0.000001
# 4 0.000000 0.000000 0.000000 0.045422 0.000000 0.006268
# 5 -0.003560 0.001768 -0.002111 0.000000 0.036519 -0.000001
# 6 0.000000 0.000000 -0.000001 0.006268 -0.000001 0.049358
#
#
# Mechanical properties :
#
#
# Convention : Reuss Voigt Hill
#
# Bulk Modulus (GPa) = 50.46613 58.06813 54.26713
# Shear Modulus (GPa) = 23.80325 25.76562 24.78443
#
# Velocity S-wave (km/s) = 3.56232 3.70625 3.63500
# Velocity P-wave (km/s) = 6.62004 7.01944 6.82266
#
# Compressibility (1/GPa) = 0.01981527
#
# Stress axis : x y z
#
# Youngs Moduli (GPa) = 83.91787 75.06307 48.20466
#
# Poissons Ratio (x) = 0.33166 0.05680
# Poissons Ratio (y) = 0.37079 0.36092
# Poissons Ratio (z) = 0.09889 0.56202
#
# Static dielectric constant tensor:
#      x y z
#    x 3.873290 0.000000 0.010130 
#    y 0.000000 3.380100 0.000000 
#    z 0.010130 0.000000 3.291810 
# 
# 
# High freq. dielectric constant tensor:
#      x y z
#    x 1.743900 0.000000 -0.002200 
#    y 0.000000 1.711340 0.000000 
#    z -0.002200 0.000000 1.714390 
# 
# From -- ./inp_files/322452.got.cif
#   From: 2010.06.25/outbox.cif.g09.slc.cpg/sg12_162_cif.got.tgz:322452.got - 2010.06.28 00:19:55.
