data_PCOD8081369
_publ_section_title
;
Structure prediction by ZEFSAII (Michael W. Deem and Ramdas Pophale) SiO2 
 PCOD8081369
Probable space group: C 2/M
;
_chemical_formula_sum "Si O2"
_cell_formula_units_Z 48
_cell_length_a 15.194630
_cell_length_b 17.104506
_cell_length_c 12.040921
_cell_angle_alpha 90.000000
_cell_angle_beta 120.389278
_cell_angle_gamma 90.000000
_cell_volume 2699.442181
_symmetry_space_group_name_H-M "C 2/M"
_symmetry_group_IT_number 12
_symmetry_cell_setting 'monoclinic'
loop_
_space_group_symop_operation_xyz
x,y,z
-x,y,-z
-x,-y,-z
x,-y,z
1/2+x,1/2+y,z
1/2-x,1/2+y,-z
1/2-x,1/2-y,-z
1/2+x,1/2-y,z
loop_
_atom_site_type_symbol
_atom_site_label
_atom_site_fract_x
_atom_site_fract_y
_atom_site_fract_z
Si Si1 0.955752 0.586001 0.848445
Si Si2 0.275930 0.175248 0.816790
Si Si3 0.665535 0.352362 0.113881
Si Si4 0.668743 0.089362 0.927179
Si Si5 0.074144 0.910072 0.648403
Si Si6 0.501890 0.409749 0.844531
O O1 0.917545 0.500000 0.787997
O O2 0.860961 0.644517 0.784161
O O3 0.050187 0.614244 0.830298
O O4 0.000000 0.584522 0.000000
O O5 0.291819 0.266905 0.835316
O O6 0.167049 0.150703 0.697675
O O7 0.281503 0.139823 0.943399
O O8 0.765405 0.401770 0.142578
O O9 0.613225 0.387995 0.190819
O O10 0.582473 0.355048 0.961300
O O11 0.670184 0.000000 0.969242
O O12 0.010298 0.894353 0.719582
O O13 0.000000 0.891870 0.500000
O O14 0.113798 0.000000 0.670870
O O15 0.525855 0.500000 0.889943
#
# Coordination Sequence:
#
# PCOD8081369 Si02
#       6
#     8   8   8   8   8   8
#     4   8  16  27  43  65  99 137 164 199 254 312
#     4  11  20  30  49  79 110 135 170 223 266 313
#     4  11  21  29  51  80 109 142 165 210 279 322
#     4  10  18  30  47  71 108 142 169 201 256 326
#     4  10  21  38  59  77 100 143 189 224 259 305
#     4  10  21  36  53  77 111 144 178 216 258 324
#
# _framework density 17.781452000000002
#
# number of rings (size 3 to 8) (size 9 to 14) (size 15 to 20)
#    0.000    2.000    1.667    5.000    7.000    0.000 
#    0.000    0.833    0.000    0.000    0.000    0.000 
#    0.000   11.333    0.000    0.000    0.000    0.000 
#
# Total GULP energy -297490.901800 kJ/mol
# GULP energy per Si atom -12395.454242 kJ/mol
# Density = 1.774098 g / cm^3
# Si number density = 17.781452 Si / 1000 Ang^3
#
#
#
# Elastic Constant Matrix: (Units=GPa)
#
#
# Indices 1 2 3 4 5 6 
#
# 1 167.9751 42.5088 43.4827 0.0000 3.6066 0.0000
# 2 42.5088 82.4875 35.6237 0.0000 11.5791 0.0000
# 3 43.4827 35.6237 70.8952 0.0000 -0.2444 0.0000
# 4 0.0000 0.0000 0.0000 13.1053 0.0000 -6.7113
# 5 3.6066 11.5791 -0.2444 0.0000 16.7364 0.0000
# 6 0.0000 0.0000 0.0000 -6.7113 0.0000 -68.4051
#
#
#
# Elastic Compliance Matrix: (Units=1/GPa)
#
#
# Indices 1 2 3 4 5 6 
#
# 1 0.007424 -0.002373 -0.003361 0.000000 -0.000007 0.000000
# 2 -0.002373 0.018488 -0.007877 0.000000 -0.012394 0.000000
# 3 -0.003361 -0.007877 0.020147 0.000000 0.006468 0.000000
# 4 0.000000 0.000000 0.000000 0.072655 0.000000 -0.007128
# 5 -0.000007 -0.012394 0.006468 0.000000 0.068421 0.000000
# 6 0.000000 0.000000 0.000000 -0.007128 0.000000 -0.013919
#
#
# Mechanical properties :
#
#
# Convention : Reuss Voigt Hill
#
# Bulk Modulus (GPa) = 53.08840 62.73203 57.91021
# Shear Modulus (GPa) = 24.18775 5.60348 14.89561
#
# Velocity S-wave (km/s) = 3.69220 1.77712 2.89745
# Velocity P-wave (km/s) = 6.93522 6.29022 6.62058
#
# Compressibility (1/GPa) = 0.01883651
#
# Stress axis : x y z
#
# Youngs Moduli (GPa) = 134.69722 54.08971 49.63530
#
# Poissons Ratio (x) = 0.12838 0.16682
# Poissons Ratio (y) = 0.31970 0.39097
# Poissons Ratio (z) = 0.45270 0.42606
#
# Static dielectric constant tensor:
#      x y z
#    x 3.928190 0.000000 0.004130 
#    y 0.000000 3.279980 0.000000 
#    z 0.004130 0.000000 2.715160 
# 
# 
# High freq. dielectric constant tensor:
#      x y z
#    x 1.718230 0.000000 0.002400 
#    y 0.000000 1.686350 0.000000 
#    z 0.002400 0.000000 1.611980 
# 
# From -- ./inp_files/143913.got.cif
#   From: 2010.06.25/outbox.cif.g09.slc.cpg/sg12_72_cif.got.tgz:143913.got - 2010.06.28 00:19:55.
