data_PCOD8081234
_publ_section_title
;
Structure prediction by ZEFSAII (Michael W. Deem and Ramdas Pophale) SiO2 
 PCOD8081234
Probable space group: C 2/M
;
_chemical_formula_sum "Si O2"
_cell_formula_units_Z 44
_cell_length_a 10.261951
_cell_length_b 25.373444
_cell_length_c 14.034163
_cell_angle_alpha 90.000000
_cell_angle_beta 138.484395
_cell_angle_gamma 90.000000
_cell_volume 2422.111338
_symmetry_space_group_name_H-M "C 2/M"
_symmetry_group_IT_number 12
_symmetry_cell_setting 'monoclinic'
loop_
_space_group_symop_operation_xyz
x,y,z
-x,y,-z
-x,-y,-z
x,-y,z
1/2+x,1/2+y,z
1/2-x,1/2+y,-z
1/2-x,1/2-y,-z
1/2+x,1/2-y,z
loop_
_atom_site_type_symbol
_atom_site_label
_atom_site_fract_x
_atom_site_fract_y
_atom_site_fract_z
Si Si1 0.090345 0.000000 0.444989
Si Si2 0.457541 0.000000 0.270298
Si Si3 0.847449 0.500000 0.000666
Si Si4 0.277101 0.185900 0.910035
Si Si5 0.188293 0.096398 0.172696
Si Si6 0.053249 0.915165 0.777951
Si Si7 0.272619 0.698942 0.896448
O O1 0.324268 0.000000 0.569967
O O2 0.000000 0.000000 0.500000
O O3 0.017376 0.947467 0.352172
O O4 0.343697 0.949392 0.245164
O O5 0.472758 0.000000 0.165060
O O6 0.715206 0.447855 0.925473
O O7 0.000000 0.500000 0.000000
O O8 0.145858 0.139793 0.791772
O O9 0.183131 0.242720 0.827497
O O10 0.500000 0.178222 0.000000
O O11 0.268705 0.180547 0.019151
O O12 0.301536 0.151851 0.212860
O O13 0.125532 0.096417 0.248452
O O14 0.000000 0.089309 0.000000
O O15 0.500000 0.706279 0.000000
#
# Coordination Sequence:
#
# PCOD8081234 Si02
#       7
#     4   4   4   8   8   8   8
#     4  11  28  44  54  81 123 159 199 247 294 350
#     4  12  21  36  60  81 111 156 193 239 295 351
#     4  11  20  31  54  84 110 143 196 240 290 352
#     4  10  18  29  54  86 121 155 191 229 306 355
#     4  11  19  34  59  90 119 143 191 251 291 342
#     4  11  21  37  58  82 118 156 189 242 300 343
#     4   9  17  31  50  87 125 148 179 250 296 345
#
# _framework density 18.165969
#
# number of rings (size 3 to 8) (size 9 to 14) (size 15 to 20)
#    0.000    1.455    5.455    3.000    0.000    2.909 
#    0.000    0.000    0.000    1.091    0.000    0.000 
#    0.000    0.000    0.000    0.000    0.000    0.000 
#
# Total GULP energy -272715.000396 kJ/mol
# GULP energy per Si atom -12396.136382 kJ/mol
# Density = 1.812462 g / cm^3
# Si number density = 18.165969 Si / 1000 Ang^3
#
#
#
# Elastic Constant Matrix: (Units=GPa)
#
#
# Indices 1 2 3 4 5 6 
#
# 1 134.5200 60.8070 32.9150 0.0000 -15.3626 0.0000
# 2 60.8070 197.4521 51.3325 0.0000 0.3025 0.0000
# 3 32.9150 51.3325 71.1002 0.0000 -1.8984 0.0000
# 4 0.0000 0.0000 0.0000 66.3176 0.0000 5.2501
# 5 -15.3626 0.3025 -1.8984 0.0000 27.6491 0.0000
# 6 0.0000 0.0000 0.0000 5.2501 0.0000 34.2286
#
#
#
# Elastic Compliance Matrix: (Units=1/GPa)
#
#
# Indices 1 2 3 4 5 6 
#
# 1 0.009736 -0.002303 -0.002704 0.000000 0.005249 0.000000
# 2 -0.002303 0.006784 -0.003875 0.000000 -0.001620 0.000000
# 3 -0.002704 -0.003875 0.018108 0.000000 -0.000217 0.000000
# 4 0.000000 0.000000 0.000000 0.015264 0.000000 -0.002341
# 5 0.005249 -0.001620 -0.000217 0.000000 0.039087 0.000000
# 6 0.000000 0.000000 0.000000 -0.002341 0.000000 0.029574
#
#
# Mechanical properties :
#
#
# Convention : Reuss Voigt Hill
#
# Bulk Modulus (GPa) = 59.29870 77.02013 68.15942
# Shear Modulus (GPa) = 35.22640 42.84022 39.03331
#
# Velocity S-wave (km/s) = 4.40835 4.86147 4.64044
# Velocity P-wave (km/s) = 7.65669 8.60244 8.14331
#
# Compressibility (1/GPa) = 0.01686378
#
# Stress axis : x y z
#
# Youngs Moduli (GPa) = 102.70980 147.41380 55.22412
#
# Poissons Ratio (x) = 0.33955 0.14933
# Poissons Ratio (y) = 0.23658 0.21397
# Poissons Ratio (z) = 0.27774 0.57116
#
# Static dielectric constant tensor:
#      x y z
#    x 3.494030 0.000000 0.017690 
#    y 0.000000 4.041690 0.000000 
#    z 0.017690 0.000000 2.929930 
# 
# 
# High freq. dielectric constant tensor:
#      x y z
#    x 1.728730 0.000000 -0.010920 
#    y 0.000000 1.729820 0.000000 
#    z -0.010920 0.000000 1.636520 
# 
# From -- ./inp_files/124514.got.cif
#   From: 2010.06.25/outbox.cif.g09.slc.cpg/sg12_63_cif.got.tgz:124514.got - 2010.06.28 00:19:55.
