data_PCOD8081051
_publ_section_title
;
Structure prediction by ZEFSAII (Michael W. Deem and Ramdas Pophale) SiO2 
 PCOD8081051
Probable space group: C 2/M
;
_chemical_formula_sum "Si O2"
_cell_formula_units_Z 56
_cell_length_a 13.519533
_cell_length_b 21.080181
_cell_length_c 12.250889
_cell_angle_alpha 90.000000
_cell_angle_beta 77.258497
_cell_angle_gamma 90.000000
_cell_volume 3405.455959
_symmetry_space_group_name_H-M "C 2/M"
_symmetry_group_IT_number 12
_symmetry_cell_setting 'monoclinic'
loop_
_space_group_symop_operation_xyz
x,y,z
-x,y,-z
-x,-y,-z
x,-y,z
1/2+x,1/2+y,z
1/2-x,1/2+y,-z
1/2-x,1/2-y,-z
1/2+x,1/2-y,z
loop_
_atom_site_type_symbol
_atom_site_label
_atom_site_fract_x
_atom_site_fract_y
_atom_site_fract_z
Si Si1 0.626797 0.749544 0.155374
Si Si2 0.672027 0.188531 0.929628
Si Si3 0.585419 0.184595 0.553483
Si Si4 0.538054 0.073732 0.316422
Si Si5 0.904059 0.772051 0.242824
Si Si6 0.791712 0.336571 0.677047
Si Si7 0.431017 0.931390 0.120653
O O1 0.706866 0.697566 0.092927
O O2 0.522548 0.711338 0.203097
O O3 0.657922 0.781356 0.261755
O O4 0.619187 0.803472 0.061760
O O5 0.625703 0.241998 0.864347
O O6 0.655681 0.119930 0.880249
O O7 0.500000 0.220280 0.500000
O O8 0.538304 0.115193 0.591728
O O9 0.614571 0.222879 0.654171
O O10 0.686251 0.176275 0.456270
O O11 0.655431 0.097057 0.301161
O O12 0.504736 0.087242 0.201195
O O13 0.530939 0.000000 0.351410
O O14 0.831110 0.833835 0.278613
O O15 0.378934 0.000000 0.156305
O O16 0.500000 0.936258 0.000000
#
# Coordination Sequence:
#
# PCOD8081051 Si02
#       7
#     8   8   8   8   8   8   8
#     4  10  19  31  47  72  97 130 156 197 244 293
#     4  10  19  30  49  70 100 124 158 198 243 294
#     4  10  18  31  46  67  97 125 156 202 239 286
#     4  10  19  32  49  72 100 129 161 202 248 291
#     4  11  18  31  48  68  96 125 159 195 241 294
#     4  10  20  30  47  69  95 127 159 197 241 287
#     4  10  18  29  49  72  96 125 158 200 243 288
#
# _framework density 16.444199999999999
#
# number of rings (size 3 to 8) (size 9 to 14) (size 15 to 20)
#    0.000    1.857    4.286    2.571    0.000    2.571 
#    0.000    0.000    0.000    0.857    0.000    0.000 
#    0.000   13.143    0.000    0.000    0.000    0.000 
#
# Total GULP energy -346944.489778 kJ/mol
# GULP energy per Si atom -12390.874635 kJ/mol
# Density = 1.640677 g / cm^3
# Si number density = 16.444200 Si / 1000 Ang^3
#
#
#
# Elastic Constant Matrix: (Units=GPa)
#
#
# Indices 1 2 3 4 5 6 
#
# 1 89.5652 32.0618 31.2657 0.0000 -16.2216 0.0000
# 2 32.0618 69.3287 20.5050 0.0000 -5.6874 0.0000
# 3 31.2657 20.5050 93.7378 0.0000 -2.5714 0.0000
# 4 0.0000 0.0000 0.0000 18.8788 0.0000 1.2653
# 5 -16.2216 -5.6874 -2.5714 0.0000 27.4750 0.0000
# 6 0.0000 0.0000 0.0000 1.2653 0.0000 26.6631
#
#
#
# Elastic Compliance Matrix: (Units=1/GPa)
#
#
# Indices 1 2 3 4 5 6 
#
# 1 0.015948 -0.005579 -0.003882 0.000000 0.007898 0.000000
# 2 -0.005579 0.017605 -0.001986 0.000000 0.000164 0.000000
# 3 -0.003882 -0.001986 0.012355 0.000000 -0.001547 0.000000
# 4 0.000000 0.000000 0.000000 0.053138 0.000000 -0.002522
# 5 0.007898 0.000164 -0.001547 0.000000 0.040949 0.000000
# 6 0.000000 0.000000 0.000000 -0.002522 0.000000 0.037625
#
#
# Mechanical properties :
#
#
# Convention : Reuss Voigt Hill
#
# Bulk Modulus (GPa) = 43.45255 46.69963 45.07609
# Shear Modulus (GPa) = 24.01714 25.85668 24.93691
#
# Velocity S-wave (km/s) = 3.82583 3.96964 3.89839
# Velocity P-wave (km/s) = 6.78215 7.03358 6.90901
#
# Compressibility (1/GPa) = 0.02301361
#
# Stress axis : x y z
#
# Youngs Moduli (GPa) = 62.70456 56.80224 80.93969
#
# Poissons Ratio (x) = 0.31691 0.31423
# Poissons Ratio (y) = 0.34984 0.16072
# Poissons Ratio (z) = 0.24343 0.11279
#
# Static dielectric constant tensor:
#      x y z
#    x 3.444720 0.000000 0.202120 
#    y 0.000000 3.155570 0.000000 
#    z 0.202120 0.000000 3.518570 
# 
# 
# High freq. dielectric constant tensor:
#      x y z
#    x 1.619970 0.000000 0.011820 
#    y 0.000000 1.591360 0.000000 
#    z 0.011820 0.000000 1.659790 
# 
# From -- ./inp_files/147077.got.cif
#   From: 2010.06.25/outbox.cif.g09.slc.cpg/sg12_74_cif.got.tgz:147077.got - 2010.06.28 00:19:55.
