data_PCOD8081898
_publ_section_title
;
Structure prediction by ZEFSAII (Michael W. Deem and Ramdas Pophale) SiO2 
 PCOD8081898
Probable space group: C 2/M
;
_chemical_formula_sum "Si O2"
_cell_formula_units_Z 48
_cell_length_a 24.780590
_cell_length_b 9.108220
_cell_length_c 13.755764
_cell_angle_alpha 90.000000
_cell_angle_beta 52.693748
_cell_angle_gamma 90.000000
_cell_volume 2469.559370
_symmetry_space_group_name_H-M "C 2/M"
_symmetry_group_IT_number 12
_symmetry_cell_setting 'monoclinic'
loop_
_space_group_symop_operation_xyz
x,y,z
-x,y,-z
-x,-y,-z
x,-y,z
1/2+x,1/2+y,z
1/2-x,1/2+y,-z
1/2-x,1/2-y,-z
1/2+x,1/2-y,z
loop_
_atom_site_type_symbol
_atom_site_label
_atom_site_fract_x
_atom_site_fract_y
_atom_site_fract_z
Si Si1 0.060054 0.674515 0.700066
Si Si2 0.700315 0.825555 0.630942
Si Si3 0.328788 0.173224 0.797538
Si Si4 0.433223 0.173748 0.523481
Si Si5 0.088998 0.672015 0.106842
Si Si6 0.707044 0.171548 0.843717
O O1 0.057463 0.500000 0.702233
O O2 0.122773 0.726818 0.697760
O O3 0.074109 0.737159 0.576805
O O4 0.987469 0.737912 0.817341
O O5 0.750000 0.750000 0.500000
O O6 0.717559 0.773758 0.721671
O O7 0.707313 0.000000 0.611164
O O8 0.368175 0.218922 0.656741
O O9 0.369968 0.236209 0.845155
O O10 0.255728 0.248167 0.867305
O O11 0.318072 0.000000 0.818548
O O12 0.500000 0.242388 0.500000
O O13 0.441159 0.000000 0.510629
O O14 0.081785 0.500000 0.133559
O O15 0.129983 0.705794 0.962975
O O16 0.722035 0.000000 0.835112
#
# Coordination Sequence:
#
# PCOD8081898 Si02
#       6
#     8   8   8   8   8   8
#     4   9  16  28  48  74 100 126 163 210 250 286
#     4  10  21  36  54  75 100 131 166 206 251 299
#     4  10  18  30  52  77 100 132 171 207 243 289
#     4   9  14  23  43  73  98 115 151 208 251 275
#     4   9  17  30  49  75 103 130 166 210 250 288
#     4  10  21  34  48  72 106 137 163 200 251 300
#
# _framework density 19.436665999999999
#
# number of rings (size 3 to 8) (size 9 to 14) (size 15 to 20)
#    0.000    2.500    1.667    1.500    0.000    2.667 
#    0.000    3.333    0.000    2.500    0.000    2.333 
#    0.000    0.000    0.000    0.000    0.000    0.000 
#
# Total GULP energy -297472.270940 kJ/mol
# GULP energy per Si atom -12394.677956 kJ/mol
# Density = 1.939243 g / cm^3
# Si number density = 19.436666 Si / 1000 Ang^3
#
#
#
# Elastic Constant Matrix: (Units=GPa)
#
#
# Indices 1 2 3 4 5 6 
#
# 1 131.0116 20.9549 50.6161 0.0000 -12.5904 0.0000
# 2 20.9549 17.7182 22.3436 0.0000 -2.6498 0.0000
# 3 50.6161 22.3436 120.0938 0.0000 -7.8704 0.0000
# 4 0.0000 0.0000 0.0000 17.5423 0.0000 -0.6319
# 5 -12.5904 -2.6498 -7.8704 0.0000 32.8767 0.0000
# 6 0.0000 0.0000 0.0000 -0.6319 0.0000 19.0557
#
#
#
# Elastic Compliance Matrix: (Units=1/GPa)
#
#
# Indices 1 2 3 4 5 6 
#
# 1 0.010231 -0.008475 -0.002563 0.000000 0.002621 0.000000
# 2 -0.008475 0.080997 -0.011462 0.000000 0.000539 0.000000
# 3 -0.002563 -0.011462 0.011597 0.000000 0.000871 0.000000
# 4 0.000000 0.000000 0.000000 0.057073 0.000000 0.001893
# 5 0.002621 0.000539 0.000871 0.000000 0.031672 0.000000
# 6 0.000000 0.000000 0.000000 0.001893 0.000000 0.052541
#
#
# Mechanical properties :
#
#
# Convention : Reuss Voigt Hill
#
# Bulk Modulus (GPa) = 17.29404 50.73919 34.01661
# Shear Modulus (GPa) = 16.21339 25.55553 20.88446
#
# Velocity S-wave (km/s) = 2.89132 3.62997 3.28149
# Velocity P-wave (km/s) = 4.47921 6.61290 5.64773
#
# Compressibility (1/GPa) = 0.05782340
#
# Stress axis : x y z
#
# Youngs Moduli (GPa) = 97.74473 12.34608 86.23017
#
# Poissons Ratio (x) = 0.10463 0.22104
# Poissons Ratio (y) = 0.82839 0.98840
# Poissons Ratio (z) = 0.25056 0.14152
#
# Static dielectric constant tensor:
#      x y z
#    x 3.771790 0.000000 -0.046440 
#    y 0.000000 2.884260 0.000000 
#    z -0.046440 0.000000 3.727970 
# 
# 
# High freq. dielectric constant tensor:
#      x y z
#    x 1.765680 0.000000 -0.005570 
#    y 0.000000 1.683380 0.000000 
#    z -0.005570 0.000000 1.772130 
# 
# From -- ./inp_files/174393.got.cif
#   From: 2010.06.25/outbox.cif.g09.slc.cpg/sg12_88_cif.got.tgz:174393.got - 2010.06.28 00:19:55.
