data_PCOD8081283
_publ_section_title
;
Structure prediction by ZEFSAII (Michael W. Deem and Ramdas Pophale) SiO2 
 PCOD8081283
Probable space group: C 2/M
;
_chemical_formula_sum "Si O2"
_cell_formula_units_Z 64
_cell_length_a 27.825277
_cell_length_b 9.173539
_cell_length_c 20.589554
_cell_angle_alpha 90.000000
_cell_angle_beta 44.012540
_cell_angle_gamma 90.000000
_cell_volume 3651.682647
_symmetry_space_group_name_H-M "C 2/M"
_symmetry_group_IT_number 12
_symmetry_cell_setting 'monoclinic'
loop_
_space_group_symop_operation_xyz
x,y,z
-x,y,-z
-x,-y,-z
x,-y,z
1/2+x,1/2+y,z
1/2-x,1/2+y,-z
1/2-x,1/2-y,-z
1/2+x,1/2-y,z
loop_
_atom_site_type_symbol
_atom_site_label
_atom_site_fract_x
_atom_site_fract_y
_atom_site_fract_z
Si Si1 0.853342 0.337886 0.482866
Si Si2 0.987725 0.338971 0.700604
Si Si3 0.439700 0.172827 0.607556
Si Si4 0.035079 0.329017 0.900148
Si Si5 0.013543 0.163923 0.794319
Si Si6 0.176002 0.834484 0.609206
Si Si7 0.167573 0.832512 0.367317
Si Si8 0.189096 0.333855 0.722369
O O1 0.824555 0.500000 0.527478
O O2 0.805965 0.266074 0.471526
O O3 0.857229 0.234970 0.541047
O O4 0.930349 0.352821 0.382358
O O5 0.956436 0.500000 0.743550
O O6 0.957327 0.274536 0.663086
O O7 0.968741 0.234950 0.779440
O O8 0.500000 0.225093 0.500000
O O9 0.367450 0.247345 0.658086
O O10 0.431330 0.000000 0.611522
O O11 0.023070 0.500000 0.902905
O O12 0.998783 0.250589 0.874903
O O13 0.116394 0.288491 0.824840
O O14 0.000000 0.271190 0.000000
O O15 0.093996 0.169029 0.698980
O O16 0.987107 0.000000 0.829276
O O17 0.210469 0.769550 0.641191
O O18 0.201313 0.000000 0.572867
O O19 0.251059 0.817689 0.281457
O O20 0.144014 0.000000 0.388330
O O21 0.184992 0.500000 0.700293
#
# Coordination Sequence:
#
# PCOD8081283 Si02
#       8
#     8   8   8   8   8   8   8   8
#     4  10  18  30  46  63  87 124 164 200 237 273
#     4   9  17  30  48  66  90 124 162 202 236 272
#     4  10  19  34  50  67  90 123 168 209 243 276
#     4   9  17  32  55  77  96 123 157 188 225 283
#     4   9  17  28  45  72 102 124 148 189 238 284
#     4   9  17  29  45  66  90 120 160 197 231 275
#     4  11  22  32  44  65  93 124 159 199 241 281
#     4   9  19  34  47  65  95 125 153 189 234 284
#
# _framework density 17.526167000000001
#
# number of rings (size 3 to 8) (size 9 to 14) (size 15 to 20)
#    0.000    2.500    1.250    1.500    0.000    6.000 
#    0.000    0.000    0.000    0.000    0.000    0.875 
#    0.000    0.000    0.000    0.000    0.000    0.000 
#
# Total GULP energy -396791.262516 kJ/mol
# GULP energy per Si atom -12399.726954 kJ/mol
# Density = 1.748628 g / cm^3
# Si number density = 17.526167 Si / 1000 Ang^3
#
#
#
# Elastic Constant Matrix: (Units=GPa)
#
#
# Indices 1 2 3 4 5 6 
#
# 1 135.0473 51.6329 35.3091 0.0055 23.7190 -0.0044
# 2 51.6329 80.4376 33.8187 0.0137 14.0811 -0.0119
# 3 35.3091 33.8187 69.6955 0.0073 18.2746 -0.0070
# 4 0.0055 0.0137 0.0073 16.5806 -0.0043 4.3258
# 5 23.7190 14.0811 18.2746 -0.0043 23.5068 0.0044
# 6 -0.0044 -0.0119 -0.0070 4.3258 0.0044 26.3984
#
#
#
# Elastic Compliance Matrix: (Units=1/GPa)
#
#
# Indices 1 2 3 4 5 6 
#
# 1 0.010971 -0.005342 -0.001133 -0.000001 -0.006989 0.000000
# 2 -0.005342 0.018582 -0.006035 -0.000013 -0.001049 0.000008
# 3 -0.001133 -0.006035 0.020854 -0.000008 -0.011453 0.000006
# 4 -0.000001 -0.000013 -0.000008 0.063005 0.000028 -0.010324
# 5 -0.006989 -0.001049 -0.011453 0.000028 0.059125 -0.000019
# 6 0.000000 0.000008 0.000006 -0.010324 -0.000019 0.039573
#
#
# Mechanical properties :
#
#
# Convention : Reuss Voigt Hill
#
# Bulk Modulus (GPa) = 39.39270 58.52241 48.95756
# Shear Modulus (GPa) = 20.35875 24.25846 22.30860
#
# Velocity S-wave (km/s) = 3.41195 3.72442 3.57161
# Velocity P-wave (km/s) = 6.16824 7.20826 6.70844
#
# Compressibility (1/GPa) = 0.02538541
#
# Stress axis : x y z
#
# Youngs Moduli (GPa) = 91.14735 53.81460 47.95259
#
# Poissons Ratio (x) = 0.28750 0.05435
# Poissons Ratio (y) = 0.48695 0.28940
# Poissons Ratio (z) = 0.10330 0.32478
#
# Static dielectric constant tensor:
#      x y z
#    x 3.337650 -0.000010 0.073710 
#    y -0.000010 3.433130 0.000000 
#    z 0.073710 0.000000 2.932260 
# 
# 
# High freq. dielectric constant tensor:
#      x y z
#    x 1.677440 0.000000 0.008570 
#    y 0.000000 1.685580 0.000000 
#    z 0.008570 0.000000 1.628840 
# 
# From -- ./inp_files/326847.got.cif
#   From: 2010.06.25/outbox.cif.g09.slc.cpg/sg12_164_cif.got.tgz:326847.got - 2010.06.28 00:19:55.
