data_PCOD8081261
_publ_section_title
;
Structure prediction by ZEFSAII (Michael W. Deem and Ramdas Pophale) SiO2 
 PCOD8081261
Probable space group: C 2/M
;
_chemical_formula_sum "Si O2"
_cell_formula_units_Z 64
_cell_length_a 28.212545
_cell_length_b 9.168988
_cell_length_c 15.671942
_cell_angle_alpha 90.000000
_cell_angle_beta 88.230829
_cell_angle_gamma 90.000000
_cell_volume 4052.093096
_symmetry_space_group_name_H-M "C 2/M"
_symmetry_group_IT_number 12
_symmetry_cell_setting 'monoclinic'
loop_
_space_group_symop_operation_xyz
x,y,z
-x,y,-z
-x,-y,-z
x,-y,z
1/2+x,1/2+y,z
1/2-x,1/2+y,-z
1/2-x,1/2-y,-z
1/2+x,1/2-y,z
loop_
_atom_site_type_symbol
_atom_site_label
_atom_site_fract_x
_atom_site_fract_y
_atom_site_fract_z
Si Si1 0.949745 0.830673 0.193136
Si Si2 0.947000 0.326604 0.507297
Si Si3 0.106739 0.327121 0.658622
Si Si4 0.807043 0.830691 0.409316
Si Si5 0.391694 0.830882 0.674730
Si Si6 0.551669 0.328003 0.992903
Si Si7 0.061696 0.830952 0.175335
Si Si8 0.699963 0.833119 0.416804
O O1 0.924297 0.726644 0.261002
O O2 0.926530 0.789958 0.101262
O O3 0.005911 0.797641 0.191235
O O4 0.940239 0.000000 0.215631
O O5 0.947815 0.500000 0.508263
O O6 0.918350 0.272504 0.426540
O O7 0.922184 0.266681 0.594136
O O8 0.000000 0.262203 0.500000
O O9 0.111611 0.500000 0.663404
O O10 0.158867 0.255065 0.657825
O O11 0.753156 0.804531 0.380593
O O12 0.813257 0.771060 0.504472
O O13 0.820619 0.000000 0.408115
O O14 0.405648 0.754171 0.760935
O O15 0.336067 0.802660 0.658902
O O16 0.402997 0.000000 0.685458
O O17 0.544885 0.500000 0.999253
O O18 0.500000 0.254090 0.000000
O O19 0.578816 0.280223 0.078488
O O20 0.071801 0.000000 0.189508
O O21 0.694085 0.000000 0.449774
#
# Coordination Sequence:
#
# PCOD8081261 Si02
#       8
#     8   8   8   8   8   8   8   8
#     4   9  17  30  47  67  92 122 156 189 221 265
#     4   9  17  28  41  57  84 124 158 176 203 257
#     4  11  20  31  46  65  92 123 154 187 227 271
#     4  10  19  31  49  68  87 113 152 196 233 268
#     4  10  18  30  45  63  91 124 155 182 219 270
#     4   7  12  26  46  64  87 120 151 183 226 269
#     4   9  17  29  46  69  94 120 153 190 225 262
#     4   9  18  33  49  65  87 119 153 188 231 275
#
# _framework density 15.794306000000001
#
# number of rings (size 3 to 8) (size 9 to 14) (size 15 to 20)
#    0.000    2.750    1.250    3.000    0.000    2.500 
#    0.000    0.625    0.000    4.875    0.000    0.875 
#    0.000    0.000    0.000    0.000    0.000    0.000 
#
# Total GULP energy -396546.790858 kJ/mol
# GULP energy per Si atom -12392.087214 kJ/mol
# Density = 1.575836 g / cm^3
# Si number density = 15.794306 Si / 1000 Ang^3
#
#
#
# Elastic Constant Matrix: (Units=GPa)
#
#
# Indices 1 2 3 4 5 6 
#
# 1 83.5925 36.1318 44.3393 0.0000 12.1797 0.0000
# 2 36.1318 57.6121 40.0258 0.0000 3.9879 0.0000
# 3 44.3393 40.0258 116.7513 0.0000 20.9480 0.0000
# 4 0.0000 0.0000 0.0000 21.8744 0.0000 1.8572
# 5 12.1797 3.9879 20.9480 0.0000 13.7987 0.0000
# 6 0.0000 0.0000 0.0000 1.8572 0.0000 20.9742
#
#
#
# Elastic Compliance Matrix: (Units=1/GPa)
#
#
# Indices 1 2 3 4 5 6 
#
# 1 0.018725 -0.009728 -0.001807 0.000000 -0.010973 0.000000
# 2 -0.009728 0.028378 -0.008388 0.000000 0.013120 0.000000
# 3 -0.001807 -0.008388 0.015676 0.000000 -0.019778 0.000000
# 4 0.000000 0.000000 0.000000 0.046062 0.000000 -0.004079
# 5 -0.010973 0.013120 -0.019778 0.000000 0.108390 0.000000
# 6 0.000000 0.000000 0.000000 -0.004079 0.000000 0.048039
#
#
# Mechanical properties :
#
#
# Convention : Reuss Voigt Hill
#
# Bulk Modulus (GPa) = 43.60848 55.43886 49.52367
# Shear Modulus (GPa) = 15.98657 20.49340 18.23999
#
# Velocity S-wave (km/s) = 3.18492 3.60602 3.40199
# Velocity P-wave (km/s) = 6.41834 7.24669 6.84506
#
# Compressibility (1/GPa) = 0.02293132
#
# Stress axis : x y z
#
# Youngs Moduli (GPa) = 53.40380 35.23822 63.79130
#
# Poissons Ratio (x) = 0.34281 0.11530
# Poissons Ratio (y) = 0.51954 0.53510
# Poissons Ratio (z) = 0.09652 0.29559
#
# Static dielectric constant tensor:
#      x y z
#    x 3.004960 0.000000 0.041190 
#    y 0.000000 2.812720 0.000000 
#    z 0.041190 0.000000 3.112940 
# 
# 
# High freq. dielectric constant tensor:
#      x y z
#    x 1.588870 0.000000 0.003530 
#    y 0.000000 1.590080 0.000000 
#    z 0.003530 0.000000 1.598790 
# 
# From -- ./inp_files/248368.got.cif
#   From: 2010.06.25/outbox.cif.g09.slc.cpg/sg12_125_cif.got.tgz:248368.got - 2010.06.28 00:19:55.
