data_PCOD8081343
_publ_section_title
;
Structure prediction by ZEFSAII (Michael W. Deem and Ramdas Pophale) SiO2 
 PCOD8081343
Probable space group: C 2/M
;
_chemical_formula_sum "Si O2"
_cell_formula_units_Z 64
_cell_length_a 28.545524
_cell_length_b 9.059089
_cell_length_c 15.443986
_cell_angle_alpha 90.000000
_cell_angle_beta 89.999384
_cell_angle_gamma 90.000000
_cell_volume 3993.759837
_symmetry_space_group_name_H-M "C 2/M"
_symmetry_group_IT_number 12
_symmetry_cell_setting 'monoclinic'
loop_
_space_group_symop_operation_xyz
x,y,z
-x,y,-z
-x,-y,-z
x,-y,z
1/2+x,1/2+y,z
1/2-x,1/2+y,-z
1/2-x,1/2-y,-z
1/2+x,1/2-y,z
loop_
_atom_site_type_symbol
_atom_site_label
_atom_site_fract_x
_atom_site_fract_y
_atom_site_fract_z
Si Si1 0.703848 0.672122 0.401722
Si Si2 0.944460 0.166109 0.000002
Si Si3 0.554244 0.173840 0.172798
Si Si4 0.605055 0.673867 0.670557
Si Si5 0.203848 0.172120 0.598276
Si Si6 0.945758 0.673840 0.172802
Si Si7 0.552480 0.324676 0.499997
Si Si8 0.105057 0.826132 0.329438
O O1 0.713617 0.500000 0.401472
O O2 0.750001 0.749997 0.363463
O O3 0.693555 0.726018 0.500000
O O4 0.659869 0.710659 0.340941
O O5 0.926907 0.251978 0.915157
O O6 0.923951 0.000000 0.000002
O O7 0.926908 0.251973 0.084851
O O8 0.000000 0.162891 0.000000
O O9 0.500001 0.214873 0.190478
O O10 0.585961 0.235589 0.249114
O O11 0.561042 0.000000 0.164342
O O12 0.596350 0.500000 0.685124
O O13 0.659868 0.710645 0.659059
O O14 0.585957 0.764417 0.750878
O O15 0.578478 0.732533 0.585414
O O16 0.213622 0.000000 0.598522
O O17 0.938962 0.500000 0.164343
O O18 0.500000 0.261133 0.500000
O O19 0.553131 0.500000 0.499997
O O20 0.578476 0.267466 0.414578
O O21 0.096357 0.000000 0.314873
#
# Coordination Sequence:
#
# PCOD8081343 Si02
#       8
#     8   8   8   8   8   8   8   8
#     4   9  17  30  47  67  91 119 156 202 245 282
#     4   9  17  31  51  71  90 119 160 199 233 273
#     4  10  20  32  46  68  99 129 156 192 238 283
#     4  10  18  30  47  68  92 123 164 201 232 275
#     4   9  17  30  47  67  91 119 156 202 245 282
#     4  10  20  32  46  68  99 129 156 192 238 283
#     4   9  16  26  42  63  89 123 161 197 228 261
#     4  10  18  30  47  68  92 123 164 201 232 275
#
# _framework density 16.025001
#
# number of rings (size 3 to 8) (size 9 to 14) (size 15 to 20)
#    0.000    2.500    1.250    1.875    0.000    5.000 
#    0.000    0.625    0.000    2.250    0.000    0.875 
#    0.000    0.000    0.000    0.000    0.000    0.000 
#
# Total GULP energy -396791.311305 kJ/mol
# GULP energy per Si atom -12399.728478 kJ/mol
# Density = 1.598853 g / cm^3
# Si number density = 16.025001 Si / 1000 Ang^3
#
#
#
# Elastic Constant Matrix: (Units=GPa)
#
#
# Indices 1 2 3 4 5 6 
#
# 1 101.7933 46.5122 58.2490 0.0000 0.0097 0.0000
# 2 46.5122 67.9713 53.6609 0.0000 0.0075 0.0000
# 3 58.2490 53.6609 130.5821 0.0000 0.0126 0.0000
# 4 0.0000 0.0000 0.0000 21.9165 0.0000 -0.0004
# 5 0.0097 0.0075 0.0126 0.0000 5.1994 0.0000
# 6 0.0000 0.0000 0.0000 -0.0004 0.0000 24.8531
#
#
#
# Elastic Compliance Matrix: (Units=1/GPa)
#
#
# Indices 1 2 3 4 5 6 
#
# 1 0.015453 -0.007597 -0.003771 0.000000 -0.000009 0.000000
# 2 -0.007597 0.025512 -0.007095 0.000000 -0.000006 0.000000
# 3 -0.003771 -0.007095 0.012256 0.000000 -0.000012 0.000000
# 4 0.000000 0.000000 0.000000 0.045628 0.000000 0.000001
# 5 -0.000009 -0.000006 -0.000012 0.000000 0.192332 0.000000
# 6 0.000000 0.000000 0.000000 0.000001 0.000000 0.040237
#
#
# Mechanical properties :
#
#
# Convention : Reuss Voigt Hill
#
# Bulk Modulus (GPa) = 61.37135 68.57677 64.97406
# Shear Modulus (GPa) = 13.37704 19.85544 16.61624
#
# Velocity S-wave (km/s) = 2.89236 3.52380 3.22358
# Velocity P-wave (km/s) = 7.03809 7.70991 7.38165
#
# Compressibility (1/GPa) = 0.01629425
#
# Stress axis : x y z
#
# Youngs Moduli (GPa) = 64.71131 39.19735 81.59395
#
# Poissons Ratio (x) = 0.29779 0.30771
# Poissons Ratio (y) = 0.49163 0.57890
# Poissons Ratio (z) = 0.24404 0.27810
#
# Static dielectric constant tensor:
#      x y z
#    x 2.978970 0.000000 0.000030 
#    y 0.000000 2.951640 0.000000 
#    z 0.000030 0.000000 3.033940 
# 
# 
# High freq. dielectric constant tensor:
#      x y z
#    x 1.597630 0.000000 0.000000 
#    y 0.000000 1.608990 0.000000 
#    z 0.000000 0.000000 1.606530 
# 
# From -- ./inp_files/248361.got.cif
#   From: 2010.06.25/outbox.cif.g09.slc.cpg/sg12_125_cif.got.tgz:248361.got - 2010.06.28 00:19:55.
