data_PCOD8081808
_publ_section_title
;
Structure prediction by ZEFSAII (Michael W. Deem and Ramdas Pophale) SiO2 
 PCOD8081808
Probable space group: C 2/M
;
_chemical_formula_sum "Si O2"
_cell_formula_units_Z 64
_cell_length_a 29.399553
_cell_length_b 8.651938
_cell_length_c 15.843530
_cell_angle_alpha 90.000000
_cell_angle_beta 61.724402
_cell_angle_gamma 90.000000
_cell_volume 3549.145538
_symmetry_space_group_name_H-M "C 2/M"
_symmetry_group_IT_number 12
_symmetry_cell_setting 'monoclinic'
loop_
_space_group_symop_operation_xyz
x,y,z
-x,y,-z
-x,-y,-z
x,-y,z
1/2+x,1/2+y,z
1/2-x,1/2+y,-z
1/2-x,1/2-y,-z
1/2+x,1/2-y,z
loop_
_atom_site_type_symbol
_atom_site_label
_atom_site_fract_x
_atom_site_fract_y
_atom_site_fract_z
Si Si1 0.404729 0.320023 0.061308
Si Si2 0.635097 0.182459 0.152185
Si Si3 0.961359 0.320664 0.859932
Si Si4 0.670601 0.320748 0.606589
Si Si5 0.207746 0.682601 0.228489
Si Si6 0.191272 0.681124 0.935197
Si Si7 0.075941 0.321932 0.780247
Si Si8 0.777546 0.318332 0.596531
O O1 0.392274 0.500000 0.063811
O O2 0.352329 0.224032 0.094493
O O3 0.424513 0.284712 0.137301
O O4 0.448708 0.273059 0.955952
O O5 0.576128 0.235988 0.184085
O O6 0.657035 0.246398 0.222407
O O7 0.637824 0.000000 0.154136
O O8 0.671938 0.238917 0.043706
O O9 0.949341 0.500000 0.890186
O O10 0.020835 0.294833 0.781938
O O11 0.656173 0.500000 0.622114
O O12 0.620897 0.223079 0.676507
O O13 0.717683 0.282795 0.628657
O O14 0.685475 0.273715 0.498938
O O15 0.206978 0.500000 0.236756
O O16 0.256957 0.729050 0.130993
O O17 0.209893 0.748992 0.321547
O O18 0.202175 0.500000 0.922063
O O19 0.082053 0.500000 0.801649
O O20 0.788845 0.500000 0.577362
#
# Coordination Sequence:
#
# PCOD8081808 Si02
#       8
#     8   8   8   8   8   8   8   8
#     4  11  21  32  48  72 102 133 168 206 243 287
#     4   8  16  31  49  70  98 132 168 206 244 284
#     4   9  19  35  51  70  99 134 169 203 243 289
#     4  10  20  34  52  74 101 128 157 197 243 296
#     4  10  18  30  51  75  99 128 165 208 249 291
#     4  10  19  31  47  70 103 137 168 201 242 294
#     4  11  21  33  52  74  99 131 165 202 245 295
#     4   9  19  34  51  73  99 126 156 195 246 298
#
# _framework density 18.032509999999998
#
# number of rings (size 3 to 8) (size 9 to 14) (size 15 to 20)
#    0.000    2.250    0.000    4.500    0.000    4.500 
#    0.000    2.500    0.000    0.750    0.000    5.250 
#    0.000    0.000    0.000    0.000    0.000    0.000 
#
# Total GULP energy -396740.448579 kJ/mol
# GULP energy per Si atom -12398.139018 kJ/mol
# Density = 1.799147 g / cm^3
# Si number density = 18.032510 Si / 1000 Ang^3
#
#
#
# Elastic Constant Matrix: (Units=GPa)
#
#
# Indices 1 2 3 4 5 6 
#
# 1 127.4254 12.7039 73.3689 0.0000 9.5491 0.0000
# 2 12.7039 20.9826 23.3385 0.0001 2.0036 0.0002
# 3 73.3689 23.3385 86.1721 0.0000 6.6101 0.0000
# 4 0.0000 0.0001 0.0000 24.3362 0.0000 -4.4780
# 5 9.5491 2.0036 6.6101 0.0000 30.9469 0.0000
# 6 0.0000 0.0002 0.0000 -4.4780 0.0000 17.2728
#
#
#
# Elastic Compliance Matrix: (Units=1/GPa)
#
#
# Indices 1 2 3 4 5 6 
#
# 1 0.016415 0.008055 -0.015991 0.000000 -0.002171 0.000000
# 2 0.008055 0.072165 -0.026285 0.000000 -0.001543 -0.000001
# 3 -0.015991 -0.026285 0.032360 0.000000 -0.000276 0.000000
# 4 0.000000 0.000000 0.000000 0.043149 0.000000 0.011187
# 5 -0.002171 -0.001543 -0.000276 0.000000 0.033142 0.000000
# 6 0.000000 -0.000001 0.000000 0.011187 0.000000 0.060794
#
#
# Mechanical properties :
#
#
# Convention : Reuss Voigt Hill
#
# Bulk Modulus (GPa) = 19.04820 50.37808 34.71314
# Shear Modulus (GPa) = 14.53631 22.85577 18.69604
#
# Velocity S-wave (km/s) = 2.84230 3.56403 3.22343
# Velocity P-wave (km/s) = 4.62144 6.70331 5.75726
#
# Compressibility (1/GPa) = 0.05249839
#
# Stress axis : x y z
#
# Youngs Moduli (GPa) = 60.92155 13.85710 30.90248
#
# Poissons Ratio (x) = -0.11163 0.49416
# Poissons Ratio (y) = -0.49075 0.81228
# Poissons Ratio (z) = 0.97419 0.36424
#
# Static dielectric constant tensor:
#      x y z
#    x 3.688620 0.000000 0.161480 
#    y 0.000000 3.208450 0.000000 
#    z 0.161480 0.000000 3.201130 
# 
# 
# High freq. dielectric constant tensor:
#      x y z
#    x 1.702980 0.000000 0.002430 
#    y 0.000000 1.689550 0.000000 
#    z 0.002430 0.000000 1.673110 
# 
# From -- ./inp_files/248974.got.cif
#   From: 2010.06.25/outbox.cif.g09.slc.cpg/sg12_125_cif.got.tgz:248974.got - 2010.06.28 00:19:55.
