data_PCOD8081259
_publ_section_title
;
Structure prediction by ZEFSAII (Michael W. Deem and Ramdas Pophale) SiO2 
 PCOD8081259
Probable space group: C 2/M
;
_chemical_formula_sum "Si O2"
_cell_formula_units_Z 56
_cell_length_a 30.172413
_cell_length_b 8.546824
_cell_length_c 31.853809
_cell_angle_alpha 90.000000
_cell_angle_beta 153.776495
_cell_angle_gamma 90.000000
_cell_volume 3629.731770
_symmetry_space_group_name_H-M "C 2/M"
_symmetry_group_IT_number 12
_symmetry_cell_setting 'monoclinic'
loop_
_space_group_symop_operation_xyz
x,y,z
-x,y,-z
-x,-y,-z
x,-y,z
1/2+x,1/2+y,z
1/2-x,1/2+y,-z
1/2-x,1/2-y,-z
1/2+x,1/2-y,z
loop_
_atom_site_type_symbol
_atom_site_label
_atom_site_fract_x
_atom_site_fract_y
_atom_site_fract_z
Si Si1 0.820318 0.316949 0.651220
Si Si2 0.032460 0.821545 0.983120
Si Si3 0.475154 0.316193 0.716502
Si Si4 0.328416 0.184594 0.533279
Si Si5 0.194076 0.316062 0.912097
Si Si6 0.555511 0.321955 0.175698
Si Si7 0.854289 0.682558 0.990851
O O1 0.804227 0.500000 0.635600
O O2 0.911409 0.267218 0.698623
O O3 0.714040 0.236845 0.548252
O O4 0.849002 0.264100 0.722822
O O5 0.938431 0.815766 0.870281
O O6 0.067883 0.000000 0.020395
O O7 0.125005 0.725825 0.040743
O O8 0.000000 0.745693 0.000000
O O9 0.460135 0.500000 0.708320
O O10 0.435711 0.259446 0.636953
O O11 0.589841 0.271825 0.818525
O O12 0.250000 0.250000 0.500000
O O13 0.336825 0.000000 0.542914
O O14 0.176264 0.500000 0.901659
O O15 0.258948 0.279290 0.925808
O O16 0.250000 0.250000 0.000000
O O17 0.550652 0.500000 0.187940
O O18 0.451782 0.234896 0.101170
O O19 0.833897 0.500000 0.979109
#
# Coordination Sequence:
#
# PCOD8081259 Si02
#       7
#     8   8   8   8   8   8   8
#     4  11  19  29  44  64  88 117 151 189 229 271
#     4   8  16  31  49  67  91 122 152 185 229 277
#     4  11  21  33  46  62  85 116 153 192 229 268
#     4  10  18  30  45  62  83 112 148 188 229 270
#     4  12  23  35  47  63  88 122 159 194 227 267
#     4   9  17  29  44  64  89 118 148 182 223 270
#     4  10  19  31  45  66  91 119 152 188 226 268
#
# _framework density 15.428138000000001
#
# number of rings (size 3 to 8) (size 9 to 14) (size 15 to 20)
#    0.857    1.000    0.000    9.000    0.000    0.286 
#    0.000    0.000    0.000    0.000    0.000    0.000 
#    0.000    1.143    0.000   12.286    0.000    5.429 
#
# Total GULP energy -346976.707420 kJ/mol
# GULP energy per Si atom -12392.025265 kJ/mol
# Density = 1.539302 g / cm^3
# Si number density = 15.428138 Si / 1000 Ang^3
#
#
#
# Elastic Constant Matrix: (Units=GPa)
#
#
# Indices 1 2 3 4 5 6 
#
# 1 58.6083 7.4079 22.7589 -0.0001 -8.2650 0.0000
# 2 7.4079 83.8165 16.7449 -0.0001 -4.4468 -0.0025
# 3 22.7589 16.7449 100.1015 -0.0003 -6.5153 -0.0001
# 4 -0.0001 -0.0001 -0.0003 28.9304 -0.0001 -0.8462
# 5 -8.2650 -4.4468 -6.5153 -0.0001 14.2347 -0.0002
# 6 0.0000 -0.0025 -0.0001 -0.8462 -0.0002 17.6130
#
#
#
# Elastic Compliance Matrix: (Units=1/GPa)
#
#
# Indices 1 2 3 4 5 6 
#
# 1 0.019978 -0.000486 -0.003830 0.000000 0.009695 0.000000
# 2 -0.000486 0.012481 -0.001795 0.000000 0.002795 0.000002
# 3 -0.003830 -0.001795 0.011317 0.000000 0.002395 0.000000
# 4 0.000000 0.000000 0.000000 0.034614 0.000000 0.001663
# 5 0.009695 0.002795 0.002395 0.000000 0.077850 0.000001
# 6 0.000000 0.000002 0.000000 0.001663 0.000001 0.056856
#
#
# Mechanical properties :
#
#
# Convention : Reuss Voigt Hill
#
# Bulk Modulus (GPa) = 31.69267 37.37219 34.53243
# Shear Modulus (GPa) = 21.20114 25.19660 23.19887
#
# Velocity S-wave (km/s) = 3.71102 4.04562 3.88193
# Velocity P-wave (km/s) = 6.24091 6.78960 6.52103
#
# Compressibility (1/GPa) = 0.03155303
#
# Stress axis : x y z
#
# Youngs Moduli (GPa) = 50.05430 80.12341 88.36400
#
# Poissons Ratio (x) = 0.03896 0.33842
# Poissons Ratio (y) = 0.02434 0.15864
# Poissons Ratio (z) = 0.19170 0.14385
#
# Static dielectric constant tensor:
#      x y z
#    x 2.655290 0.000000 -0.173380 
#    y 0.000000 3.059960 0.000000 
#    z -0.173380 0.000000 3.354060 
# 
# 
# High freq. dielectric constant tensor:
#      x y z
#    x 1.538160 0.000000 -0.016210 
#    y 0.000000 1.612800 0.000000 
#    z -0.016210 0.000000 1.587870 
# 
# From -- ./inp_files/384436.got.cif
#   From: 2010.06.25/outbox.cif.g09.slc.cpg/sg12_193_cif.got.tgz:384436.got - 2010.06.28 00:19:55.
