data_PCOD8081713
_publ_section_title
;
Structure prediction by ZEFSAII (Michael W. Deem and Ramdas Pophale) SiO2 
 PCOD8081713
Probable space group: C 2/M
;
_chemical_formula_sum "Si O2"
_cell_formula_units_Z 64
_cell_length_a 24.641809
_cell_length_b 8.703028
_cell_length_c 21.345463
_cell_angle_alpha 90.000000
_cell_angle_beta 128.860770
_cell_angle_gamma 90.000000
_cell_volume 3564.541070
_symmetry_space_group_name_H-M "C 2/M"
_symmetry_group_IT_number 12
_symmetry_cell_setting 'monoclinic'
loop_
_space_group_symop_operation_xyz
x,y,z
-x,y,-z
-x,-y,-z
x,-y,z
1/2+x,1/2+y,z
1/2-x,1/2+y,-z
1/2-x,1/2-y,-z
1/2+x,1/2-y,z
loop_
_atom_site_type_symbol
_atom_site_label
_atom_site_fract_x
_atom_site_fract_y
_atom_site_fract_z
Si Si1 0.627226 0.679955 0.452950
Si Si2 0.273687 0.316746 0.367577
Si Si3 0.008895 0.679849 0.794515
Si Si4 0.363165 0.682085 0.680853
Si Si5 0.358669 0.321190 0.060758
Si Si6 0.830130 0.818239 0.277482
Si Si7 0.527042 0.680187 0.675047
Si Si8 0.243354 0.180335 0.900262
O O1 0.639701 0.500000 0.461501
O O2 0.677830 0.753316 0.541812
O O3 0.645131 0.744045 0.396709
O O4 0.546707 0.717274 0.411714
O O5 0.275318 0.500000 0.368850
O O6 0.195423 0.258820 0.318925
O O7 0.302727 0.249751 0.323060
O O8 0.995272 0.500000 0.788939
O O9 0.068665 0.729368 0.886611
O O10 0.034403 0.725424 0.743968
O O11 0.937889 0.767084 0.761490
O O12 0.357009 0.500000 0.679586
O O13 0.375298 0.500000 0.068154
O O14 0.316397 0.279706 0.092976
O O15 0.314341 0.268921 0.968324
O O16 0.910827 0.769447 0.326257
O O17 0.782616 0.757920 0.185861
O O18 0.825197 0.000000 0.275443
O O19 0.532034 0.500000 0.696598
O O20 0.259142 0.000000 0.911337
#
# Coordination Sequence:
#
# PCOD8081713 Si02
#       8
#     8   8   8   8   8   8   8   8
#     4   8  16  29  50  75  99 127 168 216 255 293
#     4  10  19  32  50  75 100 132 175 212 248 294
#     4  11  20  31  51  78 102 127 163 211 255 299
#     4  10  20  35  52  71  98 133 169 213 260 297
#     4  10  18  30  50  75 104 133 163 201 246 296
#     4   9  17  30  50  72 104 140 168 203 245 295
#     4   9  16  31  49  71 103 138 167 200 251 300
#     4   9  17  30  47  72 104 137 167 198 239 292
#
# _framework density 17.954625
#
# number of rings (size 3 to 8) (size 9 to 14) (size 15 to 20)
#    0.000    2.500    1.250    3.000    0.000    1.000 
#    0.000    6.250    0.000    0.750    0.000    9.625 
#    0.000    0.000    0.000    0.000    0.000    0.000 
#
# Total GULP energy -396763.715453 kJ/mol
# GULP energy per Si atom -12398.866108 kJ/mol
# Density = 1.791376 g / cm^3
# Si number density = 17.954625 Si / 1000 Ang^3
#
#
#
# Elastic Constant Matrix: (Units=GPa)
#
#
# Indices 1 2 3 4 5 6 
#
# 1 117.7693 14.2476 47.4113 0.0000 12.6188 0.0000
# 2 14.2476 31.0410 16.9192 0.0000 0.9865 0.0000
# 3 47.4113 16.9192 90.5031 0.0000 18.6567 0.0000
# 4 0.0000 0.0000 0.0000 21.8991 0.0000 4.7335
# 5 12.6188 0.9865 18.6567 0.0000 21.7971 0.0000
# 6 0.0000 0.0000 0.0000 4.7335 0.0000 20.6145
#
#
#
# Elastic Compliance Matrix: (Units=1/GPa)
#
#
# Indices 1 2 3 4 5 6 
#
# 1 0.010957 -0.002301 -0.004886 0.000000 -0.002057 0.000000
# 2 -0.002301 0.036808 -0.006808 0.000000 0.005493 0.000000
# 3 -0.004886 -0.006808 0.017285 0.000000 -0.011658 0.000000
# 4 0.000000 0.000000 0.000000 0.048049 0.000000 -0.011033
# 5 -0.002057 0.005493 -0.011658 0.000000 0.056798 0.000000
# 6 0.000000 0.000000 0.000000 -0.011033 0.000000 0.051043
#
#
# Mechanical properties :
#
#
# Convention : Reuss Voigt Hill
#
# Bulk Modulus (GPa) = 26.98325 44.05217 35.51771
# Shear Modulus (GPa) = 19.13641 23.57782 21.35711
#
# Velocity S-wave (km/s) = 3.26823 3.62773 3.45266
# Velocity P-wave (km/s) = 5.41322 6.49120 5.97657
#
# Compressibility (1/GPa) = 0.03706003
#
# Stress axis : x y z
#
# Youngs Moduli (GPa) = 91.26738 27.16818 57.85444
#
# Poissons Ratio (x) = 0.06251 0.28266
# Poissons Ratio (y) = 0.20998 0.39389
# Poissons Ratio (z) = 0.44590 0.18497
#
# Static dielectric constant tensor:
#      x y z
#    x 3.299340 0.000000 0.076880 
#    y 0.000000 3.033810 0.000000 
#    z 0.076880 0.000000 3.560840 
# 
# 
# High freq. dielectric constant tensor:
#      x y z
#    x 1.674140 0.000000 0.020920 
#    y 0.000000 1.670700 0.000000 
#    z 0.020920 0.000000 1.698040 
# 
# From -- ./inp_files/348563.got.cif
#   From: 2010.06.25/outbox.cif.g09.slc.cpg/sg12_175_cif.got.tgz:348563.got - 2010.06.28 00:19:55.
