data_PCOD8081689
_publ_section_title
;
Structure prediction by ZEFSAII (Michael W. Deem and Ramdas Pophale) SiO2 
 PCOD8081689
Probable space group: C 2/M
;
_chemical_formula_sum "Si O2"
_cell_formula_units_Z 48
_cell_length_a 23.947968
_cell_length_b 8.655415
_cell_length_c 15.119761
_cell_angle_alpha 90.000000
_cell_angle_beta 120.798722
_cell_angle_gamma 90.000000
_cell_volume 2692.031601
_symmetry_space_group_name_H-M "C 2/M"
_symmetry_group_IT_number 12
_symmetry_cell_setting 'monoclinic'
loop_
_space_group_symop_operation_xyz
x,y,z
-x,y,-z
-x,-y,-z
x,-y,z
1/2+x,1/2+y,z
1/2-x,1/2+y,-z
1/2-x,1/2-y,-z
1/2+x,1/2-y,z
loop_
_atom_site_type_symbol
_atom_site_label
_atom_site_fract_x
_atom_site_fract_y
_atom_site_fract_z
Si Si1 0.930472 0.818057 0.765371
Si Si2 0.111052 0.175124 0.080904
Si Si3 0.241285 0.680263 0.225060
Si Si4 0.697990 0.819039 0.889369
Si Si5 0.212004 0.182989 0.387106
Si Si6 0.930780 0.176661 0.147078
O O1 0.931561 0.770852 0.869838
O O2 0.863077 0.756795 0.667797
O O3 0.996550 0.757820 0.770283
O O4 0.933609 0.000000 0.758779
O O5 0.172732 0.287315 0.121858
O O6 0.137048 0.000000 0.118483
O O7 0.069034 0.183390 0.959005
O O8 0.252985 0.500000 0.247195
O O9 0.295617 0.747978 0.203370
O O10 0.245589 0.760429 0.324128
O O11 0.624088 0.785654 0.857553
O O12 0.710684 0.000000 0.896433
O O13 0.750000 0.750000 0.000000
O O14 0.250000 0.250000 0.500000
O O15 0.214827 0.000000 0.391889
O O16 0.919469 0.000000 0.170173
#
# Coordination Sequence:
#
# PCOD8081689 Si02
#       6
#     8   8   8   8   8   8
#     4   8  16  30  50  77 105 137 175 213 260 319
#     4   9  16  28  48  73 105 141 176 213 254 307
#     4  11  21  34  53  78 107 140 180 222 265 311
#     4  12  23  35  50  73 107 147 185 220 258 307
#     4  10  20  37  60  84 108 136 173 220 271 319
#     4  10  18  30  50  74 105 144 180 213 255 310
#
# _framework density 17.830400999999998
#
# number of rings (size 3 to 8) (size 9 to 14) (size 15 to 20)
#    0.000    2.000    1.667    5.000    0.000    2.000 
#    0.000    4.167    0.000    6.000    0.000    7.000 
#    0.000    0.000    0.000    0.000    0.000    0.000 
#
# Total GULP energy -297451.463038 kJ/mol
# GULP energy per Si atom -12393.810960 kJ/mol
# Density = 1.778982 g / cm^3
# Si number density = 17.830401 Si / 1000 Ang^3
#
#
#
# Elastic Constant Matrix: (Units=GPa)
#
#
# Indices 1 2 3 4 5 6 
#
# 1 134.4368 32.2135 53.0409 0.0000 5.2852 0.0000
# 2 32.2135 86.5047 33.7075 0.0000 -1.2453 0.0000
# 3 53.0409 33.7075 91.3039 0.0000 1.1166 0.0000
# 4 0.0000 0.0000 0.0000 24.3742 0.0000 -3.0150
# 5 5.2852 -1.2453 1.1166 0.0000 16.0595 0.0000
# 6 0.0000 0.0000 0.0000 -3.0150 0.0000 25.5109
#
#
#
# Elastic Compliance Matrix: (Units=1/GPa)
#
#
# Indices 1 2 3 4 5 6 
#
# 1 0.010004 -0.001775 -0.005119 0.000000 -0.003074 0.000000
# 2 -0.001775 0.013849 -0.004105 0.000000 0.001943 0.000000
# 3 -0.005119 -0.004105 0.015438 0.000000 0.000293 0.000000
# 4 0.000000 0.000000 0.000000 0.041636 0.000000 0.004921
# 5 -0.003074 0.001943 0.000293 0.000000 0.063410 0.000000
# 6 0.000000 0.000000 0.000000 0.004921 0.000000 0.039781
#
#
# Mechanical properties :
#
#
# Convention : Reuss Voigt Hill
#
# Bulk Modulus (GPa) = 57.82772 61.12990 59.47881
# Shear Modulus (GPa) = 23.59824 26.07447 24.83636
#
# Velocity S-wave (km/s) = 3.64192 3.82823 3.73624
# Velocity P-wave (km/s) = 7.08430 7.34159 7.21409
#
# Compressibility (1/GPa) = 0.01729274
#
# Stress axis : x y z
#
# Youngs Moduli (GPa) = 99.95779 72.20882 64.77502
#
# Poissons Ratio (x) = 0.12818 0.33157
# Poissons Ratio (y) = 0.17744 0.26592
# Poissons Ratio (z) = 0.51166 0.29643
#
# Static dielectric constant tensor:
#      x y z
#    x 3.549240 0.000000 0.027000 
#    y 0.000000 3.184210 0.000000 
#    z 0.027000 0.000000 3.120720 
# 
# 
# High freq. dielectric constant tensor:
#      x y z
#    x 1.697110 0.000000 -0.001230 
#    y 0.000000 1.677480 0.000000 
#    z -0.001230 0.000000 1.656460 
# 
# From -- ./inp_files/230429.got.cif
#   From: 2010.06.25/outbox.cif.g09.slc.cpg/sg12_116_cif.got.tgz:230429.got - 2010.06.28 00:19:55.
