data_PCOD8081049
_publ_section_title
;
Structure prediction by ZEFSAII (Michael W. Deem and Ramdas Pophale) SiO2 
 PCOD8081049
Probable space group: C 2/M
;
_chemical_formula_sum "Si O2"
_cell_formula_units_Z 64
_cell_length_a 31.895285
_cell_length_b 8.770491
_cell_length_c 16.024608
_cell_angle_alpha 90.000000
_cell_angle_beta 126.143305
_cell_angle_gamma 90.000000
_cell_volume 3619.963411
_symmetry_space_group_name_H-M "C 2/M"
_symmetry_group_IT_number 12
_symmetry_cell_setting 'monoclinic'
loop_
_space_group_symop_operation_xyz
x,y,z
-x,y,-z
-x,-y,-z
x,-y,z
1/2+x,1/2+y,z
1/2-x,1/2+y,-z
1/2-x,1/2-y,-z
1/2+x,1/2-y,z
loop_
_atom_site_type_symbol
_atom_site_label
_atom_site_fract_x
_atom_site_fract_y
_atom_site_fract_z
Si Si1 0.441600 0.675403 0.820582
Si Si2 0.319668 0.180486 0.420037
Si Si3 0.667649 0.322812 0.385743
Si Si4 0.715619 0.178654 0.283725
Si Si5 0.040230 0.321397 0.853809
Si Si6 0.027731 0.681594 0.656215
Si Si7 0.077453 0.319106 0.548302
Si Si8 0.391830 0.821984 0.917107
O O1 0.457171 0.500000 0.842775
O O2 0.392782 0.705584 0.703396
O O3 0.489198 0.767541 0.840431
O O4 0.429140 0.729904 0.899223
O O5 0.320235 0.264863 0.508538
O O6 0.266281 0.229413 0.311659
O O7 0.367638 0.242543 0.420942
O O8 0.322525 0.000000 0.436336
O O9 0.682483 0.500000 0.394057
O O10 0.702348 0.226664 0.362480
O O11 0.668233 0.224254 0.166567
O O12 0.727271 0.000000 0.294791
O O13 0.034613 0.500000 0.837005
O O14 0.044756 0.249468 0.766080
O O15 0.091177 0.280184 0.968403
O O16 0.029074 0.500000 0.658669
O O17 0.067088 0.741380 0.630490
O O18 0.969202 0.737495 0.566569
O O19 0.078245 0.500000 0.549984
O O20 0.399650 0.000000 0.906717
#
# Coordination Sequence:
#
# PCOD8081049 Si02
#       8
#     8   8   8   8   8   8   8   8
#     4  10  20  31  45  68  98 128 154 184 227 278
#     4  11  20  30  48  72  94 119 154 192 232 275
#     4  10  20  33  47  67  96 126 156 188 225 273
#     4  10  20  34  48  63  90 126 160 194 230 269
#     4  10  18  29  49  72  92 119 157 197 231 267
#     4   8  14  27  47  71  96 118 144 182 228 273
#     4   8  15  27  45  71  98 119 142 180 229 278
#     4   9  19  33  47  65  90 123 162 197 228 265
#
# _framework density 17.679736999999999
#
# number of rings (size 3 to 8) (size 9 to 14) (size 15 to 20)
#    0.000    2.500    0.000    3.750    0.000    5.000 
#    0.000    0.000    0.000    2.250    0.000    6.125 
#    0.000    0.000    0.000    0.000    0.000    0.500 
#
# Total GULP energy -396720.436410 kJ/mol
# GULP energy per Si atom -12397.513638 kJ/mol
# Density = 1.763950 g / cm^3
# Si number density = 17.679737 Si / 1000 Ang^3
#
#
#
# Elastic Constant Matrix: (Units=GPa)
#
#
# Indices 1 2 3 4 5 6 
#
# 1 113.7790 7.7769 67.7102 0.0000 10.1378 0.0000
# 2 7.7769 14.0056 18.0117 0.0000 1.9956 0.0000
# 3 67.7102 18.0117 130.0147 0.0000 -6.7195 0.0000
# 4 0.0000 0.0000 0.0000 17.1538 0.0000 8.6597
# 5 10.1378 1.9956 -6.7195 0.0000 16.7040 0.0000
# 6 0.0000 0.0000 0.0000 8.6597 0.0000 15.5103
#
#
#
# Elastic Compliance Matrix: (Units=1/GPa)
#
#
# Indices 1 2 3 4 5 6 
#
# 1 0.015230 0.005605 -0.009416 0.000000 -0.013701 0.000000
# 2 0.005605 0.093081 -0.016916 0.000000 -0.021327 0.000000
# 3 -0.009416 -0.016916 0.015664 0.000000 0.014037 0.000000
# 4 0.000000 0.000000 0.000000 0.081176 0.000000 -0.045322
# 5 -0.013701 -0.021327 0.014037 0.000000 0.076376 0.000000
# 6 0.000000 0.000000 0.000000 -0.045322 0.000000 0.089777
#
#
# Mechanical properties :
#
#
# Convention : Reuss Voigt Hill
#
# Bulk Modulus (GPa) = 12.11819 49.42188 30.77003
# Shear Modulus (GPa) = 11.35675 20.82700 16.09187
#
# Velocity S-wave (km/s) = 2.53723 3.43595 3.02020
# Velocity P-wave (km/s) = 3.93097 6.61480 5.44096
#
# Compressibility (1/GPa) = 0.08252061
#
# Stress axis : x y z
#
# Youngs Moduli (GPa) = 65.65837 10.74330 63.83912
#
# Poissons Ratio (x) = -0.06022 0.60113
# Poissons Ratio (y) = -0.36802 1.07992
# Poissons Ratio (z) = 0.61826 0.18174
#
# Static dielectric constant tensor:
#      x y z
#    x 3.457410 0.000000 0.061550 
#    y 0.000000 3.073810 0.000000 
#    z 0.061550 0.000000 3.582330 
# 
# 
# High freq. dielectric constant tensor:
#      x y z
#    x 1.670660 0.000000 0.010780 
#    y 0.000000 1.664230 0.000000 
#    z 0.010780 0.000000 1.683430 
# 
# From -- ./inp_files/248960.got.cif
#   From: 2010.06.25/outbox.cif.g09.slc.cpg/sg12_125_cif.got.tgz:248960.got - 2010.06.28 00:19:55.
