data_PCOD8081022
_publ_section_title
;
Structure prediction by ZEFSAII (Michael W. Deem and Ramdas Pophale) SiO2 
 PCOD8081022
Probable space group: C 2/M
;
_chemical_formula_sum "Si O2"
_cell_formula_units_Z 48
_cell_length_a 18.029469
_cell_length_b 19.829053
_cell_length_c 9.381132
_cell_angle_alpha 90.000000
_cell_angle_beta 51.475457
_cell_angle_gamma 90.000000
_cell_volume 2623.834780
_symmetry_space_group_name_H-M "C 2/M"
_symmetry_group_IT_number 12
_symmetry_cell_setting 'monoclinic'
loop_
_space_group_symop_operation_xyz
x,y,z
-x,y,-z
-x,-y,-z
x,-y,z
1/2+x,1/2+y,z
1/2-x,1/2+y,-z
1/2-x,1/2-y,-z
1/2+x,1/2-y,z
loop_
_atom_site_type_symbol
_atom_site_label
_atom_site_fract_x
_atom_site_fract_y
_atom_site_fract_z
Si Si1 0.387360 0.075485 0.838997
Si Si2 0.235292 0.426301 0.732286
Si Si3 0.592423 0.674884 0.468157
Si Si4 0.484616 0.259178 0.174391
Si Si5 0.560958 0.112129 0.791629
Si Si6 0.347350 0.780142 0.827379
O O1 0.501326 0.084839 0.726583
O O2 0.347916 0.138769 0.792348
O O3 0.369953 0.000000 0.793272
O O4 0.331125 0.083434 0.052692
O O5 0.281655 0.500000 0.671277
O O6 0.321035 0.375320 0.640633
O O7 0.167583 0.417517 0.674202
O O8 0.500000 0.643498 0.500000
O O9 0.569744 0.687924 0.660848
O O10 0.619733 0.744834 0.357816
O O11 0.422014 0.192331 0.229548
O O12 0.582867 0.235837 0.126085
O O13 0.500000 0.292978 0.000000
O O14 0.500000 0.088503 0.000000
O O15 0.250000 0.750000 0.000000
#
# Coordination Sequence:
#
# PCOD8081022 Si02
#       6
#     8   8   8   8   8   8
#     4   9  16  28  50  76 105 139 170 204 259 318
#     4  10  18  29  48  75 105 139 176 212 256 308
#     4  10  21  34  51  77 107 138 174 219 263 299
#     4   9  19  34  53  77 102 133 178 218 259 309
#     4   8  15  28  47  75 104 127 164 215 259 306
#     4  10  18  33  52  77 111 137 168 216 260 307
#
# _framework density 18.293834
#
# number of rings (size 3 to 8) (size 9 to 14) (size 15 to 20)
#    0.000    2.667    1.667    1.500    0.000    3.000 
#    0.000    0.000    0.000   14.000    0.000    0.000 
#    0.000    0.000    0.000    0.000    0.000    0.000 
#
# Total GULP energy -297366.599726 kJ/mol
# GULP energy per Si atom -12390.274989 kJ/mol
# Density = 1.825220 g / cm^3
# Si number density = 18.293834 Si / 1000 Ang^3
#
#
#
# Elastic Constant Matrix: (Units=GPa)
#
#
# Indices 1 2 3 4 5 6 
#
# 1 73.6565 62.8710 40.6540 0.0000 -14.5819 0.0000
# 2 62.8710 130.2478 33.6141 0.0000 -11.2499 0.0000
# 3 40.6540 33.6141 60.8472 0.0000 4.5572 0.0000
# 4 0.0000 0.0000 0.0000 13.2735 0.0000 -1.8997
# 5 -14.5819 -11.2499 4.5572 0.0000 29.1498 0.0000
# 6 0.0000 0.0000 0.0000 -1.8997 0.0000 26.4179
#
#
#
# Elastic Compliance Matrix: (Units=1/GPa)
#
#
# Indices 1 2 3 4 5 6 
#
# 1 0.038502 -0.011719 -0.020595 0.000000 0.017957 0.000000
# 2 -0.011719 0.013082 0.000672 0.000000 -0.000918 0.000000
# 3 -0.020595 0.000672 0.030938 0.000000 -0.014880 0.000000
# 4 0.000000 0.000000 0.000000 0.076121 0.000000 0.005474
# 5 0.017957 -0.000918 -0.014880 0.000000 0.045260 0.000000
# 6 0.000000 0.000000 0.000000 0.005474 0.000000 0.038247
#
#
# Mechanical properties :
#
#
# Convention : Reuss Voigt Hill
#
# Bulk Modulus (GPa) = 51.98299 59.89221 55.93760
# Shear Modulus (GPa) = 16.03351 22.27574 19.15463
#
# Velocity S-wave (km/s) = 2.96369 3.49329 3.23933
# Velocity P-wave (km/s) = 6.33944 7.00577 6.68092
#
# Compressibility (1/GPa) = 0.01923706
#
# Stress axis : x y z
#
# Youngs Moduli (GPa) = 25.97296 76.44309 32.32223
#
# Poissons Ratio (x) = 0.89581 0.66569
# Poissons Ratio (y) = 0.30437 -0.02171
# Poissons Ratio (z) = 0.53492 -0.05134
#
# Static dielectric constant tensor:
#      x y z
#    x 3.425970 0.000000 -0.044440 
#    y 0.000000 3.450210 0.000000 
#    z -0.044440 0.000000 3.143230 
# 
# 
# High freq. dielectric constant tensor:
#      x y z
#    x 1.698530 0.000000 -0.010950 
#    y 0.000000 1.700610 0.000000 
#    z -0.010950 0.000000 1.678910 
# 
# From -- ./inp_files/75444.got.cif
#   From: 2010.06.25/outbox.cif.g09.slc.cpg/sg12_38_cif.got.tgz:75444.got - 2010.06.28 00:19:55.
