data_PCOD8081151
_publ_section_title
;
Structure prediction by ZEFSAII (Michael W. Deem and Ramdas Pophale) SiO2 
 PCOD8081151
Probable space group: C 2/M
;
_chemical_formula_sum "Si O2"
_cell_formula_units_Z 40
_cell_length_a 20.524443
_cell_length_b 8.931561
_cell_length_c 21.535812
_cell_angle_alpha 90.000000
_cell_angle_beta 144.643545
_cell_angle_gamma 90.000000
_cell_volume 2284.465439
_symmetry_space_group_name_H-M "C 2/M"
_symmetry_group_IT_number 12
_symmetry_cell_setting 'monoclinic'
loop_
_space_group_symop_operation_xyz
x,y,z
-x,y,-z
-x,-y,-z
x,-y,z
1/2+x,1/2+y,z
1/2-x,1/2+y,-z
1/2-x,1/2-y,-z
1/2+x,1/2-y,z
loop_
_atom_site_type_symbol
_atom_site_label
_atom_site_fract_x
_atom_site_fract_y
_atom_site_fract_z
Si Si1 0.527017 0.325672 0.450084
Si Si2 0.241215 0.325540 0.559657
Si Si3 0.189489 0.827389 0.008818
Si Si4 0.510652 0.327193 0.222332
Si Si5 0.887294 0.676106 0.239818
O O1 0.500000 0.291681 0.500000
O O2 0.541196 0.500000 0.447160
O O3 0.642911 0.245083 0.523652
O O4 0.423366 0.262882 0.329441
O O5 0.216355 0.500000 0.530885
O O6 0.250000 0.250000 0.500000
O O7 0.357846 0.296901 0.687253
O O8 0.055774 0.793399 0.895083
O O9 0.214907 0.000000 0.020417
O O10 0.250000 0.750000 0.000000
O O11 0.254745 0.779740 0.123010
O O12 0.491202 0.500000 0.227162
O O13 0.466373 0.223847 0.243741
O O14 0.903336 0.500000 0.263528
#
# Coordination Sequence:
#
# PCOD8081151 Si02
#       5
#     8   8   8   8   8
#     4  11  24  39  53  71 101 141 180 218 262 309
#     4  11  21  33  54  80 107 137 170 212 258 308
#     4   8  15  27  44  71 102 131 163 201 250 304
#     4   9  17  30  49  74 106 136 163 202 254 310
#     4  10  18  29  50  76 102 132 169 213 255 304
#
# _framework density 17.509567000000001
#
# number of rings (size 3 to 8) (size 9 to 14) (size 15 to 20)
#    0.000    2.200    2.000    1.800    0.000    3.200 
#    0.000    0.000    0.000    1.200    0.000    8.400 
#    0.000    0.000    0.000    0.000    0.000    0.000 
#
# Total GULP energy -247762.232543 kJ/mol
# GULP energy per Si atom -12388.111627 kJ/mol
# Density = 1.746971 g / cm^3
# Si number density = 17.509567 Si / 1000 Ang^3
#
#
#
# Elastic Constant Matrix: (Units=GPa)
#
#
# Indices 1 2 3 4 5 6 
#
# 1 67.8974 48.4862 59.9189 0.0000 0.7320 0.0000
# 2 48.4862 85.7139 63.7905 0.0000 -1.9538 0.0000
# 3 59.9189 63.7905 199.1481 0.0000 0.1251 0.0000
# 4 0.0000 0.0000 0.0000 24.3185 0.0000 -1.0977
# 5 0.7320 -1.9538 0.1251 0.0000 19.2129 0.0000
# 6 0.0000 0.0000 0.0000 -1.0977 0.0000 22.3321
#
#
#
# Elastic Compliance Matrix: (Units=1/GPa)
#
#
# Indices 1 2 3 4 5 6 
#
# 1 0.027328 -0.012332 -0.004271 0.000000 -0.002267 0.000000
# 2 -0.012332 0.020932 -0.002996 0.000000 0.002618 0.000000
# 3 -0.004271 -0.002996 0.007266 0.000000 -0.000189 0.000000
# 4 0.000000 0.000000 0.000000 0.041212 0.000000 0.002026
# 5 -0.002267 0.002618 -0.000189 0.000000 0.052402 0.000000
# 6 0.000000 0.000000 0.000000 0.002026 0.000000 0.044878
#
#
# Mechanical properties :
#
#
# Convention : Reuss Voigt Hill
#
# Bulk Modulus (GPa) = 61.24299 77.46118 69.35208
# Shear Modulus (GPa) = 20.95038 25.21030 23.08034
#
# Velocity S-wave (km/s) = 3.46281 3.79859 3.63458
# Velocity P-wave (km/s) = 7.14429 7.97336 7.57018
#
# Compressibility (1/GPa) = 0.01632840
#
# Stress axis : x y z
#
# Youngs Moduli (GPa) = 36.59281 47.77360 137.62384
#
# Poissons Ratio (x) = 0.58914 0.58775
# Poissons Ratio (y) = 0.45126 0.41234
# Poissons Ratio (z) = 0.15628 0.14314
#
# Static dielectric constant tensor:
#      x y z
#    x 2.870490 0.000000 0.237800 
#    y 0.000000 3.385050 0.000000 
#    z 0.237800 0.000000 4.483210 
# 
# 
# High freq. dielectric constant tensor:
#      x y z
#    x 1.610670 0.000000 0.004550 
#    y 0.000000 1.689800 0.000000 
#    z 0.004550 0.000000 1.712970 
# 
# From -- ./inp_files/162400.got.cif
#   From: 2010.06.25/outbox.cif.g09.slc.cpg/sg12_82_cif.got.tgz:162400.got - 2010.06.28 00:19:55.
