data_PCOD8081721
_publ_section_title
;
Structure prediction by ZEFSAII (Michael W. Deem and Ramdas Pophale) SiO2 
 PCOD8081721
Probable space group: C 2/M
;
_chemical_formula_sum "Si O2"
_cell_formula_units_Z 56
_cell_length_a 20.346722
_cell_length_b 8.944237
_cell_length_c 17.743705
_cell_angle_alpha 90.000000
_cell_angle_beta 69.812604
_cell_angle_gamma 90.000000
_cell_volume 3030.736959
_symmetry_space_group_name_H-M "C 2/M"
_symmetry_group_IT_number 12
_symmetry_cell_setting 'monoclinic'
loop_
_space_group_symop_operation_xyz
x,y,z
-x,y,-z
-x,-y,-z
x,-y,z
1/2+x,1/2+y,z
1/2-x,1/2+y,-z
1/2-x,1/2-y,-z
1/2+x,1/2-y,z
loop_
_atom_site_type_symbol
_atom_site_label
_atom_site_fract_x
_atom_site_fract_y
_atom_site_fract_z
Si Si1 0.546511 0.322798 0.845979
Si Si2 0.321904 0.675779 0.495935
Si Si3 0.200428 0.676878 0.350025
Si Si4 0.201947 0.825365 0.196923
Si Si5 0.143952 0.825229 0.677080
Si Si6 0.353534 0.823992 0.078316
Si Si7 0.386076 0.675649 0.913489
O O1 0.553523 0.500000 0.850047
O O2 0.584458 0.258385 0.755540
O O3 0.581166 0.251548 0.905894
O O4 0.466296 0.273083 0.873813
O O5 0.311629 0.500000 0.512614
O O6 0.250000 0.750000 0.500000
O O7 0.347454 0.752217 0.563767
O O8 0.374190 0.707193 0.404118
O O9 0.193891 0.500000 0.357117
O O10 0.173637 0.734897 0.280224
O O11 0.279679 0.738130 0.330464
O O12 0.281817 0.779508 0.148302
O O13 0.153309 0.778002 0.146876
O O14 0.195201 0.000000 0.216786
O O15 0.147578 0.000000 0.690016
O O16 0.364603 0.000000 0.072241
O O17 0.349155 0.763898 0.995353
O O18 0.379300 0.500000 0.932183
#
# Coordination Sequence:
#
# PCOD8081721 Si02
#       7
#     8   8   8   8   8   8   8
#     4  10  19  35  56  76 101 134 172 211 251 302
#     4   9  16  27  45  73 106 134 164 208 255 302
#     4  10  18  30  50  76 102 133 169 209 256 304
#     4  10  21  36  52  75 103 134 172 213 256 302
#     4   8  15  28  48  74 100 127 164 206 248 293
#     4  11  22  35  53  76 103 132 168 215 261 304
#     4  10  22  37  54  74 100 136 174 211 254 304
#
# _framework density 18.477354999999999
#
# number of rings (size 3 to 8) (size 9 to 14) (size 15 to 20)
#    0.000    2.286    1.429    3.000    0.000    3.429 
#    0.000    0.714    0.000    0.857    0.000    6.000 
#    0.000    0.000    0.000    0.000    0.000    0.000 
#
# Total GULP energy -347122.402381 kJ/mol
# GULP energy per Si atom -12397.228656 kJ/mol
# Density = 1.843530 g / cm^3
# Si number density = 18.477355 Si / 1000 Ang^3
#
#
#
# Elastic Constant Matrix: (Units=GPa)
#
#
# Indices 1 2 3 4 5 6 
#
# 1 60.5349 23.5437 24.5055 0.0000 18.6142 0.0000
# 2 23.5437 58.9404 46.5374 0.0000 11.4823 0.0000
# 3 24.5055 46.5374 144.2400 0.0000 24.1712 0.0000
# 4 0.0000 0.0000 0.0000 34.1192 0.0000 4.1568
# 5 18.6142 11.4823 24.1712 0.0000 19.4727 0.0000
# 6 0.0000 0.0000 0.0000 4.1568 0.0000 16.9356
#
#
#
# Elastic Compliance Matrix: (Units=1/GPa)
#
#
# Indices 1 2 3 4 5 6 
#
# 1 0.025457 -0.007198 0.001722 0.000000 -0.022228 0.000000
# 2 -0.007198 0.025267 -0.007052 0.000000 0.000736 0.000000
# 3 0.001722 -0.007052 0.010726 0.000000 -0.010802 0.000000
# 4 0.000000 0.000000 0.000000 0.030212 0.000000 -0.007416
# 5 -0.022228 0.000736 -0.010802 0.000000 0.085576 0.000000
# 6 0.000000 0.000000 0.000000 -0.007416 0.000000 0.060867
#
#
# Mechanical properties :
#
#
# Convention : Reuss Voigt Hill
#
# Bulk Modulus (GPa) = 27.47837 50.32095 38.89966
# Shear Modulus (GPa) = 18.16250 25.38074 21.77162
#
# Velocity S-wave (km/s) = 3.13862 3.71025 3.43634
# Velocity P-wave (km/s) = 5.29512 6.75630 6.06984
#
# Compressibility (1/GPa) = 0.03639226
#
# Stress axis : x y z
#
# Youngs Moduli (GPa) = 39.28230 39.57796 93.23354
#
# Poissons Ratio (x) = 0.28490 -0.16059
# Poissons Ratio (y) = 0.28277 0.65752
# Poissons Ratio (z) = -0.06766 0.27912
#
# Static dielectric constant tensor:
#      x y z
#    x 3.157430 0.000000 -0.083950 
#    y 0.000000 3.254760 0.000000 
#    z -0.083950 0.000000 3.918710 
# 
# 
# High freq. dielectric constant tensor:
#      x y z
#    x 1.675370 0.000000 0.005170 
#    y 0.000000 1.705750 0.000000 
#    z 0.005170 0.000000 1.740950 
# 
# From -- ./inp_files/280163.got.cif
#   From: 2010.06.25/outbox.cif.g09.slc.cpg/sg12_141_cif.got.tgz:280163.got - 2010.06.28 00:19:55.
