data_PCOD8081227
_publ_section_title
;
Structure prediction by ZEFSAII (Michael W. Deem and Ramdas Pophale) SiO2 
 PCOD8081227
Probable space group: C 2/M
;
_chemical_formula_sum "Si O2"
_cell_formula_units_Z 56
_cell_length_a 8.907687
_cell_length_b 19.983813
_cell_length_c 15.440060
_cell_angle_alpha 90.000000
_cell_angle_beta 112.004705
_cell_angle_gamma 90.000000
_cell_volume 2548.260010
_symmetry_space_group_name_H-M "C 2/M"
_symmetry_group_IT_number 12
_symmetry_cell_setting 'monoclinic'
loop_
_space_group_symop_operation_xyz
x,y,z
-x,y,-z
-x,-y,-z
x,-y,z
1/2+x,1/2+y,z
1/2-x,1/2+y,-z
1/2-x,1/2-y,-z
1/2+x,1/2-y,z
loop_
_atom_site_type_symbol
_atom_site_label
_atom_site_fract_x
_atom_site_fract_y
_atom_site_fract_z
Si Si1 0.818766 0.425136 0.246470
Si Si2 0.053709 0.699085 0.289831
Si Si3 0.425525 0.306229 0.393423
Si Si4 0.482226 0.194136 0.088964
Si Si5 0.183047 0.885032 0.042201
Si Si6 0.223455 0.573986 0.120056
Si Si7 0.023713 0.922286 0.303538
O O1 0.888112 0.500000 0.278002
O O2 0.965516 0.372822 0.273822
O O3 0.717506 0.427312 0.135711
O O4 0.694826 0.405132 0.295993
O O5 0.960935 0.750831 0.329343
O O6 0.052462 0.729874 0.190534
O O7 0.233586 0.686924 0.362316
O O8 0.500000 0.282376 0.500000
O O9 0.507370 0.376861 0.385500
O O10 0.291991 0.182127 0.063957
O O11 0.572701 0.122621 0.101082
O O12 0.500000 0.232884 0.000000
O O13 0.221228 0.930091 0.967280
O O14 0.000000 0.859937 0.000000
O O15 0.167074 0.500000 0.136798
O O16 0.375728 0.598545 0.209327
O O17 0.015081 0.000000 0.327924
#
# Coordination Sequence:
#
# PCOD8081227 Si02
#       7
#     8   8   8   8   8   8   8
#     4  10  21  37  62  98 138 176 213 260 316 375
#     4  11  24  44  68  96 128 167 218 270 320 386
#     4  12  26  47  73  94 120 164 220 275 333 394
#     4   9  20  36  57  89 130 170 214 249 313 376
#     4  10  18  29  52  90 133 177 221 255 297 367
#     4  10  18  31  53  84 128 170 206 252 302 365
#     4  10  21  39  65  96 129 162 203 266 330 382
#
# _framework density 21.97578
#
# number of rings (size 3 to 8) (size 9 to 14) (size 15 to 20)
#    0.000    1.714    2.857    1.714    0.000    6.286 
#    0.000    0.714    3.143    2.143    0.000    0.000 
#    0.000    0.000    0.000    0.000    0.000    0.000 
#
# Total GULP energy -347163.902990 kJ/mol
# GULP energy per Si atom -12398.710821 kJ/mol
# Density = 2.192576 g / cm^3
# Si number density = 21.975780 Si / 1000 Ang^3
#
#
#
# Elastic Constant Matrix: (Units=GPa)
#
#
# Indices 1 2 3 4 5 6 
#
# 1 121.4943 36.4763 39.6473 0.0000 16.8098 0.0000
# 2 36.4763 77.5463 32.0881 0.0000 -1.7841 0.0000
# 3 39.6473 32.0881 117.9996 0.0000 5.0728 0.0000
# 4 0.0000 0.0000 0.0000 19.5836 0.0000 -4.5077
# 5 16.8098 -1.7841 5.0728 0.0000 31.3757 0.0000
# 6 0.0000 0.0000 0.0000 -4.5077 0.0000 27.7577
#
#
#
# Elastic Compliance Matrix: (Units=1/GPa)
#
#
# Indices 1 2 3 4 5 6 
#
# 1 0.011108 -0.004415 -0.002281 0.000000 -0.005833 0.000000
# 2 -0.004415 0.016354 -0.003127 0.000000 0.003801 0.000000
# 3 -0.002281 -0.003127 0.010117 0.000000 -0.000592 0.000000
# 4 0.000000 0.000000 0.000000 0.053046 0.000000 0.008614
# 5 -0.005833 0.003801 -0.000592 0.000000 0.035309 0.000000
# 6 0.000000 0.000000 0.000000 0.008614 0.000000 0.037425
#
#
# Mechanical properties :
#
#
# Convention : Reuss Voigt Hill
#
# Bulk Modulus (GPa) = 55.76584 59.27372 57.51978
# Shear Modulus (GPa) = 26.45757 29.66531 28.06144
#
# Velocity S-wave (km/s) = 3.47355 3.67810 3.57729
# Velocity P-wave (km/s) = 6.44349 6.71332 6.57979
#
# Compressibility (1/GPa) = 0.01793213
#
# Stress axis : x y z
#
# Youngs Moduli (GPa) = 90.02639 61.14780 98.84665
#
# Poissons Ratio (x) = 0.26999 0.22544
# Poissons Ratio (y) = 0.39750 0.30910
# Poissons Ratio (z) = 0.20532 0.19121
#
# Static dielectric constant tensor:
#      x y z
#    x 4.088540 0.000000 -0.111910 
#    y 0.000000 3.647230 0.000000 
#    z -0.111910 0.000000 3.920520 
# 
# 
# High freq. dielectric constant tensor:
#      x y z
#    x 1.879850 0.000000 -0.000940 
#    y 0.000000 1.851370 0.000000 
#    z -0.000940 0.000000 1.846380 
# 
# From -- ./inp_files/198959.got.cif
#   From: 2010.06.25/outbox.cif.g09.slc.cpg/sg12_100_cif.got.tgz:198959.got - 2010.06.28 00:19:55.
