data_PCOD8081638
_publ_section_title
;
Structure prediction by ZEFSAII (Michael W. Deem and Ramdas Pophale) SiO2 
 PCOD8081638
Probable space group: C 2/M
;
_chemical_formula_sum "Si O2"
_cell_formula_units_Z 56
_cell_length_a 20.651779
_cell_length_b 9.048010
_cell_length_c 17.939349
_cell_angle_alpha 90.000000
_cell_angle_beta 71.833614
_cell_angle_gamma 90.000000
_cell_volume 3185.016862
_symmetry_space_group_name_H-M "C 2/M"
_symmetry_group_IT_number 12
_symmetry_cell_setting 'monoclinic'
loop_
_space_group_symop_operation_xyz
x,y,z
-x,y,-z
-x,-y,-z
x,-y,z
1/2+x,1/2+y,z
1/2-x,1/2+y,-z
1/2-x,1/2-y,-z
1/2+x,1/2-y,z
loop_
_atom_site_type_symbol
_atom_site_label
_atom_site_fract_x
_atom_site_fract_y
_atom_site_fract_z
Si Si1 0.388071 0.824961 0.671863
Si Si2 0.458650 0.675007 0.185450
Si Si3 0.391318 0.325113 0.916659
Si Si4 0.641021 0.675127 0.906156
Si Si5 0.426237 0.175228 0.504404
Si Si6 0.039231 0.325462 0.664526
Si Si7 0.705448 0.823814 0.164124
O O1 0.376141 0.769149 0.589625
O O2 0.461740 0.774493 0.675898
O O3 0.329356 0.762989 0.747161
O O4 0.385328 0.000000 0.673585
O O5 0.453395 0.500000 0.192293
O O6 0.535415 0.725852 0.140090
O O7 0.409310 0.738659 0.138897
O O8 0.433613 0.742653 0.272451
O O9 0.381139 0.500000 0.912976
O O10 0.332260 0.243993 0.893052
O O11 0.385564 0.271890 0.004047
O O12 0.640051 0.500000 0.903071
O O13 0.717202 0.733856 0.863787
O O14 0.500000 0.236628 0.500000
O O15 0.412235 0.224031 0.423548
O O16 0.427971 0.000000 0.504612
O O17 0.043207 0.500000 0.676735
O O18 0.701055 0.000000 0.159629
#
# Coordination Sequence:
#
# PCOD8081638 Si02
#       7
#     8   8   8   8   8   8   8
#     4   8  13  23  42  68  91 111 141 182 224 261
#     4  10  19  31  47  65  90 123 155 182 214 264
#     4  10  19  32  49  66  88 119 154 187 221 264
#     4   9  19  33  47  65  89 122 156 182 216 267
#     4   7  11  20  38  64  90 113 138 176 220 261
#     4   9  15  26  45  68  91 113 145 187 224 257
#     4  10  18  30  50  71  91 113 146 192 229 259
#
# _framework density 17.582325000000001
#
# number of rings (size 3 to 8) (size 9 to 14) (size 15 to 20)
#    0.000    3.000    1.429    2.571    0.000    1.714 
#    0.000    1.429    0.000    7.286    0.000    0.000 
#    0.000    0.000    0.000    0.000    0.000    0.000 
#
# Total GULP energy -346889.309091 kJ/mol
# GULP energy per Si atom -12388.903896 kJ/mol
# Density = 1.754231 g / cm^3
# Si number density = 17.582325 Si / 1000 Ang^3
#
#
#
# Elastic Constant Matrix: (Units=GPa)
#
#
# Indices 1 2 3 4 5 6 
#
# 1 76.9178 16.5203 44.7996 0.0000 12.1776 0.0000
# 2 16.5203 14.4486 20.4798 0.0000 3.3713 0.0000
# 3 44.7996 20.4798 171.3811 0.0000 14.8361 0.0000
# 4 0.0000 0.0000 0.0000 20.3378 0.0000 4.2396
# 5 12.1776 3.3713 14.8361 0.0000 13.4722 0.0000
# 6 0.0000 0.0000 0.0000 4.2396 0.0000 15.0169
#
#
#
# Elastic Compliance Matrix: (Units=1/GPa)
#
#
# Indices 1 2 3 4 5 6 
#
# 1 0.019630 -0.016778 -0.002160 0.000000 -0.011167 0.000000
# 2 -0.016778 0.099146 -0.007325 0.000000 -0.001578 0.000000
# 3 -0.002160 -0.007325 0.007679 0.000000 -0.004671 0.000000
# 4 0.000000 0.000000 0.000000 0.052244 0.000000 -0.014749
# 5 -0.011167 -0.001578 -0.004671 0.000000 0.089860 0.000000
# 6 0.000000 0.000000 0.000000 -0.014749 0.000000 0.070756
#
#
# Mechanical properties :
#
#
# Convention : Reuss Voigt Hill
#
# Bulk Modulus (GPa) = 13.52646 47.37190 30.44918
# Shear Modulus (GPa) = 12.00524 21.82857 16.91690
#
# Velocity S-wave (km/s) = 2.61588 3.52732 3.10523
# Velocity P-wave (km/s) = 4.10289 6.60233 5.49656
#
# Compressibility (1/GPa) = 0.07392917
#
# Stress axis : x y z
#
# Youngs Moduli (GPa) = 50.94152 10.08613 130.22049
#
# Poissons Ratio (x) = 0.16923 0.28125
# Poissons Ratio (y) = 0.85470 0.95391
# Poissons Ratio (z) = 0.11002 0.07388
#
# Static dielectric constant tensor:
#      x y z
#    x 3.137310 0.000000 -0.121660 
#    y 0.000000 2.754460 0.000000 
#    z -0.121660 0.000000 3.947300 
# 
# 
# High freq. dielectric constant tensor:
#      x y z
#    x 1.644570 0.000000 -0.001640 
#    y 0.000000 1.628410 0.000000 
#    z -0.001640 0.000000 1.709990 
# 
# From -- ./inp_files/280230.got.cif
#   From: 2010.06.25/outbox.cif.g09.slc.cpg/sg12_141_cif.got.tgz:280230.got - 2010.06.28 00:19:55.
