data_PCOD8081813
_publ_section_title
;
Structure prediction by ZEFSAII (Michael W. Deem and Ramdas Pophale) SiO2 
 PCOD8081813
Probable space group: C 2/M
;
_chemical_formula_sum "Si O2"
_cell_formula_units_Z 56
_cell_length_a 23.189737
_cell_length_b 9.469988
_cell_length_c 14.585413
_cell_angle_alpha 90.000000
_cell_angle_beta 69.657653
_cell_angle_gamma 90.000000
_cell_volume 3003.284843
_symmetry_space_group_name_H-M "C 2/M"
_symmetry_group_IT_number 12
_symmetry_cell_setting 'monoclinic'
loop_
_space_group_symop_operation_xyz
x,y,z
-x,y,-z
-x,-y,-z
x,-y,z
1/2+x,1/2+y,z
1/2-x,1/2+y,-z
1/2-x,1/2-y,-z
1/2+x,1/2-y,z
loop_
_atom_site_type_symbol
_atom_site_label
_atom_site_fract_x
_atom_site_fract_y
_atom_site_fract_z
Si Si1 0.689258 0.334393 0.135200
Si Si2 0.222240 0.338170 0.596468
Si Si3 0.057716 0.667570 0.911255
Si Si4 0.441937 0.664423 0.467819
Si Si5 0.418027 0.833347 0.305048
Si Si6 0.334581 0.336368 0.653394
Si Si7 0.669798 0.835476 0.971947
O O1 0.677839 0.500000 0.126120
O O2 0.659093 0.277934 0.246672
O O3 0.656435 0.249107 0.072658
O O4 0.761937 0.302153 0.100936
O O5 0.224373 0.500000 0.564396
O O6 0.250000 0.250000 0.500000
O O7 0.153612 0.290973 0.657917
O O8 0.264306 0.311520 0.662143
O O9 0.055966 0.500000 0.913135
O O10 0.054063 0.718344 0.807606
O O11 0.121374 0.718149 0.922642
O O12 0.000000 0.730077 0.000000
O O13 0.500000 0.688658 0.500000
O O14 0.432943 0.500000 0.447790
O O15 0.451555 0.750046 0.368359
O O16 0.383065 0.730459 0.554691
O O17 0.427366 0.000000 0.314887
O O18 0.351353 0.500000 0.647484
O O19 0.660581 0.000000 0.998709
#
# Coordination Sequence:
#
# PCOD8081813 Si02
#       7
#     8   8   8   8   8   8   8
#     4   9  17  30  50  72  97 129 163 202 247 296
#     4  10  18  30  51  76 101 129 165 207 252 300
#     4   9  18  33  53  75 101 134 170 206 250 302
#     4  10  21  36  52  71 100 138 173 203 245 305
#     4  10  20  34  54  79 102 129 170 216 255 296
#     4   9  17  31  50  71  97 132 167 198 244 303
#     4   9  17  31  50  73  98 126 163 206 249 294
#
# _framework density 18.646248
#
# number of rings (size 3 to 8) (size 9 to 14) (size 15 to 20)
#    0.000    2.571    1.429    0.857    0.000    4.857 
#    0.000    2.143    0.000    4.286    0.000    0.000 
#    0.000    0.000    0.000    0.000    0.000    0.000 
#
# Total GULP energy -347122.450674 kJ/mol
# GULP energy per Si atom -12397.230381 kJ/mol
# Density = 1.860381 g / cm^3
# Si number density = 18.646248 Si / 1000 Ang^3
#
#
#
# Elastic Constant Matrix: (Units=GPa)
#
#
# Indices 1 2 3 4 5 6 
#
# 1 79.4959 25.2488 47.4947 0.0000 7.5515 0.0000
# 2 25.2488 36.2441 44.8924 0.0000 6.5793 0.0000
# 3 47.4947 44.8924 173.0592 0.0000 10.3347 0.0000
# 4 0.0000 0.0000 0.0000 27.3081 0.0000 3.2550
# 5 7.5515 6.5793 10.3347 0.0000 28.9700 0.0000
# 6 0.0000 0.0000 0.0000 3.2550 0.0000 17.1914
#
#
#
# Elastic Compliance Matrix: (Units=1/GPa)
#
#
# Indices 1 2 3 4 5 6 
#
# 1 0.016832 -0.008590 -0.002295 0.000000 -0.001618 0.000000
# 2 -0.008590 0.045942 -0.009268 0.000000 -0.004888 0.000000
# 3 -0.002295 -0.009268 0.008839 0.000000 -0.000450 0.000000
# 4 0.000000 0.000000 0.000000 0.037465 0.000000 -0.007093
# 5 -0.001618 -0.004888 -0.000450 0.000000 0.036211 0.000000
# 6 0.000000 0.000000 0.000000 -0.007093 0.000000 0.059512
#
#
# Mechanical properties :
#
#
# Convention : Reuss Voigt Hill
#
# Bulk Modulus (GPa) = 31.94099 58.23012 45.08556
# Shear Modulus (GPa) = 19.56625 26.10477 22.83551
#
# Velocity S-wave (km/s) = 3.24287 3.74572 3.50333
# Velocity P-wave (km/s) = 5.58469 7.07134 6.37152
#
# Compressibility (1/GPa) = 0.03130773
#
# Stress axis : x y z
#
# Youngs Moduli (GPa) = 59.41016 21.76661 113.13266
#
# Poissons Ratio (x) = 0.18698 0.25958
# Poissons Ratio (y) = 0.51034 1.04853
# Poissons Ratio (z) = 0.13632 0.20174
#
# Static dielectric constant tensor:
#      x y z
#    x 3.340360 0.000000 -0.285560 
#    y 0.000000 3.086450 0.000000 
#    z -0.285560 0.000000 4.604740 
# 
# 
# High freq. dielectric constant tensor:
#      x y z
#    x 1.721890 0.000000 0.003070 
#    y 0.000000 1.681820 0.000000 
#    z 0.003070 0.000000 1.736170 
# 
# From -- ./inp_files/164843.got.cif
#   From: 2010.06.25/outbox.cif.g09.slc.cpg/sg12_83_cif.got.tgz:164843.got - 2010.06.28 00:19:55.
