data_PCOD8081772
_publ_section_title
;
Structure prediction by ZEFSAII (Michael W. Deem and Ramdas Pophale) SiO2 
 PCOD8081772
Probable space group: C 2/M
;
_chemical_formula_sum "Si O2"
_cell_formula_units_Z 64
_cell_length_a 29.041583
_cell_length_b 13.821787
_cell_length_c 9.513521
_cell_angle_alpha 90.000000
_cell_angle_beta 64.691389
_cell_angle_gamma 90.000000
_cell_volume 3452.255975
_symmetry_space_group_name_H-M "C 2/M"
_symmetry_group_IT_number 12
_symmetry_cell_setting 'monoclinic'
loop_
_space_group_symop_operation_xyz
x,y,z
-x,y,-z
-x,-y,-z
x,-y,z
1/2+x,1/2+y,z
1/2-x,1/2+y,-z
1/2-x,1/2-y,-z
1/2+x,1/2-y,z
loop_
_atom_site_type_symbol
_atom_site_label
_atom_site_fract_x
_atom_site_fract_y
_atom_site_fract_z
Si Si1 0.366746 0.891137 0.114620
Si Si2 0.790038 0.606185 0.959584
Si Si3 0.704207 0.743771 0.667782
Si Si4 0.126558 0.890597 0.423024
Si Si5 0.451738 0.736251 0.969717
Si Si6 0.716303 0.273543 0.214808
Si Si7 0.460637 0.613235 0.675256
Si Si8 0.614818 0.609979 0.744776
O O1 0.335688 0.834925 0.279438
O O2 0.381735 0.000000 0.146656
O O3 0.330116 0.900685 0.031084
O O4 0.417004 0.832146 0.999862
O O5 0.782155 0.500000 0.903497
O O6 0.811577 0.680717 0.816265
O O7 0.734243 0.645932 0.078671
O O8 0.750000 0.750000 0.500000
O O9 0.731689 0.737370 0.781549
O O10 0.672498 0.647215 0.683262
O O11 0.175257 0.820858 0.371564
O O12 0.094362 0.869793 0.324862
O O13 0.094929 0.874369 0.609607
O O14 0.146983 0.000000 0.394509
O O15 0.466074 0.686740 0.800396
O O16 0.500000 0.767511 0.000000
O O17 0.422617 0.656627 0.096258
O O18 0.500000 0.639780 0.500000
O O19 0.467581 0.500000 0.712070
O O20 0.616209 0.500000 0.786490
#
# Coordination Sequence:
#
# PCOD8081772 Si02
#       8
#     8   8   8   8   8   8   8   8
#     4   9  20  37  56  77 106 145 185 225 269 322
#     4   9  18  32  49  73 103 137 176 216 267 315
#     4  10  19  33  51  79 112 144 185 222 265 319
#     4  10  19  32  52  75 103 140 179 215 262 322
#     4  11  22  37  59  83 108 140 180 229 279 330
#     4  10  18  30  51  73 104 139 175 223 259 312
#     4  10  21  36  55  82 111 140 175 219 279 342
#     4  10  21  35  53  80 114 147 180 221 272 329
#
# _framework density 18.538602999999998
#
# number of rings (size 3 to 8) (size 9 to 14) (size 15 to 20)
#    0.000    2.125    1.250    2.250    0.000    4.750 
#    0.000    0.000    0.000    0.375    0.000    0.000 
#    0.000    0.000    0.000    0.000    0.000    0.000 
#
# Total GULP energy -396529.635944 kJ/mol
# GULP energy per Si atom -12391.551123 kJ/mol
# Density = 1.849641 g / cm^3
# Si number density = 18.538603 Si / 1000 Ang^3
#
#
#
# Elastic Constant Matrix: (Units=GPa)
#
#
# Indices 1 2 3 4 5 6 
#
# 1 56.1779 33.5841 19.1918 0.0000 -3.9552 0.0000
# 2 33.5841 126.5751 46.5186 0.0000 -4.7426 0.0000
# 3 19.1918 46.5186 94.7310 0.0000 -6.8546 0.0000
# 4 0.0000 0.0000 0.0000 19.5731 0.0000 2.1937
# 5 -3.9552 -4.7426 -6.8546 0.0000 26.9796 0.0000
# 6 0.0000 0.0000 0.0000 2.1937 0.0000 20.8774
#
#
#
# Elastic Compliance Matrix: (Units=1/GPa)
#
#
# Indices 1 2 3 4 5 6 
#
# 1 0.021518 -0.004987 -0.001778 0.000000 0.001826 0.000000
# 2 -0.004987 0.010803 -0.004289 0.000000 0.000078 0.000000
# 3 -0.001778 -0.004289 0.013192 0.000000 0.002337 0.000000
# 4 0.000000 0.000000 0.000000 0.051699 0.000000 -0.005432
# 5 0.001826 0.000078 0.002337 0.000000 0.037940 0.000000
# 6 0.000000 0.000000 0.000000 -0.005432 0.000000 0.048469
#
#
# Mechanical properties :
#
#
# Convention : Reuss Voigt Hill
#
# Bulk Modulus (GPa) = 42.72797 52.89700 47.81249
# Shear Modulus (GPa) = 23.41570 25.36532 24.39051
#
# Velocity S-wave (km/s) = 3.55784 3.70299 3.63114
# Velocity P-wave (km/s) = 6.32264 6.84677 6.58992
#
# Compressibility (1/GPa) = 0.02340387
#
# Stress axis : x y z
#
# Youngs Moduli (GPa) = 46.47226 92.56768 75.80579
#
# Poissons Ratio (x) = 0.46168 0.13479
# Poissons Ratio (y) = 0.23178 0.32511
# Poissons Ratio (z) = 0.08263 0.39700
#
# Static dielectric constant tensor:
#      x y z
#    x 3.623190 0.000000 0.048970 
#    y 0.000000 3.617150 0.000000 
#    z 0.048970 0.000000 3.437120 
# 
# 
# High freq. dielectric constant tensor:
#      x y z
#    x 1.715990 0.000000 0.001640 
#    y 0.000000 1.712530 0.000000 
#    z 0.001640 0.000000 1.714130 
# 
# From -- ./inp_files/111609.got.cif
#   From: 2010.06.25/outbox.cif.g09.slc.cpg/sg12_56_cif.got.tgz:111609.got - 2010.06.28 00:19:55.
