data_PCOD8081477
_publ_section_title
;
Structure prediction by ZEFSAII (Michael W. Deem and Ramdas Pophale) SiO2 
 PCOD8081477
Probable space group: C 2/M
;
_chemical_formula_sum "Si O2"
_cell_formula_units_Z 56
_cell_length_a 34.593998
_cell_length_b 9.140500
_cell_length_c 23.174977
_cell_angle_alpha 90.000000
_cell_angle_beta 156.391818
_cell_angle_gamma 90.000000
_cell_volume 2934.747432
_symmetry_space_group_name_H-M "C 2/M"
_symmetry_group_IT_number 12
_symmetry_cell_setting 'monoclinic'
loop_
_space_group_symop_operation_xyz
x,y,z
-x,y,-z
-x,-y,-z
x,-y,z
1/2+x,1/2+y,z
1/2-x,1/2+y,-z
1/2-x,1/2-y,-z
1/2+x,1/2-y,z
loop_
_atom_site_type_symbol
_atom_site_label
_atom_site_fract_x
_atom_site_fract_y
_atom_site_fract_z
Si Si1 0.408065 0.834378 0.442442
Si Si2 0.214547 0.335944 0.834784
Si Si3 0.582589 0.327197 0.730682
Si Si4 0.523578 0.328022 0.301661
Si Si5 0.592843 0.673831 0.963584
Si Si6 0.797152 0.830342 0.382760
Si Si7 0.582664 0.169526 0.070953
O O1 0.376030 0.835586 0.332394
O O2 0.499683 0.730346 0.574521
O O3 0.319401 0.770646 0.358437
O O4 0.431933 0.000000 0.495385
O O5 0.237630 0.500000 0.887982
O O6 0.184885 0.241163 0.850370
O O7 0.308251 0.271093 0.930929
O O8 0.589379 0.500000 0.734703
O O9 0.553732 0.274233 0.755738
O O10 0.515838 0.500000 0.289446
O O11 0.633113 0.280976 0.468594
O O12 0.493593 0.271190 0.197239
O O13 0.595001 0.500000 0.975523
O O14 0.577223 0.746280 0.003616
O O15 0.684677 0.806666 0.243536
O O16 0.818544 0.000000 0.396447
O O17 0.565121 0.000000 0.033107
O O18 0.500000 0.231380 0.000000
#
# Coordination Sequence:
#
# PCOD8081477 Si02
#       7
#     8   8   8   8   8   8   8
#     4  10  18  30  48  73 105 137 175 221 268 306
#     4  10  20  31  46  72 105 138 174 222 270 304
#     4  10  20  32  48  73 103 143 186 218 254 305
#     4   8  17  34  54  75 103 141 181 217 255 304
#     4  10  20  37  57  77 105 140 177 217 264 316
#     4   9  17  33  56  78 103 139 177 211 258 316
#     4  10  21  37  58  84 111 135 166 214 267 318
#
# _framework density 19.081710000000001
#
# number of rings (size 3 to 8) (size 9 to 14) (size 15 to 20)
#    0.000    2.429    1.429    2.143    0.000    4.286 
#    0.000    4.286    0.000    0.000    0.000    0.000 
#    0.000    0.000    0.000    0.000    0.000    0.000 
#
# Total GULP energy -347043.622246 kJ/mol
# GULP energy per Si atom -12394.415080 kJ/mol
# Density = 1.903828 g / cm^3
# Si number density = 19.081710 Si / 1000 Ang^3
#
#
#
# Elastic Constant Matrix: (Units=GPa)
#
#
# Indices 1 2 3 4 5 6 
#
# 1 124.6564 40.5491 79.7849 0.0000 13.5173 0.0000
# 2 40.5491 55.9431 27.4601 0.0000 3.6889 0.0000
# 3 79.7849 27.4601 92.7234 0.0000 -4.8317 0.0000
# 4 0.0000 0.0000 0.0000 18.0480 0.0000 2.8186
# 5 13.5173 3.6889 -4.8317 0.0000 30.4506 0.0000
# 6 0.0000 0.0000 0.0000 2.8186 0.0000 25.3095
#
#
#
# Elastic Compliance Matrix: (Units=1/GPa)
#
#
# Indices 1 2 3 4 5 6 
#
# 1 0.024079 -0.007142 -0.019275 0.000000 -0.012882 0.000000
# 2 -0.007142 0.023421 -0.000780 0.000000 0.000210 0.000000
# 3 -0.019275 -0.000780 0.028286 0.000000 0.013139 0.000000
# 4 0.000000 0.000000 0.000000 0.056389 0.000000 -0.006280
# 5 -0.012882 0.000210 0.013139 0.000000 0.040618 0.000000
# 6 0.000000 0.000000 0.000000 -0.006280 0.000000 0.040210
#
#
# Mechanical properties :
#
#
# Convention : Reuss Voigt Hill
#
# Bulk Modulus (GPa) = 46.74674 63.21235 54.97954
# Shear Modulus (GPa) = 18.21307 23.13019 20.67163
#
# Velocity S-wave (km/s) = 3.09281 3.48539 3.29496
# Velocity P-wave (km/s) = 6.10781 7.02826 6.58414
#
# Compressibility (1/GPa) = 0.02139186
#
# Stress axis : x y z
#
# Youngs Moduli (GPa) = 41.52965 42.69653 35.35328
#
# Poissons Ratio (x) = 0.30495 0.68144
# Poissons Ratio (y) = 0.29662 0.02756
# Poissons Ratio (z) = 0.80050 0.03328
#
# Static dielectric constant tensor:
#      x y z
#    x 3.416650 0.000000 -0.057290 
#    y 0.000000 3.385110 0.000000 
#    z -0.057290 0.000000 3.777130 
# 
# 
# High freq. dielectric constant tensor:
#      x y z
#    x 1.720180 0.000000 -0.000300 
#    y 0.000000 1.723620 0.000000 
#    z -0.000300 0.000000 1.747200 
# 
# From -- ./inp_files/329495.got.cif
#   From: 2010.06.25/outbox.cif.g09.slc.cpg/sg12_165_cif.got.tgz:329495.got - 2010.06.28 00:19:55.
