data_PCOD8081927
_publ_section_title
;
Structure prediction by ZEFSAII (Michael W. Deem and Ramdas Pophale) SiO2 
 PCOD8081927
Probable space group: C 2/M
;
_chemical_formula_sum "Si O2"
_cell_formula_units_Z 56
_cell_length_a 23.273560
_cell_length_b 19.999625
_cell_length_c 16.977801
_cell_angle_alpha 90.000000
_cell_angle_beta 158.868082
_cell_angle_gamma 90.000000
_cell_volume 2848.991994
_symmetry_space_group_name_H-M "C 2/M"
_symmetry_group_IT_number 12
_symmetry_cell_setting 'monoclinic'
loop_
_space_group_symop_operation_xyz
x,y,z
-x,y,-z
-x,-y,-z
x,-y,z
1/2+x,1/2+y,z
1/2-x,1/2+y,-z
1/2-x,1/2-y,-z
1/2+x,1/2-y,z
loop_
_atom_site_type_symbol
_atom_site_label
_atom_site_fract_x
_atom_site_fract_y
_atom_site_fract_z
Si Si1 0.529075 0.925189 0.786790
Si Si2 0.092498 0.396117 0.042263
Si Si3 0.063300 0.073542 0.504642
Si Si4 0.285865 0.702733 0.937244
Si Si5 0.653984 0.574630 0.899334
Si Si6 0.488582 0.213787 0.664461
Si Si7 0.663879 0.255045 0.169444
O O1 0.449425 0.864053 0.636344
O O2 0.460322 0.000000 0.677372
O O3 0.502604 0.913098 0.846155
O O4 0.714586 0.922730 0.001721
O O5 0.251768 0.437873 0.251902
O O6 0.132093 0.318576 0.097656
O O7 0.000000 0.421349 0.000000
O O8 0.000000 0.114911 0.500000
O O9 0.004806 0.104796 0.347023
O O10 0.979614 0.000000 0.397448
O O11 0.288008 0.703188 0.845800
O O12 0.112037 0.722709 0.749433
O O13 0.310755 0.624257 0.984953
O O14 0.427711 0.748893 0.154384
O O15 0.634709 0.500000 0.910364
O O16 0.315491 0.244947 0.422561
O O17 0.500000 0.282626 0.000000
#
# Coordination Sequence:
#
# PCOD8081927 Si02
#       7
#     8   8   8   8   8   8   8
#     4  10  19  36  58  83 119 151 187 240 292 347
#     4  11  22  35  51  82 116 155 191 231 289 353
#     4  10  18  30  52  80 112 149 184 226 284 348
#     4  10  20  38  61  88 113 150 195 250 288 338
#     4   9  18  33  56  85 112 145 189 240 294 342
#     4  10  21  38  62  90 113 150 203 242 288 346
#     4  11  24  40  58  83 118 156 195 243 296 345
#
# _framework density 19.656075999999999
#
# number of rings (size 3 to 8) (size 9 to 14) (size 15 to 20)
#    0.000    1.857    2.857    1.714    0.000    2.857 
#    2.571    0.714    0.000    4.286    0.000    0.000 
#    0.000    0.000    0.000    0.000    0.000    0.000 
#
# Total GULP energy -346893.258094 kJ/mol
# GULP energy per Si atom -12389.044932 kJ/mol
# Density = 1.961134 g / cm^3
# Si number density = 19.656076 Si / 1000 Ang^3
#
#
#
# Elastic Constant Matrix: (Units=GPa)
#
#
# Indices 1 2 3 4 5 6 
#
# 1 96.5179 20.3639 24.9826 0.0000 6.1023 0.0000
# 2 20.3639 83.1579 5.6310 0.0000 1.4007 0.0000
# 3 24.9826 5.6310 82.3510 0.0000 9.0337 0.0000
# 4 0.0000 0.0000 0.0000 17.4747 0.0000 -7.4500
# 5 6.1023 1.4007 9.0337 0.0000 21.0780 0.0000
# 6 0.0000 0.0000 0.0000 -7.4500 0.0000 24.7487
#
#
#
# Elastic Compliance Matrix: (Units=1/GPa)
#
#
# Indices 1 2 3 4 5 6 
#
# 1 0.011872 -0.002658 -0.003213 0.000000 -0.001883 0.000000
# 2 -0.002658 0.012681 -0.000055 0.000000 -0.000049 0.000000
# 3 -0.003213 -0.000055 0.013662 0.000000 -0.004921 0.000000
# 4 0.000000 0.000000 0.000000 0.065651 0.000000 0.019763
# 5 -0.001883 -0.000049 -0.004921 0.000000 0.050100 0.000000
# 6 0.000000 0.000000 0.000000 0.019763 0.000000 0.046355
#
#
# Mechanical properties :
#
#
# Convention : Reuss Voigt Hill
#
# Bulk Modulus (GPa) = 37.93422 40.44241 39.18832
# Shear Modulus (GPa) = 22.62835 26.73025 24.67930
#
# Velocity S-wave (km/s) = 3.39664 3.69168 3.54723
# Velocity P-wave (km/s) = 5.89268 6.22824 6.06279
#
# Compressibility (1/GPa) = 0.02636142
#
# Stress axis : x y z
#
# Youngs Moduli (GPa) = 84.22904 78.85942 73.19794
#
# Poissons Ratio (x) = 0.20961 0.23521
# Poissons Ratio (y) = 0.22388 0.00405
# Poissons Ratio (z) = 0.27066 0.00436
#
# Static dielectric constant tensor:
#      x y z
#    x 2.779010 0.000000 0.211040 
#    y 0.000000 3.702630 0.000000 
#    z 0.211040 0.000000 3.393100 
# 
# 
# High freq. dielectric constant tensor:
#      x y z
#    x 1.750930 0.000000 -0.001450 
#    y 0.000000 1.770120 0.000000 
#    z -0.001450 0.000000 1.742450 
# 
# From -- ./inp_files/290844.got.cif
#   From: 2010.06.25/outbox.cif.g09.slc.cpg/sg12_146_cif.got.tgz:290844.got - 2010.06.28 00:19:55.
