data_PCOD8081563
_publ_section_title
;
Structure prediction by ZEFSAII (Michael W. Deem and Ramdas Pophale) SiO2 
 PCOD8081563
Probable space group: C 2/M
;
_chemical_formula_sum "Si O2"
_cell_formula_units_Z 56
_cell_length_a 26.642719
_cell_length_b 9.072718
_cell_length_c 14.273630
_cell_angle_alpha 90.000000
_cell_angle_beta 77.418682
_cell_angle_gamma 90.000000
_cell_volume 3367.400697
_symmetry_space_group_name_H-M "C 2/M"
_symmetry_group_IT_number 12
_symmetry_cell_setting 'monoclinic'
loop_
_space_group_symop_operation_xyz
x,y,z
-x,y,-z
-x,-y,-z
x,-y,z
1/2+x,1/2+y,z
1/2-x,1/2+y,-z
1/2-x,1/2-y,-z
1/2+x,1/2-y,z
loop_
_atom_site_type_symbol
_atom_site_label
_atom_site_fract_x
_atom_site_fract_y
_atom_site_fract_z
Si Si1 0.954393 0.829342 0.891968
Si Si2 0.930392 0.829195 0.110937
Si Si3 0.959315 0.667459 0.397713
Si Si4 0.696832 0.673376 0.543969
Si Si5 0.070859 0.672871 0.279691
Si Si6 0.108140 0.171946 0.434601
Si Si7 0.871053 0.330916 0.284913
O O1 0.923736 0.735956 0.827099
O O2 0.013490 0.776354 0.876656
O O3 0.952832 0.000000 0.864201
O O4 0.925548 0.803267 0.001930
O O5 0.885137 0.735803 0.177976
O O6 0.922815 0.000000 0.139361
O O7 0.959286 0.500000 0.434959
O O8 0.942146 0.769389 0.490602
O O9 0.921730 0.686790 0.326017
O O10 0.014954 0.717134 0.340873
O O11 0.704483 0.500000 0.554340
O O12 0.750000 0.750000 0.500000
O O13 0.658801 0.709783 0.473578
O O14 0.675322 0.740458 0.649406
O O15 0.080713 0.500000 0.272498
O O16 0.112477 0.747407 0.332211
O O17 0.101682 0.000000 0.420361
O O18 0.853810 0.500000 0.280800
#
# Coordination Sequence:
#
# PCOD8081563 Si02
#       7
#     8   8   8   8   8   8   8
#     4   9  18  30  45  65  95 133 170 206 240 276
#     4   9  17  30  46  67  95 130 169 206 242 279
#     4   9  18  30  42  63  95 129 162 196 232 274
#     4  10  21  37  55  75  97 122 156 200 247 294
#     4  11  20  30  44  66  96 131 166 199 236 278
#     4  10  21  33  47  68  92 123 160 196 237 288
#     4  10  18  30  49  72  99 130 162 199 242 287
#
# _framework density 16.630037999999999
#
# number of rings (size 3 to 8) (size 9 to 14) (size 15 to 20)
#    0.000    2.286    1.429    3.000    0.000    5.714 
#    0.000    1.429    0.000    0.000    0.000    1.000 
#    0.000    0.000    0.000    0.000    0.000    0.000 
#
# Total GULP energy -347237.105839 kJ/mol
# GULP energy per Si atom -12401.325209 kJ/mol
# Density = 1.659219 g / cm^3
# Si number density = 16.630038 Si / 1000 Ang^3
#
#
#
# Elastic Constant Matrix: (Units=GPa)
#
#
# Indices 1 2 3 4 5 6 
#
# 1 45.5093 35.7403 40.2699 0.0000 -8.1305 0.0000
# 2 35.7403 95.6862 63.7243 0.0000 -0.8321 0.0000
# 3 40.2699 63.7243 113.9341 0.0000 2.4177 0.0000
# 4 0.0000 0.0000 0.0000 33.1947 0.0000 -2.3280
# 5 -8.1305 -0.8321 2.4177 0.0000 23.6945 0.0000
# 6 0.0000 0.0000 0.0000 -2.3280 0.0000 19.5362
#
#
#
# Elastic Compliance Matrix: (Units=1/GPa)
#
#
# Indices 1 2 3 4 5 6 
#
# 1 0.039530 -0.008182 -0.009698 0.000000 0.014266 0.000000
# 2 -0.008182 0.018404 -0.007372 0.000000 -0.001409 0.000000
# 3 -0.009698 -0.007372 0.016440 0.000000 -0.005264 0.000000
# 4 0.000000 0.000000 0.000000 0.030379 0.000000 0.003620
# 5 0.014266 -0.001409 -0.005264 0.000000 0.047587 0.000000
# 6 0.000000 0.000000 0.000000 0.003620 0.000000 0.051618
#
#
# Mechanical properties :
#
#
# Convention : Reuss Voigt Hill
#
# Bulk Modulus (GPa) = 41.89477 59.39985 50.64731
# Shear Modulus (GPa) = 19.05359 22.97811 21.01585
#
# Velocity S-wave (km/s) = 3.38854 3.72119 3.55875
# Velocity P-wave (km/s) = 6.36840 7.36607 6.88533
#
# Compressibility (1/GPa) = 0.02386933
#
# Stress axis : x y z
#
# Youngs Moduli (GPa) = 25.29751 54.33582 60.82905
#
# Poissons Ratio (x) = 0.44459 0.58992
# Poissons Ratio (y) = 0.20699 0.44841
# Poissons Ratio (z) = 0.24534 0.40055
#
# Static dielectric constant tensor:
#      x y z
#    x 2.833600 0.000000 0.107280 
#    y 0.000000 3.153750 0.000000 
#    z 0.107280 0.000000 3.138970 
# 
# 
# High freq. dielectric constant tensor:
#      x y z
#    x 1.596910 0.000000 0.011140 
#    y 0.000000 1.650310 0.000000 
#    z 0.011140 0.000000 1.640270 
# 
# From -- ./inp_files/243038.got.cif
#   From: 2010.06.25/outbox.cif.g09.slc.cpg/sg12_122_cif.got.tgz:243038.got - 2010.06.28 00:19:55.
