data_PCOD8081775
_publ_section_title
;
Structure prediction by ZEFSAII (Michael W. Deem and Ramdas Pophale) SiO2 
 PCOD8081775
Probable space group: C 2/M
;
_chemical_formula_sum "Si O2"
_cell_formula_units_Z 64
_cell_length_a 22.268186
_cell_length_b 23.133292
_cell_length_c 9.179454
_cell_angle_alpha 90.000000
_cell_angle_beta 44.380790
_cell_angle_gamma 90.000000
_cell_volume 3307.345060
_symmetry_space_group_name_H-M "C 2/M"
_symmetry_group_IT_number 12
_symmetry_cell_setting 'monoclinic'
loop_
_space_group_symop_operation_xyz
x,y,z
-x,y,-z
-x,-y,-z
x,-y,z
1/2+x,1/2+y,z
1/2-x,1/2+y,-z
1/2-x,1/2-y,-z
1/2+x,1/2-y,z
loop_
_atom_site_type_symbol
_atom_site_label
_atom_site_fract_x
_atom_site_fract_y
_atom_site_fract_z
Si Si1 0.478440 0.166386 0.203207
Si Si2 0.545325 0.564842 0.193142
Si Si3 0.625574 0.435156 0.371960
Si Si4 0.297116 0.810294 0.426979
Si Si5 0.721154 0.873316 0.013307
Si Si6 0.185940 0.853881 0.855117
Si Si7 0.044898 0.564203 0.268807
Si Si8 0.853959 0.279554 0.026943
O O1 0.381933 0.191663 0.382917
O O2 0.487950 0.105049 0.265433
O O3 0.500000 0.155040 0.000000
O O4 0.542820 0.213384 0.164041
O O5 0.551493 0.500000 0.115878
O O6 0.445226 0.583978 0.383789
O O7 0.584063 0.565141 0.285561
O O8 0.597806 0.609226 0.998747
O O9 0.657695 0.500000 0.352335
O O10 0.704664 0.390842 0.231111
O O11 0.250000 0.750000 0.500000
O O12 0.233174 0.856846 0.615180
O O13 0.323716 0.821738 0.213766
O O14 0.693126 0.806819 0.031984
O O15 0.752841 0.879331 0.124870
O O16 0.642077 0.915291 0.121701
O O17 0.166246 0.787398 0.925779
O O18 0.046352 0.500000 0.197555
O O19 0.000000 0.563395 0.500000
#
# Coordination Sequence:
#
# PCOD8081775 Si02
#       8
#     8   8   8   8   8   8   8   8
#     4   9  18  35  54  70  99 136 173 214 256 308
#     4   8  15  28  47  71 100 130 168 216 256 301
#     4   8  14  27  47  70  97 133 172 208 253 307
#     4   9  18  34  53  71  96 130 170 208 254 310
#     4  10  18  30  51  73 106 135 171 213 260 298
#     4  10  18  31  51  75 103 131 174 213 259 307
#     4  10  20  32  49  77 109 139 172 211 264 315
#     4   9  19  33  49  73 104 132 169 211 258 314
#
# _framework density 19.35087
#
# number of rings (size 3 to 8) (size 9 to 14) (size 15 to 20)
#    0.000    2.875    0.000    2.250    0.000    0.750 
#    4.500    0.625   19.250    3.750    0.000    1.750 
#    0.000    0.000    0.000    0.000    0.000    0.000 
#
# Total GULP energy -396462.385419 kJ/mol
# GULP energy per Si atom -12389.449544 kJ/mol
# Density = 1.930683 g / cm^3
# Si number density = 19.350870 Si / 1000 Ang^3
#
#
#
# Elastic Constant Matrix: (Units=GPa)
#
#
# Indices 1 2 3 4 5 6 
#
# 1 63.5163 32.7529 22.6759 0.0000 -20.4611 0.0000
# 2 32.7529 89.0762 34.6554 0.0000 -19.3127 0.0000
# 3 22.6759 34.6554 97.2875 0.0000 -27.5625 0.0000
# 4 0.0000 0.0000 0.0000 36.6829 0.0000 -1.9118
# 5 -20.4611 -19.3127 -27.5625 0.0000 26.4616 0.0000
# 6 0.0000 0.0000 0.0000 -1.9118 0.0000 18.3647
#
#
#
# Elastic Compliance Matrix: (Units=1/GPa)
#
#
# Indices 1 2 3 4 5 6 
#
# 1 0.023045 -0.005619 0.000733 0.000000 0.014482 0.000000
# 2 -0.005619 0.015278 -0.003127 0.000000 0.003549 0.000000
# 3 0.000733 -0.003127 0.015230 0.000000 0.014148 0.000000
# 4 0.000000 0.000000 0.000000 0.027409 0.000000 0.002853
# 5 0.014482 0.003549 0.014148 0.000000 0.066315 0.000000
# 6 0.000000 0.000000 0.000000 0.002853 0.000000 0.054749
#
#
# Mechanical properties :
#
#
# Convention : Reuss Voigt Hill
#
# Bulk Modulus (GPa) = 26.64735 47.78316 37.21525
# Shear Modulus (GPa) = 21.68602 26.95489 24.32045
#
# Velocity S-wave (km/s) = 3.35128 3.73628 3.54900
# Velocity P-wave (km/s) = 5.36426 6.58481 6.00562
#
# Compressibility (1/GPa) = 0.03752719
#
# Stress axis : x y z
#
# Youngs Moduli (GPa) = 43.39361 65.45151 65.65837
#
# Poissons Ratio (x) = 0.36776 -0.04813
# Poissons Ratio (y) = 0.24382 0.20534
# Poissons Ratio (z) = -0.03181 0.20470
#
# Static dielectric constant tensor:
#      x y z
#    x 3.549160 0.000000 -0.359110 
#    y 0.000000 3.464120 0.000000 
#    z -0.359110 0.000000 4.209550 
# 
# 
# High freq. dielectric constant tensor:
#      x y z
#    x 1.737770 0.000000 -0.021080 
#    y 0.000000 1.736000 0.000000 
#    z -0.021080 0.000000 1.757210 
# 
# From -- ./inp_files/90646.got.cif
#   From: 2010.06.25/outbox.cif.g09.slc.cpg/sg12_46_cif.got.tgz:90646.got - 2010.06.28 00:19:55.
