data_PCOD8081830
_publ_section_title
;
Structure prediction by ZEFSAII (Michael W. Deem and Ramdas Pophale) SiO2 
 PCOD8081830
Probable space group: C 2/M
;
_chemical_formula_sum "Si O2"
_cell_formula_units_Z 64
_cell_length_a 25.098188
_cell_length_b 9.433571
_cell_length_c 14.496107
_cell_angle_alpha 90.000000
_cell_angle_beta 88.383160
_cell_angle_gamma 90.000000
_cell_volume 3430.812110
_symmetry_space_group_name_H-M "C 2/M"
_symmetry_group_IT_number 12
_symmetry_cell_setting 'monoclinic'
loop_
_space_group_symop_operation_xyz
x,y,z
-x,y,-z
-x,-y,-z
x,-y,z
1/2+x,1/2+y,z
1/2-x,1/2+y,-z
1/2-x,1/2-y,-z
1/2+x,1/2-y,z
loop_
_atom_site_type_symbol
_atom_site_label
_atom_site_fract_x
_atom_site_fract_y
_atom_site_fract_z
Si Si1 0.086421 0.665792 0.224082
Si Si2 0.667635 0.669562 0.502652
Si Si3 0.191557 0.336049 0.325186
Si Si4 0.061060 0.666266 0.016273
Si Si5 0.011394 0.158493 0.731614
Si Si6 0.394338 0.666523 0.144833
Si Si7 0.447571 0.661348 0.464242
Si Si8 0.308634 0.336760 0.293911
O O1 0.079516 0.500000 0.238412
O O2 0.143350 0.717310 0.262043
O O3 0.079636 0.708440 0.117926
O O4 0.038732 0.739753 0.282166
O O5 0.674692 0.500000 0.493558
O O6 0.698737 0.747171 0.419138
O O7 0.606780 0.724306 0.492998
O O8 0.685413 0.725602 0.602724
O O9 0.183766 0.500000 0.353135
O O10 0.246978 0.316045 0.266245
O O11 0.067027 0.500000 0.997206
O O12 0.104093 0.747893 0.950711
O O13 0.000000 0.714268 0.000000
O O14 0.046895 0.197596 0.817631
O O15 0.053160 0.170910 0.645916
O O16 0.988240 0.000000 0.740498
O O17 0.385183 0.500000 0.126333
O O18 0.347827 0.729820 0.214209
O O19 0.500000 0.742556 0.500000
O O20 0.449797 0.500000 0.499122
O O21 0.325539 0.500000 0.299852
#
# Coordination Sequence:
#
# PCOD8081830 Si02
#       8
#     8   8   8   8   8   8   8   8
#     4  10  21  36  52  73 104 140 172 206 256 313
#     4  10  18  32  54  77 103 135 174 213 249 298
#     4  10  21  36  53  74 104 140 175 211 253 300
#     4  10  20  35  54  75 103 138 171 205 255 314
#     4  10  18  30  51  77 102 130 167 211 256 303
#     4  10  19  33  55  81 103 127 168 216 258 300
#     4   9  16  26  43  70 102 133 162 198 248 299
#     4   9  18  35  56  77 104 138 173 210 253 302
#
# _framework density 18.654475000000001
#
# number of rings (size 3 to 8) (size 9 to 14) (size 15 to 20)
#    0.000    2.250    2.500    1.125    0.000    2.250 
#    0.000    2.500    0.000    2.250    0.000    0.000 
#    0.000    0.000    0.000    0.000    0.000    0.000 
#
# Total GULP energy -396595.822347 kJ/mol
# GULP energy per Si atom -12393.619448 kJ/mol
# Density = 1.861202 g / cm^3
# Si number density = 18.654475 Si / 1000 Ang^3
#
#
#
# Elastic Constant Matrix: (Units=GPa)
#
#
# Indices 1 2 3 4 5 6 
#
# 1 95.9702 25.6047 40.6450 0.0000 -13.2613 0.0000
# 2 25.6047 27.5275 21.7446 0.0000 -7.5668 0.0000
# 3 40.6450 21.7446 74.3205 0.0000 -10.5499 0.0000
# 4 0.0000 0.0000 0.0000 25.5431 0.0000 -3.6123
# 5 -13.2613 -7.5668 -10.5499 0.0000 25.6141 0.0000
# 6 0.0000 0.0000 0.0000 -3.6123 0.0000 19.4810
#
#
#
# Elastic Compliance Matrix: (Units=1/GPa)
#
#
# Indices 1 2 3 4 5 6 
#
# 1 0.015638 -0.009476 -0.005340 0.000000 0.003097 0.000000
# 2 -0.009476 0.054923 -0.009857 0.000000 0.007259 0.000000
# 3 -0.005340 -0.009857 0.019600 0.000000 0.002396 0.000000
# 4 0.000000 0.000000 0.000000 0.040204 0.000000 0.007455
# 5 0.003097 0.007259 0.002396 0.000000 0.043776 0.000000
# 6 0.000000 0.000000 0.000000 0.007455 0.000000 0.052714
#
#
# Mechanical properties :
#
#
# Convention : Reuss Voigt Hill
#
# Bulk Modulus (GPa) = 24.50062 41.53407 33.01735
# Shear Modulus (GPa) = 17.25307 21.44923 19.35115
#
# Velocity S-wave (km/s) = 3.04448 3.39457 3.22428
# Velocity P-wave (km/s) = 5.05182 6.13820 5.62131
#
# Compressibility (1/GPa) = 0.04081529
#
# Stress axis : x y z
#
# Youngs Moduli (GPa) = 63.94862 18.20746 51.02161
#
# Poissons Ratio (x) = 0.17253 0.27245
# Poissons Ratio (y) = 0.60596 0.50290
# Poissons Ratio (z) = 0.34148 0.17946
#
# Static dielectric constant tensor:
#      x y z
#    x 3.585100 0.000000 0.051500 
#    y 0.000000 3.048460 0.000000 
#    z 0.051500 0.000000 3.391410 
# 
# 
# High freq. dielectric constant tensor:
#      x y z
#    x 1.730430 0.000000 -0.002460 
#    y 0.000000 1.684440 0.000000 
#    z -0.002460 0.000000 1.720940 
# 
# From -- ./inp_files/243938.got.cif
#   From: 2010.06.25/outbox.cif.g09.slc.cpg/sg12_122_cif.got.tgz:243938.got - 2010.06.28 00:19:55.
