data_PCOD8081207
_publ_section_title
;
Structure prediction by ZEFSAII (Michael W. Deem and Ramdas Pophale) SiO2 
 PCOD8081207
Probable space group: C 2/M
;
_chemical_formula_sum "Si O2"
_cell_formula_units_Z 64
_cell_length_a 24.382010
_cell_length_b 8.684501
_cell_length_c 20.978562
_cell_angle_alpha 90.000000
_cell_angle_beta 128.595389
_cell_angle_gamma 90.000000
_cell_volume 3471.829171
_symmetry_space_group_name_H-M "C 2/M"
_symmetry_group_IT_number 12
_symmetry_cell_setting 'monoclinic'
loop_
_space_group_symop_operation_xyz
x,y,z
-x,y,-z
-x,-y,-z
x,-y,z
1/2+x,1/2+y,z
1/2-x,1/2+y,-z
1/2-x,1/2-y,-z
1/2+x,1/2-y,z
loop_
_atom_site_type_symbol
_atom_site_label
_atom_site_fract_x
_atom_site_fract_y
_atom_site_fract_z
Si Si1 0.364246 0.180812 0.176840
Si Si2 0.857802 0.679667 0.556505
Si Si3 0.837505 0.681377 0.784999
Si Si4 0.508117 0.318636 0.296871
Si Si5 0.027388 0.176902 0.167021
Si Si6 0.739614 0.818918 0.395983
Si Si7 0.270716 0.818788 0.867529
Si Si8 0.131916 0.178428 0.958016
O O1 0.436485 0.231281 0.263221
O O2 0.301534 0.226172 0.178501
O O3 0.353214 0.273368 0.103483
O O4 0.364356 0.000000 0.162972
O O5 0.873266 0.500000 0.563378
O O6 0.931671 0.769379 0.610045
O O7 0.813102 0.733596 0.462947
O O8 0.816243 0.725146 0.590280
O O9 0.835673 0.500000 0.781834
O O10 0.918276 0.730894 0.837046
O O11 0.790562 0.745207 0.692522
O O12 0.806555 0.743089 0.828794
O O13 0.494081 0.500000 0.289348
O O14 0.530856 0.265166 0.242495
O O15 0.949495 0.204430 0.083183
O O16 0.048982 0.000000 0.179310
O O17 0.754090 0.000000 0.405187
O O18 0.255331 0.000000 0.853729
O O19 0.322161 0.784105 0.963172
O O20 0.153303 0.000000 0.981295
#
# Coordination Sequence:
#
# PCOD8081207 Si02
#       8
#     8   8   8   8   8   8   8   8
#     4  11  22  37  58  81 105 136 176 225 271 313
#     4  10  18  29  51  81 110 140 177 217 260 312
#     4  10  21  36  54  75 107 146 181 216 258 317
#     4  10  19  33  54  81 111 141 173 217 268 317
#     4   9  19  33  52  77 106 139 174 214 264 314
#     4   9  18  32  49  75 110 144 176 214 259 312
#     4  11  23  38  55  77 104 141 183 221 265 316
#     4  10  21  38  57  80 107 137 175 223 272 316
#
# _framework density 18.434086000000001
#
# number of rings (size 3 to 8) (size 9 to 14) (size 15 to 20)
#    0.000    2.000    1.250    3.750    0.000    5.000 
#    0.000    2.500    0.000    0.750    0.000    5.250 
#    0.000    0.000    0.000    0.000    0.000    0.000 
#
# Total GULP energy -396908.483056 kJ/mol
# GULP energy per Si atom -12403.390096 kJ/mol
# Density = 1.839213 g / cm^3
# Si number density = 18.434086 Si / 1000 Ang^3
#
#
#
# Elastic Constant Matrix: (Units=GPa)
#
#
# Indices 1 2 3 4 5 6 
#
# 1 105.8767 28.1838 33.0658 0.0000 16.3905 0.0000
# 2 28.1838 52.1095 19.6939 0.0000 8.1374 0.0000
# 3 33.0658 19.6939 62.7719 0.0000 24.9432 0.0000
# 4 0.0000 0.0000 0.0000 30.1091 0.0000 7.5643
# 5 16.3905 8.1374 24.9432 0.0000 23.5015 0.0000
# 6 0.0000 0.0000 0.0000 7.5643 0.0000 28.3219
#
#
#
# Elastic Compliance Matrix: (Units=1/GPa)
#
#
# Indices 1 2 3 4 5 6 
#
# 1 0.012371 -0.004778 -0.003885 0.000000 -0.002850 0.000000
# 2 -0.004778 0.023620 -0.005133 0.000000 0.000601 0.000000
# 3 -0.003885 -0.005133 0.030790 0.000000 -0.028192 0.000000
# 4 0.000000 0.000000 0.000000 0.035601 0.000000 -0.009508
# 5 -0.002850 0.000601 -0.028192 0.000000 0.074251 0.000000
# 6 0.000000 0.000000 0.000000 -0.009508 0.000000 0.037848
#
#
# Mechanical properties :
#
#
# Convention : Reuss Voigt Hill
#
# Bulk Modulus (GPa) = 25.51647 42.51611 34.01629
# Shear Modulus (GPa) = 19.59731 25.70748 22.65239
#
# Velocity S-wave (km/s) = 3.26406 3.73843 3.50927
# Velocity P-wave (km/s) = 5.29882 6.46130 5.90872
#
# Compressibility (1/GPa) = 0.03919038
#
# Stress axis : x y z
#
# Youngs Moduli (GPa) = 80.83190 42.33635 32.47809
#
# Poissons Ratio (x) = 0.20227 0.12618
# Poissons Ratio (y) = 0.38619 0.16670
# Poissons Ratio (z) = 0.31405 0.21730
#
# Static dielectric constant tensor:
#      x y z
#    x 3.358430 0.000000 0.122930 
#    y 0.000000 3.312880 0.000000 
#    z 0.122930 0.000000 3.452100 
# 
# 
# High freq. dielectric constant tensor:
#      x y z
#    x 1.694980 0.000000 0.022940 
#    y 0.000000 1.719070 0.000000 
#    z 0.022940 0.000000 1.711030 
# 
# From -- ./inp_files/324310.got.cif
#   From: 2010.06.25/outbox.cif.g09.slc.cpg/sg12_163_cif.got.tgz:324310.got - 2010.06.28 00:19:55.
