data_PCOD8081484
_publ_section_title
;
Structure prediction by ZEFSAII (Michael W. Deem and Ramdas Pophale) SiO2 
 PCOD8081484
Probable space group: C 2/M
;
_chemical_formula_sum "Si O2"
_cell_formula_units_Z 48
_cell_length_a 24.783255
_cell_length_b 9.243441
_cell_length_c 11.828814
_cell_angle_alpha 90.000000
_cell_angle_beta 90.519264
_cell_angle_gamma 90.000000
_cell_volume 2709.663655
_symmetry_space_group_name_H-M "C 2/M"
_symmetry_group_IT_number 12
_symmetry_cell_setting 'monoclinic'
loop_
_space_group_symop_operation_xyz
x,y,z
-x,y,-z
-x,-y,-z
x,-y,z
1/2+x,1/2+y,z
1/2-x,1/2+y,-z
1/2-x,1/2-y,-z
1/2+x,1/2-y,z
loop_
_atom_site_type_symbol
_atom_site_label
_atom_site_fract_x
_atom_site_fract_y
_atom_site_fract_z
Si Si1 0.060888 0.654554 0.518123
Si Si2 0.098838 0.669065 0.274139
Si Si3 0.306635 0.669486 0.636013
Si Si4 0.698637 0.333508 0.622868
Si Si5 0.587530 0.666569 0.725699
Si Si6 0.004134 0.668974 0.868633
O O1 0.088611 0.500000 0.557044
O O2 0.083395 0.707832 0.400558
O O3 0.063969 0.783565 0.606325
O O4 0.000000 0.614498 0.500000
O O5 0.109565 0.500000 0.251697
O O6 0.154724 0.758152 0.267307
O O7 0.051121 0.726309 0.190954
O O8 0.306871 0.500000 0.658586
O O9 0.322424 0.705744 0.504822
O O10 0.247155 0.730210 0.659072
O O11 0.718096 0.500000 0.623850
O O12 0.651984 0.307782 0.716088
O O13 0.573554 0.500000 0.744733
O O14 0.558594 0.754946 0.825064
O O15 0.010681 0.500000 0.842262
O O16 0.000000 0.703237 0.000000
#
# Coordination Sequence:
#
# PCOD8081484 Si02
#       6
#     8   8   8   8   8   8
#     4  10  18  30  48  74 106 139 175 207 252 318
#     4  10  19  32  52  76 105 140 172 212 261 309
#     4  10  19  31  49  76 108 141 174 209 252 309
#     4   9  19  33  47  72 109 144 173 204 252 311
#     4  11  21  33  52  78 110 139 170 215 265 313
#     4  10  22  40  58  76 101 138 183 222 260 312
#
# _framework density 17.714375
#
# number of rings (size 3 to 8) (size 9 to 14) (size 15 to 20)
#    0.000    2.000    3.333    1.000    0.000    3.333 
#    0.000    0.000    0.000    1.000    0.000    0.000 
#    0.000    0.000    0.000    0.000    0.000    0.000 
#
# Total GULP energy -297385.606155 kJ/mol
# GULP energy per Si atom -12391.066923 kJ/mol
# Density = 1.767406 g / cm^3
# Si number density = 17.714375 Si / 1000 Ang^3
#
#
#
# Elastic Constant Matrix: (Units=GPa)
#
#
# Indices 1 2 3 4 5 6 
#
# 1 106.5595 57.7067 48.1735 0.0000 1.9585 0.0000
# 2 57.7067 75.6018 43.7323 0.0000 -1.6160 0.0000
# 3 48.1735 43.7323 68.2669 0.0000 -6.8834 0.0000
# 4 0.0000 0.0000 0.0000 17.9494 0.0000 -1.3487
# 5 1.9585 -1.6160 -6.8834 0.0000 14.9344 0.0000
# 6 0.0000 0.0000 0.0000 -1.3487 0.0000 32.7696
#
#
#
# Elastic Compliance Matrix: (Units=1/GPa)
#
#
# Indices 1 2 3 4 5 6 
#
# 1 0.018028 -0.009777 -0.007135 0.000000 -0.006711 0.000000
# 2 -0.009777 0.026561 -0.010170 0.000000 -0.000531 0.000000
# 3 -0.007135 -0.010170 0.027458 0.000000 0.012491 0.000000
# 4 0.000000 0.000000 0.000000 0.055885 0.000000 0.002300
# 5 -0.006711 -0.000531 0.012491 0.000000 0.073539 0.000000
# 6 0.000000 0.000000 0.000000 0.002300 0.000000 0.030611
#
#
# Mechanical properties :
#
#
# Convention : Reuss Voigt Hill
#
# Bulk Modulus (GPa) = 55.91789 61.07261 58.49525
# Shear Modulus (GPa) = 17.11114 19.85172 18.48143
#
# Velocity S-wave (km/s) = 3.11134 3.35125 3.23352
# Velocity P-wave (km/s) = 6.67399 7.03745 6.85813
#
# Compressibility (1/GPa) = 0.01788336
#
# Stress axis : x y z
#
# Youngs Moduli (GPa) = 55.46899 37.64894 36.41946
#
# Poissons Ratio (x) = 0.36808 0.25987
# Poissons Ratio (y) = 0.54231 0.37038
# Poissons Ratio (z) = 0.39579 0.38288
#
# Static dielectric constant tensor:
#      x y z
#    x 3.389900 0.000000 -0.006350 
#    y 0.000000 3.326870 0.000000 
#    z -0.006350 0.000000 2.975120 
# 
# 
# High freq. dielectric constant tensor:
#      x y z
#    x 1.691760 0.000000 0.000510 
#    y 0.000000 1.690140 0.000000 
#    z 0.000510 0.000000 1.638630 
# 
# From -- ./inp_files/179184.got.cif
#   From: 2010.06.25/outbox.cif.g09.slc.cpg/sg12_90_cif.got.tgz:179184.got - 2010.06.28 00:19:55.
