data_PCOD8081223
_publ_section_title
;
Structure prediction by ZEFSAII (Michael W. Deem and Ramdas Pophale) SiO2 
 PCOD8081223
Probable space group: C 2/M
;
_chemical_formula_sum "Si O2"
_cell_formula_units_Z 56
_cell_length_a 15.040050
_cell_length_b 9.180204
_cell_length_c 20.428732
_cell_angle_alpha 90.000000
_cell_angle_beta 99.909375
_cell_angle_gamma 90.000000
_cell_volume 2778.529714
_symmetry_space_group_name_H-M "C 2/M"
_symmetry_group_IT_number 12
_symmetry_cell_setting 'monoclinic'
loop_
_space_group_symop_operation_xyz
x,y,z
-x,y,-z
-x,-y,-z
x,-y,z
1/2+x,1/2+y,z
1/2-x,1/2+y,-z
1/2-x,1/2-y,-z
1/2+x,1/2-y,z
loop_
_atom_site_type_symbol
_atom_site_label
_atom_site_fract_x
_atom_site_fract_y
_atom_site_fract_z
Si Si1 0.215017 0.342756 0.936364
Si Si2 0.004514 0.337338 0.928287
Si Si3 0.432338 0.168906 0.671777
Si Si4 0.744302 0.170873 0.430752
Si Si5 0.975537 0.172114 0.801373
Si Si6 0.343125 0.830964 0.201607
Si Si7 0.866632 0.334005 0.347400
O O1 0.257339 0.500000 0.955612
O O2 0.107635 0.345814 0.920558
O O3 0.235886 0.295281 0.862986
O O4 0.250000 0.250000 0.000000
O O5 0.961514 0.500000 0.925024
O O6 0.949285 0.239418 0.869281
O O7 0.000000 0.265603 0.000000
O O8 0.353092 0.208696 0.611706
O O9 0.414403 0.261702 0.735520
O O10 0.528300 0.207270 0.650487
O O11 0.430581 0.000000 0.691733
O O12 0.750000 0.250000 0.500000
O O13 0.825232 0.226487 0.395264
O O14 0.757157 0.000000 0.442597
O O15 0.077546 0.215192 0.797825
O O16 0.962617 0.000000 0.802886
O O17 0.309935 0.814351 0.272215
O O18 0.376575 0.000000 0.196070
O O19 0.858607 0.500000 0.371757
#
# Coordination Sequence:
#
# PCOD8081223 Si02
#       7
#     8   8   8   8   8   8   8
#     4   9  17  30  48  71  99 136 177 220 270 324
#     4   9  18  34  52  68  98 143 185 221 271 338
#     4   9  20  40  62  82 113 158 194 221 277 355
#     4  11  24  41  61  88 121 153 188 234 283 340
#     4  10  18  29  52  82 107 134 178 237 282 317
#     4   8  16  33  54  73 102 147 187 218 272 344
#     4   9  18  37  63  85 110 149 195 237 279 336
#
# _framework density 20.154543
#
# number of rings (size 3 to 8) (size 9 to 14) (size 15 to 20)
#    0.000    2.714    0.000    3.429    0.000    6.571 
#    2.571    2.857    0.000    0.000    0.000    0.000 
#    0.000    0.000    0.000    0.000    0.000    0.000 
#
# Total GULP energy -346903.208365 kJ/mol
# GULP energy per Si atom -12389.400299 kJ/mol
# Density = 2.010867 g / cm^3
# Si number density = 20.154543 Si / 1000 Ang^3
#
#
#
# Elastic Constant Matrix: (Units=GPa)
#
#
# Indices 1 2 3 4 5 6 
#
# 1 50.5490 32.0981 46.9411 0.0000 3.5112 0.0000
# 2 32.0981 115.9321 92.5076 0.0000 7.0067 0.0000
# 3 46.9411 92.5076 201.6687 0.0000 5.8158 0.0000
# 4 0.0000 0.0000 0.0000 37.9219 0.0000 -1.8865
# 5 3.5112 7.0067 5.8158 0.0000 30.2395 0.0000
# 6 0.0000 0.0000 0.0000 -1.8865 0.0000 22.3353
#
#
#
# Elastic Compliance Matrix: (Units=1/GPa)
#
#
# Indices 1 2 3 4 5 6 
#
# 1 0.026298 -0.003701 -0.004385 0.000000 -0.001353 0.000000
# 2 -0.003701 0.014243 -0.005621 0.000000 -0.001790 0.000000
# 3 -0.004385 -0.005621 0.008553 0.000000 0.000167 0.000000
# 4 0.000000 0.000000 0.000000 0.026481 0.000000 0.002237
# 5 -0.001353 -0.001790 0.000167 0.000000 0.033609 0.000000
# 6 0.000000 0.000000 0.000000 0.002237 0.000000 0.044961
#
#
# Mechanical properties :
#
#
# Convention : Reuss Voigt Hill
#
# Bulk Modulus (GPa) = 46.12025 79.02704 62.57364
# Shear Modulus (GPa) = 26.48506 31.20620 28.84563
#
# Velocity S-wave (km/s) = 3.62898 3.93917 3.78725
# Velocity P-wave (km/s) = 6.36336 7.74500 7.08793
#
# Compressibility (1/GPa) = 0.02168245
#
# Stress axis : x y z
#
# Youngs Moduli (GPa) = 38.02506 70.20753 116.92223
#
# Poissons Ratio (x) = 0.25981 0.51268
# Poissons Ratio (y) = 0.14072 0.65718
# Poissons Ratio (z) = 0.16673 0.39461
#
# Static dielectric constant tensor:
#      x y z
#    x 3.273020 0.000000 0.100760 
#    y 0.000000 3.586230 0.000000 
#    z 0.100760 0.000000 4.242960 
# 
# 
# High freq. dielectric constant tensor:
#      x y z
#    x 1.749860 0.000000 -0.000220 
#    y 0.000000 1.775880 0.000000 
#    z -0.000220 0.000000 1.809250 
# 
# From -- ./inp_files/313319.got.cif
#   From: 2010.06.25/outbox.cif.g09.slc.cpg/sg12_157_cif.got.tgz:313319.got - 2010.06.28 00:19:55.
