data_PCOD8081192
_publ_section_title
;
Structure prediction by ZEFSAII (Michael W. Deem and Ramdas Pophale) SiO2 
 PCOD8081192
Probable space group: C 2/M
;
_chemical_formula_sum "Si O2"
_cell_formula_units_Z 64
_cell_length_a 34.216968
_cell_length_b 9.153135
_cell_length_c 11.325684
_cell_angle_alpha 90.000000
_cell_angle_beta 76.524558
_cell_angle_gamma 90.000000
_cell_volume 3449.467004
_symmetry_space_group_name_H-M "C 2/M"
_symmetry_group_IT_number 12
_symmetry_cell_setting 'monoclinic'
loop_
_space_group_symop_operation_xyz
x,y,z
-x,y,-z
-x,-y,-z
x,-y,z
1/2+x,1/2+y,z
1/2-x,1/2+y,-z
1/2-x,1/2-y,-z
1/2+x,1/2-y,z
loop_
_atom_site_type_symbol
_atom_site_label
_atom_site_fract_x
_atom_site_fract_y
_atom_site_fract_z
Si Si1 0.699227 0.669206 0.128997
Si Si2 0.384842 0.830554 0.445881
Si Si3 0.052804 0.674020 0.215693
Si Si4 0.118340 0.828556 0.315534
Si Si5 0.037238 0.673158 0.742905
Si Si6 0.275083 0.329246 0.149725
Si Si7 0.420714 0.173382 0.057503
Si Si8 0.159586 0.668719 0.763282
O O1 0.709014 0.500000 0.143696
O O2 0.654507 0.709876 0.201267
O O3 0.730639 0.761556 0.184032
O O4 0.703082 0.710523 0.988792
O O5 0.370224 0.731601 0.563965
O O6 0.429296 0.776520 0.375023
O O7 0.353351 0.806105 0.362484
O O8 0.385858 0.000000 0.483050
O O9 0.057179 0.500000 0.222266
O O10 0.078211 0.748446 0.300544
O O11 0.006767 0.725786 0.265536
O O12 0.067974 0.735101 0.078733
O O13 0.110351 0.000000 0.327998
O O14 0.038692 0.500000 0.750721
O O15 0.048174 0.734650 0.865809
O O16 0.270972 0.500000 0.173140
O O17 0.300900 0.262687 0.238258
O O18 0.375876 0.222418 0.124410
O O19 0.423567 0.000000 0.053640
O O20 0.169502 0.500000 0.779848
#
# Coordination Sequence:
#
# PCOD8081192 Si02
#       8
#     8   8   8   8   8   8   8   8
#     4   9  20  37  53  73 104 136 161 195 245 293
#     4   9  19  36  54  71  96 133 175 212 244 284
#     4  10  18  29  51  78 101 129 166 207 250 299
#     4  11  23  37  51  69  99 135 169 207 249 291
#     4   8  15  29  50  76 102 128 164 211 253 286
#     4  10  19  32  55  83 105 126 157 197 242 299
#     4   8  14  26  48  78 105 129 162 203 246 295
#     4   9  17  31  52  76 103 133 163 201 249 296
#
# _framework density 18.553591000000001
#
# number of rings (size 3 to 8) (size 9 to 14) (size 15 to 20)
#    0.000    2.750    0.000    3.375    0.000    4.000 
#    0.000    3.750    0.000    3.000    0.000    0.000 
#    0.000    0.000    0.000    0.000    0.000    0.000 
#
# Total GULP energy -396785.817302 kJ/mol
# GULP energy per Si atom -12399.556791 kJ/mol
# Density = 1.851136 g / cm^3
# Si number density = 18.553591 Si / 1000 Ang^3
#
#
#
# Elastic Constant Matrix: (Units=GPa)
#
#
# Indices 1 2 3 4 5 6 
#
# 1 103.3427 43.6590 24.8426 0.0000 22.7423 0.0000
# 2 43.6590 53.7954 26.1120 0.0000 10.1107 0.0000
# 3 24.8426 26.1120 62.4412 0.0000 8.9610 0.0000
# 4 0.0000 0.0000 0.0000 23.1593 0.0000 1.9981
# 5 22.7423 10.1107 8.9610 0.0000 20.2370 0.0000
# 6 0.0000 0.0000 0.0000 1.9981 0.0000 21.7484
#
#
#
# Elastic Compliance Matrix: (Units=1/GPa)
#
#
# Indices 1 2 3 4 5 6 
#
# 1 0.017736 -0.011681 -0.000159 0.000000 -0.014026 0.000000
# 2 -0.011681 0.032240 -0.008978 0.000000 0.000995 0.000000
# 3 -0.000159 -0.008978 0.020464 0.000000 -0.004398 0.000000
# 4 0.000000 0.000000 0.000000 0.043524 0.000000 -0.003999
# 5 -0.014026 0.000995 -0.004398 0.000000 0.066626 0.000000
# 6 0.000000 0.000000 0.000000 -0.003999 0.000000 0.046348
#
#
# Mechanical properties :
#
#
# Convention : Reuss Voigt Hill
#
# Bulk Modulus (GPa) = 34.71671 45.42297 40.06984
# Shear Modulus (GPa) = 17.97435 21.35998 19.66717
#
# Velocity S-wave (km/s) = 3.11590 3.39670 3.25933
# Velocity P-wave (km/s) = 5.63004 6.31812 5.98398
#
# Compressibility (1/GPa) = 0.02880457
#
# Stress axis : x y z
#
# Youngs Moduli (GPa) = 56.38193 31.01766 48.86721
#
# Poissons Ratio (x) = 0.36232 0.00776
# Poissons Ratio (y) = 0.65860 0.43871
# Poissons Ratio (z) = 0.00895 0.27846
#
# Static dielectric constant tensor:
#      x y z
#    x 3.472600 0.000000 -0.010390 
#    y 0.000000 3.053190 0.000000 
#    z -0.010390 0.000000 3.377640 
# 
# 
# High freq. dielectric constant tensor:
#      x y z
#    x 1.724510 0.000000 0.006570 
#    y 0.000000 1.687550 0.000000 
#    z 0.006570 0.000000 1.712230 
# 
# From -- ./inp_files/187448.got.cif
#   From: 2010.06.25/outbox.cif.g09.slc.cpg/sg12_94_cif.got.tgz:187448.got - 2010.06.28 00:19:55.
