data_PCOD8081763
_publ_section_title
;
Structure prediction by ZEFSAII (Michael W. Deem and Ramdas Pophale) SiO2 
 PCOD8081763
Probable space group: C 2/M
;
_chemical_formula_sum "Si O2"
_cell_formula_units_Z 32
_cell_length_a 22.682320
_cell_length_b 8.001652
_cell_length_c 12.193735
_cell_angle_alpha 90.000000
_cell_angle_beta 57.037675
_cell_angle_gamma 90.000000
_cell_volume 1856.866180
_symmetry_space_group_name_H-M "C 2/M"
_symmetry_group_IT_number 12
_symmetry_cell_setting 'monoclinic'
loop_
_space_group_symop_operation_xyz
x,y,z
-x,y,-z
-x,-y,-z
x,-y,z
1/2+x,1/2+y,z
1/2-x,1/2+y,-z
1/2-x,1/2-y,-z
1/2+x,1/2-y,z
loop_
_atom_site_type_symbol
_atom_site_label
_atom_site_fract_x
_atom_site_fract_y
_atom_site_fract_z
Si Si1 0.050824 0.000000 0.611136
Si Si2 0.634815 0.809694 0.598260
Si Si3 0.733108 0.317640 0.135705
Si Si4 0.601080 0.500000 0.312014
Si Si5 0.268994 0.688416 0.324394
O O1 0.073927 0.170806 0.649321
O O2 0.079744 0.000000 0.459534
O O3 0.966453 0.000000 0.697840
O O4 0.670299 0.801906 0.683057
O O5 0.693229 0.759668 0.448916
O O6 0.606299 0.000000 0.609159
O O7 0.768458 0.500000 0.111914
O O8 0.648396 0.335018 0.237731
O O9 0.767428 0.202906 0.194561
O O10 0.750000 0.250000 0.000000
O O11 0.286454 0.500000 0.340789
#
# Coordination Sequence:
#
# PCOD8081763 Si02
#       5
#     4   8   8   4   8
#     4  11  18  40  53  81 121 146 180 219 279 343
#     4  10  19  30  53  81 112 142 176 231 277 325
#     4  10  19  34  52  78 106 142 186 225 266 318
#     4   9  22  34  57  75 115 156 176 217 283 332
#     4  10  18  30  50  82 110 138 184 229 279 315
#
# _framework density 17.233336999999999
#
# number of rings (size 3 to 8) (size 9 to 14) (size 15 to 20)
#    0.750    1.250    3.750    1.500    1.750    0.000 
#    0.000    5.000    0.000    3.000    0.000    3.500 
#    0.000    0.000    0.000    0.000    0.000    0.000 
#
# Total GULP energy -198284.864637 kJ/mol
# GULP energy per Si atom -12392.804040 kJ/mol
# Density = 1.719411 g / cm^3
# Si number density = 17.233337 Si / 1000 Ang^3
#
#
#
# Elastic Constant Matrix: (Units=GPa)
#
#
# Indices 1 2 3 4 5 6 
#
# 1 96.5913 44.7084 37.2356 0.0000 12.8314 0.0000
# 2 44.7084 92.9906 7.1952 0.0000 1.3348 0.0000
# 3 37.2356 7.1952 82.0673 0.0000 19.8160 0.0000
# 4 0.0000 0.0000 0.0000 22.8082 0.0000 8.7146
# 5 12.8314 1.3348 19.8160 0.0000 24.2459 0.0000
# 6 0.0000 0.0000 0.0000 8.7146 0.0000 23.2950
#
#
#
# Elastic Compliance Matrix: (Units=1/GPa)
#
#
# Indices 1 2 3 4 5 6 
#
# 1 0.016592 -0.007460 -0.006046 0.000000 -0.003429 0.000000
# 2 -0.007460 0.014183 0.001715 0.000000 0.001766 0.000000
# 3 -0.006046 0.001715 0.017477 0.000000 -0.011179 0.000000
# 4 0.000000 0.000000 0.000000 0.051156 0.000000 -0.019137
# 5 -0.003429 0.001766 -0.011179 0.000000 0.052098 0.000000
# 6 0.000000 0.000000 0.000000 -0.019137 0.000000 0.050087
#
#
# Mechanical properties :
#
#
# Convention : Reuss Voigt Hill
#
# Bulk Modulus (GPa) = 40.53647 49.99195 45.26421
# Shear Modulus (GPa) = 21.42259 26.23714 23.82987
#
# Velocity S-wave (km/s) = 3.52957 3.90611 3.72261
# Velocity P-wave (km/s) = 6.33906 7.02961 6.69325
#
# Compressibility (1/GPa) = 0.02466915
#
# Stress axis : x y z
#
# Youngs Moduli (GPa) = 60.26907 70.50943 57.21723
#
# Poissons Ratio (x) = 0.52602 0.34595
# Poissons Ratio (y) = 0.44962 -0.09813
# Poissons Ratio (z) = 0.36440 -0.12093
#
# Static dielectric constant tensor:
#      x y z
#    x 3.098590 0.000000 0.089650 
#    y 0.000000 3.183200 0.000000 
#    z 0.089650 0.000000 2.902310 
# 
# 
# High freq. dielectric constant tensor:
#      x y z
#    x 1.648190 0.000000 0.027160 
#    y 0.000000 1.670010 0.000000 
#    z 0.027160 0.000000 1.635830 
# 
# From -- ./inp_files/161599.got.cif
#   From: 2010.06.25/outbox.cif.g09.slc.cpg/sg12_81_cif.got.tgz:161599.got - 2010.06.28 00:19:55.
