data_PCOD8081838
_publ_section_title
;
Structure prediction by ZEFSAII (Michael W. Deem and Ramdas Pophale) SiO2 
 PCOD8081838
Probable space group: C 2/M
;
_chemical_formula_sum "Si O2"
_cell_formula_units_Z 64
_cell_length_a 25.763174
_cell_length_b 9.289190
_cell_length_c 21.192221
_cell_angle_alpha 90.000000
_cell_angle_beta 43.222022
_cell_angle_gamma 90.000000
_cell_volume 3473.239353
_symmetry_space_group_name_H-M "C 2/M"
_symmetry_group_IT_number 12
_symmetry_cell_setting 'monoclinic'
loop_
_space_group_symop_operation_xyz
x,y,z
-x,y,-z
-x,-y,-z
x,-y,z
1/2+x,1/2+y,z
1/2-x,1/2+y,-z
1/2-x,1/2-y,-z
1/2+x,1/2-y,z
loop_
_atom_site_type_symbol
_atom_site_label
_atom_site_fract_x
_atom_site_fract_y
_atom_site_fract_z
Si Si1 0.679143 0.669169 0.591796
Si Si2 0.969299 0.667803 0.591342
Si Si3 0.558864 0.668906 0.076974
Si Si4 0.949913 0.339985 0.355100
Si Si5 0.388413 0.670232 0.217114
Si Si6 0.889640 0.337859 0.853743
Si Si7 0.164161 0.830480 0.870268
Si Si8 0.679811 0.827630 0.211687
O O1 0.691069 0.500000 0.573486
O O2 0.750000 0.750000 0.500000
O O3 0.605150 0.715651 0.619432
O O4 0.667097 0.711634 0.676013
O O5 0.955029 0.500000 0.592138
O O6 0.888828 0.735050 0.684633
O O7 0.000000 0.741829 0.500000
O O8 0.033865 0.692299 0.586231
O O9 0.559763 0.500000 0.089464
O O10 0.473202 0.731793 0.154036
O O11 0.612392 0.739260 0.082604
O O12 0.593972 0.706456 0.977803
O O13 0.913413 0.500000 0.379962
O O14 0.026746 0.333325 0.248517
O O15 0.396486 0.500000 0.202988
O O16 0.353500 0.735208 0.183377
O O17 0.867976 0.500000 0.892815
O O18 0.831658 0.278810 0.851338
O O19 0.241784 0.764707 0.830098
O O20 0.175621 0.000000 0.854181
O O21 0.676983 0.000000 0.214477
#
# Coordination Sequence:
#
# PCOD8081838 Si02
#       8
#     8   8   8   8   8   8   8   8
#     4  11  22  35  52  76 103 131 167 208 254 303
#     4   8  14  25  45  72  98 126 165 211 252 297
#     4  10  18  30  51  77  99 127 171 210 250 302
#     4   9  17  31  50  72  98 130 166 206 253 299
#     4   9  18  32  49  72 101 131 167 210 252 296
#     4   9  17  30  49  71 100 133 164 201 246 300
#     4   9  17  29  48  73 102 132 163 212 262 296
#     4   8  15  27  42  67 100 130 162 203 255 300
#
# _framework density 18.426603
#
# number of rings (size 3 to 8) (size 9 to 14) (size 15 to 20)
#    0.000    2.875    1.250    2.250    0.000    3.000 
#    0.000    3.750    0.000    3.375    0.000    3.500 
#    0.000    0.000    0.000    0.000    0.000    0.000 
#
# Total GULP energy -396631.982898 kJ/mol
# GULP energy per Si atom -12394.749466 kJ/mol
# Density = 1.838466 g / cm^3
# Si number density = 18.426603 Si / 1000 Ang^3
#
#
#
# Elastic Constant Matrix: (Units=GPa)
#
#
# Indices 1 2 3 4 5 6 
#
# 1 132.4543 30.7398 62.0138 -0.0294 11.5697 0.0393
# 2 30.7398 35.2664 34.2242 -0.0419 5.2249 0.0549
# 3 62.0138 34.2242 98.9303 -0.0179 16.2749 0.0255
# 4 -0.0294 -0.0419 -0.0179 16.4911 0.0116 0.6410
# 5 11.5697 5.2249 16.2749 0.0116 31.5183 -0.0169
# 6 0.0393 0.0549 0.0255 0.6410 -0.0169 21.0390
#
#
#
# Elastic Compliance Matrix: (Units=1/GPa)
#
#
# Indices 1 2 3 4 5 6 
#
# 1 0.011134 -0.004424 -0.005352 0.000003 -0.000590 -0.000003
# 2 -0.004424 0.044455 -0.012743 0.000094 0.000834 -0.000095
# 3 -0.005352 -0.012743 0.018797 -0.000018 -0.005629 0.000016
# 4 0.000003 0.000094 -0.000018 0.060711 -0.000031 -0.001850
# 5 -0.000590 0.000834 -0.005629 -0.000031 0.034713 0.000035
# 6 -0.000003 -0.000095 0.000016 -0.001850 0.000035 0.047588
#
#
# Mechanical properties :
#
#
# Convention : Reuss Voigt Hill
#
# Bulk Modulus (GPa) = 34.07299 57.84519 45.95909
# Shear Modulus (GPa) = 18.36780 23.12122 20.74451
#
# Velocity S-wave (km/s) = 3.16065 3.54612 3.35892
# Velocity P-wave (km/s) = 5.64367 6.94457 6.32764
#
# Compressibility (1/GPa) = 0.02934876
#
# Stress axis : x y z
#
# Youngs Moduli (GPa) = 89.81895 22.49491 53.19969
#
# Poissons Ratio (x) = 0.09951 0.28470
# Poissons Ratio (y) = 0.39733 0.67792
# Poissons Ratio (z) = 0.48067 0.28665
#
# Static dielectric constant tensor:
#      x y z
#    x 3.837780 0.000000 0.024520 
#    y 0.000000 3.041540 0.000000 
#    z 0.024520 0.000000 3.542730 
# 
# 
# High freq. dielectric constant tensor:
#      x y z
#    x 1.723780 0.000000 0.007040 
#    y 0.000000 1.652320 0.000000 
#    z 0.007040 0.000000 1.718110 
# 
# From -- ./inp_files/324170.got.cif
#   From: 2010.06.25/outbox.cif.g09.slc.cpg/sg12_163_cif.got.tgz:324170.got - 2010.06.28 00:19:55.
