data_PCOD8081822
_publ_section_title
;
Structure prediction by ZEFSAII (Michael W. Deem and Ramdas Pophale) SiO2 
 PCOD8081822
Probable space group: C 2/M
;
_chemical_formula_sum "Si O2"
_cell_formula_units_Z 40
_cell_length_a 24.293213
_cell_length_b 8.854577
_cell_length_c 12.214084
_cell_angle_alpha 90.000000
_cell_angle_beta 118.339491
_cell_angle_gamma 90.000000
_cell_volume 2312.440464
_symmetry_space_group_name_H-M "C 2/M"
_symmetry_group_IT_number 12
_symmetry_cell_setting 'monoclinic'
loop_
_space_group_symop_operation_xyz
x,y,z
-x,y,-z
-x,-y,-z
x,-y,z
1/2+x,1/2+y,z
1/2-x,1/2+y,-z
1/2-x,1/2-y,-z
1/2+x,1/2-y,z
loop_
_atom_site_type_symbol
_atom_site_label
_atom_site_fract_x
_atom_site_fract_y
_atom_site_fract_z
Si Si1 0.341423 0.674794 0.579013
Si Si2 0.579790 0.177138 0.995269
Si Si3 0.780010 0.676654 0.923003
Si Si4 0.241464 0.676195 0.665363
Si Si5 0.460701 0.676590 0.819964
O O1 0.329410 0.500000 0.540197
O O2 0.300279 0.722031 0.645541
O O3 0.322193 0.773618 0.456034
O O4 0.413988 0.707339 0.674596
O O5 0.646583 0.217190 0.007165
O O6 0.572397 0.266339 0.101185
O O7 0.572232 0.000000 0.010772
O O8 0.525608 0.234128 0.860766
O O9 0.768738 0.500000 0.917025
O O10 0.745948 0.737852 0.783486
O O11 0.750000 0.750000 0.000000
O O12 0.238987 0.500000 0.687842
O O13 0.474715 0.500000 0.845703
#
# Coordination Sequence:
#
# PCOD8081822 Si02
#       5
#     8   8   8   8   8
#     4   9  18  31  49  76 107 136 167 207 255 307
#     4  10  20  32  48  74 104 134 170 211 256 304
#     4  11  23  37  54  74 103 139 176 216 255 303
#     4  10  19  32  51  75 104 136 172 211 255 305
#     4  10  18  30  51  76 105 137 166 207 255 305
#
# _framework density 17.297743000000001
#
# number of rings (size 3 to 8) (size 9 to 14) (size 15 to 20)
#    0.000    2.000    2.000    3.600    0.000    4.800 
#    0.000    0.000    0.000    1.200    0.000    8.400 
#    0.000    0.000    0.000    0.000    0.000    0.000 
#
# Total GULP energy -248015.101294 kJ/mol
# GULP energy per Si atom -12400.755065 kJ/mol
# Density = 1.725837 g / cm^3
# Si number density = 17.297743 Si / 1000 Ang^3
#
#
#
# Elastic Constant Matrix: (Units=GPa)
#
#
# Indices 1 2 3 4 5 6 
#
# 1 88.2585 42.3971 62.1104 0.0000 4.2815 0.0000
# 2 42.3971 72.8330 50.6695 0.0000 1.2069 0.0000
# 3 62.1104 50.6695 124.9914 0.0000 11.2015 0.0000
# 4 0.0000 0.0000 0.0000 33.7661 0.0000 2.4253
# 5 4.2815 1.2069 11.2015 0.0000 27.0287 0.0000
# 6 0.0000 0.0000 0.0000 2.4253 0.0000 26.4677
#
#
#
# Elastic Compliance Matrix: (Units=1/GPa)
#
#
# Indices 1 2 3 4 5 6 
#
# 1 0.019333 -0.006357 -0.007043 0.000000 0.000140 0.000000
# 2 -0.006357 0.021371 -0.005722 0.000000 0.002424 0.000000
# 3 -0.007043 -0.005722 0.014225 0.000000 -0.004524 0.000000
# 4 0.000000 0.000000 0.000000 0.029812 0.000000 -0.002732
# 5 0.000140 0.002424 -0.004524 0.000000 0.038742 0.000000
# 6 0.000000 0.000000 0.000000 -0.002732 0.000000 0.038032
#
#
# Mechanical properties :
#
#
# Convention : Reuss Voigt Hill
#
# Bulk Modulus (GPa) = 59.92807 66.27076 63.09941
# Shear Modulus (GPa) = 24.35213 26.17957 25.26585
#
# Velocity S-wave (km/s) = 3.75616 3.89455 3.82598
# Velocity P-wave (km/s) = 7.31655 7.65626 7.48833
#
# Compressibility (1/GPa) = 0.01668667
#
# Stress axis : x y z
#
# Youngs Moduli (GPa) = 51.72384 46.79233 70.29825
#
# Poissons Ratio (x) = 0.29746 0.49508
# Poissons Ratio (y) = 0.32881 0.40223
# Poissons Ratio (z) = 0.36427 0.26773
#
# Static dielectric constant tensor:
#      x y z
#    x 3.113430 0.000000 0.333290 
#    y 0.000000 3.330990 0.000000 
#    z 0.333290 0.000000 3.303960 
# 
# 
# High freq. dielectric constant tensor:
#      x y z
#    x 1.635380 0.000000 0.028620 
#    y 0.000000 1.683850 0.000000 
#    z 0.028620 0.000000 1.667280 
# 
# From -- ./inp_files/171587.got.cif
#   From: 2010.06.25/outbox.cif.g09.slc.cpg/sg12_86_cif.got.tgz:171587.got - 2010.06.28 00:19:55.
