data_PCOD8081526
_publ_section_title
;
Structure prediction by ZEFSAII (Michael W. Deem and Ramdas Pophale) SiO2 
 PCOD8081526
Probable space group: C 2/M
;
_chemical_formula_sum "Si O2"
_cell_formula_units_Z 48
_cell_length_a 19.313047
_cell_length_b 9.261933
_cell_length_c 29.229691
_cell_angle_alpha 90.000000
_cell_angle_beta 31.878447
_cell_angle_gamma 90.000000
_cell_volume 2761.266975
_symmetry_space_group_name_H-M "C 2/M"
_symmetry_group_IT_number 12
_symmetry_cell_setting 'monoclinic'
loop_
_space_group_symop_operation_xyz
x,y,z
-x,y,-z
-x,-y,-z
x,-y,z
1/2+x,1/2+y,z
1/2-x,1/2+y,-z
1/2-x,1/2-y,-z
1/2+x,1/2-y,z
loop_
_atom_site_type_symbol
_atom_site_label
_atom_site_fract_x
_atom_site_fract_y
_atom_site_fract_z
Si Si1 0.369280 0.667868 0.597420
Si Si2 0.892819 0.330014 0.022046
Si Si3 0.886454 0.168559 0.786457
Si Si4 0.952038 0.167761 0.135780
Si Si5 0.391535 0.331984 0.272726
Si Si6 0.192769 0.166222 0.266422
O O1 0.500000 0.727820 0.500000
O O2 0.349480 0.500000 0.597789
O O3 0.245387 0.749667 0.646068
O O4 0.384348 0.696720 0.643304
O O5 0.891289 0.500000 0.013212
O O6 0.752049 0.270559 0.117648
O O7 0.000000 0.289749 0.000000
O O8 0.926129 0.247974 0.956238
O O9 0.901832 0.200676 0.723558
O O10 0.010199 0.234584 0.744260
O O11 0.887199 0.000000 0.796416
O O12 0.960214 0.194699 0.185395
O O13 0.818191 0.233050 0.191266
O O14 0.956082 0.000000 0.121117
O O15 0.361105 0.500000 0.297544
O O16 0.241487 0.000000 0.236612
#
# Coordination Sequence:
#
# PCOD8081526 Si02
#       6
#     8   8   8   8   8   8
#     4   9  18  33  54  77  97 120 155 198 239 285
#     4  10  18  30  49  70  92 126 173 205 224 270
#     4   9  17  31  50  70  93 126 167 202 229 273
#     4  10  19  30  45  69  99 127 158 199 244 280
#     4   9  19  34  50  70  98 128 157 194 241 288
#     4   9  16  31  53  70  90 127 167 194 229 283
#
# _framework density 17.383326
#
# number of rings (size 3 to 8) (size 9 to 14) (size 15 to 20)
#    0.000    2.667    1.667    0.500    0.000    2.000 
#    0.000    2.500    0.000    0.000    0.000    0.000 
#    0.000    0.000    0.000    0.000    0.000    0.000 
#
# Total GULP energy -297561.373673 kJ/mol
# GULP energy per Si atom -12398.390570 kJ/mol
# Density = 1.734376 g / cm^3
# Si number density = 17.383326 Si / 1000 Ang^3
#
#
#
# Elastic Constant Matrix: (Units=GPa)
#
#
# Indices 1 2 3 4 5 6 
#
# 1 141.5687 37.8190 74.0668 0.0002 -12.4961 0.0000
# 2 37.8190 43.9594 39.9784 -0.0001 -1.1595 0.0007
# 3 74.0668 39.9784 136.2799 0.0001 -0.8882 0.0000
# 4 0.0002 -0.0001 0.0001 23.5112 0.0000 0.2345
# 5 -12.4961 -1.1595 -0.8882 0.0000 22.4645 0.0001
# 6 0.0000 0.0007 0.0000 0.2345 0.0001 17.7239
#
#
#
# Elastic Compliance Matrix: (Units=1/GPa)
#
#
# Indices 1 2 3 4 5 6 
#
# 1 0.011452 -0.005553 -0.004557 0.000000 0.005904 0.000000
# 2 -0.005553 0.033752 -0.006894 0.000000 -0.001619 -0.000001
# 3 -0.004557 -0.006894 0.011821 0.000000 -0.002423 0.000000
# 4 0.000000 0.000000 0.000000 0.042539 0.000000 -0.000563
# 5 0.005904 -0.001619 -0.002423 0.000000 0.047619 0.000000
# 6 0.000000 -0.000001 0.000000 -0.000563 0.000000 0.056428
#
#
# Mechanical properties :
#
#
# Convention : Reuss Voigt Hill
#
# Bulk Modulus (GPa) = 43.44347 69.50406 56.47376
# Shear Modulus (GPa) = 20.38385 24.06948 22.22667
#
# Velocity S-wave (km/s) = 3.42805 3.72510 3.57966
# Velocity P-wave (km/s) = 6.38079 7.65322 7.04579
#
# Compressibility (1/GPa) = 0.02301842
#
# Stress axis : x y z
#
# Youngs Moduli (GPa) = 87.31921 29.62747 84.59475
#
# Poissons Ratio (x) = 0.16451 0.38548
# Poissons Ratio (y) = 0.48486 0.58321
# Poissons Ratio (z) = 0.39790 0.20426
#
# Static dielectric constant tensor:
#      x y z
#    x 3.368920 0.000000 0.072440 
#    y 0.000000 3.087750 0.000000 
#    z 0.072440 0.000000 3.224020 
# 
# 
# High freq. dielectric constant tensor:
#      x y z
#    x 1.672210 0.000000 0.009670 
#    y 0.000000 1.651830 0.000000 
#    z 0.009670 0.000000 1.659090 
# 
# From -- ./inp_files/229954.got.cif
#   From: 2010.06.25/outbox.cif.g09.slc.cpg/sg12_115_cif.got.tgz:229954.got - 2010.06.28 00:19:55.
