data_PCOD8081065
_publ_section_title
;
Structure prediction by ZEFSAII (Michael W. Deem and Ramdas Pophale) SiO2 
 PCOD8081065
Probable space group: C 2/M
;
_chemical_formula_sum "Si O2"
_cell_formula_units_Z 64
_cell_length_a 29.318691
_cell_length_b 9.600736
_cell_length_c 11.681582
_cell_angle_alpha 90.000000
_cell_angle_beta 86.011727
_cell_angle_gamma 90.000000
_cell_volume 3280.180650
_symmetry_space_group_name_H-M "C 2/M"
_symmetry_group_IT_number 12
_symmetry_cell_setting 'monoclinic'
loop_
_space_group_symop_operation_xyz
x,y,z
-x,y,-z
-x,-y,-z
x,-y,z
1/2+x,1/2+y,z
1/2-x,1/2+y,-z
1/2-x,1/2-y,-z
1/2+x,1/2-y,z
loop_
_atom_site_type_symbol
_atom_site_label
_atom_site_fract_x
_atom_site_fract_y
_atom_site_fract_z
Si Si1 0.708327 0.651116 0.489965
Si Si2 0.865523 0.343674 0.571550
Si Si3 0.862227 0.656651 0.824046
Si Si4 0.741638 0.162532 0.114145
Si Si5 0.471724 0.338797 0.177212
Si Si6 0.173519 0.152456 0.745773
Si Si7 0.405643 0.837010 0.321010
Si Si8 0.068035 0.160066 0.062182
O O1 0.722062 0.500000 0.434939
O O2 0.750000 0.750000 0.500000
O O3 0.673977 0.729810 0.412689
O O4 0.684657 0.625938 0.613538
O O5 0.844942 0.500000 0.558917
O O6 0.887219 0.331815 0.694789
O O7 0.899283 0.313402 0.459079
O O8 0.866821 0.500000 0.869760
O O9 0.808429 0.697099 0.825424
O O10 0.887578 0.753478 0.910350
O O11 0.781270 0.206965 0.196869
O O12 0.745837 0.000000 0.084275
O O13 0.750000 0.250000 0.000000
O O14 0.466587 0.500000 0.214540
O O15 0.453067 0.238914 0.280843
O O16 0.524594 0.300293 0.148116
O O17 0.443247 0.308933 0.067254
O O18 0.133584 0.268213 0.752998
O O19 0.157216 0.000000 0.798240
O O20 0.407852 0.000000 0.290778
O O21 0.080485 0.000000 0.078080
#
# Coordination Sequence:
#
# PCOD8081065 Si02
#       8
#     8   8   8   8   8   8   8   8
#     4  10  18  29  49  73  98 133 180 228 271 315
#     4   9  19  36  53  75 109 146 181 222 273 325
#     4  10  21  38  58  79 111 148 182 226 277 325
#     4  10  22  37  52  74 106 145 185 222 267 322
#     4   9  19  38  60  82 112 143 177 224 277 329
#     4   9  19  35  51  70 102 145 182 215 267 323
#     4  10  20  33  56  86 112 140 182 232 274 320
#     4   9  20  38  60  84 108 143 185 223 269 329
#
# _framework density 19.511119000000001
#
# number of rings (size 3 to 8) (size 9 to 14) (size 15 to 20)
#    0.000    2.500    0.000    2.250    1.750    5.500 
#    0.000    3.125    0.000    3.750    0.000    0.000 
#    0.000    0.000    0.000    0.000    0.000    0.000 
#
# Total GULP energy -396546.920542 kJ/mol
# GULP energy per Si atom -12392.091267 kJ/mol
# Density = 1.946671 g / cm^3
# Si number density = 19.511119 Si / 1000 Ang^3
#
#
#
# Elastic Constant Matrix: (Units=GPa)
#
#
# Indices 1 2 3 4 5 6 
#
# 1 48.5206 23.6516 16.4710 0.0000 -9.6074 0.0000
# 2 23.6516 91.6915 24.4215 0.0000 -12.1994 0.0000
# 3 16.4710 24.4215 60.9032 0.0000 -4.7836 0.0000
# 4 0.0000 0.0000 0.0000 27.3747 0.0000 -4.1901
# 5 -9.6074 -12.1994 -4.7836 0.0000 27.5616 0.0000
# 6 0.0000 0.0000 0.0000 -4.1901 0.0000 33.4700
#
#
#
# Elastic Compliance Matrix: (Units=1/GPa)
#
#
# Indices 1 2 3 4 5 6 
#
# 1 0.025611 -0.004564 -0.004617 0.000000 0.006106 0.000000
# 2 -0.004564 0.013632 -0.003937 0.000000 0.003760 0.000000
# 3 -0.004617 -0.003937 0.019246 0.000000 -0.000011 0.000000
# 4 0.000000 0.000000 0.000000 0.037244 0.000000 0.004663
# 5 0.006106 0.003760 -0.000011 0.000000 0.040073 0.000000
# 6 0.000000 0.000000 0.000000 0.004663 0.000000 0.030461
#
#
# Mechanical properties :
#
#
# Convention : Reuss Voigt Hill
#
# Bulk Modulus (GPa) = 31.00413 36.68927 33.84670
# Shear Modulus (GPa) = 24.59992 26.78602 25.69297
#
# Velocity S-wave (km/s) = 3.55465 3.70923 3.63276
# Velocity P-wave (km/s) = 5.72471 6.09833 5.91447
#
# Compressibility (1/GPa) = 0.03225377
#
# Stress axis : x y z
#
# Youngs Moduli (GPa) = 39.04597 73.35576 51.95974
#
# Poissons Ratio (x) = 0.33482 0.23987
# Poissons Ratio (y) = 0.17822 0.20455
# Poissons Ratio (z) = 0.18026 0.28878
#
# Static dielectric constant tensor:
#      x y z
#    x 3.491520 0.000000 -0.129350 
#    y 0.000000 3.865550 0.000000 
#    z -0.129350 0.000000 3.467890 
# 
# 
# High freq. dielectric constant tensor:
#      x y z
#    x 1.742220 0.000000 -0.010100 
#    y 0.000000 1.765820 0.000000 
#    z -0.010100 0.000000 1.750830 
# 
# From -- ./inp_files/187516.got.cif
#   From: 2010.06.25/outbox.cif.g09.slc.cpg/sg12_94_cif.got.tgz:187516.got - 2010.06.28 00:19:55.
