data_PCOD8081045
_publ_section_title
;
Structure prediction by ZEFSAII (Michael W. Deem and Ramdas Pophale) SiO2 
 PCOD8081045
Probable space group: C 2/M
;
_chemical_formula_sum "Si O2"
_cell_formula_units_Z 52
_cell_length_a 28.622570
_cell_length_b 28.386947
_cell_length_c 5.208239
_cell_angle_alpha 90.000000
_cell_angle_beta 126.176114
_cell_angle_gamma 90.000000
_cell_volume 3415.881898
_symmetry_space_group_name_H-M "C 2/M"
_symmetry_group_IT_number 12
_symmetry_cell_setting 'monoclinic'
loop_
_space_group_symop_operation_xyz
x,y,z
-x,y,-z
-x,-y,-z
x,-y,z
1/2+x,1/2+y,z
1/2-x,1/2+y,-z
1/2-x,1/2-y,-z
1/2+x,1/2-y,z
loop_
_atom_site_type_symbol
_atom_site_label
_atom_site_fract_x
_atom_site_fract_y
_atom_site_fract_z
Si Si1 0.468103 0.207921 0.151630
Si Si2 0.242661 0.644205 0.764494
Si Si3 0.678576 0.053389 0.467939
Si Si4 0.894733 0.446789 0.261216
Si Si5 0.268850 0.308896 0.358426
Si Si6 0.000000 0.617626 0.500000
Si Si7 0.333929 0.780743 0.673348
O O1 0.500000 0.231873 0.500000
O O2 0.473622 0.150994 0.190392
O O3 0.500000 0.226198 0.000000
O O4 0.401481 0.222550 0.945075
O O5 0.231427 0.588479 0.700363
O O6 0.284086 0.661145 0.665240
O O7 0.181805 0.673703 0.554247
O O8 0.272705 0.655588 0.132059
O O9 0.633679 0.056808 0.553626
O O10 0.702740 0.000000 0.521318
O O11 0.648800 0.069862 0.105145
O O12 0.914378 0.500000 0.263381
O O13 0.950461 0.414356 0.458739
O O14 0.314742 0.267085 0.465992
O O15 0.204132 0.285900 0.186168
#
# Coordination Sequence:
#
# PCOD8081045 Si02
#       7
#     8   8   8   8   8   4   8
#     4  10  24  31  44  66  87 121 146 179 239 269
#     4  10  18  29  49  68  86 111 148 187 231 269
#     4  10  21  33  47  64  87 117 147 190 237 271
#     4  10  21  33  44  58  80 115 154 195 234 260
#     4   9  20  29  52  70  82 116 141 198 234 253
#     4  10  23  30  46  60  80 114 156 194 229 262
#     4   9  20  33  48  66  95 106 154 192 222 282
#
# _framework density 15.223008
#
# number of rings (size 3 to 8) (size 9 to 14) (size 15 to 20)
#    1.385    0.923    0.000    2.538    8.615    0.000 
#    0.000    2.308    0.000    0.000    0.000    0.000 
#    0.000    0.000    0.000    0.000    0.000   15.385 
#
# Total GULP energy -322169.381318 kJ/mol
# GULP energy per Si atom -12391.130051 kJ/mol
# Density = 1.518836 g / cm^3
# Si number density = 15.223008 Si / 1000 Ang^3
#
#
#
# Elastic Constant Matrix: (Units=GPa)
#
#
# Indices 1 2 3 4 5 6 
#
# 1 46.4085 19.4725 32.7717 0.0000 -6.5624 0.0000
# 2 19.4725 77.5320 26.2441 0.0000 9.0819 0.0000
# 3 32.7717 26.2441 66.6772 0.0000 -6.1783 0.0000
# 4 0.0000 0.0000 0.0000 28.8489 0.0000 4.8687
# 5 -6.5624 9.0819 -6.1783 0.0000 24.3209 0.0000
# 6 0.0000 0.0000 0.0000 4.8687 0.0000 12.6384
#
#
#
# Elastic Compliance Matrix: (Units=1/GPa)
#
#
# Indices 1 2 3 4 5 6 
#
# 1 0.034886 -0.004689 -0.014610 0.000000 0.007453 0.000000
# 2 -0.004689 0.016859 -0.005153 0.000000 -0.008870 0.000000
# 3 -0.014610 -0.005153 0.024599 0.000000 0.004231 0.000000
# 4 0.000000 0.000000 0.000000 0.037074 0.000000 -0.014282
# 5 0.007453 -0.008870 0.004231 0.000000 0.047515 0.000000
# 6 0.000000 0.000000 0.000000 -0.014282 0.000000 0.084626
#
#
# Mechanical properties :
#
#
# Convention : Reuss Voigt Hill
#
# Bulk Modulus (GPa) = 36.44419 38.62158 37.53289
# Shear Modulus (GPa) = 16.46853 20.63692 18.55273
#
# Velocity S-wave (km/s) = 3.29267 3.68590 3.49482
# Velocity P-wave (km/s) = 6.20062 6.59849 6.40265
#
# Compressibility (1/GPa) = 0.02743922
#
# Stress axis : x y z
#
# Youngs Moduli (GPa) = 28.66441 59.31631 40.65263
#
# Poissons Ratio (x) = 0.27816 0.59395
# Poissons Ratio (y) = 0.13442 0.20947
# Poissons Ratio (z) = 0.41880 0.30563
#
# Static dielectric constant tensor:
#      x y z
#    x 2.675140 0.000000 -0.241160 
#    y 0.000000 2.871080 0.000000 
#    z -0.241160 0.000000 2.747280 
# 
# 
# High freq. dielectric constant tensor:
#      x y z
#    x 1.559290 0.000000 -0.033320 
#    y 0.000000 1.568380 0.000000 
#    z -0.033320 0.000000 1.567710 
# 
# From -- ./inp_files/29854.got.cif
#   From: 2010.06.25/outbox.cif.g09.slc.cpg/sg12_15_cif.got.tgz:29854.got - 2010.06.28 00:19:55.
