data_PCOD8081033
_publ_section_title
;
Structure prediction by ZEFSAII (Michael W. Deem and Ramdas Pophale) SiO2 
 PCOD8081033
Probable space group: C 2/M
;
_chemical_formula_sum "Si O2"
_cell_formula_units_Z 56
_cell_length_a 24.875969
_cell_length_b 9.545717
_cell_length_c 12.785582
_cell_angle_alpha 90.000000
_cell_angle_beta 67.805674
_cell_angle_gamma 90.000000
_cell_volume 2811.103909
_symmetry_space_group_name_H-M "C 2/M"
_symmetry_group_IT_number 12
_symmetry_cell_setting 'monoclinic'
loop_
_space_group_symop_operation_xyz
x,y,z
-x,y,-z
-x,-y,-z
x,-y,z
1/2+x,1/2+y,z
1/2-x,1/2+y,-z
1/2-x,1/2-y,-z
1/2+x,1/2-y,z
loop_
_atom_site_type_symbol
_atom_site_label
_atom_site_fract_x
_atom_site_fract_y
_atom_site_fract_z
Si Si1 0.446557 0.165672 0.368575
Si Si2 0.870230 0.338463 0.227644
Si Si3 0.244026 0.152587 0.907505
Si Si4 0.239483 0.842083 0.286099
Si Si5 0.386168 0.343336 0.582113
Si Si6 0.060114 0.838136 0.237300
Si Si7 0.890409 0.846943 0.022053
O O1 0.400004 0.203866 0.313859
O O2 0.423837 0.229033 0.493907
O O3 0.506722 0.236006 0.295150
O O4 0.455013 0.000000 0.376125
O O5 0.879972 0.500000 0.193880
O O6 0.801338 0.304949 0.294097
O O7 0.903056 0.257622 0.109001
O O8 0.276012 0.229550 0.790158
O O9 0.177618 0.133601 0.929881
O O10 0.272901 0.000000 0.905129
O O11 0.250000 0.250000 0.000000
O O12 0.182180 0.830976 0.401140
O O13 0.243347 0.000000 0.236432
O O14 0.408237 0.500000 0.536397
O O15 0.394193 0.319672 0.701173
O O16 0.039856 0.000000 0.245305
O O17 0.088363 0.789672 0.106183
O O18 0.918741 0.000000 0.024221
#
# Coordination Sequence:
#
# PCOD8081033 Si02
#       7
#     8   8   8   8   8   8   8
#     4  11  24  39  55  79 112 147 185 228 270 321
#     4   9  20  38  57  81 114 147 178 218 273 329
#     4  10  18  29  48  77 111 144 178 219 269 324
#     4   9  18  35  57  79 106 141 179 222 273 325
#     4  10  21  38  60  83 108 142 184 228 275 325
#     4  10  21  38  58  81 109 142 183 229 275 320
#     4   9  19  35  56  81 108 140 182 228 268 319
#
# _framework density 19.920999999999999
#
# number of rings (size 3 to 8) (size 9 to 14) (size 15 to 20)
#    0.000    2.286    0.000    2.143    0.000    8.571 
#    0.000    4.286    0.000    0.000    0.000    0.000 
#    0.000    0.000    0.000    0.000    0.000    0.000 
#
# Total GULP energy -346981.262181 kJ/mol
# GULP energy per Si atom -12392.187935 kJ/mol
# Density = 1.987566 g / cm^3
# Si number density = 19.921000 Si / 1000 Ang^3
#
#
#
# Elastic Constant Matrix: (Units=GPa)
#
#
# Indices 1 2 3 4 5 6 
#
# 1 1232.4905 305.1142 2878.6433 0.0000 534.8778 0.0000
# 2 305.1142 164.3891 712.8213 0.0000 126.9328 0.0000
# 3 2878.6433 712.8213 7106.2836 0.0000 1320.4575 0.0000
# 4 0.0000 0.0000 0.0000 36.1330 0.0000 0.8772
# 5 534.8778 126.9328 1320.4575 0.0000 281.9699 0.0000
# 6 0.0000 0.0000 0.0000 0.8772 0.0000 26.3058
#
#
#
# Elastic Compliance Matrix: (Units=1/GPa)
#
#
# Indices 1 2 3 4 5 6 
#
# 1 0.015750 -0.002799 -0.006023 0.000000 -0.000414 0.000000
# 2 -0.002799 0.011361 -0.000324 0.000000 0.001712 0.000000
# 3 -0.006023 -0.000324 0.003566 0.000000 -0.005128 0.000000
# 4 0.000000 0.000000 0.000000 0.027698 0.000000 -0.000924
# 5 -0.000414 0.001712 -0.005128 0.000000 0.027574 0.000000
# 6 0.000000 0.000000 0.000000 -0.000924 0.000000 0.038045
#
#
# Mechanical properties :
#
#
# Convention : Reuss Voigt Hill
#
# Bulk Modulus (GPa) = 80.73666 1810.70232 945.71949
# Shear Modulus (GPa) = 34.14999 375.98738 205.06869
#
# Velocity S-wave (km/s) = 4.14487 13.75314 10.15699
# Velocity P-wave (km/s) = 7.97013 34.10445 24.76526
#
# Compressibility (1/GPa) = 0.01238595
#
# Stress axis : x y z
#
# Youngs Moduli (GPa) = 63.49047 88.02420 280.45510
#
# Poissons Ratio (x) = 0.24638 1.68905
# Poissons Ratio (y) = 0.17771 0.09081
# Poissons Ratio (z) = 0.38237 0.02850
#
# Static dielectric constant tensor:
#      x y z
#    x 3.811640 0.000000 0.173410 
#    y 0.000000 4.088980 0.000000 
#    z 0.173410 0.000000 3.616920 
# 
# 
# High freq. dielectric constant tensor:
#      x y z
#    x 1.771870 0.000000 -0.003800 
#    y 0.000000 1.782970 0.000000 
#    z -0.003800 0.000000 1.764870 
# 
# From -- ./inp_files/180761.got.cif
#   From: 2010.06.25/outbox.cif.g09.slc.cpg/sg12_91_cif.got.tgz:180761.got - 2010.06.28 00:19:55.
