data_PCOD8081960
_publ_section_title
;
Structure prediction by ZEFSAII (Michael W. Deem and Ramdas Pophale) SiO2 
 PCOD8081960
Probable space group: C 2/M
;
_chemical_formula_sum "Si O2"
_cell_formula_units_Z 64
_cell_length_a 33.444924
_cell_length_b 8.944132
_cell_length_c 12.012304
_cell_angle_alpha 90.000000
_cell_angle_beta 84.809056
_cell_angle_gamma 90.000000
_cell_volume 3578.573144
_symmetry_space_group_name_H-M "C 2/M"
_symmetry_group_IT_number 12
_symmetry_cell_setting 'monoclinic'
loop_
_space_group_symop_operation_xyz
x,y,z
-x,y,-z
-x,-y,-z
x,-y,z
1/2+x,1/2+y,z
1/2-x,1/2+y,-z
1/2-x,1/2-y,-z
1/2+x,1/2-y,z
loop_
_atom_site_type_symbol
_atom_site_label
_atom_site_fract_x
_atom_site_fract_y
_atom_site_fract_z
Si Si1 0.018456 0.825762 0.773034
Si Si2 0.086338 0.175789 0.585650
Si Si3 0.857184 0.675656 0.254555
Si Si4 0.063520 0.327487 0.182523
Si Si5 0.781611 0.174056 0.342808
Si Si6 0.074623 0.673976 0.929796
Si Si7 0.201389 0.825525 0.404865
Si Si8 0.618612 0.825975 0.371994
O O1 0.044427 0.788018 0.656747
O O2 0.038151 0.755796 0.877855
O O3 0.974324 0.763844 0.762992
O O4 0.016251 0.000000 0.794970
O O5 0.123077 0.241121 0.646342
O O6 0.086504 0.256264 0.466358
O O7 0.093550 0.000000 0.568441
O O8 0.855220 0.500000 0.279941
O O9 0.812611 0.742885 0.251955
O O10 0.882542 0.711829 0.137040
O O11 0.050828 0.500000 0.183614
O O12 0.101175 0.300348 0.253335
O O13 0.076430 0.271917 0.056696
O O14 0.795950 0.205349 0.464693
O O15 0.737892 0.243661 0.333052
O O16 0.780212 0.000000 0.314115
O O17 0.065112 0.500000 0.922413
O O18 0.160567 0.758928 0.367356
O O19 0.203433 0.000000 0.377053
O O20 0.624939 0.000000 0.397377
#
# Coordination Sequence:
#
# PCOD8081960 Si02
#       8
#     8   8   8   8   8   8   8   8
#     4  10  21  35  54  79 104 131 171 222 267 305
#     4  10  20  34  50  73 106 139 169 209 262 312
#     4  10  18  30  53  80 105 134 170 212 257 306
#     4  10  22  38  54  74 102 139 178 214 259 309
#     4  10  19  31  51  79 110 138 167 207 254 303
#     4   9  19  36  56  77 103 136 173 216 262 307
#     4  10  20  33  51  76 108 141 169 206 253 304
#     4  11  22  35  53  75 104 140 176 213 252 308
#
# _framework density 17.884224
#
# number of rings (size 3 to 8) (size 9 to 14) (size 15 to 20)
#    0.000    2.000    1.250    2.625    0.000    6.500 
#    0.000    2.500    0.000    0.750    0.000    0.000 
#    0.000    0.000    0.000    0.000    0.000    0.000 
#
# Total GULP energy -396903.059286 kJ/mol
# GULP energy per Si atom -12403.220603 kJ/mol
# Density = 1.784352 g / cm^3
# Si number density = 17.884224 Si / 1000 Ang^3
#
#
#
# Elastic Constant Matrix: (Units=GPa)
#
#
# Indices 1 2 3 4 5 6 
#
# 1 104.1102 28.6811 29.7472 0.0000 -5.7077 0.0000
# 2 28.6811 51.0968 14.8561 0.0000 2.5325 0.0000
# 3 29.7472 14.8561 57.5838 0.0000 4.7221 0.0000
# 4 0.0000 0.0000 0.0000 15.4459 0.0000 -5.6685
# 5 -5.7077 2.5325 4.7221 0.0000 20.6645 0.0000
# 6 0.0000 0.0000 0.0000 -5.6685 0.0000 35.3007
#
#
#
# Elastic Compliance Matrix: (Units=1/GPa)
#
#
# Indices 1 2 3 4 5 6 
#
# 1 0.013220 -0.006034 -0.005740 0.000000 0.005703 0.000000
# 2 -0.006034 0.023950 -0.002736 0.000000 -0.003977 0.000000
# 3 -0.005740 -0.002736 0.021543 0.000000 -0.006173 0.000000
# 4 0.000000 0.000000 0.000000 0.068796 0.000000 0.011047
# 5 0.005703 -0.003977 -0.006173 0.000000 0.051865 0.000000
# 6 0.000000 0.000000 0.000000 0.011047 0.000000 0.030102
#
#
# Mechanical properties :
#
#
# Convention : Reuss Voigt Hill
#
# Bulk Modulus (GPa) = 33.67743 39.92884 36.80314
# Shear Modulus (GPa) = 20.12912 23.58264 21.85588
#
# Velocity S-wave (km/s) = 3.35852 3.63523 3.49961
# Velocity P-wave (km/s) = 5.82334 6.32413 6.07889
#
# Compressibility (1/GPa) = 0.02969348
#
# Stress axis : x y z
#
# Youngs Moduli (GPa) = 75.64032 41.75311 46.41789
#
# Poissons Ratio (x) = 0.25196 0.26646
# Poissons Ratio (y) = 0.45645 0.12698
# Poissons Ratio (z) = 0.43420 0.11422
#
# Static dielectric constant tensor:
#      x y z
#    x 3.329940 0.000000 -0.237570 
#    y 0.000000 3.400700 0.000000 
#    z -0.237570 0.000000 3.262390 
# 
# 
# High freq. dielectric constant tensor:
#      x y z
#    x 1.693760 0.000000 -0.018480 
#    y 0.000000 1.705420 0.000000 
#    z -0.018480 0.000000 1.666780 
# 
# From -- ./inp_files/187443.got.cif
#   From: 2010.06.25/outbox.cif.g09.slc.cpg/sg12_94_cif.got.tgz:187443.got - 2010.06.28 00:19:55.
