data_PCOD8081131
_publ_section_title
;
Structure prediction by ZEFSAII (Michael W. Deem and Ramdas Pophale) SiO2 
 PCOD8081131
Probable space group: C 2/M
;
_chemical_formula_sum "Si O2"
_cell_formula_units_Z 56
_cell_length_a 20.020209
_cell_length_b 20.841727
_cell_length_c 8.082881
_cell_angle_alpha 90.000000
_cell_angle_beta 82.152935
_cell_angle_gamma 90.000000
_cell_volume 3341.047205
_symmetry_space_group_name_H-M "C 2/M"
_symmetry_group_IT_number 12
_symmetry_cell_setting 'monoclinic'
loop_
_space_group_symop_operation_xyz
x,y,z
-x,y,-z
-x,-y,-z
x,-y,z
1/2+x,1/2+y,z
1/2-x,1/2+y,-z
1/2-x,1/2-y,-z
1/2+x,1/2-y,z
loop_
_atom_site_type_symbol
_atom_site_label
_atom_site_fract_x
_atom_site_fract_y
_atom_site_fract_z
Si Si1 0.660297 0.765897 0.369332
Si Si2 0.206678 0.313794 0.027137
Si Si3 0.425292 0.644997 0.592572
Si Si4 0.292396 0.571665 0.123877
Si Si5 0.434463 0.573062 0.926375
Si Si6 0.289448 0.824169 0.332088
Si Si7 0.698056 0.426394 0.500556
O O1 0.655522 0.807812 0.200425
O O2 0.596129 0.719401 0.398330
O O3 0.658895 0.810350 0.534636
O O4 0.731032 0.729040 0.345571
O O5 0.253921 0.375773 0.030512
O O6 0.250000 0.250000 0.000000
O O7 0.170994 0.323068 0.858545
O O8 0.500000 0.637553 0.500000
O O9 0.419756 0.618661 0.778512
O O10 0.375498 0.605065 0.492035
O O11 0.268730 0.500000 0.079029
O O12 0.277319 0.583247 0.321047
O O13 0.372227 0.578402 0.072030
O O14 0.445546 0.500000 0.860823
O O15 0.500000 0.598409 0.000000
O O16 0.253730 0.892988 0.366366
O O17 0.693158 0.500000 0.448130
#
# Coordination Sequence:
#
# PCOD8081131 Si02
#       7
#     8   8   8   8   8   8   8
#     4   9  18  33  46  67  95 119 163 208 246 295
#     4  10  18  29  50  71  93 127 163 202 257 305
#     4  11  22  34  47  66  94 133 175 211 247 289
#     4  10  19  31  47  71 102 132 165 210 252 295
#     4  10  20  33  45  63  94 133 176 211 241 286
#     4   9  17  30  49  70  92 123 158 201 247 295
#     4  10  19  31  50  72 101 133 164 204 249 297
#
# _framework density 16.761212
#
# number of rings (size 3 to 8) (size 9 to 14) (size 15 to 20)
#    0.000    2.143    1.429    3.857    2.000    4.000 
#    2.571    0.000    0.000    0.000    0.000    0.000 
#    0.000    2.286    0.000    2.571    0.000    0.000 
#
# Total GULP energy -347094.171881 kJ/mol
# GULP energy per Si atom -12396.220424 kJ/mol
# Density = 1.672306 g / cm^3
# Si number density = 16.761212 Si / 1000 Ang^3
#
#
#
# Elastic Constant Matrix: (Units=GPa)
#
#
# Indices 1 2 3 4 5 6 
#
# 1 26.2691 35.5365 18.3860 0.0000 7.0648 0.0000
# 2 35.5365 94.9938 43.8852 0.0000 4.6989 0.0000
# 3 18.3860 43.8852 119.6808 0.0000 9.1397 0.0000
# 4 0.0000 0.0000 0.0000 25.5092 0.0000 3.6464
# 5 7.0648 4.6989 9.1397 0.0000 15.1722 0.0000
# 6 0.0000 0.0000 0.0000 3.6464 0.0000 20.6461
#
#
#
# Elastic Compliance Matrix: (Units=1/GPa)
#
#
# Indices 1 2 3 4 5 6 
#
# 1 0.090193 -0.032364 0.000475 0.000000 -0.032260 0.000000
# 2 -0.032364 0.024308 -0.004735 0.000000 0.010394 0.000000
# 3 0.000475 -0.004735 0.010402 0.000000 -0.005021 0.000000
# 4 0.000000 0.000000 0.000000 0.040217 0.000000 -0.007103
# 5 -0.032260 0.010394 -0.005021 0.000000 0.080738 0.000000
# 6 0.000000 0.000000 0.000000 -0.007103 0.000000 0.049690
#
#
# Mechanical properties :
#
#
# Convention : Reuss Voigt Hill
#
# Bulk Modulus (GPa) = 19.35935 48.50658 33.93296
# Shear Modulus (GPa) = 12.95290 21.80790 17.38040
#
# Velocity S-wave (km/s) = 2.78293 3.61098 3.22365
# Velocity P-wave (km/s) = 4.67989 6.81089 5.84335
#
# Compressibility (1/GPa) = 0.05165463
#
# Stress axis : x y z
#
# Youngs Moduli (GPa) = 11.08731 41.13933 96.13280
#
# Poissons Ratio (x) = 1.33145 -0.04569
# Poissons Ratio (y) = 0.35883 0.45519
# Poissons Ratio (z) = -0.00527 0.19480
#
# Static dielectric constant tensor:
#      x y z
#    x 2.721270 0.000000 0.152170 
#    y 0.000000 3.173930 0.000000 
#    z 0.152170 0.000000 3.578290 
# 
# 
# High freq. dielectric constant tensor:
#      x y z
#    x 1.584920 0.000000 0.014570 
#    y 0.000000 1.640900 0.000000 
#    z 0.014570 0.000000 1.668660 
# 
# From -- ./inp_files/76937.got.cif
#   From: 2010.06.25/outbox.cif.g09.slc.cpg/sg12_39_cif.got.tgz:76937.got - 2010.06.28 00:19:55.
