data_PCOD8081296
_publ_section_title
;
Structure prediction by ZEFSAII (Michael W. Deem and Ramdas Pophale) SiO2 
 PCOD8081296
Probable space group: C 2/M
;
_chemical_formula_sum "Si O2"
_cell_formula_units_Z 56
_cell_length_a 31.966527
_cell_length_b 8.661493
_cell_length_c 16.009872
_cell_angle_alpha 90.000000
_cell_angle_beta 49.922539
_cell_angle_gamma 90.000000
_cell_volume 3391.850412
_symmetry_space_group_name_H-M "C 2/M"
_symmetry_group_IT_number 12
_symmetry_cell_setting 'monoclinic'
loop_
_space_group_symop_operation_xyz
x,y,z
-x,y,-z
-x,-y,-z
x,-y,z
1/2+x,1/2+y,z
1/2-x,1/2+y,-z
1/2-x,1/2-y,-z
1/2+x,1/2-y,z
loop_
_atom_site_type_symbol
_atom_site_label
_atom_site_fract_x
_atom_site_fract_y
_atom_site_fract_z
Si Si1 0.942377 0.178154 0.471095
Si Si2 0.304537 0.682973 0.389549
Si Si3 0.256151 0.181110 0.300469
Si Si4 0.765501 0.821246 0.111480
Si Si5 0.148726 0.680676 0.518268
Si Si6 0.432767 0.677999 0.674523
Si Si7 0.831504 0.678470 0.885704
O O1 0.908722 0.285045 0.451700
O O2 0.928687 0.227394 0.583201
O O3 0.006153 0.205138 0.370423
O O4 0.926555 0.000000 0.477207
O O5 0.304777 0.500000 0.387931
O O6 0.250000 0.750000 0.500000
O O7 0.305319 0.747542 0.293938
O O8 0.353433 0.744764 0.385702
O O9 0.270036 0.217441 0.187451
O O10 0.197455 0.251328 0.399550
O O11 0.253542 0.000000 0.318813
O O12 0.708590 0.780295 0.139294
O O13 0.768689 0.000000 0.132494
O O14 0.815822 0.779656 0.986307
O O15 0.158068 0.500000 0.514900
O O16 0.415735 0.500000 0.706297
O O17 0.393051 0.783486 0.780190
O O18 0.826293 0.500000 0.916844
#
# Coordination Sequence:
#
# PCOD8081296 Si02
#       7
#     8   8   8   8   8   8   8
#     4   9  18  32  48  68  92 123 160 192 229 274
#     4  10  18  30  46  65  91 122 154 188 228 274
#     4  11  20  31  47  68  95 124 154 190 231 275
#     4  10  20  33  48  68  93 123 158 191 228 275
#     4  11  20  30  45  68  96 125 156 190 230 274
#     4   9  18  32  49  67  92 124 157 194 232 273
#     4  10  20  32  47  68  94 123 156 194 232 271
#
# _framework density 16.510161
#
# number of rings (size 3 to 8) (size 9 to 14) (size 15 to 20)
#    0.000    2.000    0.000    8.143    0.000    5.143 
#    0.000    1.429    0.000    0.000    0.000    1.000 
#    0.000    8.000    0.000    0.000    0.000    0.000 
#
# Total GULP energy -347228.997839 kJ/mol
# GULP energy per Si atom -12401.035637 kJ/mol
# Density = 1.647258 g / cm^3
# Si number density = 16.510161 Si / 1000 Ang^3
#
#
#
# Elastic Constant Matrix: (Units=GPa)
#
#
# Indices 1 2 3 4 5 6 
#
# 1 99.7912 43.3760 35.7094 0.0000 13.0444 -0.0002
# 2 43.3760 112.4412 28.9208 0.0001 8.5436 -0.0009
# 3 35.7094 28.9208 72.3254 0.0000 2.3678 0.0000
# 4 0.0000 0.0001 0.0000 26.8228 0.0000 2.4693
# 5 13.0444 8.5436 2.3678 0.0000 23.9500 -0.0001
# 6 -0.0002 -0.0009 0.0000 2.4693 -0.0001 28.6573
#
#
#
# Elastic Compliance Matrix: (Units=1/GPa)
#
#
# Indices 1 2 3 4 5 6 
#
# 1 0.014338 -0.003687 -0.005410 0.000000 -0.005959 0.000000
# 2 -0.003687 0.011105 -0.002564 0.000000 -0.001700 0.000000
# 3 -0.005410 -0.002564 0.017453 0.000000 0.002136 0.000000
# 4 0.000000 0.000000 0.000000 0.037580 0.000000 -0.003238
# 5 -0.005959 -0.001700 0.002136 0.000000 0.045395 0.000000
# 6 0.000000 0.000000 0.000000 -0.003238 0.000000 0.035174
#
#
# Mechanical properties :
#
#
# Convention : Reuss Voigt Hill
#
# Bulk Modulus (GPa) = 51.08983 55.61894 53.35439
# Shear Modulus (GPa) = 26.19288 27.65613 26.92450
#
# Velocity S-wave (km/s) = 3.98737 4.09724 4.04268
# Velocity P-wave (km/s) = 7.22568 7.49293 7.36052
#
# Compressibility (1/GPa) = 0.01957337
#
# Stress axis : x y z
#
# Youngs Moduli (GPa) = 69.74261 90.05299 57.29692
#
# Poissons Ratio (x) = 0.33202 0.30997
# Poissons Ratio (y) = 0.25714 0.14693
# Poissons Ratio (z) = 0.37730 0.23093
#
# Static dielectric constant tensor:
#      x y z
#    x 3.363300 0.000000 0.246460 
#    y 0.000000 3.132640 0.000000 
#    z 0.246460 0.000000 2.906010 
# 
# 
# High freq. dielectric constant tensor:
#      x y z
#    x 1.629740 0.000000 0.015570 
#    y 0.000000 1.650280 0.000000 
#    z 0.015570 0.000000 1.605030 
# 
# From -- ./inp_files/243270.got.cif
#   From: 2010.06.25/outbox.cif.g09.slc.cpg/sg12_122_cif.got.tgz:243270.got - 2010.06.28 00:19:55.
