data_PCOD8081690
_publ_section_title
;
Structure prediction by ZEFSAII (Michael W. Deem and Ramdas Pophale) SiO2 
 PCOD8081690
Probable space group: C 2/M
;
_chemical_formula_sum "Si O2"
_cell_formula_units_Z 48
_cell_length_a 27.336564
_cell_length_b 8.727982
_cell_length_c 11.862051
_cell_angle_alpha 90.000000
_cell_angle_beta 107.612388
_cell_angle_gamma 90.000000
_cell_volume 2697.537799
_symmetry_space_group_name_H-M "C 2/M"
_symmetry_group_IT_number 12
_symmetry_cell_setting 'monoclinic'
loop_
_space_group_symop_operation_xyz
x,y,z
-x,y,-z
-x,-y,-z
x,-y,z
1/2+x,1/2+y,z
1/2-x,1/2+y,-z
1/2-x,1/2-y,-z
1/2+x,1/2-y,z
loop_
_atom_site_type_symbol
_atom_site_label
_atom_site_fract_x
_atom_site_fract_y
_atom_site_fract_z
Si Si1 0.557333 0.819291 0.508799
Si Si2 0.116717 0.827032 0.745661
Si Si3 0.694207 0.180921 0.971873
Si Si4 0.069095 0.819750 0.278179
Si Si5 0.622706 0.319874 0.096076
Si Si6 0.036267 0.170738 0.878626
O O1 0.500000 0.756410 0.500000
O O2 0.602190 0.752893 0.618691
O O3 0.575833 0.772153 0.397476
O O4 0.557440 0.000000 0.520774
O O5 0.160836 0.736648 0.842560
O O6 0.064592 0.826509 0.779411
O O7 0.136049 0.000000 0.736921
O O8 0.697195 0.000000 0.971671
O O9 0.750000 0.250000 0.000000
O O10 0.671481 0.234374 0.077077
O O11 0.117430 0.792574 0.227082
O O12 0.018901 0.751002 0.179078
O O13 0.062356 0.000000 0.300824
O O14 0.628142 0.500000 0.070368
O O15 0.571642 0.250963 0.998935
O O16 0.025113 0.000000 0.913469
#
# Coordination Sequence:
#
# PCOD8081690 Si02
#       6
#     8   8   8   8   8   8
#     4  11  22  33  47  73 113 152 186 223 263 308
#     4  10  19  34  56  79 105 139 185 226 264 313
#     4  11  22  38  60  83 108 135 171 220 276 325
#     4  10  18  30  50  74 105 147 187 219 255 309
#     4   9  18  32  51  78 107 137 178 222 267 317
#     4   8  14  26  47  73 102 136 175 217 255 303
#
# _framework density 17.794004999999999
#
# number of rings (size 3 to 8) (size 9 to 14) (size 15 to 20)
#    0.000    2.167    1.667    4.000    0.000    3.333 
#    0.000    0.000    0.000    4.000    0.000    0.000 
#    0.000    0.000    0.000    0.000    0.000    0.000 
#
# Total GULP energy -297443.114824 kJ/mol
# GULP energy per Si atom -12393.463118 kJ/mol
# Density = 1.775350 g / cm^3
# Si number density = 17.794005 Si / 1000 Ang^3
#
#
#
# Elastic Constant Matrix: (Units=GPa)
#
#
# Indices 1 2 3 4 5 6 
#
# 1 103.6771 46.3477 62.5484 0.0000 -1.3536 0.0000
# 2 46.3477 96.0763 40.6795 0.0000 -1.7598 0.0000
# 3 62.5484 40.6795 95.8104 0.0000 -16.9383 0.0000
# 4 0.0000 0.0000 0.0000 26.5135 0.0000 -0.7073
# 5 -1.3536 -1.7598 -16.9383 0.0000 22.6413 0.0000
# 6 0.0000 0.0000 0.0000 -0.7073 0.0000 23.0006
#
#
#
# Elastic Compliance Matrix: (Units=1/GPa)
#
#
# Indices 1 2 3 4 5 6 
#
# 1 0.018428 -0.004078 -0.011709 0.000000 -0.007975 0.000000
# 2 -0.004078 0.013839 -0.003533 0.000000 -0.001812 0.000000
# 3 -0.011709 -0.003533 0.022368 0.000000 0.015759 0.000000
# 4 0.000000 0.000000 0.000000 0.037748 0.000000 0.001161
# 5 -0.007975 -0.001812 0.015759 0.000000 0.055339 0.000000
# 6 0.000000 0.000000 0.000000 0.001161 0.000000 0.043513
#
#
# Mechanical properties :
#
#
# Convention : Reuss Voigt Hill
#
# Bulk Modulus (GPa) = 62.52713 66.07946 64.30329
# Shear Modulus (GPa) = 21.25786 24.16362 22.71074
#
# Velocity S-wave (km/s) = 3.46014 3.68905 3.57643
# Velocity P-wave (km/s) = 7.15396 7.44056 7.29867
#
# Compressibility (1/GPa) = 0.01599306
#
# Stress axis : x y z
#
# Youngs Moduli (GPa) = 54.26387 72.26096 44.70740
#
# Poissons Ratio (x) = 0.29470 0.52348
# Poissons Ratio (y) = 0.22131 0.15797
# Poissons Ratio (z) = 0.63538 0.25533
#
# Static dielectric constant tensor:
#      x y z
#    x 3.188440 0.000000 -0.084050 
#    y 0.000000 3.155850 0.000000 
#    z -0.084050 0.000000 3.221190 
# 
# 
# High freq. dielectric constant tensor:
#      x y z
#    x 1.666840 0.000000 -0.013490 
#    y 0.000000 1.672250 0.000000 
#    z -0.013490 0.000000 1.684740 
# 
# From -- ./inp_files/173073.got.cif
#   From: 2010.06.25/outbox.cif.g09.slc.cpg/sg12_87_cif.got.tgz:173073.got - 2010.06.28 00:19:55.
