data_PCOD8081181
_publ_section_title
;
Structure prediction by ZEFSAII (Michael W. Deem and Ramdas Pophale) SiO2 
 PCOD8081181
Probable space group: C 2/M
;
_chemical_formula_sum "Si O2"
_cell_formula_units_Z 64
_cell_length_a 20.050916
_cell_length_b 8.918224
_cell_length_c 19.790373
_cell_angle_alpha 90.000000
_cell_angle_beta 105.750436
_cell_angle_gamma 90.000000
_cell_volume 3406.012059
_symmetry_space_group_name_H-M "C 2/M"
_symmetry_group_IT_number 12
_symmetry_cell_setting 'monoclinic'
loop_
_space_group_symop_operation_xyz
x,y,z
-x,y,-z
-x,-y,-z
x,-y,z
1/2+x,1/2+y,z
1/2-x,1/2+y,-z
1/2-x,1/2-y,-z
1/2+x,1/2-y,z
loop_
_atom_site_type_symbol
_atom_site_label
_atom_site_fract_x
_atom_site_fract_y
_atom_site_fract_z
Si Si1 0.673027 0.326299 0.643221
Si Si2 0.421131 0.834115 0.001978
Si Si3 0.966453 0.828138 0.138026
Si Si4 0.559300 0.670673 0.718207
Si Si5 0.110420 0.322206 0.151141
Si Si6 0.577890 0.828797 0.355519
Si Si7 0.421431 0.828300 0.489110
Si Si8 0.314994 0.676539 0.711675
O O1 0.693051 0.500000 0.641633
O O2 0.631164 0.294089 0.700543
O O3 0.628215 0.279439 0.566445
O O4 0.742187 0.229211 0.662392
O O5 0.378172 0.776233 0.924644
O O6 0.396136 0.000000 0.016664
O O7 0.500000 0.840316 0.000000
O O8 0.413872 0.725699 0.064515
O O9 0.927861 0.804925 0.198565
O O10 0.037022 0.734359 0.159371
O O11 0.986074 0.000000 0.130043
O O12 0.535392 0.500000 0.697002
O O13 0.501980 0.782549 0.673534
O O14 0.111221 0.500000 0.158935
O O15 0.172160 0.250828 0.211545
O O16 0.600706 0.812380 0.439235
O O17 0.624645 0.721751 0.323099
O O18 0.586435 0.000000 0.333234
O O19 0.500000 0.773395 0.500000
O O20 0.413758 0.000000 0.462041
O O21 0.315558 0.500000 0.720583
#
# Coordination Sequence:
#
# PCOD8081181 Si02
#       8
#     8   8   8   8   8   8   8   8
#     4  11  24  41  61  84 114 153 193 231 284 343
#     4   8  16  29  46  74 111 147 184 229 278 330
#     4  10  18  29  50  82 115 146 184 233 281 327
#     4  10  21  36  56  85 117 148 188 236 280 331
#     4  10  19  33  53  78 111 150 189 229 281 338
#     4  11  22  37  62  87 113 150 188 229 283 341
#     4  10  21  39  61  88 117 146 186 235 283 332
#     4  12  25  40  58  83 117 150 190 240 286 336
#
# _framework density 18.790303999999999
#
# number of rings (size 3 to 8) (size 9 to 14) (size 15 to 20)
#    0.000    1.750    2.500    3.375    0.000    5.500 
#    0.000    0.000    0.000    0.750    0.000    0.000 
#    0.000    0.000    0.000    0.000    0.000    0.000 
#
# Total GULP energy -396861.672752 kJ/mol
# GULP energy per Si atom -12401.927274 kJ/mol
# Density = 1.874754 g / cm^3
# Si number density = 18.790304 Si / 1000 Ang^3
#
#
#
# Elastic Constant Matrix: (Units=GPa)
#
#
# Indices 1 2 3 4 5 6 
#
# 1 42.1037 24.2830 19.1440 0.0000 4.0807 0.0000
# 2 24.2830 101.7539 45.8772 0.0000 -1.2274 0.0000
# 3 19.1440 45.8772 109.1371 0.0000 -3.8260 0.0000
# 4 0.0000 0.0000 0.0000 36.2734 0.0000 2.2283
# 5 4.0807 -1.2274 -3.8260 0.0000 23.5580 0.0000
# 6 0.0000 0.0000 0.0000 2.2283 0.0000 23.8002
#
#
#
# Elastic Compliance Matrix: (Units=1/GPa)
#
#
# Indices 1 2 3 4 5 6 
#
# 1 0.028889 -0.005661 -0.002890 0.000000 -0.005768 0.000000
# 2 -0.005661 0.013236 -0.004538 0.000000 0.000933 0.000000
# 3 -0.002890 -0.004538 0.011653 0.000000 0.002157 0.000000
# 4 0.000000 0.000000 0.000000 0.027728 0.000000 -0.002596
# 5 -0.005768 0.000933 0.002157 0.000000 0.043847 0.000000
# 6 0.000000 0.000000 0.000000 -0.002596 0.000000 0.042260
#
#
# Mechanical properties :
#
#
# Convention : Reuss Voigt Hill
#
# Bulk Modulus (GPa) = 36.23229 47.95591 42.09410
# Shear Modulus (GPa) = 24.63179 27.63902 26.13540
#
# Velocity S-wave (km/s) = 3.62453 3.83942 3.73352
# Velocity P-wave (km/s) = 6.06965 6.72546 6.40595
#
# Compressibility (1/GPa) = 0.02759969
#
# Stress axis : x y z
#
# Youngs Moduli (GPa) = 34.61548 75.55213 85.81435
#
# Poissons Ratio (x) = 0.42768 0.24802
# Poissons Ratio (y) = 0.19595 0.38944
# Poissons Ratio (z) = 0.10004 0.34287
#
# Static dielectric constant tensor:
#      x y z
#    x 3.122750 0.000000 -0.139610 
#    y 0.000000 3.520870 0.000000 
#    z -0.139610 0.000000 3.814110 
# 
# 
# High freq. dielectric constant tensor:
#      x y z
#    x 1.691250 0.000000 -0.012450 
#    y 0.000000 1.738540 0.000000 
#    z -0.012450 0.000000 1.744980 
# 
# From -- ./inp_files/320098.got.cif
#   From: 2010.06.25/outbox.cif.g09.slc.cpg/sg12_161_cif.got.tgz:320098.got - 2010.06.28 00:19:55.
