data_PCOD8081329
_publ_section_title
;
Structure prediction by ZEFSAII (Michael W. Deem and Ramdas Pophale) SiO2 
 PCOD8081329
Probable space group: C 2/M
;
_chemical_formula_sum "Si O2"
_cell_formula_units_Z 56
_cell_length_a 27.859423
_cell_length_b 8.986549
_cell_length_c 13.956442
_cell_angle_alpha 90.000000
_cell_angle_beta 81.914480
_cell_angle_gamma 90.000000
_cell_volume 3459.401412
_symmetry_space_group_name_H-M "C 2/M"
_symmetry_group_IT_number 12
_symmetry_cell_setting 'monoclinic'
loop_
_space_group_symop_operation_xyz
x,y,z
-x,y,-z
-x,-y,-z
x,-y,z
1/2+x,1/2+y,z
1/2-x,1/2+y,-z
1/2-x,1/2-y,-z
1/2+x,1/2-y,z
loop_
_atom_site_type_symbol
_atom_site_label
_atom_site_fract_x
_atom_site_fract_y
_atom_site_fract_z
Si Si1 0.444901 0.663771 0.982652
Si Si2 0.159772 0.824587 0.677222
Si Si3 0.415708 0.824402 0.170392
Si Si4 0.488848 0.674793 0.780271
Si Si5 0.761005 0.670158 0.593334
Si Si6 0.545121 0.672557 0.419861
Si Si7 0.863519 0.674369 0.517837
O O1 0.420735 0.500000 0.998675
O O2 0.416147 0.778730 0.057873
O O3 0.500000 0.654308 0.000000
O O4 0.447209 0.715445 0.870627
O O5 0.132599 0.742903 0.770548
O O6 0.217556 0.789255 0.679669
O O7 0.141798 0.762803 0.580020
O O8 0.148375 0.000000 0.683436
O O9 0.461990 0.764177 0.214750
O O10 0.414676 0.000000 0.178471
O O11 0.501718 0.500000 0.781907
O O12 0.468504 0.721076 0.683387
O O13 0.755331 0.500000 0.569171
O O14 0.750000 0.750000 0.500000
O O15 0.817315 0.705278 0.603001
O O16 0.500000 0.708137 0.500000
O O17 0.559885 0.500000 0.421376
O O18 0.589727 0.772282 0.439023
O O19 0.868277 0.500000 0.492403
#
# Coordination Sequence:
#
# PCOD8081329 Si02
#       7
#     8   8   8   8   8   8   8
#     4   8  15  29  46  62  84 117 152 183 218 263
#     4  10  18  30  47  65  89 121 151 178 217 267
#     4  11  20  28  43  69  95 115 142 185 232 268
#     4   9  18  32  47  63  88 123 159 186 210 256
#     4   8  16  29  45  64  86 114 146 180 218 263
#     4  10  20  32  46  65  90 123 158 183 208 252
#     4  10  19  31  46  67  93 117 147 186 224 259
#
# _framework density 16.187771000000001
#
# number of rings (size 3 to 8) (size 9 to 14) (size 15 to 20)
#    0.000    2.571    0.000    3.857    0.000    5.714 
#    0.000    0.000    0.000    0.000    0.000    1.000 
#    0.000    0.000    0.000    0.000    0.000    0.000 
#
# Total GULP energy -346921.974500 kJ/mol
# GULP energy per Si atom -12390.070518 kJ/mol
# Density = 1.615093 g / cm^3
# Si number density = 16.187771 Si / 1000 Ang^3
#
#
#
# Elastic Constant Matrix: (Units=GPa)
#
#
# Indices 1 2 3 4 5 6 
#
# 1 76.6938 39.8371 49.2138 0.0000 -19.2227 0.0000
# 2 39.8371 81.1674 44.4232 0.0000 -16.6819 0.0000
# 3 49.2138 44.4232 122.8387 0.0000 -13.4424 0.0000
# 4 0.0000 0.0000 0.0000 19.9700 0.0000 -2.6966
# 5 -19.2227 -16.6819 -13.4424 0.0000 24.6309 0.0000
# 6 0.0000 0.0000 0.0000 -2.6966 0.0000 16.6996
#
#
#
# Elastic Compliance Matrix: (Units=1/GPa)
#
#
# Indices 1 2 3 4 5 6 
#
# 1 0.022266 -0.005645 -0.005738 0.000000 0.010421 0.000000
# 2 -0.005645 0.018361 -0.003722 0.000000 0.005998 0.000000
# 3 -0.005738 -0.003722 0.011720 0.000000 -0.000603 0.000000
# 4 0.000000 0.000000 0.000000 0.051191 0.000000 0.008266
# 5 0.010421 0.005998 -0.000603 0.000000 0.052466 0.000000
# 6 0.000000 0.000000 0.000000 0.008266 0.000000 0.061217
#
#
# Mechanical properties :
#
#
# Convention : Reuss Voigt Hill
#
# Bulk Modulus (GPa) = 45.17771 60.84978 53.01375
# Shear Modulus (GPa) = 19.62248 22.07514 20.84881
#
# Velocity S-wave (km/s) = 3.48541 3.69683 3.59268
# Velocity P-wave (km/s) = 6.64580 7.47620 7.07320
#
# Compressibility (1/GPa) = 0.02213481
#
# Stress axis : x y z
#
# Youngs Moduli (GPa) = 44.91226 54.46398 85.32625
#
# Poissons Ratio (x) = 0.30748 0.48963
# Poissons Ratio (y) = 0.25355 0.31757
# Poissons Ratio (z) = 0.25772 0.20270
#
# Static dielectric constant tensor:
#      x y z
#    x 3.297310 0.000000 -0.342900 
#    y 0.000000 3.091500 0.000000 
#    z -0.342900 0.000000 3.379620 
# 
# 
# High freq. dielectric constant tensor:
#      x y z
#    x 1.596340 0.000000 -0.025320 
#    y 0.000000 1.628760 0.000000 
#    z -0.025320 0.000000 1.614910 
# 
# From -- ./inp_files/243030.got.cif
#   From: 2010.06.25/outbox.cif.g09.slc.cpg/sg12_122_cif.got.tgz:243030.got - 2010.06.28 00:19:55.
