data_PCOD8081593
_publ_section_title
;
Structure prediction by ZEFSAII (Michael W. Deem and Ramdas Pophale) SiO2 
 PCOD8081593
Probable space group: C 2/M
;
_chemical_formula_sum "Si O2"
_cell_formula_units_Z 64
_cell_length_a 24.322825
_cell_length_b 9.027270
_cell_length_c 16.702714
_cell_angle_alpha 90.000000
_cell_angle_beta 86.772092
_cell_angle_gamma 90.000000
_cell_volume 3661.574859
_symmetry_space_group_name_H-M "C 2/M"
_symmetry_group_IT_number 12
_symmetry_cell_setting 'monoclinic'
loop_
_space_group_symop_operation_xyz
x,y,z
-x,y,-z
-x,-y,-z
x,-y,z
1/2+x,1/2+y,z
1/2-x,1/2+y,-z
1/2-x,1/2-y,-z
1/2+x,1/2-y,z
loop_
_atom_site_type_symbol
_atom_site_label
_atom_site_fract_x
_atom_site_fract_y
_atom_site_fract_z
Si Si1 0.382282 0.826510 0.048474
Si Si2 0.032496 0.674240 0.821325
Si Si3 0.886595 0.826061 0.296478
Si Si4 0.911375 0.675333 0.872027
Si Si5 0.203181 0.173653 0.401342
Si Si6 0.685099 0.825475 0.237935
Si Si7 0.802458 0.828344 0.164695
Si Si8 0.826606 0.673776 0.438715
O O1 0.433120 0.786745 0.101975
O O2 0.325629 0.757735 0.085978
O O3 0.372430 0.000000 0.043887
O O4 0.395489 0.758631 0.960141
O O5 0.034397 0.500000 0.802635
O O6 0.056734 0.761070 0.743215
O O7 0.970876 0.734435 0.839822
O O8 0.837070 0.786234 0.240487
O O9 0.874121 0.747157 0.381425
O O10 0.892755 0.000000 0.310171
O O11 0.914272 0.500000 0.879836
O O12 0.866584 0.724532 0.810784
O O13 0.180892 0.235606 0.319989
O O14 0.169544 0.254979 0.473966
O O15 0.267729 0.210241 0.403912
O O16 0.191647 0.000000 0.408134
O O17 0.739707 0.780539 0.184598
O O18 0.685346 0.000000 0.257295
O O19 0.807738 0.000000 0.144524
O O20 0.837270 0.500000 0.444787
#
# Coordination Sequence:
#
# PCOD8081593 Si02
#       8
#     8   8   8   8   8   8   8   8
#     4   9  17  30  50  73  96 124 166 216 255 289
#     4   9  17  31  51  73  97 127 168 215 254 289
#     4  10  18  30  49  74 103 131 161 201 249 294
#     4   9  18  32  51  72  94 130 175 211 247 293
#     4  10  20  32  49  75 105 132 161 198 241 290
#     4  10  19  33  50  68  99 138 170 200 241 298
#     4   9  18  30  45  68  99 132 162 198 249 299
#     4  10  19  31  51  77 103 130 162 197 240 291
#
# _framework density 17.478818
#
# number of rings (size 3 to 8) (size 9 to 14) (size 15 to 20)
#    0.000    2.500    1.250    1.500    0.000    4.000 
#    0.000    1.875    0.000    3.750    0.000    5.250 
#    0.000    0.000    0.000    0.000    0.000    0.000 
#
# Total GULP energy -396870.849907 kJ/mol
# GULP energy per Si atom -12402.214060 kJ/mol
# Density = 1.743904 g / cm^3
# Si number density = 17.478818 Si / 1000 Ang^3
#
#
#
# Elastic Constant Matrix: (Units=GPa)
#
#
# Indices 1 2 3 4 5 6 
#
# 1 103.3707 38.8130 78.8381 0.0000 -12.5166 0.0000
# 2 38.8130 58.1289 56.8273 0.0000 -12.5950 0.0000
# 3 78.8381 56.8273 142.9129 0.0000 -27.4060 0.0000
# 4 0.0000 0.0000 0.0000 28.3984 0.0000 -6.8735
# 5 -12.5166 -12.5950 -27.4060 0.0000 26.0043 0.0000
# 6 0.0000 0.0000 0.0000 -6.8735 0.0000 21.3664
#
#
#
# Elastic Compliance Matrix: (Units=1/GPa)
#
#
# Indices 1 2 3 4 5 6 
#
# 1 0.017275 -0.003747 -0.008514 0.000000 -0.002473 0.000000
# 2 -0.003747 0.029067 -0.008945 0.000000 0.002848 0.000000
# 3 -0.008514 -0.008945 0.017088 0.000000 0.009578 0.000000
# 4 0.000000 0.000000 0.000000 0.038187 0.000000 0.012284
# 5 -0.002473 0.002848 0.009578 0.000000 0.048739 0.000000
# 6 0.000000 0.000000 0.000000 0.012284 0.000000 0.050754
#
#
# Mechanical properties :
#
#
# Convention : Reuss Voigt Hill
#
# Bulk Modulus (GPa) = 47.57946 72.59661 60.08803
# Shear Modulus (GPa) = 19.95804 23.81610 21.88707
#
# Velocity S-wave (km/s) = 3.38278 3.69530 3.54249
# Velocity P-wave (km/s) = 6.52211 7.73507 7.15434
#
# Compressibility (1/GPa) = 0.02101747
#
# Stress axis : x y z
#
# Youngs Moduli (GPa) = 57.88808 34.40386 58.52214
#
# Poissons Ratio (x) = 0.12891 0.49825
# Poissons Ratio (y) = 0.21690 0.52347
# Poissons Ratio (z) = 0.49285 0.30774
#
# Static dielectric constant tensor:
#      x y z
#    x 3.206920 0.000000 -0.174200 
#    y 0.000000 3.096810 0.000000 
#    z -0.174200 0.000000 3.261540 
# 
# 
# High freq. dielectric constant tensor:
#      x y z
#    x 1.656920 0.000000 -0.019510 
#    y 0.000000 1.664540 0.000000 
#    z -0.019510 0.000000 1.676020 
# 
# From -- ./inp_files/238767.got.cif
#   From: 2010.06.25/outbox.cif.g09.slc.cpg/sg12_120_cif.got.tgz:238767.got - 2010.06.28 00:19:55.
