data_PCOD8081314
_publ_section_title
;
Structure prediction by ZEFSAII (Michael W. Deem and Ramdas Pophale) SiO2 
 PCOD8081314
Probable space group: C 2/M
;
_chemical_formula_sum "Si O2"
_cell_formula_units_Z 64
_cell_length_a 25.393387
_cell_length_b 8.950093
_cell_length_c 21.280772
_cell_angle_alpha 90.000000
_cell_angle_beta 53.208527
_cell_angle_gamma 90.000000
_cell_volume 3873.207342
_symmetry_space_group_name_H-M "C 2/M"
_symmetry_group_IT_number 12
_symmetry_cell_setting 'monoclinic'
loop_
_space_group_symop_operation_xyz
x,y,z
-x,y,-z
-x,-y,-z
x,-y,z
1/2+x,1/2+y,z
1/2-x,1/2+y,-z
1/2-x,1/2-y,-z
1/2+x,1/2-y,z
loop_
_atom_site_type_symbol
_atom_site_label
_atom_site_fract_x
_atom_site_fract_y
_atom_site_fract_z
Si Si1 0.195190 0.828469 0.000043
Si Si2 0.197546 0.825696 0.314625
Si Si3 0.245813 0.673436 0.403618
Si Si4 0.778763 0.675804 0.829924
Si Si5 0.107150 0.175979 0.169496
Si Si6 0.502295 0.175910 0.681056
Si Si7 0.454160 0.326492 0.590237
Si Si8 0.652686 0.826663 0.584798
O O1 0.125048 0.787542 0.082866
O O2 0.208229 0.000000 0.002768
O O3 0.250000 0.750000 0.000000
O O4 0.208870 0.791846 0.916678
O O5 0.233737 0.768480 0.350359
O O6 0.229992 0.740966 0.232876
O O7 0.120382 0.790342 0.375381
O O8 0.210980 0.000000 0.296915
O O9 0.251198 0.500000 0.382296
O O10 0.314097 0.727021 0.385201
O O11 0.186242 0.705154 0.493900
O O12 0.794057 0.500000 0.815780
O O13 0.839241 0.755872 0.821357
O O14 0.036703 0.249100 0.233334
O O15 0.103461 0.000000 0.185436
O O16 0.472762 0.229114 0.636584
O O17 0.577679 0.225250 0.632847
O O18 0.494202 0.000000 0.691250
O O19 0.500000 0.276739 0.500000
O O20 0.464255 0.500000 0.599702
O O21 0.659743 0.000000 0.598278
#
# Coordination Sequence:
#
# PCOD8081314 Si02
#       8
#     8   8   8   8   8   8   8   8
#     4   8  16  28  44  65  92 127 162 197 237 282
#     4  11  21  32  48  71 101 133 162 200 246 290
#     4  10  20  35  55  74  93 124 166 210 249 289
#     4  10  18  30  47  69  97 129 165 201 239 289
#     4  10  18  30  46  68  99 131 163 199 240 289
#     4  11  21  32  49  72  99 131 163 201 244 289
#     4  10  21  34  47  66  96 133 167 198 238 291
#     4   9  20  37  53  72  97 125 162 208 253 290
#
# _framework density 16.523772000000001
#
# number of rings (size 3 to 8) (size 9 to 14) (size 15 to 20)
#    0.000    2.125    1.250    2.625    0.000    3.250 
#    0.000    0.000    0.000    0.000    0.000    0.875 
#    0.000    7.000    0.000    0.000    0.000    0.000 
#
# Total GULP energy -396670.233469 kJ/mol
# GULP energy per Si atom -12395.944796 kJ/mol
# Density = 1.648616 g / cm^3
# Si number density = 16.523772 Si / 1000 Ang^3
#
#
#
# Elastic Constant Matrix: (Units=GPa)
#
#
# Indices 1 2 3 4 5 6 
#
# 1 53.9966 24.4738 27.6976 0.0001 3.4781 0.0001
# 2 24.4738 62.0445 35.9048 0.0020 0.3907 0.0008
# 3 27.6976 35.9048 110.7623 0.0010 5.6654 -0.0001
# 4 0.0001 0.0020 0.0010 22.1833 -0.0006 -0.9511
# 5 3.4781 0.3907 5.6654 -0.0006 13.5863 0.0000
# 6 0.0001 0.0008 -0.0001 -0.9511 0.0000 23.5935
#
#
#
# Elastic Compliance Matrix: (Units=1/GPa)
#
#
# Indices 1 2 3 4 5 6 
#
# 1 0.023904 -0.007478 -0.003322 0.000001 -0.004519 0.000000
# 2 -0.007478 0.022241 -0.005523 -0.000002 0.003578 -0.000001
# 3 -0.003322 -0.005523 0.011850 0.000000 -0.003932 0.000000
# 4 0.000001 -0.000002 0.000000 0.045157 0.000002 0.001820
# 5 -0.004519 0.003578 -0.003932 0.000002 0.076297 0.000000
# 6 0.000000 -0.000001 0.000000 0.001820 0.000000 0.042458
#
#
# Mechanical properties :
#
#
# Convention : Reuss Voigt Hill
#
# Bulk Modulus (GPa) = 39.44857 44.77284 42.11070
# Shear Modulus (GPa) = 19.01114 21.12110 20.06612
#
# Velocity S-wave (km/s) = 3.39563 3.57911 3.48857
# Velocity P-wave (km/s) = 6.26892 6.65093 6.46275
#
# Compressibility (1/GPa) = 0.02534946
#
# Stress axis : x y z
#
# Youngs Moduli (GPa) = 41.83321 44.96284 84.38499
#
# Poissons Ratio (x) = 0.33624 0.28036
# Poissons Ratio (y) = 0.31284 0.46602
# Poissons Ratio (z) = 0.13898 0.24831
#
# Static dielectric constant tensor:
#      x y z
#    x 2.803010 0.000000 -0.092370 
#    y 0.000000 3.180520 0.000000 
#    z -0.092370 0.000000 3.762260 
# 
# 
# High freq. dielectric constant tensor:
#      x y z
#    x 1.594590 0.000000 -0.000440 
#    y 0.000000 1.650660 0.000000 
#    z -0.000440 0.000000 1.650140 
# 
# From -- ./inp_files/319821.got.cif
#   From: 2010.06.25/outbox.cif.g09.slc.cpg/sg12_160_cif.got.tgz:319821.got - 2010.06.28 00:19:55.
