data_PCOD8081127
_publ_section_title
;
Structure prediction by ZEFSAII (Michael W. Deem and Ramdas Pophale) SiO2 
 PCOD8081127
Probable space group: C 2/M
;
_chemical_formula_sum "Si O2"
_cell_formula_units_Z 60
_cell_length_a 25.273865
_cell_length_b 18.388300
_cell_length_c 4.914292
_cell_angle_alpha 90.000000
_cell_angle_beta 94.189937
_cell_angle_gamma 90.000000
_cell_volume 2277.780748
_symmetry_space_group_name_H-M "C 2/M"
_symmetry_group_IT_number 12
_symmetry_cell_setting 'monoclinic'
loop_
_space_group_symop_operation_xyz
x,y,z
-x,y,-z
-x,-y,-z
x,-y,z
1/2+x,1/2+y,z
1/2-x,1/2+y,-z
1/2-x,1/2-y,-z
1/2+x,1/2-y,z
loop_
_atom_site_type_symbol
_atom_site_label
_atom_site_fract_x
_atom_site_fract_y
_atom_site_fract_z
Si Si1 0.353619 0.919582 0.084699
Si Si2 0.540441 0.182276 0.796709
Si Si3 0.500000 0.315871 0.500000
Si Si4 0.611470 0.654691 0.385943
Si Si5 0.143209 0.756406 0.897832
Si Si6 0.422748 0.078134 0.608439
Si Si7 0.212333 0.918362 0.441596
Si Si8 0.751297 0.666260 0.955548
O O1 0.407340 0.912677 0.919057
O O2 0.315630 0.847566 0.028159
O O3 0.327635 0.000000 0.006486
O O4 0.368774 0.920599 0.408132
O O5 0.520393 0.264674 0.752093
O O6 0.602810 0.187042 0.925529
O O7 0.539831 0.141840 0.499983
O O8 0.500000 0.143638 0.000000
O O9 0.450448 0.364747 0.584446
O O10 0.633530 0.720161 0.582985
O O11 0.648348 0.584484 0.456489
O O12 0.620329 0.680521 0.081441
O O13 0.210358 0.757860 0.976735
O O14 0.451136 0.000000 0.578220
O O15 0.241579 0.860898 0.647134
O O16 0.232395 0.000000 0.499425
O O17 0.225582 0.893495 0.142221
#
# Coordination Sequence:
#
# PCOD8081127 Si02
#       8
#     8   8   4   8   8   8   8   8
#     4  10  20  38  58  80 114 154 181 216 279 338
#     4  11  22  38  64  82 108 148 191 227 284 341
#     4  10  20  36  58  82  98 144 192 224 274 340
#     4   9  18  31  49  75 111 137 179 234 269 315
#     4   9  19  34  52  85 109 138 185 234 268 318
#     4  10  24  40  57  85 118 142 180 235 280 330
#     4  10  18  29  49  81 112 144 185 230 265 313
#     4  10  19  33  57  81 113 148 190 224 267 327
#
# _framework density 26.341429000000002
#
# number of rings (size 3 to 8) (size 9 to 14) (size 15 to 20)
#    0.000    2.133    1.333    2.000    1.867    1.333 
#    0.000    2.000    0.000    0.000    0.000    7.467 
#    0.000    0.000    0.000    0.000    0.000    0.000 
#
# Total GULP energy -371672.704842 kJ/mol
# GULP energy per Si atom -12389.090161 kJ/mol
# Density = 2.628147 g / cm^3
# Si number density = 26.341429 Si / 1000 Ang^3
#
#
#
# Elastic Constant Matrix: (Units=GPa)
#
#
# Indices 1 2 3 4 5 6 
#
# 1 204.5447 32.1305 1.5103 0.0000 -24.3380 0.0000
# 2 32.1305 123.6808 4.8596 0.0000 -9.5508 0.0000
# 3 1.5103 4.8596 64.5233 0.0000 -13.9562 0.0000
# 4 0.0000 0.0000 0.0000 26.3375 0.0000 3.1926
# 5 -24.3380 -9.5508 -13.9562 0.0000 34.9945 0.0000
# 6 0.0000 0.0000 0.0000 3.1926 0.0000 14.2467
#
#
#
# Elastic Compliance Matrix: (Units=1/GPa)
#
#
# Indices 1 2 3 4 5 6 
#
# 1 0.005523 -0.001170 0.000789 0.000000 0.003837 0.000000
# 2 -0.001170 0.008508 -0.000314 0.000000 0.001383 0.000000
# 3 0.000789 -0.000314 0.017077 0.000000 0.007273 0.000000
# 4 0.000000 0.000000 0.000000 0.039029 0.000000 -0.008746
# 5 0.003837 0.001383 0.007273 0.000000 0.034522 0.000000
# 6 0.000000 0.000000 0.000000 -0.008746 0.000000 0.072152
#
#
# Mechanical properties :
#
#
# Convention : Reuss Voigt Hill
#
# Bulk Modulus (GPa) = 33.64964 52.19440 42.92202
# Shear Modulus (GPa) = 26.58058 38.73232 32.65645
#
# Velocity S-wave (km/s) = 3.18005 3.83873 3.52481
# Velocity P-wave (km/s) = 5.12696 6.28533 5.73547
#
# Compressibility (1/GPa) = 0.02971800
#
# Stress axis : x y z
#
# Youngs Moduli (GPa) = 181.05058 117.53167 58.55959
#
# Poissons Ratio (x) = 0.13746 -0.04618
# Poissons Ratio (y) = 0.21176 0.01840
# Poissons Ratio (z) = -0.14279 0.03693
#
# Static dielectric constant tensor:
#      x y z
#    x 5.472400 0.000000 -0.054150 
#    y 0.000000 4.816410 0.000000 
#    z -0.054150 0.000000 4.496830 
# 
# 
# High freq. dielectric constant tensor:
#      x y z
#    x 2.105010 0.000000 -0.000760 
#    y 0.000000 2.046410 0.000000 
#    z -0.000760 0.000000 2.054870 
# 
# From -- ./inp_files/29177.got.cif
#   From: 2010.06.25/outbox.cif.g09.slc.cpg/sg12_15_cif.got.tgz:29177.got - 2010.06.28 00:19:55.
