data_PCOD8081824
_publ_section_title
;
Structure prediction by ZEFSAII (Michael W. Deem and Ramdas Pophale) SiO2 
 PCOD8081824
Probable space group: C 2/M
;
_chemical_formula_sum "Si O2"
_cell_formula_units_Z 52
_cell_length_a 29.440340
_cell_length_b 14.767508
_cell_length_c 21.690205
_cell_angle_alpha 90.000000
_cell_angle_beta 160.732060
_cell_angle_gamma 90.000000
_cell_volume 3111.784524
_symmetry_space_group_name_H-M "C 2/M"
_symmetry_group_IT_number 12
_symmetry_cell_setting 'monoclinic'
loop_
_space_group_symop_operation_xyz
x,y,z
-x,y,-z
-x,-y,-z
x,-y,z
1/2+x,1/2+y,z
1/2-x,1/2+y,-z
1/2-x,1/2-y,-z
1/2+x,1/2-y,z
loop_
_atom_site_type_symbol
_atom_site_label
_atom_site_fract_x
_atom_site_fract_y
_atom_site_fract_z
Si Si1 0.491753 0.000000 0.836165
Si Si2 0.547733 0.671730 0.354775
Si Si3 0.596180 0.314108 0.551034
Si Si4 0.559550 0.837946 0.839193
Si Si5 0.260678 0.893885 0.047084
Si Si6 0.764608 0.000000 0.267728
Si Si7 0.718538 0.500000 0.564760
Si Si8 0.311464 0.756289 0.214938
O O1 0.485352 0.084322 0.781873
O O2 0.357734 0.000000 0.705720
O O3 0.620996 0.000000 0.047460
O O4 0.627601 0.699569 0.519526
O O5 0.554340 0.760608 0.320626
O O6 0.627845 0.586955 0.428302
O O7 0.387071 0.647001 0.161153
O O8 0.649960 0.411768 0.642793
O O9 0.666166 0.233320 0.681969
O O10 0.431857 0.311534 0.347832
O O11 0.630266 0.872438 0.866718
O O12 0.669664 0.794778 0.025503
O O13 0.313865 0.849892 0.179576
O O14 0.248224 0.000000 0.042170
O O15 0.743628 0.000000 0.314624
#
# Coordination Sequence:
#
# PCOD8081824 Si02
#       8
#     4   8   8   8   8   4   4   8
#     4  12  23  36  51  80 106 137 182 223 258 304
#     4  10  19  36  55  78 105 141 170 215 264 320
#     4  10  18  30  51  76 107 136 168 203 254 324
#     4  11  20  33  53  78 114 133 169 214 271 311
#     4  11  19  33  53  79 108 137 167 213 271 310
#     4  10  21  34  52  75 104 140 167 218 270 302
#     4  10  23  37  56  76 102 138 185 221 257 307
#     4  10  19  30  48  78 109 138 167 204 250 331
#
# _framework density 16.710668999999999
#
# number of rings (size 3 to 8) (size 9 to 14) (size 15 to 20)
#    0.000    1.538    6.154    1.154    0.000    2.462 
#    0.000    1.538    1.692    0.000    0.000    0.000 
#    0.000    2.769    0.000    0.000    0.000    0.000 
#
# Total GULP energy -322198.721879 kJ/mol
# GULP energy per Si atom -12392.258534 kJ/mol
# Density = 1.667263 g / cm^3
# Si number density = 16.710669 Si / 1000 Ang^3
#
#
#
# Elastic Constant Matrix: (Units=GPa)
#
#
# Indices 1 2 3 4 5 6 
#
# 1 66.7028 53.1090 37.4582 0.0000 -8.3530 0.0000
# 2 53.1090 103.1880 37.4930 -0.0004 -11.8592 -0.0002
# 3 37.4582 37.4930 67.6055 -0.0003 -12.5475 -0.0001
# 4 0.0000 -0.0004 -0.0003 20.1147 -0.0002 -10.7562
# 5 -8.3530 -11.8592 -12.5475 -0.0002 27.1590 0.0000
# 6 0.0000 -0.0002 -0.0001 -10.7562 0.0000 15.7302
#
#
#
# Elastic Compliance Matrix: (Units=1/GPa)
#
#
# Indices 1 2 3 4 5 6 
#
# 1 0.030077 -0.011842 -0.010217 -0.000001 -0.000640 -0.000001
# 2 -0.011842 0.016943 -0.002339 0.000001 0.002676 0.000001
# 3 -0.010217 -0.002339 0.022944 0.000001 0.006437 0.000001
# 4 -0.000001 0.000001 0.000001 0.078371 0.000001 0.053590
# 5 -0.000640 0.002676 0.006437 0.000001 0.040765 0.000001
# 6 -0.000001 0.000001 0.000001 0.053590 0.000001 0.100216
#
#
# Mechanical properties :
#
#
# Convention : Reuss Voigt Hill
#
# Bulk Modulus (GPa) = 47.23516 54.84630 51.04073
# Shear Modulus (GPa) = 14.48570 19.89655 17.19113
#
# Velocity S-wave (km/s) = 2.94743 3.45432 3.21090
# Velocity P-wave (km/s) = 6.31751 6.98585 6.66007
#
# Compressibility (1/GPa) = 0.02117067
#
# Stress axis : x y z
#
# Youngs Moduli (GPa) = 33.24754 59.02142 43.58442
#
# Poissons Ratio (x) = 0.69892 0.44528
# Poissons Ratio (y) = 0.39371 0.10193
# Poissons Ratio (z) = 0.33968 0.13803
#
# Static dielectric constant tensor:
#      x y z
#    x 3.133440 0.000000 -0.326720 
#    y 0.000000 3.251490 0.000000 
#    z -0.326720 0.000000 3.133190 
# 
# 
# High freq. dielectric constant tensor:
#      x y z
#    x 1.630700 0.000000 -0.023770 
#    y 0.000000 1.639010 0.000000 
#    z -0.023770 0.000000 1.633490 
# 
# From -- ./inp_files/155412.got.cif
#   From: 2010.06.25/outbox.cif.g09.slc.cpg/sg12_78_cif.got.tgz:155412.got - 2010.06.28 00:19:55.
