data_PCOD8081212
_publ_section_title
;
Structure prediction by ZEFSAII (Michael W. Deem and Ramdas Pophale) SiO2 
 PCOD8081212
Probable space group: C 2/M
;
_chemical_formula_sum "Si O2"
_cell_formula_units_Z 32
_cell_length_a 18.810700
_cell_length_b 5.297641
_cell_length_c 25.408152
_cell_angle_alpha 90.000000
_cell_angle_beta 142.061773
_cell_angle_gamma 90.000000
_cell_volume 1556.691536
_symmetry_space_group_name_H-M "C 2/M"
_symmetry_group_IT_number 12
_symmetry_cell_setting 'monoclinic'
loop_
_space_group_symop_operation_xyz
x,y,z
-x,y,-z
-x,-y,-z
x,-y,z
1/2+x,1/2+y,z
1/2-x,1/2+y,-z
1/2-x,1/2-y,-z
1/2+x,1/2-y,z
loop_
_atom_site_type_symbol
_atom_site_label
_atom_site_fract_x
_atom_site_fract_y
_atom_site_fract_z
Si Si1 0.380056 0.500000 0.042823
Si Si2 0.490019 0.500000 0.349998
Si Si3 0.314776 0.500000 0.452886
Si Si4 0.908870 0.500000 0.607513
Si Si5 0.747396 0.000000 0.066412
Si Si6 0.089643 0.000000 0.100774
Si Si7 0.759824 0.500000 0.819840
Si Si8 0.114536 0.500000 0.531898
O O1 0.357795 0.500000 0.092276
O O2 0.516886 0.500000 0.112465
O O3 0.327913 0.749944 0.986044
O O4 0.559223 0.500000 0.445470
O O5 0.523086 0.748394 0.334870
O O6 0.353140 0.500000 0.283410
O O7 0.218757 0.500000 0.442305
O O8 0.309681 0.747675 0.412400
O O9 0.906084 0.500000 0.542796
O O10 0.792617 0.000000 0.152027
O O11 0.165923 0.749615 0.145957
O O12 0.000000 0.000000 0.000000
O O13 0.000000 0.500000 0.500000
#
# Coordination Sequence:
#
# PCOD8081212 Si02
#       8
#     4   4   4   4   4   4   4   4
#     4  10  20  33  54  74 106 127 172 212 265 300
#     4  10  20  33  53  82 105 139 174 222 268 312
#     4  10  19  35  57  78 106 139 183 222 257 311
#     4  10  19  36  58  77 105 138 185 220 259 310
#     4  10  19  34  52  79  98 135 164 219 259 308
#     4  12  21  35  54  81 105 134 179 223 253 310
#     4  12  22  34  56  78 109 138 178 218 267 313
#     4  10  18  29  51  82 108 131 170 225 262 300
#
# _framework density 20.556417
#
# number of rings (size 3 to 8) (size 9 to 14) (size 15 to 20)
#    0.000    1.500    2.500    6.000    0.000    0.000 
#    0.000    0.000    0.000   24.000    0.000    0.000 
#    0.000    0.000    0.000    0.000    0.000    0.000 
#
# Total GULP energy -198280.576576 kJ/mol
# GULP energy per Si atom -12392.536036 kJ/mol
# Density = 2.050963 g / cm^3
# Si number density = 20.556417 Si / 1000 Ang^3
#
#
#
# Elastic Constant Matrix: (Units=GPa)
#
#
# Indices 1 2 3 4 5 6 
#
# 1 120.2638 32.6804 14.4047 0.0062 34.4063 -0.0104
# 2 32.6804 225.2199 30.6845 0.0071 24.4788 0.0031
# 3 14.4047 30.6845 76.8326 0.0019 25.7974 -0.0073
# 4 0.0062 0.0071 0.0019 27.3754 0.0007 14.6631
# 5 34.4063 24.4788 25.7974 0.0007 24.9965 -0.0012
# 6 -0.0104 0.0031 -0.0073 14.6631 -0.0012 35.8128
#
#
#
# Elastic Compliance Matrix: (Units=1/GPa)
#
#
# Indices 1 2 3 4 5 6 
#
# 1 0.015618 -0.000098 0.006576 -0.000007 -0.028188 0.000008
# 2 -0.000098 0.004984 -0.000580 -0.000001 -0.004147 0.000000
# 3 0.006576 -0.000580 0.022743 -0.000006 -0.031955 0.000008
# 4 -0.000007 -0.000001 -0.000006 0.046791 0.000016 -0.019158
# 5 -0.028188 -0.004147 -0.031955 0.000016 0.115845 -0.000017
# 6 0.000008 0.000000 0.000008 -0.019158 -0.000017 0.035767
#
#
# Mechanical properties :
#
#
# Convention : Reuss Voigt Hill
#
# Bulk Modulus (GPa) = 18.13534 64.20618 41.17076
# Shear Modulus (GPa) = 20.13416 40.60672 30.37044
#
# Velocity S-wave (km/s) = 3.13303 4.44935 3.84789
# Velocity P-wave (km/s) = 4.68286 7.59589 6.30978
#
# Compressibility (1/GPa) = 0.05514095
#
# Stress axis : x y z
#
# Youngs Moduli (GPa) = 64.02681 200.63760 43.96876
#
# Poissons Ratio (x) = 0.01976 -0.28912
# Poissons Ratio (y) = 0.00631 0.02548
# Poissons Ratio (z) = -0.42101 0.11628
#
# Static dielectric constant tensor:
#      x y z
#    x 3.743340 -0.000030 0.310610 
#    y -0.000030 5.595210 0.000000 
#    z 0.310610 0.000000 3.279480 
# 
# 
# High freq. dielectric constant tensor:
#      x y z
#    x 1.794230 0.000000 0.035560 
#    y 0.000000 1.851770 0.000000 
#    z 0.035560 0.000000 1.749050 
# 
# From -- ./inp_files/219805.got.cif
#   From: 2010.06.25/outbox.cif.g09.slc.cpg/sg12_110_cif.got.tgz:219805.got - 2010.06.28 00:19:55.
