data_PCOD8081036
_publ_section_title
;
Structure prediction by ZEFSAII (Michael W. Deem and Ramdas Pophale) SiO2 
 PCOD8081036
Probable space group: C 2/M
;
_chemical_formula_sum "Si O2"
_cell_formula_units_Z 56
_cell_length_a 27.856641
_cell_length_b 8.977070
_cell_length_c 12.208747
_cell_angle_alpha 90.000000
_cell_angle_beta 121.885747
_cell_angle_gamma 90.000000
_cell_volume 2592.357471
_symmetry_space_group_name_H-M "C 2/M"
_symmetry_group_IT_number 12
_symmetry_cell_setting 'monoclinic'
loop_
_space_group_symop_operation_xyz
x,y,z
-x,y,-z
-x,-y,-z
x,-y,z
1/2+x,1/2+y,z
1/2-x,1/2+y,-z
1/2-x,1/2-y,-z
1/2+x,1/2-y,z
loop_
_atom_site_type_symbol
_atom_site_label
_atom_site_fract_x
_atom_site_fract_y
_atom_site_fract_z
Si Si1 0.597996 0.324869 0.686115
Si Si2 0.796673 0.335486 0.120596
Si Si3 0.060520 0.829868 0.229783
Si Si4 0.122471 0.173443 0.082801
Si Si5 0.351857 0.327162 0.480489
Si Si6 0.245169 0.837029 0.293434
Si Si7 0.048065 0.324307 0.815886
O O1 0.587224 0.500000 0.677443
O O2 0.650364 0.273920 0.823724
O O3 0.609602 0.268316 0.575696
O O4 0.546632 0.244329 0.689640
O O5 0.810116 0.500000 0.086894
O O6 0.777343 0.357482 0.219798
O O7 0.750000 0.250000 0.000000
O O8 0.076719 0.806609 0.123453
O O9 0.115069 0.791007 0.368859
O O10 0.010158 0.718937 0.196197
O O11 0.040938 0.000000 0.227999
O O12 0.183479 0.236882 0.197804
O O13 0.129581 0.000000 0.059011
O O14 0.100626 0.263014 0.951214
O O15 0.341716 0.500000 0.447365
O O16 0.288896 0.258648 0.419245
O O17 0.236321 0.000000 0.338272
O O18 0.053018 0.500000 0.813128
#
# Coordination Sequence:
#
# PCOD8081036 Si02
#       7
#     8   8   8   8   8   8   8
#     4  10  20  36  57  80 111 149 189 235 288 344
#     4  10  18  29  48  77 113 150 189 233 283 338
#     4  10  22  41  62  83 113 154 196 236 280 337
#     4  10  21  39  62  86 115 154 194 231 281 343
#     4   9  20  38  60  87 116 150 192 233 278 338
#     4   9  19  34  54  82 115 149 185 229 281 336
#     4  12  25  39  58  86 116 147 191 244 294 342
#
# _framework density 21.601958
#
# number of rings (size 3 to 8) (size 9 to 14) (size 15 to 20)
#    0.000    2.000    0.000    3.429    0.000    6.857 
#    0.000    2.857    0.000    0.000    0.000    0.000 
#    0.000    0.000    0.000    0.000    0.000    0.000 
#
# Total GULP energy -347039.483499 kJ/mol
# GULP energy per Si atom -12394.267268 kJ/mol
# Density = 2.155279 g / cm^3
# Si number density = 21.601958 Si / 1000 Ang^3
#
#
#
# Elastic Constant Matrix: (Units=GPa)
#
#
# Indices 1 2 3 4 5 6 
#
# 1 65.4355 15.7388 -16.8049 0.0000 3.1718 0.0000
# 2 15.7388 82.2584 14.6347 0.0000 -1.8793 0.0000
# 3 -16.8049 14.6347 36.9851 0.0000 2.5608 0.0000
# 4 0.0000 0.0000 0.0000 22.3031 0.0000 7.3818
# 5 3.1718 -1.8793 2.5608 0.0000 30.9513 0.0000
# 6 0.0000 0.0000 0.0000 7.3818 0.0000 33.6859
#
#
#
# Elastic Compliance Matrix: (Units=1/GPa)
#
#
# Indices 1 2 3 4 5 6 
#
# 1 0.019853 -0.005940 0.011603 0.000000 -0.003355 0.000000
# 2 -0.005940 0.014901 -0.008750 0.000000 0.002237 0.000000
# 3 0.011603 -0.008750 0.036098 0.000000 -0.004707 0.000000
# 4 0.000000 0.000000 0.000000 0.048343 0.000000 -0.010594
# 5 -0.003355 0.002237 -0.004707 0.000000 0.033178 0.000000
# 6 0.000000 0.000000 0.000000 -0.010594 0.000000 0.032007
#
#
# Mechanical properties :
#
#
# Convention : Reuss Voigt Hill
#
# Bulk Modulus (GPa) = 15.46066 23.53515 19.49790
# Shear Modulus (GPa) = 23.57223 28.79543 26.18383
#
# Velocity S-wave (km/s) = 3.30693 3.65499 3.48531
# Velocity P-wave (km/s) = 4.66408 5.36008 5.02415
#
# Compressibility (1/GPa) = 0.06468030
#
# Stress axis : x y z
#
# Youngs Moduli (GPa) = 50.36918 67.10910 27.70213
#
# Poissons Ratio (x) = 0.39861 -0.32144
# Poissons Ratio (y) = 0.29918 0.24239
# Poissons Ratio (z) = -0.58445 0.58720
#
# Static dielectric constant tensor:
#      x y z
#    x 3.671970 0.000000 0.318310 
#    y 0.000000 4.019830 0.000000 
#    z 0.318310 0.000000 3.320530 
# 
# 
# High freq. dielectric constant tensor:
#      x y z
#    x 1.857500 0.000000 -0.003460 
#    y 0.000000 1.832080 0.000000 
#    z -0.003460 0.000000 1.841080 
# 
# From -- ./inp_files/181089.got.cif
#   From: 2010.06.25/outbox.cif.g09.slc.cpg/sg12_91_cif.got.tgz:181089.got - 2010.06.28 00:19:55.
