data_PCOD8081919
_publ_section_title
;
Structure prediction by ZEFSAII (Michael W. Deem and Ramdas Pophale) SiO2 
 PCOD8081919
Probable space group: C 2/M
;
_chemical_formula_sum "Si O2"
_cell_formula_units_Z 56
_cell_length_a 29.175424
_cell_length_b 8.714870
_cell_length_c 14.410891
_cell_angle_alpha 90.000000
_cell_angle_beta 59.999665
_cell_angle_gamma 90.000000
_cell_volume 3173.204696
_symmetry_space_group_name_H-M "C 2/M"
_symmetry_group_IT_number 12
_symmetry_cell_setting 'monoclinic'
loop_
_space_group_symop_operation_xyz
x,y,z
-x,y,-z
-x,-y,-z
x,-y,z
1/2+x,1/2+y,z
1/2-x,1/2+y,-z
1/2-x,1/2-y,-z
1/2+x,1/2-y,z
loop_
_atom_site_type_symbol
_atom_site_label
_atom_site_fract_x
_atom_site_fract_y
_atom_site_fract_z
Si Si1 0.148581 0.673154 0.924423
Si Si2 0.418809 0.828279 0.830110
Si Si3 0.444358 0.319008 0.099274
Si Si4 0.950454 0.681774 0.488928
Si Si5 0.249299 0.682053 0.104654
Si Si6 0.862423 0.317524 0.712671
Si Si7 0.967113 0.318157 0.263465
O O1 0.157924 0.500000 0.878702
O O2 0.106325 0.756278 0.903056
O O3 0.203539 0.763556 0.875833
O O4 0.127580 0.671382 0.049638
O O5 0.396918 0.743708 0.761287
O O6 0.472896 0.755486 0.813170
O O7 0.435570 0.000000 0.783554
O O8 0.443800 0.500000 0.092757
O O9 0.434980 0.265946 0.214824
O O10 0.500000 0.254346 0.000000
O O11 0.955430 0.500000 0.484353
O O12 0.893199 0.734165 0.588218
O O13 0.950347 0.739997 0.382825
O O14 0.000000 0.747325 0.500000
O O15 0.251050 0.500000 0.092101
O O16 0.197680 0.740229 0.214616
O O17 0.250000 0.750000 0.000000
O O18 0.861757 0.500000 0.722560
O O19 0.959497 0.500000 0.258495
#
# Coordination Sequence:
#
# PCOD8081919 Si02
#       7
#     8   8   8   8   8   8   8
#     4  11  21  35  54  76 104 137 178 221 260 308
#     4   9  15  25  46  76 106 133 164 204 252 302
#     4  11  23  36  51  75 107 141 173 210 261 318
#     4   9  15  25  48  80 108 133 170 215 255 302
#     4  11  21  33  51  76 109 144 178 214 260 311
#     4   9  16  28  46  75 110 140 168 209 258 303
#     4  10  18  30  52  80 106 136 174 214 255 305
#
# _framework density 17.647773999999998
#
# number of rings (size 3 to 8) (size 9 to 14) (size 15 to 20)
#    0.000    2.000    4.286    1.286    0.000    0.571 
#    0.000    0.000    0.000    3.000    0.000    0.000 
#    0.000    0.000    0.000    0.000    0.000    0.000 
#
# Total GULP energy -346926.267716 kJ/mol
# GULP energy per Si atom -12390.223847 kJ/mol
# Density = 1.760761 g / cm^3
# Si number density = 17.647774 Si / 1000 Ang^3
#
#
#
# Elastic Constant Matrix: (Units=GPa)
#
#
# Indices 1 2 3 4 5 6 
#
# 1 133.3036 33.2883 55.6775 0.0000 -2.3027 0.0000
# 2 33.2883 50.4299 24.3652 0.0000 0.2371 0.0000
# 3 55.6775 24.3652 105.4403 0.0000 -4.6663 0.0000
# 4 0.0000 0.0000 0.0000 14.0448 0.0000 0.1540
# 5 -2.3027 0.2371 -4.6663 0.0000 34.3259 0.0000
# 6 0.0000 0.0000 0.0000 0.1540 0.0000 21.8238
#
#
#
# Elastic Compliance Matrix: (Units=1/GPa)
#
#
# Indices 1 2 3 4 5 6 
#
# 1 0.010572 -0.004823 -0.004462 0.000000 0.000136 0.000000
# 2 -0.004823 0.024548 -0.003166 0.000000 -0.000924 0.000000
# 3 -0.004462 -0.003166 0.012636 0.000000 0.001440 0.000000
# 4 0.000000 0.000000 0.000000 0.071206 0.000000 -0.000503
# 5 0.000136 -0.000924 0.001440 0.000000 0.029344 0.000000
# 6 0.000000 0.000000 0.000000 -0.000503 0.000000 0.045825
#
#
# Mechanical properties :
#
#
# Convention : Reuss Voigt Hill
#
# Bulk Modulus (GPa) = 43.76018 57.31508 50.53763
# Shear Modulus (GPa) = 22.06032 25.76176 23.91104
#
# Velocity S-wave (km/s) = 3.53942 3.82484 3.68490
# Velocity P-wave (km/s) = 6.44621 7.21482 6.84132
#
# Compressibility (1/GPa) = 0.02285183
#
# Stress axis : x y z
#
# Youngs Moduli (GPa) = 94.58794 40.73730 79.14149
#
# Poissons Ratio (x) = 0.19649 0.35313
# Poissons Ratio (y) = 0.45624 0.25059
# Poissons Ratio (z) = 0.42205 0.12899
#
# Static dielectric constant tensor:
#      x y z
#    x 3.324560 0.000000 -0.095530 
#    y 0.000000 2.939300 0.000000 
#    z -0.095530 0.000000 3.419580 
# 
# 
# High freq. dielectric constant tensor:
#      x y z
#    x 1.681350 0.000000 -0.001480 
#    y 0.000000 1.644880 0.000000 
#    z -0.001480 0.000000 1.674350 
# 
# From -- ./inp_files/243684.got.cif
#   From: 2010.06.25/outbox.cif.g09.slc.cpg/sg12_122_cif.got.tgz:243684.got - 2010.06.28 00:19:55.
