data_PCOD8081688
_publ_section_title
;
Structure prediction by ZEFSAII (Michael W. Deem and Ramdas Pophale) SiO2 
 PCOD8081688
Probable space group: C 2/M
;
_chemical_formula_sum "Si O2"
_cell_formula_units_Z 64
_cell_length_a 25.379408
_cell_length_b 17.560585
_cell_length_c 18.548190
_cell_angle_alpha 90.000000
_cell_angle_beta 26.042692
_cell_angle_gamma 90.000000
_cell_volume 3629.332984
_symmetry_space_group_name_H-M "C 2/M"
_symmetry_group_IT_number 12
_symmetry_cell_setting 'monoclinic'
loop_
_space_group_symop_operation_xyz
x,y,z
-x,y,-z
-x,-y,-z
x,-y,z
1/2+x,1/2+y,z
1/2-x,1/2+y,-z
1/2-x,1/2-y,-z
1/2+x,1/2-y,z
loop_
_atom_site_type_symbol
_atom_site_label
_atom_site_fract_x
_atom_site_fract_y
_atom_site_fract_z
Si Si1 0.983636 0.188788 0.344208
Si Si2 0.775794 0.912314 0.590855
Si Si3 0.551266 0.851655 0.225218
Si Si4 0.073629 0.582299 0.481369
Si Si5 0.719546 0.870941 0.821893
Si Si6 0.625873 0.763294 0.387257
Si Si7 0.468805 0.089674 0.179474
Si Si8 0.700365 0.414259 0.127212
O O1 0.040034 0.259513 0.230827
O O2 0.083822 0.135724 0.256090
O O3 0.889423 0.134144 0.417712
O O4 0.895969 0.224855 0.510108
O O5 0.763363 0.904998 0.692589
O O6 0.655942 0.880891 0.699970
O O7 0.796408 0.000000 0.545497
O O8 0.510498 0.884457 0.352066
O O9 0.472292 0.890010 0.259636
O O10 0.689856 0.873556 0.047865
O O11 0.130823 0.500000 0.433579
O O12 0.170445 0.648915 0.344383
O O13 0.000000 0.567747 0.500000
O O14 0.767736 0.784990 0.779850
O O15 0.774266 0.922024 0.818677
O O16 0.575433 0.869058 0.004342
O O17 0.500000 0.762762 0.500000
O O18 0.484692 0.000000 0.148942
O O19 0.682335 0.500000 0.119343
#
# Coordination Sequence:
#
# PCOD8081688 Si02
#       8
#     8   8   8   8   8   8   8   8
#     4  10  20  32  47  71 101 136 163 201 249 291
#     4  10  20  33  50  73 102 134 172 207 239 284
#     4  10  20  34  51  72  99 131 166 205 249 299
#     4   9  17  30  50  71  95 125 160 205 249 293
#     4  10  18  30  50  74 105 137 164 197 242 290
#     4   9  16  29  44  68 102 130 158 193 238 291
#     4  10  20  34  52  73  99 132 170 210 243 286
#     4  11  20  31  50  75 105 135 164 196 244 306
#
# _framework density 17.634094999999999
#
# number of rings (size 3 to 8) (size 9 to 14) (size 15 to 20)
#    0.000    2.125    1.250    4.125    0.000    1.500 
#    0.000    1.875    0.000    0.000    0.000    0.000 
#    0.000   19.000    0.000    0.500    0.000    0.000 
#
# Total GULP energy -396473.157886 kJ/mol
# GULP energy per Si atom -12389.786184 kJ/mol
# Density = 1.759396 g / cm^3
# Si number density = 17.634095 Si / 1000 Ang^3
#
#
#
# Elastic Constant Matrix: (Units=GPa)
#
#
# Indices 1 2 3 4 5 6 
#
# 1 50.6094 18.7573 24.7148 0.0001 -10.5322 -0.0001
# 2 18.7573 137.2908 45.1876 0.0000 -16.5797 0.0000
# 3 24.7148 45.1876 46.3122 0.0002 -9.9836 -0.0004
# 4 0.0001 0.0000 0.0002 19.9054 -0.0002 -2.6222
# 5 -10.5322 -16.5797 -9.9836 -0.0002 30.2346 0.0003
# 6 -0.0001 0.0000 -0.0004 -2.6222 0.0003 14.2719
#
#
#
# Elastic Compliance Matrix: (Units=1/GPa)
#
#
# Indices 1 2 3 4 5 6 
#
# 1 0.027796 0.002012 -0.015580 0.000000 0.005641 0.000000
# 2 0.002012 0.011070 -0.011214 0.000000 0.003069 0.000000
# 3 -0.015580 -0.011214 0.041292 0.000000 0.002058 0.000001
# 4 0.000000 0.000000 0.000000 0.051484 0.000000 0.009459
# 5 0.005641 0.003069 0.002058 0.000000 0.037402 -0.000001
# 6 0.000000 0.000000 0.000001 0.009459 -0.000001 0.071806
#
#
# Mechanical properties :
#
#
# Convention : Reuss Voigt Hill
#
# Bulk Modulus (GPa) = 32.68598 45.72576 39.20587
# Shear Modulus (GPa) = 16.63270 22.58590 19.60930
#
# Velocity S-wave (km/s) = 3.07451 3.58272 3.33830
# Velocity P-wave (km/s) = 5.58385 6.56514 6.09428
#
# Compressibility (1/GPa) = 0.03059416
#
# Stress axis : x y z
#
# Youngs Moduli (GPa) = 35.97623 90.33142 24.21773
#
# Poissons Ratio (x) = -0.18172 0.37732
# Poissons Ratio (y) = -0.07237 0.27157
# Poissons Ratio (z) = 0.56052 1.01294
#
# Static dielectric constant tensor:
#      x y z
#    x 3.184590 0.000000 -0.031880 
#    y 0.000000 3.827810 0.000000 
#    z -0.031880 0.000000 3.212590 
# 
# 
# High freq. dielectric constant tensor:
#      x y z
#    x 1.663710 0.000000 0.002950 
#    y 0.000000 1.699000 0.000000 
#    z 0.002950 0.000000 1.658280 
# 
# From -- ./inp_files/290450.got.cif
#   From: 2010.06.25/outbox.cif.g09.slc.cpg/sg12_146_cif.got.tgz:290450.got - 2010.06.28 00:19:55.
