data_PCOD8081615
_publ_section_title
;
Structure prediction by ZEFSAII (Michael W. Deem and Ramdas Pophale) SiO2 
 PCOD8081615
Probable space group: C 2/M
;
_chemical_formula_sum "Si O2"
_cell_formula_units_Z 64
_cell_length_a 29.857798
_cell_length_b 8.815490
_cell_length_c 16.118079
_cell_angle_alpha 90.000000
_cell_angle_beta 130.877331
_cell_angle_gamma 90.000000
_cell_volume 3207.775057
_symmetry_space_group_name_H-M "C 2/M"
_symmetry_group_IT_number 12
_symmetry_cell_setting 'monoclinic'
loop_
_space_group_symop_operation_xyz
x,y,z
-x,y,-z
-x,-y,-z
x,-y,z
1/2+x,1/2+y,z
1/2-x,1/2+y,-z
1/2-x,1/2-y,-z
1/2+x,1/2-y,z
loop_
_atom_site_type_symbol
_atom_site_label
_atom_site_fract_x
_atom_site_fract_y
_atom_site_fract_z
Si Si1 0.718921 0.680924 0.227598
Si Si2 0.692476 0.333205 0.903447
Si Si3 0.654748 0.678538 0.616607
Si Si4 0.202476 0.674773 0.382868
Si Si5 0.879508 0.834547 0.018990
Si Si6 0.892826 0.326540 0.600377
Si Si7 0.598274 0.176955 0.692332
Si Si8 0.026994 0.678825 0.764311
O O1 0.725227 0.500000 0.230487
O O2 0.781908 0.752896 0.278308
O O3 0.699289 0.731866 0.294701
O O4 0.666725 0.739790 0.102373
O O5 0.704582 0.500000 0.877944
O O6 0.652052 0.357236 0.932835
O O7 0.663501 0.218410 0.803396
O O8 0.750000 0.250000 0.000000
O O9 0.657765 0.500000 0.628818
O O10 0.643244 0.724090 0.507798
O O11 0.598328 0.740118 0.602684
O O12 0.220014 0.500000 0.386405
O O13 0.250000 0.750000 0.500000
O O14 0.138235 0.685310 0.347971
O O15 0.937587 0.735405 0.110932
O O16 0.899790 0.000000 0.009949
O O17 0.892256 0.500000 0.567264
O O18 0.959664 0.266034 0.691326
O O19 0.551127 0.238555 0.703508
O O20 0.589740 0.000000 0.666376
O O21 0.033866 0.500000 0.773049
#
# Coordination Sequence:
#
# PCOD8081615 Si02
#       8
#     8   8   8   8   8   8   8   8
#     4  11  22  38  60  87 121 154 189 238 294 348
#     4  10  18  30  49  75 108 147 193 237 285 342
#     4  12  24  36  56  87 118 151 195 240 291 349
#     4  11  22  38  62  89 118 150 189 235 293 350
#     4   9  20  36  55  80 112 151 188 233 290 338
#     4  10  22  41  62  84 114 152 191 238 291 344
#     4  10  20  35  54  78 112 151 192 239 287 338
#     4   9  20  39  62  84 110 153 201 237 279 338
#
# _framework density 19.951523999999999
#
# number of rings (size 3 to 8) (size 9 to 14) (size 15 to 20)
#    0.000    1.750    1.250    3.375    0.000    4.500 
#    0.000    3.125    0.000    3.750    0.000    0.000 
#    0.000    0.000    0.000    0.000    0.000    0.000 
#
# Total GULP energy -396626.257305 kJ/mol
# GULP energy per Si atom -12394.570541 kJ/mol
# Density = 1.990611 g / cm^3
# Si number density = 19.951524 Si / 1000 Ang^3
#
#
#
# Elastic Constant Matrix: (Units=GPa)
#
#
# Indices 1 2 3 4 5 6 
#
# 1 93.4399 32.7551 32.1157 0.0000 6.6302 0.0000
# 2 32.7551 84.2360 27.4846 0.0000 0.3354 0.0000
# 3 32.1157 27.4846 90.7896 0.0000 1.8893 0.0000
# 4 0.0000 0.0000 0.0000 31.0483 0.0000 -3.1056
# 5 6.6302 0.3354 1.8893 0.0000 32.7510 0.0000
# 6 0.0000 0.0000 0.0000 -3.1056 0.0000 24.8802
#
#
#
# Elastic Compliance Matrix: (Units=1/GPa)
#
#
# Indices 1 2 3 4 5 6 
#
# 1 0.013517 -0.004109 -0.003486 0.000000 -0.002493 0.000000
# 2 -0.004109 0.014422 -0.002930 0.000000 0.000853 0.000000
# 3 -0.003486 -0.002930 0.013135 0.000000 -0.000022 0.000000
# 4 0.000000 0.000000 0.000000 0.032615 0.000000 0.004071
# 5 -0.002493 0.000853 -0.000022 0.000000 0.031031 0.000000
# 6 0.000000 0.000000 0.000000 0.004071 0.000000 0.040701
#
#
# Mechanical properties :
#
#
# Convention : Reuss Voigt Hill
#
# Bulk Modulus (GPa) = 49.93905 50.35293 50.14599
# Shear Modulus (GPa) = 28.87739 29.47655 29.17697
#
# Velocity S-wave (km/s) = 3.80857 3.84788 3.82827
# Velocity P-wave (km/s) = 6.66519 6.71074 6.68800
#
# Compressibility (1/GPa) = 0.02002441
#
# Stress axis : x y z
#
# Youngs Moduli (GPa) = 73.97829 69.33930 76.13212
#
# Poissons Ratio (x) = 0.28491 0.26539
# Poissons Ratio (y) = 0.30397 0.22308
# Poissons Ratio (z) = 0.25788 0.20318
#
# Static dielectric constant tensor:
#      x y z
#    x 3.543250 0.000000 -0.151060 
#    y 0.000000 3.802880 0.000000 
#    z -0.151060 0.000000 3.741860 
# 
# 
# High freq. dielectric constant tensor:
#      x y z
#    x 1.771510 0.000000 -0.003720 
#    y 0.000000 1.778940 0.000000 
#    z -0.003720 0.000000 1.773710 
# 
# From -- ./inp_files/249911.got.cif
#   From: 2010.06.25/outbox.cif.g09.slc.cpg/sg12_125_cif.got.tgz:249911.got - 2010.06.28 00:19:55.
