data_PCOD8081971
_publ_section_title
;
Structure prediction by ZEFSAII (Michael W. Deem and Ramdas Pophale) SiO2 
 PCOD8081971
Probable space group: C 2/M
;
_chemical_formula_sum "Si O2"
_cell_formula_units_Z 64
_cell_length_a 23.721426
_cell_length_b 9.103789
_cell_length_c 21.287130
_cell_angle_alpha 90.000000
_cell_angle_beta 128.720251
_cell_angle_gamma 90.000000
_cell_volume 3586.668591
_symmetry_space_group_name_H-M "C 2/M"
_symmetry_group_IT_number 12
_symmetry_cell_setting 'monoclinic'
loop_
_space_group_symop_operation_xyz
x,y,z
-x,y,-z
-x,-y,-z
x,-y,z
1/2+x,1/2+y,z
1/2-x,1/2+y,-z
1/2-x,1/2-y,-z
1/2+x,1/2-y,z
loop_
_atom_site_type_symbol
_atom_site_label
_atom_site_fract_x
_atom_site_fract_y
_atom_site_fract_z
Si Si1 0.888322 0.831705 0.029782
Si Si2 0.253887 0.328991 0.403290
Si Si3 0.004557 0.330229 0.272159
Si Si4 0.363290 0.328469 0.154831
Si Si5 0.721607 0.173319 0.130548
Si Si6 0.955488 0.832532 0.822964
Si Si7 0.854100 0.668007 0.560900
Si Si8 0.798380 0.827935 0.755750
O O1 0.862141 0.783545 0.080903
O O2 0.974633 0.809176 0.084054
O O3 0.866530 0.000000 0.000772
O O4 0.851600 0.728218 0.953009
O O5 0.260542 0.500000 0.391488
O O6 0.187855 0.294955 0.403941
O O7 0.328243 0.274415 0.487221
O O8 0.242249 0.237956 0.332214
O O9 0.987908 0.500000 0.250223
O O10 0.929638 0.250363 0.236408
O O11 0.041254 0.271934 0.234475
O O12 0.060796 0.305224 0.368347
O O13 0.377199 0.500000 0.171881
O O14 0.288544 0.278811 0.133598
O O15 0.733297 0.249424 0.205330
O O16 0.717198 0.000000 0.136898
O O17 0.884172 0.795907 0.812948
O O18 0.954182 0.000000 0.797057
O O19 0.838241 0.500000 0.530445
O O20 0.781811 0.000000 0.747805
#
# Coordination Sequence:
#
# PCOD8081971 Si02
#       8
#     8   8   8   8   8   8   8   8
#     4   9  18  35  56  77 101 130 172 221 265 312
#     4  10  19  32  51  77 109 141 173 210 251 304
#     4  10  18  30  53  82 109 134 168 217 261 302
#     4   9  20  37  55  76 104 137 174 217 264 313
#     4  11  23  37  53  75 103 138 179 220 261 308
#     4   9  19  34  52  75 105 140 173 209 260 316
#     4   9  18  31  49  79 112 138 168 207 255 307
#     4  11  22  36  54  74 105 145 178 212 258 314
#
# _framework density 17.843855999999999
#
# number of rings (size 3 to 8) (size 9 to 14) (size 15 to 20)
#    0.000    2.250    1.250    2.625    0.000    5.500 
#    0.000    2.500    0.000    0.750    0.000    5.250 
#    0.000    0.000    0.000    0.000    0.000    0.000 
#
# Total GULP energy -396871.239139 kJ/mol
# GULP energy per Si atom -12402.226223 kJ/mol
# Density = 1.780324 g / cm^3
# Si number density = 17.843856 Si / 1000 Ang^3
#
#
#
# Elastic Constant Matrix: (Units=GPa)
#
#
# Indices 1 2 3 4 5 6 
#
# 1 35.7393 25.9984 28.8901 0.0000 -3.5166 0.0000
# 2 25.9984 78.9642 51.7604 0.0000 -0.6028 0.0000
# 3 28.8901 51.7604 106.0616 0.0000 1.7424 0.0000
# 4 0.0000 0.0000 0.0000 37.0844 0.0000 0.6545
# 5 -3.5166 -0.6028 1.7424 0.0000 22.1370 0.0000
# 6 0.0000 0.0000 0.0000 0.6545 0.0000 25.6267
#
#
#
# Elastic Compliance Matrix: (Units=1/GPa)
#
#
# Indices 1 2 3 4 5 6 
#
# 1 0.040612 -0.008816 -0.006871 0.000000 0.006752 0.000000
# 2 -0.008816 0.020568 -0.007632 0.000000 -0.000240 0.000000
# 3 -0.006871 -0.007632 0.015066 0.000000 -0.002485 0.000000
# 4 0.000000 0.000000 0.000000 0.026978 0.000000 -0.000689
# 5 0.006752 -0.000240 -0.002485 0.000000 0.046435 0.000000
# 6 0.000000 0.000000 0.000000 -0.000689 0.000000 0.039039
#
#
# Mechanical properties :
#
#
# Convention : Reuss Voigt Hill
#
# Bulk Modulus (GPa) = 33.77548 48.22922 41.00235
# Shear Modulus (GPa) = 20.39120 24.57735 22.48428
#
# Velocity S-wave (km/s) = 3.38414 3.71530 3.55358
# Velocity P-wave (km/s) = 5.85143 6.74476 6.31392
#
# Compressibility (1/GPa) = 0.02960728
#
# Stress axis : x y z
#
# Youngs Moduli (GPa) = 24.62327 48.62040 66.37676
#
# Poissons Ratio (x) = 0.42863 0.45607
# Poissons Ratio (y) = 0.21708 0.50659
# Poissons Ratio (z) = 0.16918 0.37108
#
# Static dielectric constant tensor:
#      x y z
#    x 3.253700 0.000000 0.161030 
#    y 0.000000 3.327980 0.000000 
#    z 0.161030 0.000000 3.232820 
# 
# 
# High freq. dielectric constant tensor:
#      x y z
#    x 1.667440 0.000000 0.015770 
#    y 0.000000 1.698360 0.000000 
#    z 0.015770 0.000000 1.687790 
# 
# From -- ./inp_files/323730.got.cif
#   From: 2010.06.25/outbox.cif.g09.slc.cpg/sg12_162_cif.got.tgz:323730.got - 2010.06.28 00:19:55.
