data_PCOD8081149
_publ_section_title
;
Structure prediction by ZEFSAII (Michael W. Deem and Ramdas Pophale) SiO2 
 PCOD8081149
Probable space group: C 2/M
;
_chemical_formula_sum "Si O2"
_cell_formula_units_Z 56
_cell_length_a 30.764754
_cell_length_b 18.057425
_cell_length_c 9.379564
_cell_angle_alpha 90.000000
_cell_angle_beta 36.348051
_cell_angle_gamma 90.000000
_cell_volume 3088.294319
_symmetry_space_group_name_H-M "C 2/M"
_symmetry_group_IT_number 12
_symmetry_cell_setting 'monoclinic'
loop_
_space_group_symop_operation_xyz
x,y,z
-x,y,-z
-x,-y,-z
x,-y,z
1/2+x,1/2+y,z
1/2-x,1/2+y,-z
1/2-x,1/2-y,-z
1/2+x,1/2-y,z
loop_
_atom_site_type_symbol
_atom_site_label
_atom_site_fract_x
_atom_site_fract_y
_atom_site_fract_z
Si Si1 0.752503 0.184371 0.830933
Si Si2 0.529209 0.264031 0.571732
Si Si3 0.796316 0.083944 0.474575
Si Si4 0.732921 0.083415 0.342803
Si Si5 0.329005 0.322165 0.907392
Si Si6 0.879986 0.702905 0.425996
Si Si7 0.063324 0.186036 0.932725
O O1 0.749451 0.115880 0.730888
O O2 0.767661 0.156133 0.950718
O O3 0.819026 0.236503 0.613544
O O4 0.679682 0.235628 0.019482
O O5 0.500000 0.228625 0.500000
O O6 0.588267 0.328389 0.370885
O O7 0.565950 0.202255 0.578623
O O8 0.463831 0.304133 0.832087
O O9 0.739186 0.086066 0.496166
O O10 0.867924 0.131604 0.249633
O O11 0.820717 0.000000 0.444392
O O12 0.657098 0.123261 0.498322
O O13 0.728625 0.000000 0.296164
O O14 0.808385 0.121396 0.087425
O O15 0.920081 0.732023 0.176870
O O16 0.000000 0.149992 0.000000
#
# Coordination Sequence:
#
# PCOD8081149 Si02
#       7
#     8   8   8   8   8   8   8
#     4   8  16  31  50  70  94 123 159 204 244 277
#     4  10  18  29  50  75  96 123 161 200 237 286
#     4  10  20  32  48  74 102 129 165 200 233 282
#     4  10  20  33  50  72  99 129 160 201 249 288
#     4   9  17  31  49  72  99 124 155 197 244 290
#     4   8  17  33  50  69  93 124 163 203 243 282
#     4   9  18  33  51  71  98 131 162 194 236 284
#
# _framework density 18.132987
#
# number of rings (size 3 to 8) (size 9 to 14) (size 15 to 20)
#    0.000    2.857    0.000    2.571    0.000    7.143 
#    0.000    0.714    0.000    6.857    0.000    0.000 
#    0.000    0.000    0.000    0.000    0.000    0.000 
#
# Total GULP energy -346932.777968 kJ/mol
# GULP energy per Si atom -12390.456356 kJ/mol
# Density = 1.809172 g / cm^3
# Si number density = 18.132987 Si / 1000 Ang^3
#
#
#
# Elastic Constant Matrix: (Units=GPa)
#
#
# Indices 1 2 3 4 5 6 
#
# 1 81.7539 44.4218 26.5784 0.0000 12.2032 0.0000
# 2 44.4218 95.6033 43.3819 0.0000 3.4651 0.0000
# 3 26.5784 43.3819 91.2606 0.0000 17.4262 0.0000
# 4 0.0000 0.0000 0.0000 12.7384 0.0000 1.1354
# 5 12.2032 3.4651 17.4262 0.0000 26.3498 0.0000
# 6 0.0000 0.0000 0.0000 1.1354 0.0000 23.4682
#
#
#
# Elastic Compliance Matrix: (Units=1/GPa)
#
#
# Indices 1 2 3 4 5 6 
#
# 1 0.017595 -0.007916 -0.000005 0.000000 -0.007104 0.000000
# 2 -0.007916 0.017080 -0.006964 0.000000 0.006026 0.000000
# 3 -0.000005 -0.006964 0.016131 0.000000 -0.009750 0.000000
# 4 0.000000 0.000000 0.000000 0.078843 0.000000 -0.003814
# 5 -0.007104 0.006026 -0.009750 0.000000 0.046897 0.000000
# 6 0.000000 0.000000 0.000000 -0.003814 0.000000 0.042795
#
#
# Mechanical properties :
#
#
# Convention : Reuss Voigt Hill
#
# Bulk Modulus (GPa) = 47.53681 55.26464 51.40073
# Shear Modulus (GPa) = 19.52185 22.79367 21.15776
#
# Velocity S-wave (km/s) = 3.28471 3.54930 3.41957
# Velocity P-wave (km/s) = 6.37639 6.88043 6.63320
#
# Compressibility (1/GPa) = 0.02103633
#
# Stress axis : x y z
#
# Youngs Moduli (GPa) = 56.83437 58.54895 61.99067
#
# Poissons Ratio (x) = 0.46346 0.00030
# Poissons Ratio (y) = 0.44989 0.43172
# Poissons Ratio (z) = 0.00027 0.40775
#
# Static dielectric constant tensor:
#      x y z
#    x 3.433400 0.000000 0.102800 
#    y 0.000000 3.112220 0.000000 
#    z 0.102800 0.000000 3.761390 
# 
# 
# High freq. dielectric constant tensor:
#      x y z
#    x 1.702500 0.000000 0.015110 
#    y 0.000000 1.651610 0.000000 
#    z 0.015110 0.000000 1.713540 
# 
# From -- ./inp_files/112614.got.cif
#   From: 2010.06.25/outbox.cif.g09.slc.cpg/sg12_57_cif.got.tgz:112614.got - 2010.06.28 00:19:55.
