data_PCOD8081213
_publ_section_title
;
Structure prediction by ZEFSAII (Michael W. Deem and Ramdas Pophale) SiO2 
 PCOD8081213
Probable space group: C 2/M
;
_chemical_formula_sum "Si O2"
_cell_formula_units_Z 64
_cell_length_a 20.674411
_cell_length_b 8.781323
_cell_length_c 21.746444
_cell_angle_alpha 90.000000
_cell_angle_beta 58.510658
_cell_angle_gamma 90.000000
_cell_volume 3366.639624
_symmetry_space_group_name_H-M "C 2/M"
_symmetry_group_IT_number 12
_symmetry_cell_setting 'monoclinic'
loop_
_space_group_symop_operation_xyz
x,y,z
-x,y,-z
-x,-y,-z
x,-y,z
1/2+x,1/2+y,z
1/2-x,1/2+y,-z
1/2-x,1/2-y,-z
1/2+x,1/2-y,z
loop_
_atom_site_type_symbol
_atom_site_label
_atom_site_fract_x
_atom_site_fract_y
_atom_site_fract_z
Si Si1 0.462762 0.826603 0.841634
Si Si2 0.801864 0.175916 0.184143
Si Si3 0.804056 0.680747 0.652972
Si Si4 0.772816 0.319792 0.424321
Si Si5 0.554833 0.178182 0.674650
Si Si6 0.929189 0.823088 0.665369
Si Si7 0.532847 0.320088 0.920305
Si Si8 0.160669 0.673604 0.185791
O O1 0.516685 0.776121 0.758473
O O2 0.476485 0.719990 0.892973
O O3 0.373976 0.806540 0.865419
O O4 0.479996 0.000000 0.852013
O O5 0.756243 0.241150 0.265679
O O6 0.883907 0.254266 0.133965
O O7 0.751318 0.200196 0.146819
O O8 0.816705 0.000000 0.189386
O O9 0.803553 0.500000 0.648147
O O10 0.783450 0.753449 0.598453
O O11 0.888730 0.736317 0.628758
O O12 0.764608 0.500000 0.430629
O O13 0.750000 0.250000 0.500000
O O14 0.858333 0.268913 0.365874
O O15 0.513761 0.261065 0.637490
O O16 0.546807 0.000000 0.666740
O O17 0.880013 0.794570 0.750645
O O18 0.933377 0.000000 0.647347
O O19 0.539215 0.500000 0.923307
O O20 0.500000 0.251152 0.000000
O O21 0.141862 0.500000 0.218276
#
# Coordination Sequence:
#
# PCOD8081213 Si02
#       8
#     8   8   8   8   8   8   8   8
#     4   9  17  31  52  74  95 124 164 207 249 295
#     4   8  15  30  52  73  94 128 169 204 243 297
#     4  10  19  34  56  78 103 136 174 214 258 307
#     4  11  23  38  55  77 107 139 173 212 254 303
#     4   9  19  36  56  78 105 137 170 208 256 306
#     4  10  18  29  51  82 109 131 164 212 259 305
#     4  10  20  32  46  68 100 134 167 206 251 298
#     4   8  15  30  50  71  96 127 165 207 253 303
#
# _framework density 19.010052000000002
#
# number of rings (size 3 to 8) (size 9 to 14) (size 15 to 20)
#    0.000    2.625    0.000    4.125    0.000    3.250 
#    0.000    3.750    0.000    3.750    0.000    0.000 
#    0.000    0.000    0.000    0.000    0.000    0.000 
#
# Total GULP energy -396613.420221 kJ/mol
# GULP energy per Si atom -12394.169382 kJ/mol
# Density = 1.896678 g / cm^3
# Si number density = 19.010052 Si / 1000 Ang^3
#
#
#
# Elastic Constant Matrix: (Units=GPa)
#
#
# Indices 1 2 3 4 5 6 
#
# 1 133.5318 33.6179 42.9059 0.0000 32.1294 0.0030
# 2 33.6179 56.1452 22.4329 0.0001 7.1900 0.0058
# 3 42.9059 22.4329 70.4338 -0.0003 22.5885 0.0005
# 4 0.0000 0.0001 -0.0003 18.3121 0.0001 7.8770
# 5 32.1294 7.1900 22.5885 0.0001 17.5953 -0.0002
# 6 0.0030 0.0058 0.0005 7.8770 -0.0002 32.1501
#
#
#
# Elastic Compliance Matrix: (Units=1/GPa)
#
#
# Indices 1 2 3 4 5 6 
#
# 1 0.015000 -0.006110 0.001346 0.000001 -0.026623 -0.000001
# 2 -0.006110 0.022897 -0.007051 0.000001 0.010853 -0.000004
# 3 0.001346 -0.007051 0.026327 0.000001 -0.033375 0.000000
# 4 0.000001 0.000001 0.000001 0.061042 -0.000003 -0.014956
# 5 -0.026623 0.010853 -0.033375 -0.000003 0.143859 0.000002
# 6 -0.000001 -0.000004 0.000000 -0.014956 0.000002 0.034768
#
#
# Mechanical properties :
#
#
# Convention : Reuss Voigt Hill
#
# Bulk Modulus (GPa) = 24.63401 50.89160 37.76281
# Shear Modulus (GPa) = 14.66042 24.35509 19.50775
#
# Velocity S-wave (km/s) = 2.78005 3.58322 3.20688
# Velocity P-wave (km/s) = 4.82612 6.62935 5.79827
#
# Compressibility (1/GPa) = 0.04059428
#
# Stress axis : x y z
#
# Youngs Moduli (GPa) = 66.66548 43.67378 37.98399
#
# Poissons Ratio (x) = 0.26686 -0.05114
# Poissons Ratio (y) = 0.40735 0.26783
# Poissons Ratio (z) = -0.08976 0.30795
#
# Static dielectric constant tensor:
#      x y z
#    x 3.914560 0.000000 -0.079510 
#    y 0.000000 3.226180 0.000000 
#    z -0.079510 0.000000 3.233780 
# 
# 
# High freq. dielectric constant tensor:
#      x y z
#    x 1.763370 0.000000 0.006660 
#    y 0.000000 1.720770 0.000000 
#    z 0.006660 0.000000 1.694360 
# 
# From -- ./inp_files/319792.got.cif
#   From: 2010.06.25/outbox.cif.g09.slc.cpg/sg12_160_cif.got.tgz:319792.got - 2010.06.28 00:19:55.
