data_PCOD8081693
_publ_section_title
;
Structure prediction by ZEFSAII (Michael W. Deem and Ramdas Pophale) SiO2 
 PCOD8081693
Probable space group: C 2/M
;
_chemical_formula_sum "Si O2"
_cell_formula_units_Z 48
_cell_length_a 23.603272
_cell_length_b 13.068353
_cell_length_c 18.251690
_cell_angle_alpha 90.000000
_cell_angle_beta 149.446443
_cell_angle_gamma 90.000000
_cell_volume 2861.893483
_symmetry_space_group_name_H-M "C 2/M"
_symmetry_group_IT_number 12
_symmetry_cell_setting 'monoclinic'
loop_
_space_group_symop_operation_xyz
x,y,z
-x,y,-z
-x,-y,-z
x,-y,z
1/2+x,1/2+y,z
1/2-x,1/2+y,-z
1/2-x,1/2-y,-z
1/2+x,1/2-y,z
loop_
_atom_site_type_symbol
_atom_site_label
_atom_site_fract_x
_atom_site_fract_y
_atom_site_fract_z
Si Si1 0.484194 0.881890 0.400989
Si Si2 0.279184 0.609858 0.496737
Si Si3 0.091288 0.300023 0.381674
Si Si4 0.352585 0.000000 0.762672
Si Si5 0.615402 0.000000 0.036863
Si Si6 0.862835 0.676345 0.049526
Si Si7 0.248187 0.116754 0.066998
O O1 0.500000 0.837325 0.500000
O O2 0.567893 0.822652 0.440471
O O3 0.356996 0.865351 0.236926
O O4 0.518631 0.000000 0.435731
O O5 0.329683 0.500000 0.574734
O O6 0.204382 0.645611 0.481836
O O7 0.386689 0.679403 0.601866
O O8 0.201442 0.600295 0.336935
O O9 0.988317 0.337331 0.218080
O O10 0.483524 0.000000 0.897070
O O11 0.324248 0.000000 0.817169
O O12 0.653564 0.896106 0.038825
O O13 0.775803 0.635018 0.012607
O O14 0.840380 0.796470 0.006077
O O15 0.202744 0.000000 0.026944
#
# Coordination Sequence:
#
# PCOD8081693 Si02
#       7
#     8   8   8   4   4   8   8
#     4   9  18  31  49  71  93 124 161 198 241 284
#     4   9  18  33  48  73  97 125 166 200 246 291
#     4  10  18  30  53  70  96 129 160 206 240 289
#     4   9  20  32  50  73  97 127 167 207 243 296
#     4  11  18  32  52  73 101 131 162 209 249 285
#     4  10  18  30  50  74  96 133 163 200 248 285
#     4   9  18  31  48  72  99 126 165 202 235 296
#
# _framework density 16.772113000000001
#
# number of rings (size 3 to 8) (size 9 to 14) (size 15 to 20)
#    0.500    2.000    2.500    0.500    1.167    2.000 
#    0.000    0.000    0.000    0.500    0.000    2.333 
#    0.000    0.000    0.000    0.000    0.000    0.000 
#
# Total GULP energy -297459.853343 kJ/mol
# GULP energy per Si atom -12394.160556 kJ/mol
# Density = 1.673394 g / cm^3
# Si number density = 16.772113 Si / 1000 Ang^3
#
#
#
# Elastic Constant Matrix: (Units=GPa)
#
#
# Indices 1 2 3 4 5 6 
#
# 1 102.8242 44.2901 23.2562 0.0000 -10.6563 0.0000
# 2 44.2901 110.5716 8.1482 0.0000 2.4697 0.0000
# 3 23.2562 8.1482 18.3510 0.0000 -4.7855 0.0000
# 4 0.0000 0.0000 0.0000 27.3387 0.0000 3.5203
# 5 -10.6563 2.4697 -4.7855 0.0000 22.6745 0.0000
# 6 0.0000 0.0000 0.0000 3.5203 0.0000 16.6139
#
#
#
# Elastic Compliance Matrix: (Units=1/GPa)
#
#
# Indices 1 2 3 4 5 6 
#
# 1 0.016436 -0.005421 -0.017201 0.000000 0.004685 0.000000
# 2 -0.005421 0.011225 0.000955 0.000000 -0.003569 0.000000
# 3 -0.017201 0.000955 0.078027 0.000000 0.008280 0.000000
# 4 0.000000 0.000000 0.000000 0.037604 0.000000 -0.007968
# 5 0.004685 -0.003569 0.008280 0.000000 0.048440 0.000000
# 6 0.000000 0.000000 0.000000 -0.007968 0.000000 0.061879
#
#
# Mechanical properties :
#
#
# Convention : Reuss Voigt Hill
#
# Bulk Modulus (GPa) = 16.03736 42.57064 29.30400
# Shear Modulus (GPa) = 15.73669 23.72889 19.73279
#
# Velocity S-wave (km/s) = 3.06643 3.76544 3.43377
# Velocity P-wave (km/s) = 4.70319 6.65895 5.76462
#
# Compressibility (1/GPa) = 0.06235439
#
# Stress axis : x y z
#
# Youngs Moduli (GPa) = 60.84155 89.09071 12.81610
#
# Poissons Ratio (x) = 0.48293 0.22045
# Poissons Ratio (y) = 0.32980 -0.01224
# Poissons Ratio (z) = 1.04654 -0.08509
#
# Static dielectric constant tensor:
#      x y z
#    x 3.110670 0.000000 -0.093450 
#    y 0.000000 3.246140 0.000000 
#    z -0.093450 0.000000 2.915570 
# 
# 
# High freq. dielectric constant tensor:
#      x y z
#    x 1.636310 0.000000 -0.001730 
#    y 0.000000 1.648790 0.000000 
#    z -0.001730 0.000000 1.623440 
# 
# From -- ./inp_files/325006.got.cif
#   From: 2010.06.25/outbox.cif.g09.slc.cpg/sg12_163_cif.got.tgz:325006.got - 2010.06.28 00:19:55.
