data_PCOD8081163
_publ_section_title
;
Structure prediction by ZEFSAII (Michael W. Deem and Ramdas Pophale) SiO2 
 PCOD8081163
Probable space group: C 2/M
;
_chemical_formula_sum "Si O2"
_cell_formula_units_Z 64
_cell_length_a 24.127701
_cell_length_b 9.066167
_cell_length_c 20.826776
_cell_angle_alpha 90.000000
_cell_angle_beta 127.974862
_cell_angle_gamma 90.000000
_cell_volume 3591.225267
_symmetry_space_group_name_H-M "C 2/M"
_symmetry_group_IT_number 12
_symmetry_cell_setting 'monoclinic'
loop_
_space_group_symop_operation_xyz
x,y,z
-x,y,-z
-x,-y,-z
x,-y,z
1/2+x,1/2+y,z
1/2-x,1/2+y,-z
1/2-x,1/2-y,-z
1/2+x,1/2-y,z
loop_
_atom_site_type_symbol
_atom_site_label
_atom_site_fract_x
_atom_site_fract_y
_atom_site_fract_z
Si Si1 0.989449 0.173606 0.198755
Si Si2 0.642170 0.171611 0.944098
Si Si3 0.268940 0.828550 0.368112
Si Si4 0.839861 0.670737 0.283513
Si Si5 0.631811 0.827231 0.310426
Si Si6 0.382626 0.171615 0.552572
Si Si7 0.255576 0.829497 0.099656
Si Si8 0.023685 0.172719 0.662726
O O1 0.063857 0.245246 0.233646
O O2 0.931302 0.242319 0.110432
O O3 0.969423 0.214336 0.257508
O O4 0.993792 0.000000 0.190625
O O5 0.683499 0.204610 0.907987
O O6 0.627092 0.000000 0.943341
O O7 0.687114 0.231572 0.036151
O O8 0.306080 0.795285 0.327599
O O9 0.198984 0.732075 0.320533
O O10 0.320413 0.776708 0.461631
O O11 0.249081 0.000000 0.361310
O O12 0.860014 0.500000 0.289218
O O13 0.783968 0.717917 0.189393
O O14 0.910584 0.763929 0.328878
O O15 0.640999 0.790023 0.392135
O O16 0.623146 0.000000 0.292050
O O17 0.452776 0.258604 0.583172
O O18 0.399330 0.000000 0.555676
O O19 0.233167 0.000000 0.080975
O O20 0.020505 0.000000 0.649480
#
# Coordination Sequence:
#
# PCOD8081163 Si02
#       8
#     8   8   8   8   8   8   8   8
#     4  10  19  32  52  77 105 134 168 211 256 303
#     4  10  18  29  50  78 106 133 166 207 251 299
#     4  10  21  36  54  75  99 135 178 213 252 302
#     4  10  20  35  53  72 103 142 174 206 247 305
#     4  10  20  34  54  77 102 132 169 216 263 301
#     4   9  19  35  54  75 101 133 170 214 260 306
#     4   9  18  31  48  73 105 138 168 202 246 301
#     4  10  20  32  50  76 104 135 170 211 257 301
#
# _framework density 17.821214999999999
#
# number of rings (size 3 to 8) (size 9 to 14) (size 15 to 20)
#    0.000    2.250    1.250    1.875    0.000    4.000 
#    0.000    2.500    0.000    0.750    0.000    5.250 
#    0.000    0.000    0.000    0.000    0.000    0.000 
#
# Total GULP energy -396949.031861 kJ/mol
# GULP energy per Si atom -12404.657246 kJ/mol
# Density = 1.778065 g / cm^3
# Si number density = 17.821215 Si / 1000 Ang^3
#
#
#
# Elastic Constant Matrix: (Units=GPa)
#
#
# Indices 1 2 3 4 5 6 
#
# 1 78.7691 45.5793 37.2834 0.0000 24.6398 0.0000
# 2 45.5793 78.8566 38.7951 0.0000 23.1553 0.0000
# 3 37.2834 38.7951 64.8858 0.0000 31.2973 0.0000
# 4 0.0000 0.0000 0.0000 28.8231 0.0000 7.9806
# 5 24.6398 23.1553 31.2973 0.0000 27.1143 0.0000
# 6 0.0000 0.0000 0.0000 7.9806 0.0000 28.9000
#
#
#
# Elastic Compliance Matrix: (Units=1/GPa)
#
#
# Indices 1 2 3 4 5 6 
#
# 1 0.021916 -0.008450 -0.003193 0.000000 -0.009015 0.000000
# 2 -0.008450 0.021770 -0.006537 0.000000 -0.003368 0.000000
# 3 -0.003193 -0.006537 0.038494 0.000000 -0.035950 0.000000
# 4 0.000000 0.000000 0.000000 0.037567 0.000000 -0.010374
# 5 -0.009015 -0.003368 -0.035950 0.000000 0.089445 0.000000
# 6 0.000000 0.000000 0.000000 -0.010374 0.000000 0.037467
#
#
# Mechanical properties :
#
#
# Convention : Reuss Voigt Hill
#
# Bulk Modulus (GPa) = 21.82342 51.75857 36.79099
# Shear Modulus (GPa) = 16.76222 23.69105 20.22664
#
# Velocity S-wave (km/s) = 3.07021 3.65001 3.37259
# Velocity P-wave (km/s) = 4.98403 6.84615 5.98792
#
# Compressibility (1/GPa) = 0.04582234
#
# Stress axis : x y z
#
# Youngs Moduli (GPa) = 45.62956 45.93521 25.97774
#
# Poissons Ratio (x) = 0.38813 0.08294
# Poissons Ratio (y) = 0.38555 0.16980
# Poissons Ratio (z) = 0.14568 0.30026
#
# Static dielectric constant tensor:
#      x y z
#    x 3.054910 0.000000 0.092250 
#    y 0.000000 3.278340 0.000000 
#    z 0.092250 0.000000 3.334190 
# 
# 
# High freq. dielectric constant tensor:
#      x y z
#    x 1.665610 0.000000 0.017650 
#    y 0.000000 1.694700 0.000000 
#    z 0.017650 0.000000 1.690520 
# 
# From -- ./inp_files/324149.got.cif
#   From: 2010.06.25/outbox.cif.g09.slc.cpg/sg12_163_cif.got.tgz:324149.got - 2010.06.28 00:19:55.
