data_PCOD8081665
_publ_section_title
;
Structure prediction by ZEFSAII (Michael W. Deem and Ramdas Pophale) SiO2 
 PCOD8081665
Probable space group: C 2/M
;
_chemical_formula_sum "Si O2"
_cell_formula_units_Z 64
_cell_length_a 14.896320
_cell_length_b 9.009704
_cell_length_c 26.381583
_cell_angle_alpha 90.000000
_cell_angle_beta 90.027228
_cell_angle_gamma 90.000000
_cell_volume 3540.709683
_symmetry_space_group_name_H-M "C 2/M"
_symmetry_group_IT_number 12
_symmetry_cell_setting 'monoclinic'
loop_
_space_group_symop_operation_xyz
x,y,z
-x,y,-z
-x,-y,-z
x,-y,z
1/2+x,1/2+y,z
1/2-x,1/2+y,-z
1/2-x,1/2-y,-z
1/2+x,1/2-y,z
loop_
_atom_site_type_symbol
_atom_site_label
_atom_site_fract_x
_atom_site_fract_y
_atom_site_fract_z
Si Si1 0.141842 0.827267 0.374771
Si Si2 0.655732 0.176070 0.627851
Si Si3 0.998877 0.676493 0.189968
Si Si4 0.844257 0.675985 0.260887
Si Si5 0.500037 0.823942 0.076319
Si Si6 0.641604 0.327285 0.258319
Si Si7 0.499057 0.823662 0.442985
Si Si8 0.848247 0.675866 0.999961
O O1 0.243525 0.776165 0.385301
O O2 0.115315 0.793680 0.316553
O O3 0.085562 0.729213 0.413019
O O4 0.127858 0.000000 0.386888
O O5 0.628549 0.238558 0.683480
O O6 0.588914 0.240734 0.585432
O O7 0.649965 0.000000 0.629566
O O8 0.998094 0.500000 0.188544
O O9 0.085344 0.728444 0.220239
O O10 0.910979 0.740640 0.218471
O O11 0.999999 0.741869 0.133093
O O12 0.850570 0.500000 0.262610
O O13 0.743378 0.723050 0.247721
O O14 0.408114 0.772279 0.048389
O O15 0.499828 0.000000 0.076265
O O16 0.592029 0.772259 0.048509
O O17 0.627225 0.500000 0.246123
O O18 0.500000 0.759930 0.500000
O O19 0.498700 0.000000 0.443620
O O20 0.833135 0.500000 0.000026
O O21 0.750000 0.750000 0.000000
#
# Coordination Sequence:
#
# PCOD8081665 Si02
#       8
#     8   8   8   8   8   8   8   8
#     4   9  18  33  51  67  90 127 162 188 226 286
#     4   8  15  30  48  65  90 124 154 183 228 282
#     4  10  18  30  50  73  96 127 162 192 229 285
#     4   8  15  28  47  67  89 122 159 186 220 282
#     4   8  17  32  48  69  99 130 159 193 239 289
#     4   9  18  32  48  70  97 123 154 195 237 273
#     4  10  20  32  48  72  97 119 152 201 246 278
#     4   9  17  33  53  70  93 128 166 203 239 278
#
# _framework density 18.075472000000001
#
# number of rings (size 3 to 8) (size 9 to 14) (size 15 to 20)
#    0.000    3.125    0.000    3.000    0.000    3.250 
#    0.000    5.000    0.000    1.500    0.000    0.000 
#    0.000    0.000    0.000    0.000    0.000    0.000 
#
# Total GULP energy -396599.429811 kJ/mol
# GULP energy per Si atom -12393.732182 kJ/mol
# Density = 1.803433 g / cm^3
# Si number density = 18.075472 Si / 1000 Ang^3
#
#
#
# Elastic Constant Matrix: (Units=GPa)
#
#
# Indices 1 2 3 4 5 6 
#
# 1 145.8960 19.8155 94.0807 0.0000 -2.9145 0.0000
# 2 19.8155 13.0450 19.0135 0.0000 0.8053 0.0000
# 3 94.0807 19.0135 157.5916 0.0000 5.7078 0.0000
# 4 0.0000 0.0000 0.0000 18.3670 0.0000 0.0831
# 5 -2.9145 0.8053 5.7078 0.0000 7.2541 0.0000
# 6 0.0000 0.0000 0.0000 0.0831 0.0000 28.6521
#
#
#
# Elastic Compliance Matrix: (Units=1/GPa)
#
#
# Indices 1 2 3 4 5 6 
#
# 1 0.012949 -0.010323 -0.006912 0.000000 0.011787 0.000000
# 2 -0.010323 0.101260 -0.005658 0.000000 -0.010936 0.000000
# 3 -0.006912 -0.005658 0.011562 0.000000 -0.011246 0.000000
# 4 0.000000 0.000000 0.000000 0.054446 0.000000 -0.000158
# 5 0.011787 -0.010936 -0.011246 0.000000 0.152651 0.000000
# 6 0.000000 0.000000 0.000000 -0.000158 0.000000 0.034902
#
#
# Mechanical properties :
#
#
# Convention : Reuss Voigt Hill
#
# Bulk Modulus (GPa) = 12.50237 64.70579 38.60408
# Shear Modulus (GPa) = 11.35803 23.09617 17.22710
#
# Velocity S-wave (km/s) = 2.50944 3.57846 3.09052
# Velocity P-wave (km/s) = 3.91512 7.27661 5.84283
#
# Compressibility (1/GPa) = 0.07998486
#
# Stress axis : x y z
#
# Youngs Moduli (GPa) = 77.22797 9.87556 86.49220
#
# Poissons Ratio (x) = 0.10194 0.59781
# Poissons Ratio (y) = 0.79721 0.48940
# Poissons Ratio (z) = 0.53378 0.05588
#
# Static dielectric constant tensor:
#      x y z
#    x 3.496440 0.000000 0.035970 
#    y 0.000000 2.837470 0.000000 
#    z 0.035970 0.000000 4.016700 
# 
# 
# High freq. dielectric constant tensor:
#      x y z
#    x 1.709920 0.000000 -0.000530 
#    y 0.000000 1.652960 0.000000 
#    z -0.000530 0.000000 1.705650 
# 
# From -- ./inp_files/359846.got.cif
#   From: 2010.06.25/outbox.cif.g09.slc.cpg/sg12_180_cif.got.tgz:359846.got - 2010.06.28 00:19:55.
