data_PCOD8081904
_publ_section_title
;
Structure prediction by ZEFSAII (Michael W. Deem and Ramdas Pophale) SiO2 
 PCOD8081904
Probable space group: C 2/M
;
_chemical_formula_sum "Si O2"
_cell_formula_units_Z 64
_cell_length_a 24.518664
_cell_length_b 19.354417
_cell_length_c 9.999716
_cell_angle_alpha 90.000000
_cell_angle_beta 127.846815
_cell_angle_gamma 90.000000
_cell_volume 3747.152584
_symmetry_space_group_name_H-M "C 2/M"
_symmetry_group_IT_number 12
_symmetry_cell_setting 'monoclinic'
loop_
_space_group_symop_operation_xyz
x,y,z
-x,y,-z
-x,-y,-z
x,-y,z
1/2+x,1/2+y,z
1/2-x,1/2+y,-z
1/2-x,1/2-y,-z
1/2+x,1/2-y,z
loop_
_atom_site_type_symbol
_atom_site_label
_atom_site_fract_x
_atom_site_fract_y
_atom_site_fract_z
Si Si1 0.215751 0.077940 0.664377
Si Si2 0.281040 0.215450 0.677278
Si Si3 0.577885 0.360930 0.398517
Si Si4 0.708322 0.422643 0.965709
Si Si5 0.218932 0.293071 0.832791
Si Si6 0.922516 0.780069 0.870258
Si Si7 0.574197 0.740986 0.636285
Si Si8 0.073270 0.137403 0.864669
O O1 0.263984 0.133767 0.661873
O O2 0.137840 0.081806 0.489129
O O3 0.215050 0.095789 0.820204
O O4 0.243211 0.000000 0.679495
O O5 0.250000 0.250000 0.500000
O O6 0.244121 0.257541 0.737436
O O7 0.364246 0.222246 0.810336
O O8 0.590418 0.307280 0.297925
O O9 0.583041 0.321532 0.546434
O O10 0.502683 0.396473 0.269280
O O11 0.733729 0.500000 0.032531
O O12 0.629232 0.416496 0.895311
O O13 0.755855 0.371817 0.123624
O O14 0.135691 0.295709 0.712465
O O15 0.250000 0.250000 0.000000
O O16 0.914198 0.843854 0.961305
O O17 0.000000 0.747976 0.000000
O O18 0.500000 0.778107 0.500000
O O19 0.577588 0.709601 0.790295
#
# Coordination Sequence:
#
# PCOD8081904 Si02
#       8
#     8   8   8   8   8   8   8   8
#     4  11  22  35  52  80 112 140 174 221 270 316
#     4  12  20  34  58  80 103 142 180 222 260 314
#     4  10  18  33  49  76 107 140 174 205 263 320
#     4  11  22  34  52  81 110 140 178 221 267 314
#     4  12  18  34  56  77 103 140 180 221 260 303
#     4  10  20  32  52  79 108 135 173 224 266 307
#     4  10  18  30  52  77 104 133 175 222 262 307
#     4  10  18  31  51  75 105 140 174 211 255 318
#
# _framework density 17.079636000000001
#
# number of rings (size 3 to 8) (size 9 to 14) (size 15 to 20)
#    0.000    1.250    7.500    0.000    0.000    0.500 
#    0.000    3.750    0.000    3.000    0.000    0.000 
#    0.000    0.000    0.000    0.000    0.000    0.000 
#
# Total GULP energy -396723.243366 kJ/mol
# GULP energy per Si atom -12397.601355 kJ/mol
# Density = 1.704076 g / cm^3
# Si number density = 17.079636 Si / 1000 Ang^3
#
#
#
# Elastic Constant Matrix: (Units=GPa)
#
#
# Indices 1 2 3 4 5 6 
#
# 1 97.4594 40.2401 33.4457 0.0000 13.1577 0.0000
# 2 40.2401 89.1007 30.6728 0.0000 10.0454 0.0000
# 3 33.4457 30.6728 68.4734 0.0000 2.9288 0.0000
# 4 0.0000 0.0000 0.0000 17.4982 0.0000 2.0564
# 5 13.1577 10.0454 2.9288 0.0000 35.0664 0.0000
# 6 0.0000 0.0000 0.0000 2.0564 0.0000 22.4333
#
#
#
# Elastic Compliance Matrix: (Units=1/GPa)
#
#
# Indices 1 2 3 4 5 6 
#
# 1 0.014210 -0.004335 -0.004841 0.000000 -0.003685 0.000000
# 2 -0.004335 0.014988 -0.004498 0.000000 -0.002291 0.000000
# 3 -0.004841 -0.004498 0.018919 0.000000 0.001525 0.000000
# 4 0.000000 0.000000 0.000000 0.057771 0.000000 -0.005296
# 5 -0.003685 -0.002291 0.001525 0.000000 0.030429 0.000000
# 6 0.000000 0.000000 0.000000 -0.005296 0.000000 0.045062
#
#
# Mechanical properties :
#
#
# Convention : Reuss Voigt Hill
#
# Bulk Modulus (GPa) = 48.15361 51.52787 49.84074
# Shear Modulus (GPa) = 23.18571 25.04458 24.11515
#
# Velocity S-wave (km/s) = 3.68843 3.83344 3.76163
# Velocity P-wave (km/s) = 6.81133 7.05892 6.93623
#
# Compressibility (1/GPa) = 0.02076688
#
# Stress axis : x y z
#
# Youngs Moduli (GPa) = 70.37496 66.71965 52.85812
#
# Poissons Ratio (x) = 0.28926 0.25588
# Poissons Ratio (y) = 0.30510 0.23777
# Poissons Ratio (z) = 0.34068 0.30013
#
# Static dielectric constant tensor:
#      x y z
#    x 3.524990 0.000000 0.126490 
#    y 0.000000 2.857330 0.000000 
#    z 0.126490 0.000000 3.383840 
# 
# 
# High freq. dielectric constant tensor:
#      x y z
#    x 1.670610 0.000000 -0.003590 
#    y 0.000000 1.608380 0.000000 
#    z -0.003590 0.000000 1.671660 
# 
# From -- ./inp_files/98885.got.cif
#   From: 2010.06.25/outbox.cif.g09.slc.cpg/sg12_50_cif.got.tgz:98885.got - 2010.06.28 00:19:55.
