data_PCOD8081831
_publ_section_title
;
Structure prediction by ZEFSAII (Michael W. Deem and Ramdas Pophale) SiO2 
 PCOD8081831
Probable space group: C 2/M
;
_chemical_formula_sum "Si O2"
_cell_formula_units_Z 64
_cell_length_a 20.568504
_cell_length_b 9.082467
_cell_length_c 24.331142
_cell_angle_alpha 90.000000
_cell_angle_beta 127.959571
_cell_angle_gamma 90.000000
_cell_volume 3583.772394
_symmetry_space_group_name_H-M "C 2/M"
_symmetry_group_IT_number 12
_symmetry_cell_setting 'monoclinic'
loop_
_space_group_symop_operation_xyz
x,y,z
-x,y,-z
-x,-y,-z
x,-y,z
1/2+x,1/2+y,z
1/2-x,1/2+y,-z
1/2-x,1/2-y,-z
1/2+x,1/2-y,z
loop_
_atom_site_type_symbol
_atom_site_label
_atom_site_fract_x
_atom_site_fract_y
_atom_site_fract_z
Si Si1 0.065044 0.330734 0.989321
Si Si2 0.321382 0.673592 0.770279
Si Si3 0.776628 0.669849 0.858206
Si Si4 0.510130 0.673531 0.853976
Si Si5 0.405806 0.325634 0.212025
Si Si6 0.575223 0.165984 0.497199
Si Si7 0.968338 0.171192 0.360419
Si Si8 0.819282 0.828553 0.365047
O O1 0.043487 0.500000 0.965793
O O2 0.058771 0.241358 0.930172
O O3 0.157394 0.310647 0.059239
O O4 0.000000 0.267875 0.000000
O O5 0.306449 0.500000 0.759783
O O6 0.300704 0.729239 0.819992
O O7 0.414742 0.717923 0.805189
O O8 0.265618 0.751507 0.695650
O O9 0.772077 0.500000 0.835621
O O10 0.689399 0.724491 0.836713
O O11 0.522056 0.500000 0.863612
O O12 0.549926 0.739023 0.818894
O O13 0.410816 0.500000 0.214306
O O14 0.452753 0.268627 0.290907
O O15 0.500000 0.169094 0.500000
O O16 0.545658 0.239935 0.425119
O O17 0.650463 0.257908 0.561988
O O18 0.604705 0.000000 0.500712
O O19 0.884943 0.199873 0.350994
O O20 0.991801 0.000000 0.374179
O O21 0.803930 0.000000 0.366991
#
# Coordination Sequence:
#
# PCOD8081831 Si02
#       8
#     8   8   8   8   8   8   8   8
#     4  10  20  34  55  79 105 135 173 219 263 309
#     4  11  21  32  50  78 107 135 170 217 267 309
#     4  10  19  35  57  77  99 137 179 215 257 310
#     4  10  22  37  54  76 106 140 173 213 264 319
#     4   9  18  35  55  76 103 139 179 214 255 311
#     4   9  17  28  44  73 111 140 164 210 266 307
#     4   9  16  29  51  74  99 136 177 211 250 308
#     4  10  18  30  51  77 102 136 178 217 254 305
#
# _framework density 17.858276
#
# number of rings (size 3 to 8) (size 9 to 14) (size 15 to 20)
#    0.000    2.250    2.500    1.125    0.000    3.750 
#    0.000    1.250    0.000    0.750    0.000    0.000 
#    0.000    0.000    0.000    0.000    0.000    0.000 
#
# Total GULP energy -396857.462108 kJ/mol
# GULP energy per Si atom -12401.795691 kJ/mol
# Density = 1.781763 g / cm^3
# Si number density = 17.858276 Si / 1000 Ang^3
#
#
#
# Elastic Constant Matrix: (Units=GPa)
#
#
# Indices 1 2 3 4 5 6 
#
# 1 104.0779 33.4443 67.3352 0.0000 -3.1309 0.0000
# 2 33.4443 64.4695 54.8394 0.0000 8.5344 0.0000
# 3 67.3352 54.8394 157.7919 0.0000 -0.9690 0.0000
# 4 0.0000 0.0000 0.0000 35.1116 0.0000 0.4258
# 5 -3.1309 8.5344 -0.9690 0.0000 23.2567 0.0000
# 6 0.0000 0.0000 0.0000 0.4258 0.0000 15.0325
#
#
#
# Elastic Compliance Matrix: (Units=1/GPa)
#
#
# Indices 1 2 3 4 5 6 
#
# 1 0.013869 -0.003656 -0.004629 0.000000 0.003016 0.000000
# 2 -0.003656 0.024759 -0.007105 0.000000 -0.009874 0.000000
# 3 -0.004629 -0.007105 0.010797 0.000000 0.002434 0.000000
# 4 0.000000 0.000000 0.000000 0.028490 0.000000 -0.000807
# 5 0.003016 -0.009874 0.002434 0.000000 0.047129 0.000000
# 6 0.000000 0.000000 0.000000 -0.000807 0.000000 0.066545
#
#
# Mechanical properties :
#
#
# Convention : Reuss Voigt Hill
#
# Bulk Modulus (GPa) = 53.63706 70.84193 62.23949
# Shear Modulus (GPa) = 21.87372 26.06153 23.96763
#
# Velocity S-wave (km/s) = 3.50358 3.82429 3.66745
# Velocity P-wave (km/s) = 6.81666 7.69775 7.27056
#
# Compressibility (1/GPa) = 0.01864383
#
# Stress axis : x y z
#
# Youngs Moduli (GPa) = 72.10526 40.38963 92.61739
#
# Poissons Ratio (x) = 0.14767 0.42873
# Poissons Ratio (y) = 0.26363 0.65806
# Poissons Ratio (z) = 0.33378 0.28697
#
# Static dielectric constant tensor:
#      x y z
#    x 3.216760 0.000000 0.041300 
#    y 0.000000 3.228060 0.000000 
#    z 0.041300 0.000000 3.482790 
# 
# 
# High freq. dielectric constant tensor:
#      x y z
#    x 1.659970 0.000000 0.006630 
#    y 0.000000 1.681020 0.000000 
#    z 0.006630 0.000000 1.707800 
# 
# From -- ./inp_files/346053.got.cif
#   From: 2010.06.25/outbox.cif.g09.slc.cpg/sg12_174_cif.got.tgz:346053.got - 2010.06.28 00:19:55.
