data_PCOD8081501
_publ_section_title
;
Structure prediction by ZEFSAII (Michael W. Deem and Ramdas Pophale) SiO2 
 PCOD8081501
Probable space group: C 2/M
;
_chemical_formula_sum "Si O2"
_cell_formula_units_Z 64
_cell_length_a 22.334032
_cell_length_b 16.629502
_cell_length_c 18.502246
_cell_angle_alpha 90.000000
_cell_angle_beta 32.131451
_cell_angle_gamma 90.000000
_cell_volume 3654.862303
_symmetry_space_group_name_H-M "C 2/M"
_symmetry_group_IT_number 12
_symmetry_cell_setting 'monoclinic'
loop_
_space_group_symop_operation_xyz
x,y,z
-x,y,-z
-x,-y,-z
x,-y,z
1/2+x,1/2+y,z
1/2-x,1/2+y,-z
1/2-x,1/2-y,-z
1/2+x,1/2-y,z
loop_
_atom_site_type_symbol
_atom_site_label
_atom_site_fract_x
_atom_site_fract_y
_atom_site_fract_z
Si Si1 0.099239 0.092751 0.674338
Si Si2 0.681237 0.909426 0.948948
Si Si3 0.656029 0.249046 0.895474
Si Si4 0.192727 0.680227 0.147428
Si Si5 0.366487 0.348339 0.854941
Si Si6 0.807294 0.329620 0.413393
Si Si7 0.410049 0.724598 0.196511
Si Si8 0.020344 0.592164 0.248711
O O1 0.209380 0.102717 0.510055
O O2 0.118996 0.145398 0.726825
O O3 0.993694 0.122948 0.735487
O O4 0.083849 0.000000 0.712289
O O5 0.667196 0.847443 0.896439
O O6 0.806680 0.901428 0.853943
O O7 0.663433 0.000000 0.937860
O O8 0.593098 0.887816 0.102540
O O9 0.765574 0.294587 0.815739
O O10 0.651443 0.276527 0.817724
O O11 0.543985 0.275361 0.051884
O O12 0.137818 0.755011 0.161324
O O13 0.092666 0.614406 0.246851
O O14 0.300733 0.642054 0.997397
O O15 0.750000 0.250000 0.500000
O O16 0.865061 0.307734 0.277959
O O17 0.905366 0.357812 0.367147
O O18 0.986563 0.500000 0.286261
#
# Coordination Sequence:
#
# PCOD8081501 Si02
#       8
#     8   8   8   8   8   8   8   8
#     4  11  21  34  53  77 105 137 172 218 257 294
#     4   9  17  29  50  78 105 130 161 218 270 303
#     4  10  18  33  54  73 107 142 168 204 258 319
#     4   9  16  29  51  76 100 136 165 207 261 312
#     4   9  16  28  51  75 102 128 173 209 257 308
#     4  10  20  34  54  72  99 137 179 212 253 300
#     4  10  20  35  51  75 104 141 174 207 247 321
#     4  10  18  30  48  78 107 128 168 223 266 297
#
# _framework density 17.510919999999999
#
# number of rings (size 3 to 8) (size 9 to 14) (size 15 to 20)
#    0.000    2.250    2.500    3.000    0.000    0.500 
#    0.000    4.375    0.000   12.000    0.000    8.750 
#    0.000    0.000    0.000    0.000    0.000    0.000 
#
# Total GULP energy -396547.112946 kJ/mol
# GULP energy per Si atom -12392.097280 kJ/mol
# Density = 1.747106 g / cm^3
# Si number density = 17.510920 Si / 1000 Ang^3
#
#
#
# Elastic Constant Matrix: (Units=GPa)
#
#
# Indices 1 2 3 4 5 6 
#
# 1 99.5696 49.4475 48.5788 0.0000 -21.5684 0.0000
# 2 49.4475 74.8098 28.0881 0.0000 -5.8774 0.0000
# 3 48.5788 28.0881 72.8389 -0.0001 -20.8844 0.0001
# 4 0.0000 0.0000 -0.0001 22.1428 0.0001 -4.0013
# 5 -21.5684 -5.8774 -20.8844 0.0001 27.3765 0.0000
# 6 0.0000 0.0000 0.0001 -4.0013 0.0000 19.4116
#
#
#
# Elastic Compliance Matrix: (Units=1/GPa)
#
#
# Indices 1 2 3 4 5 6 
#
# 1 0.020455 -0.010104 -0.007357 0.000000 0.008335 0.000000
# 2 -0.010104 0.020675 -0.002872 0.000000 -0.005712 0.000000
# 3 -0.007357 -0.002872 0.022917 0.000000 0.011070 0.000000
# 4 0.000000 0.000000 0.000000 0.046909 0.000000 0.009669
# 5 0.008335 -0.005712 0.011070 0.000000 0.050312 0.000000
# 6 0.000000 0.000000 0.000000 0.009669 0.000000 0.053509
#
#
# Mechanical properties :
#
#
# Convention : Reuss Voigt Hill
#
# Bulk Modulus (GPa) = 42.76688 55.49413 49.13051
# Shear Modulus (GPa) = 18.99435 21.85974 20.42705
#
# Velocity S-wave (km/s) = 3.29707 3.53703 3.41916
# Velocity P-wave (km/s) = 6.24262 6.95994 6.61101
#
# Compressibility (1/GPa) = 0.02338258
#
# Stress axis : x y z
#
# Youngs Moduli (GPa) = 48.88687 48.36742 43.63612
#
# Poissons Ratio (x) = 0.48869 0.32101
# Poissons Ratio (y) = 0.49393 0.12533
# Poissons Ratio (z) = 0.35964 0.13892
#
# Static dielectric constant tensor:
#      x y z
#    x 3.112910 0.000000 -0.254950 
#    y 0.000000 3.320390 0.000000 
#    z -0.254950 0.000000 3.315340 
# 
# 
# High freq. dielectric constant tensor:
#      x y z
#    x 1.660850 0.000000 -0.034160 
#    y 0.000000 1.676880 0.000000 
#    z -0.034160 0.000000 1.654240 
# 
# From -- ./inp_files/285196.got.cif
#   From: 2010.06.25/outbox.cif.g09.slc.cpg/sg12_143_cif.got.tgz:285196.got - 2010.06.28 00:19:55.
