data_PCOD8081100
_publ_section_title
;
Structure prediction by ZEFSAII (Michael W. Deem and Ramdas Pophale) SiO2 
 PCOD8081100
Probable space group: C 2/M
;
_chemical_formula_sum "Si O2"
_cell_formula_units_Z 56
_cell_length_a 26.081637
_cell_length_b 8.979695
_cell_length_c 15.188461
_cell_angle_alpha 90.000000
_cell_angle_beta 115.368029
_cell_angle_gamma 90.000000
_cell_volume 3214.209404
_symmetry_space_group_name_H-M "C 2/M"
_symmetry_group_IT_number 12
_symmetry_cell_setting 'monoclinic'
loop_
_space_group_symop_operation_xyz
x,y,z
-x,y,-z
-x,-y,-z
x,-y,z
1/2+x,1/2+y,z
1/2-x,1/2+y,-z
1/2-x,1/2-y,-z
1/2+x,1/2-y,z
loop_
_atom_site_type_symbol
_atom_site_label
_atom_site_fract_x
_atom_site_fract_y
_atom_site_fract_z
Si Si1 0.055370 0.322547 0.990628
Si Si2 0.905335 0.676863 0.669074
Si Si3 0.650133 0.177308 0.191475
Si Si4 0.616525 0.176576 0.689552
Si Si5 0.966289 0.323053 0.219154
Si Si6 0.223528 0.168375 0.729574
Si Si7 0.368122 0.667897 0.469353
O O1 0.053642 0.500000 0.990125
O O2 0.055495 0.261230 0.890961
O O3 0.111540 0.265120 0.082245
O O4 0.000000 0.260654 0.000000
O O5 0.902199 0.500000 0.660084
O O6 0.876019 0.736338 0.736469
O O7 0.871671 0.745853 0.563072
O O8 0.970171 0.733704 0.715436
O O9 0.713783 0.240077 0.225309
O O10 0.651741 0.000000 0.195790
O O11 0.575118 0.236896 0.735277
O O12 0.680940 0.232413 0.758709
O O13 0.595850 0.247615 0.581133
O O14 0.615068 0.000000 0.681041
O O15 0.965769 0.500000 0.216473
O O16 0.197944 0.167247 0.610950
O O17 0.225088 0.000000 0.768508
O O18 0.391309 0.500000 0.497050
#
# Coordination Sequence:
#
# PCOD8081100 Si02
#       7
#     8   8   8   8   8   8   8
#     4   9  14  25  46  75 104 125 149 191 247 293
#     4  10  18  29  49  77 100 123 157 198 247 290
#     4   9  16  28  49  73 100 128 156 195 243 290
#     4   9  17  32  50  68  96 131 162 198 240 278
#     4   9  17  28  46  75 104 123 152 202 247 284
#     4   8  17  33  48  67  98 131 164 197 232 280
#     4   9  19  34  48  67  99 131 165 198 234 284
#
# _framework density 17.422635
#
# number of rings (size 3 to 8) (size 9 to 14) (size 15 to 20)
#    0.857    2.143    1.429    0.429    0.000    1.143 
#    0.000    5.714    0.000    0.000    0.000    5.000 
#    0.000    0.000    0.000    0.000    0.000    0.000 
#
# Total GULP energy -346944.331754 kJ/mol
# GULP energy per Si atom -12390.868991 kJ/mol
# Density = 1.738298 g / cm^3
# Si number density = 17.422635 Si / 1000 Ang^3
#
#
#
# Elastic Constant Matrix: (Units=GPa)
#
#
# Indices 1 2 3 4 5 6 
#
# 1 95.7451 15.1407 11.2737 0.0000 13.0564 0.0000
# 2 15.1407 33.7244 10.6916 0.0000 -0.1453 0.0000
# 3 11.2737 10.6916 66.5309 0.0000 10.5783 0.0000
# 4 0.0000 0.0000 0.0000 11.7280 0.0000 4.3160
# 5 13.0564 -0.1453 10.5783 0.0000 23.7181 0.0000
# 6 0.0000 0.0000 0.0000 4.3160 0.0000 13.2832
#
#
#
# Elastic Compliance Matrix: (Units=1/GPa)
#
#
# Indices 1 2 3 4 5 6 
#
# 1 0.012243 -0.005486 -0.000125 0.000000 -0.006717 0.000000
# 2 -0.005486 0.033854 -0.005407 0.000000 0.005639 0.000000
# 3 -0.000125 -0.005407 0.017130 0.000000 -0.007604 0.000000
# 4 0.000000 0.000000 0.000000 0.096847 0.000000 -0.031468
# 5 -0.006717 0.005639 -0.007604 0.000000 0.049286 0.000000
# 6 0.000000 0.000000 0.000000 -0.031468 0.000000 0.085508
#
#
# Mechanical properties :
#
#
# Convention : Reuss Voigt Hill
#
# Bulk Modulus (GPa) = 24.27771 30.02360 27.15066
# Shear Modulus (GPa) = 15.12252 20.33880 17.73066
#
# Velocity S-wave (km/s) = 2.94935 3.42040 3.19357
# Velocity P-wave (km/s) = 5.05599 5.73313 5.40517
#
# Compressibility (1/GPa) = 0.04119004
#
# Stress axis : x y z
#
# Youngs Moduli (GPa) = 81.68197 29.53896 58.37773
#
# Poissons Ratio (x) = 0.16204 0.00729
# Poissons Ratio (y) = 0.44808 0.31567
# Poissons Ratio (z) = 0.01020 0.15973
#
# Static dielectric constant tensor:
#      x y z
#    x 3.314040 0.000000 0.013950 
#    y 0.000000 2.792380 0.000000 
#    z 0.013950 0.000000 3.270200 
# 
# 
# High freq. dielectric constant tensor:
#      x y z
#    x 1.668570 0.000000 0.001950 
#    y 0.000000 1.630380 0.000000 
#    z 0.001950 0.000000 1.668450 
# 
# From -- ./inp_files/243266.got.cif
#   From: 2010.06.25/outbox.cif.g09.slc.cpg/sg12_122_cif.got.tgz:243266.got - 2010.06.28 00:19:55.
