data_PCOD8081161
_publ_section_title
;
Structure prediction by ZEFSAII (Michael W. Deem and Ramdas Pophale) SiO2 
 PCOD8081161
Probable space group: C 2/M
;
_chemical_formula_sum "Si O2"
_cell_formula_units_Z 56
_cell_length_a 11.192348
_cell_length_b 22.700976
_cell_length_c 23.445907
_cell_angle_alpha 90.000000
_cell_angle_beta 149.717406
_cell_angle_gamma 90.000000
_cell_volume 3003.944216
_symmetry_space_group_name_H-M "C 2/M"
_symmetry_group_IT_number 12
_symmetry_cell_setting 'monoclinic'
loop_
_space_group_symop_operation_xyz
x,y,z
-x,y,-z
-x,-y,-z
x,-y,z
1/2+x,1/2+y,z
1/2-x,1/2+y,-z
1/2-x,1/2-y,-z
1/2+x,1/2-y,z
loop_
_atom_site_type_symbol
_atom_site_label
_atom_site_fract_x
_atom_site_fract_y
_atom_site_fract_z
Si Si1 0.491085 0.933459 0.346043
Si Si2 0.507945 0.110764 0.230157
Si Si3 0.835244 0.791699 0.876790
Si Si4 0.004353 0.065338 0.568758
Si Si5 0.018117 0.872044 0.163401
Si Si6 0.201488 0.338122 0.129143
Si Si7 0.907383 0.431916 0.070516
O O1 0.481046 0.931928 0.273099
O O2 0.741356 0.909608 0.475582
O O3 0.276687 0.896706 0.283144
O O4 0.459546 0.000000 0.352794
O O5 0.409529 0.174909 0.207502
O O6 0.356290 0.083410 0.115625
O O7 0.787675 0.110866 0.326994
O O8 0.774737 0.725513 0.830584
O O9 0.972258 0.820795 0.880084
O O10 0.000000 0.792907 0.000000
O O11 0.000000 0.056821 0.500000
O O12 0.048632 0.000000 0.614461
O O13 0.943659 0.850025 0.195188
O O14 0.831833 0.920728 0.063931
O O15 0.127811 0.390660 0.141468
O O16 0.000000 0.331482 0.000000
O O17 0.979614 0.500000 0.092186
#
# Coordination Sequence:
#
# PCOD8081161 Si02
#       7
#     8   8   8   8   8   8   8
#     4   9  17  29  49  75 102 132 165 203 246 296
#     4  10  18  29  50  78 102 131 160 208 253 291
#     4  10  19  33  51  74 100 129 172 206 251 288
#     4   8  14  27  46  71 101 131 165 198 242 303
#     4  10  20  33  49  75  99 134 166 205 248 295
#     4   9  22  34  50  69  99 142 173 200 231 307
#     4  11  21  32  49  77 109 134 160 202 256 302
#
# _framework density 18.642156
#
# number of rings (size 3 to 8) (size 9 to 14) (size 15 to 20)
#    0.000    2.429    1.429    2.571    2.000    4.857 
#    0.000    2.143    0.000    1.714    7.429    3.000 
#    0.000    0.000    0.000    0.000    0.000    0.000 
#
# Total GULP energy -346929.875959 kJ/mol
# GULP energy per Si atom -12390.352713 kJ/mol
# Density = 1.859973 g / cm^3
# Si number density = 18.642156 Si / 1000 Ang^3
#
#
#
# Elastic Constant Matrix: (Units=GPa)
#
#
# Indices 1 2 3 4 5 6 
#
# 1 69.7269 38.0212 17.9303 0.0004 24.6836 0.0016
# 2 38.0212 129.2255 25.9916 -0.0005 17.2803 0.0006
# 3 17.9303 25.9916 66.7911 -0.0049 28.4199 0.0012
# 4 0.0004 -0.0005 -0.0049 11.5377 0.0023 2.2100
# 5 24.6836 17.2803 28.4199 0.0023 29.6516 0.0009
# 6 0.0016 0.0006 0.0012 2.2100 0.0009 18.5312
#
#
#
# Elastic Compliance Matrix: (Units=1/GPa)
#
#
# Indices 1 2 3 4 5 6 
#
# 1 0.023254 -0.004973 0.004553 0.000005 -0.020824 -0.000002
# 2 -0.004973 0.009617 -0.003013 -0.000001 0.001423 0.000000
# 3 0.004553 -0.003013 0.026661 0.000017 -0.027588 -0.000003
# 4 0.000005 -0.000001 0.000017 0.088699 -0.000027 -0.010578
# 5 -0.020824 0.001423 -0.027588 -0.000027 0.076673 0.000003
# 6 -0.000002 0.000000 -0.000003 -0.010578 0.000003 0.055224
#
#
# Mechanical properties :
#
#
# Convention : Reuss Voigt Hill
#
# Bulk Modulus (GPa) = 18.98708 47.73662 33.36185
# Shear Modulus (GPa) = 16.41761 24.19744 20.30753
#
# Velocity S-wave (km/s) = 2.97083 3.60668 3.30409
# Velocity P-wave (km/s) = 4.68774 6.55794 5.70007
#
# Compressibility (1/GPa) = 0.05266739
#
# Stress axis : x y z
#
# Youngs Moduli (GPa) = 43.00245 103.97851 37.50781
#
# Poissons Ratio (x) = 0.51711 -0.17079
# Poissons Ratio (y) = 0.21386 0.11301
# Poissons Ratio (z) = -0.19581 0.31329
#
# Static dielectric constant tensor:
#      x y z
#    x 3.633830 0.000000 0.393740 
#    y 0.000000 3.492470 -0.000010 
#    z 0.393740 -0.000010 3.631910 
# 
# 
# High freq. dielectric constant tensor:
#      x y z
#    x 1.706850 0.000000 0.019530 
#    y 0.000000 1.710570 0.000000 
#    z 0.019530 0.000000 1.705110 
# 
# From -- ./inp_files/134892.got.cif
#   From: 2010.06.25/outbox.cif.g09.slc.cpg/sg12_68_cif.got.tgz:134892.got - 2010.06.28 00:19:55.
