data_PCOD8081961
_publ_section_title
;
Structure prediction by ZEFSAII (Michael W. Deem and Ramdas Pophale) SiO2 
 PCOD8081961
Probable space group: C 2/M
;
_chemical_formula_sum "Si O2"
_cell_formula_units_Z 56
_cell_length_a 20.873737
_cell_length_b 8.909049
_cell_length_c 18.892297
_cell_angle_alpha 90.000000
_cell_angle_beta 124.132179
_cell_angle_gamma 90.000000
_cell_volume 2908.124932
_symmetry_space_group_name_H-M "C 2/M"
_symmetry_group_IT_number 12
_symmetry_cell_setting 'monoclinic'
loop_
_space_group_symop_operation_xyz
x,y,z
-x,y,-z
-x,-y,-z
x,-y,z
1/2+x,1/2+y,z
1/2-x,1/2+y,-z
1/2-x,1/2-y,-z
1/2+x,1/2-y,z
loop_
_atom_site_type_symbol
_atom_site_label
_atom_site_fract_x
_atom_site_fract_y
_atom_site_fract_z
Si Si1 0.913469 0.670507 0.451163
Si Si2 0.316587 0.823765 0.752668
Si Si3 0.840282 0.666602 0.991371
Si Si4 0.274578 0.322410 0.441602
Si Si5 0.580609 0.323361 0.081858
Si Si6 0.158919 0.833028 0.872948
Si Si7 0.319406 0.170605 0.253344
O O1 0.915056 0.500000 0.481319
O O2 0.859233 0.765767 0.470265
O O3 0.883694 0.675433 0.353147
O O4 0.000000 0.738453 0.500000
O O5 0.289999 0.775678 0.657188
O O6 0.397600 0.746680 0.827357
O O7 0.252353 0.772875 0.768961
O O8 0.326788 0.000000 0.764838
O O9 0.876470 0.500000 0.003989
O O10 0.878769 0.744968 0.084113
O O11 0.854177 0.771817 0.932647
O O12 0.749257 0.652251 0.944084
O O13 0.278610 0.500000 0.452729
O O14 0.250000 0.250000 0.500000
O O15 0.578865 0.500000 0.089649
O O16 0.500000 0.261904 0.000000
O O17 0.140716 0.738714 0.791420
O O18 0.122245 0.000000 0.844191
O O19 0.290917 0.000000 0.222039
#
# Coordination Sequence:
#
# PCOD8081961 Si02
#       7
#     8   8   8   8   8   8   8
#     4   9  19  36  57  83 115 149 185 227 279 337
#     4  10  20  35  55  80 107 141 185 230 273 325
#     4  10  20  33  51  74 102 136 172 214 261 309
#     4  10  21  37  60  88 116 147 190 237 284 340
#     4  11  23  37  54  77 107 143 182 226 273 323
#     4  10  19  31  50  76 105 134 169 217 261 308
#     4  10  18  30  53  80 107 141 179 222 268 321
#
# _framework density 19.256394
#
# number of rings (size 3 to 8) (size 9 to 14) (size 15 to 20)
#    0.000    2.000    1.429    2.571    0.000    4.857 
#    0.000    1.429    0.000    1.714    0.000    0.000 
#    0.000    0.000    0.000    0.000    0.000    0.000 
#
# Total GULP energy -347130.362865 kJ/mol
# GULP energy per Si atom -12397.512959 kJ/mol
# Density = 1.921257 g / cm^3
# Si number density = 19.256394 Si / 1000 Ang^3
#
#
#
# Elastic Constant Matrix: (Units=GPa)
#
#
# Indices 1 2 3 4 5 6 
#
# 1 60.9133 35.9558 56.2464 0.0000 -2.9020 0.0000
# 2 35.9558 90.2072 52.4928 0.0000 -4.3335 0.0000
# 3 56.2464 52.4928 123.8976 0.0000 -7.4769 0.0000
# 4 0.0000 0.0000 0.0000 32.3224 0.0000 -3.6859
# 5 -2.9020 -4.3335 -7.4769 0.0000 35.3844 0.0000
# 6 0.0000 0.0000 0.0000 -3.6859 0.0000 22.8485
#
#
#
# Elastic Compliance Matrix: (Units=1/GPa)
#
#
# Indices 1 2 3 4 5 6 
#
# 1 0.030119 -0.005384 -0.011429 0.000000 -0.000604 0.000000
# 2 -0.005384 0.015684 -0.004165 0.000000 0.000599 0.000000
# 3 -0.011429 -0.004165 0.015130 0.000000 0.001750 0.000000
# 4 0.000000 0.000000 0.000000 0.031518 0.000000 0.005084
# 5 -0.000604 0.000599 0.001750 0.000000 0.028655 0.000000
# 6 0.000000 0.000000 0.000000 0.005084 0.000000 0.044587
#
#
# Mechanical properties :
#
#
# Convention : Reuss Voigt Hill
#
# Bulk Modulus (GPa) = 52.69208 62.71201 57.70205
# Shear Modulus (GPa) = 23.36754 26.79928 25.08341
#
# Velocity S-wave (km/s) = 3.48730 3.73461 3.61307
# Velocity P-wave (km/s) = 6.60590 7.15779 6.88737
#
# Compressibility (1/GPa) = 0.01897818
#
# Stress axis : x y z
#
# Youngs Moduli (GPa) = 33.20159 63.76039 66.09542
#
# Poissons Ratio (x) = 0.34326 0.75539
# Poissons Ratio (y) = 0.17874 0.27527
# Poissons Ratio (z) = 0.37945 0.26554
#
# Static dielectric constant tensor:
#      x y z
#    x 3.214260 0.000000 -0.022520 
#    y 0.000000 3.716630 0.000000 
#    z -0.022520 0.000000 3.750720 
# 
# 
# High freq. dielectric constant tensor:
#      x y z
#    x 1.710750 0.000000 -0.010600 
#    y 0.000000 1.762490 0.000000 
#    z -0.010600 0.000000 1.755150 
# 
# From -- ./inp_files/281624.got.cif
#   From: 2010.06.25/outbox.cif.g09.slc.cpg/sg12_141_cif.got.tgz:281624.got - 2010.06.28 00:19:55.
