data_PCOD8081095
_publ_section_title
;
Structure prediction by ZEFSAII (Michael W. Deem and Ramdas Pophale) SiO2 
 PCOD8081095
Probable space group: C 2/M
;
_chemical_formula_sum "Si O2"
_cell_formula_units_Z 56
_cell_length_a 19.104498
_cell_length_b 8.848961
_cell_length_c 31.380923
_cell_angle_alpha 90.000000
_cell_angle_beta 34.508091
_cell_angle_gamma 90.000000
_cell_volume 3005.459444
_symmetry_space_group_name_H-M "C 2/M"
_symmetry_group_IT_number 12
_symmetry_cell_setting 'monoclinic'
loop_
_space_group_symop_operation_xyz
x,y,z
-x,y,-z
-x,-y,-z
x,-y,z
1/2+x,1/2+y,z
1/2-x,1/2+y,-z
1/2-x,1/2-y,-z
1/2+x,1/2-y,z
loop_
_atom_site_type_symbol
_atom_site_label
_atom_site_fract_x
_atom_site_fract_y
_atom_site_fract_z
Si Si1 0.604727 0.678532 0.692060
Si Si2 0.153722 0.676332 0.579887
Si Si3 0.767739 0.326177 0.058513
Si Si4 0.189062 0.674873 0.733578
Si Si5 0.844968 0.323968 0.811423
Si Si6 0.571388 0.826114 0.098792
Si Si7 0.127939 0.326723 0.297589
O O1 0.605006 0.500000 0.687587
O O2 0.669137 0.748517 0.618241
O O3 0.683510 0.727797 0.693481
O O4 0.465605 0.736924 0.767440
O O5 0.180853 0.500000 0.571102
O O6 0.250000 0.750000 0.500000
O O7 0.017579 0.705822 0.629689
O O8 0.757468 0.500000 0.076693
O O9 0.769063 0.228818 0.101561
O O10 0.648833 0.282997 0.090186
O O11 0.891997 0.293874 0.968922
O O12 0.195757 0.500000 0.717552
O O13 0.311676 0.719727 0.697597
O O14 0.072588 0.709088 0.822725
O O15 0.873159 0.500000 0.802879
O O16 0.815513 0.286208 0.777175
O O17 0.603333 0.000000 0.094499
O O18 0.156294 0.500000 0.294949
#
# Coordination Sequence:
#
# PCOD8081095 Si02
#       7
#     8   8   8   8   8   8   8
#     4  11  21  34  57  85 111 144 185 224 266 324
#     4  10  21  40  64  89 116 144 177 220 267 318
#     4  10  18  29  49  76 102 139 187 233 281 330
#     4  11  21  35  55  80 112 147 183 228 277 325
#     4  10  19  34  53  76 107 143 185 235 280 322
#     4   9  19  32  47  72 108 143 180 231 284 325
#     4   9  21  38  56  79 111 146 179 220 272 326
#
# _framework density 18.632757999999999
#
# number of rings (size 3 to 8) (size 9 to 14) (size 15 to 20)
#    0.000    2.000    1.429    3.857    0.000    4.571 
#    0.000    1.429    0.000    8.571    0.000    0.000 
#    0.000    0.000    0.000    0.000    0.000    0.000 
#
# Total GULP energy -347247.825966 kJ/mol
# GULP energy per Si atom -12401.708070 kJ/mol
# Density = 1.859035 g / cm^3
# Si number density = 18.632758 Si / 1000 Ang^3
#
#
#
# Elastic Constant Matrix: (Units=GPa)
#
#
# Indices 1 2 3 4 5 6 
#
# 1 95.0137 49.6955 44.6242 0.0018 12.9266 0.0128
# 2 49.6955 114.4861 52.4929 0.0054 11.4548 0.0043
# 3 44.6242 52.4929 115.0006 -0.0015 23.4367 -0.0010
# 4 0.0018 0.0054 -0.0015 32.5355 -0.0006 5.4776
# 5 12.9266 11.4548 23.4367 -0.0006 22.4674 0.0013
# 6 0.0128 0.0043 -0.0010 5.4776 0.0013 31.3081
#
#
#
# Elastic Compliance Matrix: (Units=1/GPa)
#
#
# Indices 1 2 3 4 5 6 
#
# 1 0.014821 -0.004776 -0.002958 0.000001 -0.003006 -0.000005
# 2 -0.004776 0.012590 -0.003994 -0.000002 0.000496 0.000000
# 3 -0.002958 -0.003994 0.013849 0.000001 -0.010708 0.000003
# 4 0.000001 -0.000002 0.000001 0.031668 0.000001 -0.005541
# 5 -0.003006 0.000496 -0.010708 0.000001 0.057156 -0.000002
# 6 -0.000005 0.000000 0.000003 -0.005541 -0.000002 0.032910
#
#
# Mechanical properties :
#
#
# Convention : Reuss Voigt Hill
#
# Bulk Modulus (GPa) = 56.17323 68.68063 62.42693
# Shear Modulus (GPa) = 25.98932 29.10806 27.54869
#
# Velocity S-wave (km/s) = 3.73878 3.95675 3.84931
# Velocity P-wave (km/s) = 6.98935 7.60360 7.30293
#
# Compressibility (1/GPa) = 0.01780208
#
# Stress axis : x y z
#
# Youngs Moduli (GPa) = 67.46981 79.42917 72.20708
#
# Poissons Ratio (x) = 0.37939 0.21361
# Poissons Ratio (y) = 0.32226 0.28842
# Poissons Ratio (z) = 0.19960 0.31727
#
# Static dielectric constant tensor:
#      x y z
#    x 3.159310 -0.000010 0.239010 
#    y -0.000010 3.472500 0.000000 
#    z 0.239010 0.000000 3.532420 
# 
# 
# High freq. dielectric constant tensor:
#      x y z
#    x 1.699650 0.000000 0.021800 
#    y 0.000000 1.734460 0.000000 
#    z 0.021800 0.000000 1.720360 
# 
# From -- ./inp_files/377642.got.cif
#   From: 2010.06.25/outbox.cif.g09.slc.cpg/sg12_189_cif.got.tgz:377642.got - 2010.06.28 00:19:55.
