data_PCOD8081483
_publ_section_title
;
Structure prediction by ZEFSAII (Michael W. Deem and Ramdas Pophale) SiO2 
 PCOD8081483
Probable space group: C 2/M
;
_chemical_formula_sum "Si O2"
_cell_formula_units_Z 56
_cell_length_a 20.476407
_cell_length_b 8.867586
_cell_length_c 26.652491
_cell_angle_alpha 90.000000
_cell_angle_beta 39.292938
_cell_angle_gamma 90.000000
_cell_volume 3064.760233
_symmetry_space_group_name_H-M "C 2/M"
_symmetry_group_IT_number 12
_symmetry_cell_setting 'monoclinic'
loop_
_space_group_symop_operation_xyz
x,y,z
-x,y,-z
-x,-y,-z
x,-y,z
1/2+x,1/2+y,z
1/2-x,1/2+y,-z
1/2-x,1/2-y,-z
1/2+x,1/2-y,z
loop_
_atom_site_type_symbol
_atom_site_label
_atom_site_fract_x
_atom_site_fract_y
_atom_site_fract_z
Si Si1 0.293611 0.821102 0.826896
Si Si2 0.421991 0.678699 0.088167
Si Si3 0.546419 0.677717 0.818381
Si Si4 0.678886 0.677671 0.083610
Si Si5 0.685608 0.822523 0.493942
Si Si6 0.013859 0.676452 0.665993
Si Si7 0.165868 0.321300 0.662152
O O1 0.194922 0.769914 0.853484
O O2 0.285184 0.743288 0.885278
O O3 0.396904 0.761343 0.737161
O O4 0.294869 0.000000 0.834197
O O5 0.431484 0.500000 0.081372
O O6 0.452408 0.738448 0.125173
O O7 0.500000 0.747157 0.000000
O O8 0.566508 0.500000 0.804738
O O9 0.438617 0.723603 0.857522
O O10 0.637472 0.759484 0.733784
O O11 0.693657 0.500000 0.074020
O O12 0.750000 0.750000 0.000000
O O13 0.750000 0.750000 0.500000
O O14 0.565957 0.788530 0.580567
O O15 0.721237 0.744503 0.420809
O O16 0.706549 0.000000 0.478444
O O17 0.010743 0.500000 0.677061
O O18 0.081841 0.741760 0.671816
O O19 0.172758 0.500000 0.659226
#
# Coordination Sequence:
#
# PCOD8081483 Si02
#       7
#     8   8   8   8   8   8   8
#     4  10  18  33  55  75 101 133 167 211 257 304
#     4   9  18  33  53  75 100 133 172 210 253 308
#     4  10  20  34  52  76 102 133 172 212 254 305
#     4  11  22  34  51  75 102 131 166 211 260 307
#     4   9  16  27  44  71 105 136 167 205 252 307
#     4   8  15  27  46  73 101 129 163 204 251 298
#     4  10  18  30  48  74 104 134 169 209 257 304
#
# _framework density 18.272227000000001
#
# number of rings (size 3 to 8) (size 9 to 14) (size 15 to 20)
#    0.000    2.429    1.429    3.000    0.000    2.857 
#    0.000    1.429    0.000    2.571    0.000    6.000 
#    0.000    0.000    0.000    0.000    0.000    0.000 
#
# Total GULP energy -347051.834977 kJ/mol
# GULP energy per Si atom -12394.708392 kJ/mol
# Density = 1.823064 g / cm^3
# Si number density = 18.272227 Si / 1000 Ang^3
#
#
#
# Elastic Constant Matrix: (Units=GPa)
#
#
# Indices 1 2 3 4 5 6 
#
# 1 60.9499 18.9331 23.3598 0.0005 6.7350 -0.0008
# 2 18.9331 48.9363 37.2717 -0.0003 4.8407 0.0035
# 3 23.3598 37.2717 147.0753 -0.0002 14.3197 -0.0004
# 4 0.0005 -0.0003 -0.0002 28.5658 -0.0002 6.2878
# 5 6.7350 4.8407 14.3197 -0.0002 27.7477 0.0004
# 6 -0.0008 0.0035 -0.0004 6.2878 0.0004 16.9370
#
#
#
# Elastic Compliance Matrix: (Units=1/GPa)
#
#
# Indices 1 2 3 4 5 6 
#
# 1 0.019111 -0.006207 -0.001175 -0.000001 -0.002949 0.000003
# 2 -0.006207 0.027374 -0.005931 0.000002 -0.000208 -0.000007
# 3 -0.001175 -0.005931 0.008803 0.000000 -0.003223 0.000002
# 4 -0.000001 0.000002 0.000000 0.038122 0.000001 -0.014153
# 5 -0.002949 -0.000208 -0.003223 0.000001 0.038454 -0.000001
# 6 0.000003 -0.000007 0.000002 -0.014153 -0.000001 0.064296
#
#
# Mechanical properties :
#
#
# Convention : Reuss Voigt Hill
#
# Bulk Modulus (GPa) = 34.89018 46.23229 40.56124
# Shear Modulus (GPa) = 21.52002 26.47655 23.99828
#
# Velocity S-wave (km/s) = 3.43555 3.81071 3.62798
# Velocity P-wave (km/s) = 5.90538 6.68722 6.30842
#
# Compressibility (1/GPa) = 0.02866136
#
# Stress axis : x y z
#
# Youngs Moduli (GPa) = 52.32470 36.53097 113.60143
#
# Poissons Ratio (x) = 0.22675 0.13351
# Poissons Ratio (y) = 0.32479 0.67376
# Poissons Ratio (z) = 0.06150 0.21666
#
# Static dielectric constant tensor:
#      x y z
#    x 3.196360 0.000000 -0.038720 
#    y 0.000000 3.152400 -0.000010 
#    z -0.038720 -0.000010 3.978540 
# 
# 
# High freq. dielectric constant tensor:
#      x y z
#    x 1.668830 0.000000 0.006650 
#    y 0.000000 1.685090 0.000000 
#    z 0.006650 0.000000 1.733620 
# 
# From -- ./inp_files/362995.got.cif
#   From: 2010.06.25/outbox.cif.g09.slc.cpg/sg12_182_cif.got.tgz:362995.got - 2010.06.28 00:19:55.
