data_PCOD8081842
_publ_section_title
;
Structure prediction by ZEFSAII (Michael W. Deem and Ramdas Pophale) SiO2 
 PCOD8081842
Probable space group: C 2/M
;
_chemical_formula_sum "Si O2"
_cell_formula_units_Z 48
_cell_length_a 18.000887
_cell_length_b 19.422772
_cell_length_c 8.681337
_cell_angle_alpha 90.000000
_cell_angle_beta 61.730279
_cell_angle_gamma 90.000000
_cell_volume 2673.212135
_symmetry_space_group_name_H-M "C 2/M"
_symmetry_group_IT_number 12
_symmetry_cell_setting 'monoclinic'
loop_
_space_group_symop_operation_xyz
x,y,z
-x,y,-z
-x,-y,-z
x,-y,z
1/2+x,1/2+y,z
1/2-x,1/2+y,-z
1/2-x,1/2-y,-z
1/2+x,1/2-y,z
loop_
_atom_site_type_symbol
_atom_site_label
_atom_site_fract_x
_atom_site_fract_y
_atom_site_fract_z
Si Si1 0.365944 0.760106 0.982625
Si Si2 0.410342 0.176234 0.633009
Si Si3 0.722471 0.352516 0.138341
Si Si4 0.247241 0.421978 0.182961
Si Si5 0.586882 0.322976 0.496603
Si Si6 0.585567 0.645733 0.854178
O O1 0.307707 0.818091 0.121483
O O2 0.417592 0.721854 0.065127
O O3 0.422733 0.797123 0.796747
O O4 0.311862 0.701303 0.953138
O O5 0.500000 0.141393 0.500000
O O6 0.333118 0.123919 0.687360
O O7 0.391645 0.242054 0.541995
O O8 0.659161 0.368074 0.340146
O O9 0.741290 0.419542 0.014849
O O10 0.228221 0.500000 0.250155
O O11 0.331655 0.397805 0.187113
O O12 0.500000 0.341700 0.500000
O O13 0.581475 0.345933 0.676269
O O14 0.500000 0.607935 0.000000
#
# Coordination Sequence:
#
# PCOD8081842 Si02
#       6
#     8   8   8   8   8   8
#     4   8  15  28  47  72  97 122 155 200 253 298
#     4   9  17  32  53  77 105 129 160 205 255 309
#     4   8  15  30  48  66  94 127 161 201 245 293
#     4  10  21  35  50  70 100 141 179 205 237 289
#     4  10  18  30  51  78 103 127 161 210 266 309
#     4  11  20  31  51  77 105 133 164 209 255 297
#
# _framework density 17.955926000000002
#
# number of rings (size 3 to 8) (size 9 to 14) (size 15 to 20)
#    0.000    2.667    0.000    7.000    0.000    3.333 
#    0.000    0.833    0.000    2.000    0.000    0.000 
#    0.000   19.333    0.000    0.000    0.000    0.000 
#
# Total GULP energy -297363.120698 kJ/mol
# GULP energy per Si atom -12390.130029 kJ/mol
# Density = 1.791506 g / cm^3
# Si number density = 17.955926 Si / 1000 Ang^3
#
#
#
# Elastic Constant Matrix: (Units=GPa)
#
#
# Indices 1 2 3 4 5 6 
#
# 1 68.5653 26.9242 28.0450 0.0000 -12.5752 0.0000
# 2 26.9242 54.2263 26.7493 0.0000 -7.0445 0.0000
# 3 28.0450 26.7493 105.5915 0.0000 -10.5291 0.0000
# 4 0.0000 0.0000 0.0000 10.6205 0.0000 -0.0038
# 5 -12.5752 -7.0445 -10.5291 0.0000 37.2750 0.0000
# 6 0.0000 0.0000 0.0000 -0.0038 0.0000 9.9349
#
#
#
# Elastic Compliance Matrix: (Units=1/GPa)
#
#
# Indices 1 2 3 4 5 6 
#
# 1 0.019580 -0.007777 -0.002797 0.000000 0.004346 0.000000
# 2 -0.007777 0.024402 -0.004031 0.000000 0.000849 0.000000
# 3 -0.002797 -0.004031 0.011385 0.000000 0.001511 0.000000
# 4 0.000000 0.000000 0.000000 0.094158 0.000000 0.000036
# 5 0.004346 0.000849 0.001511 0.000000 0.028881 0.000000
# 6 0.000000 0.000000 0.000000 0.000036 0.000000 0.100656
#
#
# Mechanical properties :
#
#
# Convention : Reuss Voigt Hill
#
# Bulk Modulus (GPa) = 38.23285 43.53557 40.88421
# Shear Modulus (GPa) = 15.77336 21.34372 18.55854
#
# Velocity S-wave (km/s) = 2.96708 3.45145 3.21839
# Velocity P-wave (km/s) = 5.75125 6.33891 6.05222
#
# Compressibility (1/GPa) = 0.02615552
#
# Stress axis : x y z
#
# Youngs Moduli (GPa) = 51.07353 40.98065 87.83369
#
# Poissons Ratio (x) = 0.31872 0.24565
# Poissons Ratio (y) = 0.39722 0.35408
# Poissons Ratio (z) = 0.14284 0.16521
#
# Static dielectric constant tensor:
#      x y z
#    x 3.294040 0.000000 -0.210790 
#    y 0.000000 3.040660 0.000000 
#    z -0.210790 0.000000 3.479870 
# 
# 
# High freq. dielectric constant tensor:
#      x y z
#    x 1.685830 0.000000 -0.020250 
#    y 0.000000 1.645180 0.000000 
#    z -0.020250 0.000000 1.705830 
# 
# From -- ./inp_files/75092.got.cif
#   From: 2010.06.25/outbox.cif.g09.slc.cpg/sg12_38_cif.got.tgz:75092.got - 2010.06.28 00:19:55.
