data_PCOD8081832
_publ_section_title
;
Structure prediction by ZEFSAII (Michael W. Deem and Ramdas Pophale) SiO2 
 PCOD8081832
Probable space group: C 2/M
;
_chemical_formula_sum "Si O2"
_cell_formula_units_Z 64
_cell_length_a 18.978120
_cell_length_b 8.906390
_cell_length_c 28.803481
_cell_angle_alpha 90.000000
_cell_angle_beta 46.997034
_cell_angle_gamma 90.000000
_cell_volume 3560.462138
_symmetry_space_group_name_H-M "C 2/M"
_symmetry_group_IT_number 12
_symmetry_cell_setting 'monoclinic'
loop_
_space_group_symop_operation_xyz
x,y,z
-x,y,-z
-x,-y,-z
x,-y,z
1/2+x,1/2+y,z
1/2-x,1/2+y,-z
1/2-x,1/2-y,-z
1/2+x,1/2-y,z
loop_
_atom_site_type_symbol
_atom_site_label
_atom_site_fract_x
_atom_site_fract_y
_atom_site_fract_z
Si Si1 0.229932 0.672610 0.056544
Si Si2 0.975890 0.677016 0.869400
Si Si3 0.883331 0.325242 0.352952
Si Si4 0.134324 0.177538 0.736735
Si Si5 0.668752 0.674407 0.357678
Si Si6 0.665323 0.674138 0.461879
Si Si7 0.971248 0.174392 0.397652
Si Si8 0.434570 0.323368 0.986569
O O1 0.230712 0.500000 0.044080
O O2 0.119546 0.715204 0.119897
O O3 0.250000 0.750000 0.000000
O O4 0.320187 0.708987 0.050544
O O5 0.998006 0.500000 0.859453
O O6 0.064372 0.766232 0.808286
O O7 0.963534 0.731638 0.927833
O O8 0.900611 0.500000 0.336504
O O9 0.899355 0.242638 0.297320
O O10 0.777327 0.292933 0.421530
O O11 0.959968 0.263269 0.354989
O O12 0.241186 0.232755 0.702028
O O13 0.132520 0.000000 0.735118
O O14 0.699640 0.500000 0.348118
O O15 0.639164 0.735118 0.422252
O O16 0.581287 0.698246 0.362304
O O17 0.639676 0.500000 0.474526
O O18 0.598837 0.748008 0.531602
O O19 0.946835 0.000000 0.400392
O O20 0.451551 0.500000 0.969774
O O21 0.500000 0.267166 0.000000
#
# Coordination Sequence:
#
# PCOD8081832 Si02
#       8
#     8   8   8   8   8   8   8   8
#     4   8  15  28  48  74 101 130 162 195 233 278
#     4  10  19  33  54  76 100 133 171 207 245 294
#     4  10  20  34  51  72 101 133 167 210 256 301
#     4  11  22  37  55  72  94 130 177 219 257 304
#     4   9  18  33  52  74 102 134 167 207 256 309
#     4   8  15  29  50  74  99 131 167 203 250 308
#     4  10  18  30  51  77 103 130 163 205 256 312
#     4   9  17  31  52  80 112 138 161 196 242 289
#
# _framework density 17.975194999999999
#
# number of rings (size 3 to 8) (size 9 to 14) (size 15 to 20)
#    0.000    2.625    0.000    3.375    0.000    2.750 
#    0.000    3.750    0.000    8.250    0.000    0.000 
#    0.000    0.000    0.000    0.000    0.000    0.000 
#
# Total GULP energy -396542.805002 kJ/mol
# GULP energy per Si atom -12391.962656 kJ/mol
# Density = 1.793428 g / cm^3
# Si number density = 17.975195 Si / 1000 Ang^3
#
#
#
# Elastic Constant Matrix: (Units=GPa)
#
#
# Indices 1 2 3 4 5 6 
#
# 1 115.6439 46.4486 42.7130 0.0002 -9.3630 0.0009
# 2 46.4486 80.4595 42.5461 -0.0011 -3.3891 0.0012
# 3 42.7130 42.5461 93.3062 0.0002 -4.2006 -0.0002
# 4 0.0002 -0.0011 0.0002 21.5373 -0.0001 0.8972
# 5 -9.3630 -3.3891 -4.2006 -0.0001 14.5819 0.0001
# 6 0.0009 0.0012 -0.0002 0.8972 0.0001 26.6726
#
#
#
# Elastic Compliance Matrix: (Units=1/GPa)
#
#
# Indices 1 2 3 4 5 6 
#
# 1 0.012351 -0.005315 -0.002967 0.000000 0.005840 0.000000
# 2 -0.005315 0.018705 -0.006134 0.000001 -0.000832 -0.000001
# 3 -0.002967 -0.006134 0.014916 0.000000 0.000966 0.000000
# 4 0.000000 0.000001 0.000000 0.046496 0.000000 -0.001564
# 5 0.005840 -0.000832 0.000966 0.000000 0.072413 0.000000
# 6 0.000000 -0.000001 0.000000 -0.001564 0.000000 0.037544
#
#
# Mechanical properties :
#
#
# Convention : Reuss Voigt Hill
#
# Bulk Modulus (GPa) = 58.34258 61.42498 59.88378
# Shear Modulus (GPa) = 21.09960 23.07182 22.08571
#
# Velocity S-wave (km/s) = 3.42982 3.58653 3.50905
# Velocity P-wave (km/s) = 6.94353 7.16919 7.05726
#
# Compressibility (1/GPa) = 0.01714014
#
# Stress axis : x y z
#
# Youngs Moduli (GPa) = 80.96598 53.46085 67.04124
#
# Poissons Ratio (x) = 0.28414 0.19894
# Poissons Ratio (y) = 0.43033 0.41121
# Poissons Ratio (z) = 0.24026 0.32792
#
# Static dielectric constant tensor:
#      x y z
#    x 3.496350 0.000000 -0.314960 
#    y 0.000000 3.325760 0.000000 
#    z -0.314960 0.000000 3.328500 
# 
# 
# High freq. dielectric constant tensor:
#      x y z
#    x 1.696320 0.000000 -0.016890 
#    y 0.000000 1.685500 0.000000 
#    z -0.016890 0.000000 1.680860 
# 
# From -- ./inp_files/378072.got.cif
#   From: 2010.06.25/outbox.cif.g09.slc.cpg/sg12_190_cif.got.tgz:378072.got - 2010.06.28 00:19:55.
