data_PCOD8081032
_publ_section_title
;
Structure prediction by ZEFSAII (Michael W. Deem and Ramdas Pophale) SiO2 
 PCOD8081032
Probable space group: C 2/M
;
_chemical_formula_sum "Si O2"
_cell_formula_units_Z 64
_cell_length_a 32.756849
_cell_length_b 8.959612
_cell_length_c 15.143561
_cell_angle_alpha 90.000000
_cell_angle_beta 134.284200
_cell_angle_gamma 90.000000
_cell_volume 3181.726017
_symmetry_space_group_name_H-M "C 2/M"
_symmetry_group_IT_number 12
_symmetry_cell_setting 'monoclinic'
loop_
_space_group_symop_operation_xyz
x,y,z
-x,y,-z
-x,-y,-z
x,-y,z
1/2+x,1/2+y,z
1/2-x,1/2+y,-z
1/2-x,1/2-y,-z
1/2+x,1/2-y,z
loop_
_atom_site_type_symbol
_atom_site_label
_atom_site_fract_x
_atom_site_fract_y
_atom_site_fract_z
Si Si1 0.540113 0.331672 0.786924
Si Si2 0.892090 0.324971 0.962307
Si Si3 0.734540 0.664417 0.390602
Si Si4 0.152420 0.323605 0.636561
Si Si5 0.062728 0.171678 0.622670
Si Si6 0.602200 0.336864 0.203722
Si Si7 0.089816 0.174048 0.383079
Si Si8 0.737140 0.824581 0.221894
O O1 0.550052 0.500000 0.836830
O O2 0.570645 0.308617 0.739360
O O3 0.473174 0.300914 0.673411
O O4 0.566057 0.217408 0.895749
O O5 0.889742 0.500000 0.945849
O O6 0.918806 0.262015 0.910931
O O7 0.828036 0.268910 0.892099
O O8 0.763939 0.500000 0.428342
O O9 0.750000 0.750000 0.500000
O O10 0.668023 0.640882 0.286094
O O11 0.756141 0.775019 0.347956
O O12 0.156627 0.500000 0.637784
O O13 0.107922 0.277254 0.644151
O O14 0.133346 0.261937 0.511628
O O15 0.214203 0.258467 0.762461
O O16 0.000000 0.224087 0.500000
O O17 0.072588 0.000000 0.607984
O O18 0.571867 0.500000 0.154647
O O19 0.591632 0.263569 0.284537
O O20 0.107388 0.000000 0.409583
O O21 0.742904 0.000000 0.216542
#
# Coordination Sequence:
#
# PCOD8081032 Si02
#       8
#     8   8   8   8   8   8   8   8
#     4  10  21  38  63  87 112 152 196 238 282 339
#     4  10  22  39  59  82 115 155 196 242 289 338
#     4  10  18  29  48  77 110 148 192 240 291 341
#     4  12  24  36  58  92 123 149 183 242 301 348
#     4  10  20  40  65  88 116 152 192 230 280 350
#     4   9  19  34  54  78 110 152 197 239 278 334
#     4  10  20  37  59  86 118 156 199 237 282 346
#     4  10  21  38  57  77 108 155 198 237 287 346
#
# _framework density 20.114868999999999
#
# number of rings (size 3 to 8) (size 9 to 14) (size 15 to 20)
#    0.000    1.875    1.250    3.000    0.000    5.250 
#    0.000    3.125    0.000    0.000    0.000    0.000 
#    0.000    0.000    0.000    0.000    0.000    0.000 
#
# Total GULP energy -396647.943781 kJ/mol
# GULP energy per Si atom -12395.248243 kJ/mol
# Density = 2.006909 g / cm^3
# Si number density = 20.114869 Si / 1000 Ang^3
#
#
#
# Elastic Constant Matrix: (Units=GPa)
#
#
# Indices 1 2 3 4 5 6 
#
# 1 84.7949 22.7016 6.1762 0.0000 -4.3439 0.0000
# 2 22.7016 75.4448 19.9526 0.0000 0.9044 0.0000
# 3 6.1762 19.9526 47.9332 0.0000 -9.1566 0.0000
# 4 0.0000 0.0000 0.0000 25.5442 0.0000 -0.4096
# 5 -4.3439 0.9044 -9.1566 0.0000 26.1454 0.0000
# 6 0.0000 0.0000 0.0000 -0.4096 0.0000 28.8191
#
#
#
# Elastic Compliance Matrix: (Units=1/GPa)
#
#
# Indices 1 2 3 4 5 6 
#
# 1 0.012971 -0.004063 0.000491 0.000000 0.002468 0.000000
# 2 -0.004063 0.016372 -0.006997 0.000000 -0.003692 0.000000
# 3 0.000491 -0.006997 0.025478 0.000000 0.009246 0.000000
# 4 0.000000 0.000000 0.000000 0.039157 0.000000 0.000556
# 5 0.002468 -0.003692 0.009246 0.000000 0.042024 0.000000
# 6 0.000000 0.000000 0.000000 0.000556 0.000000 0.034707
#
#
# Mechanical properties :
#
#
# Convention : Reuss Voigt Hill
#
# Bulk Modulus (GPa) = 29.68699 33.98153 31.83426
# Shear Modulus (GPa) = 24.62166 26.72457 25.67312
#
# Velocity S-wave (km/s) = 3.50244 3.64895 3.57645
# Velocity P-wave (km/s) = 5.58094 5.88927 5.73718
#
# Compressibility (1/GPa) = 0.03368479
#
# Stress axis : x y z
#
# Youngs Moduli (GPa) = 77.09230 61.08055 39.24977
#
# Poissons Ratio (x) = 0.24815 -0.01928
# Poissons Ratio (y) = 0.31320 0.27462
# Poissons Ratio (z) = -0.03786 0.42736
#
# Static dielectric constant tensor:
#      x y z
#    x 3.734450 0.000000 -0.051720 
#    y 0.000000 3.688000 0.000000 
#    z -0.051720 0.000000 3.266170 
# 
# 
# High freq. dielectric constant tensor:
#      x y z
#    x 1.793220 0.000000 0.004130 
#    y 0.000000 1.777530 0.000000 
#    z 0.004130 0.000000 1.767090 
# 
# From -- ./inp_files/249922.got.cif
#   From: 2010.06.25/outbox.cif.g09.slc.cpg/sg12_125_cif.got.tgz:249922.got - 2010.06.28 00:19:55.
