data_PCOD8081394
_publ_section_title
;
Structure prediction by ZEFSAII (Michael W. Deem and Ramdas Pophale) SiO2 
 PCOD8081394
Probable space group: C 2/M
;
_chemical_formula_sum "Si O2"
_cell_formula_units_Z 40
_cell_length_a 20.655303
_cell_length_b 8.995026
_cell_length_c 27.285784
_cell_angle_alpha 90.000000
_cell_angle_beta 30.299099
_cell_angle_gamma 90.000000
_cell_volume 2557.665187
_symmetry_space_group_name_H-M "C 2/M"
_symmetry_group_IT_number 12
_symmetry_cell_setting 'monoclinic'
loop_
_space_group_symop_operation_xyz
x,y,z
-x,y,-z
-x,-y,-z
x,-y,z
1/2+x,1/2+y,z
1/2-x,1/2+y,-z
1/2-x,1/2-y,-z
1/2+x,1/2-y,z
loop_
_atom_site_type_symbol
_atom_site_label
_atom_site_fract_x
_atom_site_fract_y
_atom_site_fract_z
Si Si1 0.125647 0.832765 0.270403
Si Si2 0.779976 0.333642 0.260804
Si Si3 0.365910 0.826548 0.564861
Si Si4 0.632118 0.825049 0.550327
Si Si5 0.125976 0.824548 0.888152
O O1 0.148521 0.837496 0.314385
O O2 0.249857 0.748685 0.165815
O O3 0.997428 0.742318 0.342058
O O4 0.114640 0.000000 0.256177
O O5 0.832639 0.500000 0.235483
O O6 0.750653 0.257547 0.331885
O O7 0.884756 0.239935 0.160570
O O8 0.500000 0.772658 0.500000
O O9 0.358943 0.785752 0.512611
O O10 0.346654 0.000000 0.587012
O O11 0.750000 0.750000 0.500000
O O12 0.632607 0.000000 0.559467
O O13 0.144901 0.000000 0.873516
O O14 0.000000 0.777622 0.000000
#
# Coordination Sequence:
#
# PCOD8081394 Si02
#       5
#     8   8   8   8   8
#     4   9  18  30  45  68  96 124 158 197 237 280
#     4   9  18  27  43  68  94 121 152 194 237 278
#     4  10  18  30  48  67  91 125 161 198 239 281
#     4  11  22  34  49  69  98 133 165 199 237 284
#     4   9  16  27  45  69  97 126 156 195 243 289
#
# _framework density 15.639262
#
# number of rings (size 3 to 8) (size 9 to 14) (size 15 to 20)
#    1.200    1.200    2.000    1.800    0.000    3.600 
#    0.000    0.000    0.000    0.000    0.000    1.400 
#    0.000    0.000    0.000    0.000    0.000    0.000 
#
# Total GULP energy -247822.694388 kJ/mol
# GULP energy per Si atom -12391.134719 kJ/mol
# Density = 1.560367 g / cm^3
# Si number density = 15.639262 Si / 1000 Ang^3
#
#
#
# Elastic Constant Matrix: (Units=GPa)
#
#
# Indices 1 2 3 4 5 6 
#
# 1 66.9467 39.8219 41.5071 0.0000 -8.4268 0.0002
# 2 39.8219 108.6723 73.1394 -0.0001 -6.8025 0.0004
# 3 41.5071 73.1394 131.5365 0.0001 -14.1513 -0.0001
# 4 0.0000 -0.0001 0.0001 21.4303 -0.0002 -3.1354
# 5 -8.4268 -6.8025 -14.1513 -0.0002 18.5872 0.0001
# 6 0.0002 0.0004 -0.0001 -3.1354 0.0001 22.0940
#
#
#
# Elastic Compliance Matrix: (Units=1/GPa)
#
#
# Indices 1 2 3 4 5 6 
#
# 1 0.020542 -0.005137 -0.003078 0.000000 0.005089 0.000000
# 2 -0.005137 0.016004 -0.007514 0.000000 -0.002192 0.000000
# 3 -0.003078 -0.007514 0.013404 0.000000 0.006059 0.000000
# 4 0.000000 0.000000 0.000000 0.047652 0.000000 0.006762
# 5 0.005089 -0.002192 0.006059 0.000000 0.059919 0.000000
# 6 0.000000 0.000000 0.000000 0.006762 0.000000 0.046221
#
#
# Mechanical properties :
#
#
# Convention : Reuss Voigt Hill
#
# Bulk Modulus (GPa) = 54.07829 68.45470 61.26649
# Shear Modulus (GPa) = 20.71562 22.60144 21.65853
#
# Velocity S-wave (km/s) = 3.64344 3.80567 3.72544
# Velocity P-wave (km/s) = 7.23555 7.94839 7.60033
#
# Compressibility (1/GPa) = 0.01849171
#
# Stress axis : x y z
#
# Youngs Moduli (GPa) = 48.68057 62.48380 74.60680
#
# Poissons Ratio (x) = 0.32099 0.22965
# Poissons Ratio (y) = 0.25008 0.56058
# Poissons Ratio (z) = 0.14985 0.46949
#
# Static dielectric constant tensor:
#      x y z
#    x 2.623930 0.000000 -0.004400 
#    y 0.000000 3.046680 0.000000 
#    z -0.004400 0.000000 2.837960 
# 
# 
# High freq. dielectric constant tensor:
#      x y z
#    x 1.550330 0.000000 -0.002630 
#    y 0.000000 1.619040 0.000000 
#    z -0.002630 0.000000 1.589220 
# 
# From -- ./inp_files/313522.got.cif
#   From: 2010.06.25/outbox.cif.g09.slc.cpg/sg12_157_cif.got.tgz:313522.got - 2010.06.28 00:19:55.
