data_PCOD8081696
_publ_section_title
;
Structure prediction by ZEFSAII (Michael W. Deem and Ramdas Pophale) SiO2 
 PCOD8081696
Probable space group: C 2/M
;
_chemical_formula_sum "Si O2"
_cell_formula_units_Z 48
_cell_length_a 20.732810
_cell_length_b 9.136481
_cell_length_c 23.338147
_cell_angle_alpha 90.000000
_cell_angle_beta 38.464847
_cell_angle_gamma 90.000000
_cell_volume 2749.906137
_symmetry_space_group_name_H-M "C 2/M"
_symmetry_group_IT_number 12
_symmetry_cell_setting 'monoclinic'
loop_
_space_group_symop_operation_xyz
x,y,z
-x,y,-z
-x,-y,-z
x,-y,z
1/2+x,1/2+y,z
1/2-x,1/2+y,-z
1/2-x,1/2-y,-z
1/2+x,1/2-y,z
loop_
_atom_site_type_symbol
_atom_site_label
_atom_site_fract_x
_atom_site_fract_y
_atom_site_fract_z
Si Si1 0.045264 0.666498 0.234033
Si Si2 0.603139 0.173587 0.955264
Si Si3 0.494910 0.327203 0.437568
Si Si4 0.350882 0.169439 0.951400
Si Si5 0.856409 0.673011 0.442294
Si Si6 0.823496 0.170873 0.769649
O O1 0.069028 0.500000 0.234288
O O2 0.053901 0.691632 0.159703
O O3 0.133960 0.761154 0.201750
O O4 0.931822 0.709025 0.336298
O O5 0.703099 0.218708 0.846960
O O6 0.591052 0.000000 0.965720
O O7 0.500000 0.245211 0.000000
O O8 0.613993 0.235119 0.012154
O O9 0.500000 0.277831 0.500000
O O10 0.472400 0.500000 0.447511
O O11 0.404007 0.240822 0.467621
O O12 0.606979 0.282734 0.333198
O O13 0.321707 0.000000 0.978012
O O14 0.250000 0.250000 0.000000
O O15 0.839585 0.500000 0.462850
O O16 0.750000 0.750000 0.500000
O O17 0.830684 0.000000 0.774229
#
# Coordination Sequence:
#
# PCOD8081696 Si02
#       6
#     8   8   8   8   8   8
#     4   9  18  31  49  74  98 126 163 202 247 292
#     4   9  17  29  45  70  99 126 158 196 239 285
#     4   9  18  33  52  76 101 130 170 212 252 299
#     4  10  18  30  50  74  97 126 162 202 241 288
#     4  10  20  35  53  75 103 135 167 209 260 305
#     4   9  16  29  50  72  94 128 166 200 241 289
#
# _framework density 17.455143
#
# number of rings (size 3 to 8) (size 9 to 14) (size 15 to 20)
#    0.000    2.667    1.667    0.500    0.000    1.000 
#    3.000    0.000    0.000    2.000    0.000    0.000 
#    0.000    0.000    0.000    0.000    0.000    0.000 
#
# Total GULP energy -297472.358514 kJ/mol
# GULP energy per Si atom -12394.681605 kJ/mol
# Density = 1.741541 g / cm^3
# Si number density = 17.455143 Si / 1000 Ang^3
#
#
#
# Elastic Constant Matrix: (Units=GPa)
#
#
# Indices 1 2 3 4 5 6 
#
# 1 148.7917 40.3661 90.3629 -0.0001 -6.7391 0.0001
# 2 40.3661 38.9241 33.8333 -0.0004 -4.6476 0.0005
# 3 90.3629 33.8333 124.2656 -0.0001 -3.3660 0.0001
# 4 -0.0001 -0.0004 -0.0001 18.4779 0.0001 -0.4305
# 5 -6.7391 -4.6476 -3.3660 0.0001 34.8282 -0.0001
# 6 0.0001 0.0005 0.0001 -0.4305 -0.0001 23.6561
#
#
#
# Elastic Compliance Matrix: (Units=1/GPa)
#
#
# Indices 1 2 3 4 5 6 
#
# 1 0.013411 -0.007002 -0.007822 0.000000 0.000905 0.000000
# 2 -0.007002 0.037771 -0.005106 0.000001 0.003192 -0.000001
# 3 -0.007822 -0.005106 0.015105 0.000000 -0.000735 0.000000
# 4 0.000000 0.000001 0.000000 0.054142 0.000000 0.000985
# 5 0.000905 0.003192 -0.000735 0.000000 0.029242 0.000000
# 6 0.000000 -0.000001 0.000000 0.000985 0.000000 0.042290
#
#
# Mechanical properties :
#
#
# Convention : Reuss Voigt Hill
#
# Bulk Modulus (GPa) = 37.83647 71.23403 54.53525
# Shear Modulus (GPa) = 20.77872 25.22038 22.99955
#
# Velocity S-wave (km/s) = 3.45397 3.80527 3.63387
# Velocity P-wave (km/s) = 6.13433 7.75919 6.99411
#
# Compressibility (1/GPa) = 0.02642953
#
# Stress axis : x y z
#
# Youngs Moduli (GPa) = 74.56305 26.47512 66.20191
#
# Poissons Ratio (x) = 0.18537 0.51781
# Poissons Ratio (y) = 0.52206 0.33803
# Poissons Ratio (z) = 0.58321 0.13518
#
# Static dielectric constant tensor:
#      x y z
#    x 3.307620 0.000000 0.039360 
#    y 0.000000 3.111740 0.000000 
#    z 0.039360 0.000000 3.656570 
# 
# 
# High freq. dielectric constant tensor:
#      x y z
#    x 1.656600 0.000000 0.003040 
#    y 0.000000 1.655870 0.000000 
#    z 0.003040 0.000000 1.689210 
# 
# From -- ./inp_files/229304.got.cif
#   From: 2010.06.25/outbox.cif.g09.slc.cpg/sg12_115_cif.got.tgz:229304.got - 2010.06.28 00:19:55.
