data_PCOD8081529
_publ_section_title
;
Structure prediction by ZEFSAII (Michael W. Deem and Ramdas Pophale) SiO2 
 PCOD8081529
Probable space group: C 2/M
;
_chemical_formula_sum "Si O2"
_cell_formula_units_Z 64
_cell_length_a 24.640871
_cell_length_b 8.825718
_cell_length_c 18.477381
_cell_angle_alpha 90.000000
_cell_angle_beta 59.696431
_cell_angle_gamma 90.000000
_cell_volume 3469.289268
_symmetry_space_group_name_H-M "C 2/M"
_symmetry_group_IT_number 12
_symmetry_cell_setting 'monoclinic'
loop_
_space_group_symop_operation_xyz
x,y,z
-x,y,-z
-x,-y,-z
x,-y,z
1/2+x,1/2+y,z
1/2-x,1/2+y,-z
1/2-x,1/2-y,-z
1/2+x,1/2-y,z
loop_
_atom_site_type_symbol
_atom_site_label
_atom_site_fract_x
_atom_site_fract_y
_atom_site_fract_z
Si Si1 0.486000 0.164220 0.928039
Si Si2 0.092294 0.175803 0.779590
Si Si3 0.867797 0.820809 0.857979
Si Si4 0.339863 0.175250 0.727695
Si Si5 0.199963 0.175366 0.808368
Si Si6 0.996073 0.820208 0.278807
Si Si7 0.461200 0.320209 0.595415
Si Si8 0.156020 0.321697 0.983833
O O1 0.532984 0.294288 0.870462
O O2 0.493358 0.000000 0.881900
O O3 0.500000 0.128178 0.000000
O O4 0.416087 0.227980 0.971843
O O5 0.154897 0.247556 0.775126
O O6 0.068368 0.241178 0.716918
O O7 0.105355 0.000000 0.761919
O O8 0.837127 0.766064 0.804222
O O9 0.941633 0.767233 0.808091
O O10 0.862067 0.000000 0.865873
O O11 0.825243 0.749532 0.950926
O O12 0.272058 0.194869 0.734581
O O13 0.392640 0.243685 0.638978
O O14 0.354701 0.000000 0.733380
O O15 0.192400 0.255018 0.890894
O O16 0.182026 0.000000 0.831419
O O17 0.001153 0.763860 0.358266
O O18 0.994858 0.000000 0.279070
O O19 0.500000 0.264632 0.500000
O O20 0.451775 0.500000 0.602074
O O21 0.167718 0.500000 0.976759
#
# Coordination Sequence:
#
# PCOD8081529 Si02
#       8
#     8   8   8   8   8   8   8   8
#     4  10  19  30  42  65  99 132 170 218 263 296
#     4  10  18  30  49  70  95 132 174 213 252 293
#     4  10  19  33  52  73  98 132 175 220 261 301
#     4  10  21  37  53  74 103 133 167 207 254 307
#     4  10  22  35  48  68  98 139 181 213 248 301
#     4   8  15  28  49  77 101 122 158 206 252 294
#     4   9  18  35  60  86 106 126 157 200 251 309
#     4  11  21  31  47  70  99 136 177 220 265 301
#
# _framework density 18.447582000000001
#
# number of rings (size 3 to 8) (size 9 to 14) (size 15 to 20)
#    0.000    2.250    2.500    1.875    0.000    2.500 
#    0.000    0.000    0.000    0.750    0.000    0.000 
#    0.000    0.000    0.000    0.000    0.000    0.125 
#
# Total GULP energy -396433.903618 kJ/mol
# GULP energy per Si atom -12388.559488 kJ/mol
# Density = 1.840559 g / cm^3
# Si number density = 18.447582 Si / 1000 Ang^3
#
#
#
# Elastic Constant Matrix: (Units=GPa)
#
#
# Indices 1 2 3 4 5 6 
#
# 1 96.2845 23.3846 55.8188 0.0000 -8.3120 0.0000
# 2 23.3846 46.9913 26.8588 -0.0002 -1.9814 -0.0011
# 3 55.8188 26.8588 107.0965 0.0000 5.1040 0.0001
# 4 0.0000 -0.0002 0.0000 19.6510 0.0000 -2.0583
# 5 -8.3120 -1.9814 5.1040 0.0000 20.0113 0.0000
# 6 0.0000 -0.0011 0.0001 -2.0583 0.0000 18.9788
#
#
#
# Elastic Compliance Matrix: (Units=1/GPa)
#
#
# Indices 1 2 3 4 5 6 
#
# 1 0.016763 -0.003197 -0.008353 0.000000 0.008777 0.000000
# 2 -0.003197 0.025788 -0.004919 0.000000 0.002480 0.000002
# 3 -0.008353 -0.004919 0.015299 0.000000 -0.007859 0.000000
# 4 0.000000 0.000000 0.000000 0.051473 0.000000 0.005582
# 5 0.008777 0.002480 -0.007859 0.000000 0.055867 0.000000
# 6 0.000000 0.000002 0.000000 0.005582 0.000000 0.053296
#
#
# Mechanical properties :
#
#
# Convention : Reuss Voigt Hill
#
# Bulk Modulus (GPa) = 40.14346 51.38853 45.76599
# Shear Modulus (GPa) = 19.25093 21.34890 20.29991
#
# Velocity S-wave (km/s) = 3.23390 3.40556 3.32084
# Velocity P-wave (km/s) = 5.97932 6.58641 6.29019
#
# Compressibility (1/GPa) = 0.02491066
#
# Stress axis : x y z
#
# Youngs Moduli (GPa) = 59.65674 38.77802 65.36281
#
# Poissons Ratio (x) = 0.12398 0.54598
# Poissons Ratio (y) = 0.19074 0.32153
# Poissons Ratio (z) = 0.49832 0.19075
#
# Static dielectric constant tensor:
#      x y z
#    x 3.806990 0.000000 0.106890 
#    y 0.000000 3.284130 0.000000 
#    z 0.106890 0.000000 3.188490 
# 
# 
# High freq. dielectric constant tensor:
#      x y z
#    x 1.726680 0.000000 0.005070 
#    y 0.000000 1.704240 0.000000 
#    z 0.005070 0.000000 1.673840 
# 
# From -- ./inp_files/326833.got.cif
#   From: 2010.06.25/outbox.cif.g09.slc.cpg/sg12_164_cif.got.tgz:326833.got - 2010.06.28 00:19:55.
