data_PCOD8081921
_publ_section_title
;
Structure prediction by ZEFSAII (Michael W. Deem and Ramdas Pophale) SiO2 
 PCOD8081921
Probable space group: C 2/M
;
_chemical_formula_sum "Si O2"
_cell_formula_units_Z 64
_cell_length_a 23.957711
_cell_length_b 9.099946
_cell_length_c 19.832228
_cell_angle_alpha 90.000000
_cell_angle_beta 123.296205
_cell_angle_gamma 90.000000
_cell_volume 3613.938266
_symmetry_space_group_name_H-M "C 2/M"
_symmetry_group_IT_number 12
_symmetry_cell_setting 'monoclinic'
loop_
_space_group_symop_operation_xyz
x,y,z
-x,y,-z
-x,-y,-z
x,-y,z
1/2+x,1/2+y,z
1/2-x,1/2+y,-z
1/2-x,1/2-y,-z
1/2+x,1/2-y,z
loop_
_atom_site_type_symbol
_atom_site_label
_atom_site_fract_x
_atom_site_fract_y
_atom_site_fract_z
Si Si1 0.196922 0.169708 0.325194
Si Si2 0.655897 0.170196 0.902055
Si Si3 0.049727 0.673137 0.721422
Si Si4 0.912159 0.831526 0.635310
Si Si5 0.714766 0.827482 0.201984
Si Si6 0.801806 0.829272 0.943074
Si Si7 0.366934 0.332240 0.329696
Si Si8 0.327418 0.671026 0.451242
O O1 0.132030 0.188542 0.327808
O O2 0.182173 0.256227 0.246548
O O3 0.259920 0.235262 0.406838
O O4 0.211763 0.000000 0.318707
O O5 0.596969 0.223715 0.814156
O O6 0.725015 0.200930 0.909917
O O7 0.649273 0.000000 0.917436
O O8 0.651169 0.265566 0.966881
O O9 0.047276 0.500000 0.714145
O O10 0.078114 0.732385 0.669653
O O11 0.976720 0.732788 0.687672
O O12 0.871701 0.776461 0.543162
O O13 0.933894 0.000000 0.639519
O O14 0.680879 0.754917 0.114329
O O15 0.793533 0.793366 0.253594
O O16 0.700026 0.000000 0.193020
O O17 0.817581 0.000000 0.944076
O O18 0.384910 0.500000 0.325508
O O19 0.369794 0.300950 0.411440
O O20 0.307027 0.500000 0.443292
#
# Coordination Sequence:
#
# PCOD8081921 Si02
#       8
#     8   8   8   8   8   8   8   8
#     4  10  20  34  55  80 104 133 173 223 266 304
#     4   9  19  33  48  74 109 140 170 209 256 309
#     4  11  22  35  52  74 106 142 176 215 255 306
#     4  10  22  38  54  74 103 140 179 216 261 315
#     4  10  19  32  53  79 108 140 171 211 262 313
#     4  10  18  30  52  80 108 136 171 213 255 306
#     4   9  18  32  51  74 102 138 173 208 258 312
#     4   9  19  36  56  78 103 134 173 219 267 313
#
# _framework density 17.709212999999998
#
# number of rings (size 3 to 8) (size 9 to 14) (size 15 to 20)
#    0.000    2.250    1.250    2.625    0.000    5.500 
#    0.000    2.500    0.000    0.750    0.000    5.250 
#    0.000    0.000    0.000    0.000    0.000    0.000 
#
# Total GULP energy -396915.624570 kJ/mol
# GULP energy per Si atom -12403.613268 kJ/mol
# Density = 1.766891 g / cm^3
# Si number density = 17.709213 Si / 1000 Ang^3
#
#
#
# Elastic Constant Matrix: (Units=GPa)
#
#
# Indices 1 2 3 4 5 6 
#
# 1 77.1642 43.8602 38.2378 0.0000 -6.9647 0.0000
# 2 43.8602 82.4751 38.1626 0.0000 -10.5176 0.0000
# 3 38.2378 38.1626 69.0792 0.0000 -22.2557 0.0000
# 4 0.0000 0.0000 0.0000 31.0140 0.0000 -1.6639
# 5 -6.9647 -10.5176 -22.2557 0.0000 23.5618 0.0000
# 6 0.0000 0.0000 0.0000 -1.6639 0.0000 29.2053
#
#
#
# Elastic Compliance Matrix: (Units=1/GPa)
#
#
# Indices 1 2 3 4 5 6 
#
# 1 0.021632 -0.007831 -0.009651 0.000000 -0.006217 0.000000
# 2 -0.007831 0.019175 -0.006104 0.000000 0.000479 0.000000
# 3 -0.009651 -0.006104 0.030752 0.000000 0.023470 0.000000
# 4 0.000000 0.000000 0.000000 0.032342 0.000000 0.001843
# 5 -0.006217 0.000479 0.023470 0.000000 0.062986 0.000000
# 6 0.000000 0.000000 0.000000 0.001843 0.000000 0.034345
#
#
# Mechanical properties :
#
#
# Convention : Reuss Voigt Hill
#
# Bulk Modulus (GPa) = 41.00615 52.13775 46.57195
# Shear Modulus (GPa) = 19.49069 23.98673 21.73871
#
# Velocity S-wave (km/s) = 3.32112 3.68432 3.50742
# Velocity P-wave (km/s) = 6.15727 6.89955 6.53895
#
# Compressibility (1/GPa) = 0.02438659
#
# Stress axis : x y z
#
# Youngs Moduli (GPa) = 46.22855 52.15132 32.51858
#
# Poissons Ratio (x) = 0.40840 0.31383
# Poissons Ratio (y) = 0.36202 0.19850
# Poissons Ratio (z) = 0.44614 0.31834
#
# Static dielectric constant tensor:
#      x y z
#    x 3.049800 0.000000 -0.173340 
#    y 0.000000 3.318680 0.000000 
#    z -0.173340 0.000000 3.316050 
# 
# 
# High freq. dielectric constant tensor:
#      x y z
#    x 1.664260 0.000000 -0.020830 
#    y 0.000000 1.692510 0.000000 
#    z -0.020830 0.000000 1.683100 
# 
# From -- ./inp_files/295739.got.cif
#   From: 2010.06.25/outbox.cif.g09.slc.cpg/sg12_148_cif.got.tgz:295739.got - 2010.06.28 00:19:55.
