data_PCOD8081603
_publ_section_title
;
Structure prediction by ZEFSAII (Michael W. Deem and Ramdas Pophale) SiO2 
 PCOD8081603
Probable space group: C 2/M
;
_chemical_formula_sum "Si O2"
_cell_formula_units_Z 56
_cell_length_a 20.658998
_cell_length_b 9.252328
_cell_length_c 22.540996
_cell_angle_alpha 90.000000
_cell_angle_beta 131.848042
_cell_angle_gamma 90.000000
_cell_volume 3209.528065
_symmetry_space_group_name_H-M "C 2/M"
_symmetry_group_IT_number 12
_symmetry_cell_setting 'monoclinic'
loop_
_space_group_symop_operation_xyz
x,y,z
-x,y,-z
-x,-y,-z
x,-y,z
1/2+x,1/2+y,z
1/2-x,1/2+y,-z
1/2-x,1/2-y,-z
1/2+x,1/2-y,z
loop_
_atom_site_type_symbol
_atom_site_label
_atom_site_fract_x
_atom_site_fract_y
_atom_site_fract_z
Si Si1 0.510376 0.330087 0.675683
Si Si2 0.814140 0.670526 0.240454
Si Si3 0.771509 0.329450 0.348900
Si Si4 0.863923 0.171453 0.918828
Si Si5 0.498703 0.328143 0.092017
Si Si6 0.578694 0.328267 0.259518
Si Si7 0.574094 0.330920 0.499892
O O1 0.528517 0.500000 0.690391
O O2 0.601941 0.251171 0.731715
O O3 0.456170 0.271976 0.698842
O O4 0.455468 0.290259 0.584151
O O5 0.829075 0.500000 0.244393
O O6 0.793608 0.715346 0.295315
O O7 0.734552 0.725700 0.150236
O O8 0.778530 0.500000 0.362046
O O9 0.675919 0.271161 0.307193
O O10 0.837812 0.254212 0.434205
O O11 0.924130 0.231880 0.902563
O O12 0.863995 0.000000 0.914284
O O13 0.905297 0.221810 0.007483
O O14 0.502836 0.500000 0.094783
O O15 0.514257 0.269415 0.168160
O O16 0.580321 0.500000 0.259558
O O17 0.500000 0.278420 0.500000
O O18 0.592275 0.500000 0.518847
#
# Coordination Sequence:
#
# PCOD8081603 Si02
#       7
#     8   8   8   8   8   8   8
#     4  10  21  35  50  67  95 133 163 190 234 290
#     4  10  18  30  49  75 100 121 154 200 242 277
#     4  10  19  31  52  76  95 118 156 206 246 273
#     4   8  13  22  42  73 100 120 149 194 239 274
#     4   8  12  22  43  70  98 123 151 191 236 278
#     4   9  17  31  48  70  98 126 158 196 237 281
#     4  10  20  34  49  68  96 128 162 195 232 285
#
# _framework density 17.448049000000001
#
# number of rings (size 3 to 8) (size 9 to 14) (size 15 to 20)
#    0.000    2.714    2.857    0.857    0.000    1.429 
#    0.000    1.429    0.000    0.000    0.000    3.000 
#    0.000    0.000    0.000    0.000    0.000    0.000 
#
# Total GULP energy -347061.311240 kJ/mol
# GULP energy per Si atom -12395.046830 kJ/mol
# Density = 1.740834 g / cm^3
# Si number density = 17.448049 Si / 1000 Ang^3
#
#
#
# Elastic Constant Matrix: (Units=GPa)
#
#
# Indices 1 2 3 4 5 6 
#
# 1 121.8084 19.1293 78.5437 0.0000 -1.0464 0.0000
# 2 19.1293 13.7710 27.2874 0.0000 4.4152 0.0000
# 3 78.5437 27.2874 172.1464 0.0000 5.1231 0.0000
# 4 0.0000 0.0000 0.0000 3.4701 0.0000 3.5335
# 5 -1.0464 4.4152 5.1231 0.0000 32.3255 0.0000
# 6 0.0000 0.0000 0.0000 3.5335 0.0000 15.9914
#
#
#
# Elastic Compliance Matrix: (Units=1/GPa)
#
#
# Indices 1 2 3 4 5 6 
#
# 1 0.012483 -0.009744 -0.004223 0.000000 0.002404 0.000000
# 2 -0.009744 0.118200 -0.013866 0.000000 -0.014263 0.000000
# 3 -0.004223 -0.013866 0.009928 0.000000 0.000184 0.000000
# 4 0.000000 0.000000 0.000000 0.371846 0.000000 -0.082164
# 5 0.002404 -0.014263 0.000184 0.000000 0.032932 0.000000
# 6 0.000000 0.000000 0.000000 -0.082164 0.000000 0.080689
#
#
# Mechanical properties :
#
#
# Convention : Reuss Voigt Hill
#
# Bulk Modulus (GPa) = 11.77216 61.96074 36.86645
# Shear Modulus (GPa) = 7.04167 22.54174 14.79170
#
# Velocity S-wave (km/s) = 2.01111 3.59825 2.91479
# Velocity P-wave (km/s) = 3.48631 7.26993 5.70115
#
# Compressibility (1/GPa) = 0.08494616
#
# Stress axis : x y z
#
# Youngs Moduli (GPa) = 80.10669 8.46022 100.72445
#
# Poissons Ratio (x) = 0.08244 0.42532
# Poissons Ratio (y) = 0.78058 1.39663
# Poissons Ratio (z) = 0.33826 0.11731
#
# Static dielectric constant tensor:
#      x y z
#    x 3.253390 0.000000 -0.032570 
#    y 0.000000 2.743240 0.000000 
#    z -0.032570 0.000000 3.642570 
# 
# 
# High freq. dielectric constant tensor:
#      x y z
#    x 1.661060 0.000000 0.003430 
#    y 0.000000 1.621080 0.000000 
#    z 0.003430 0.000000 1.695360 
# 
# From -- ./inp_files/223381.got.cif
#   From: 2010.06.25/outbox.cif.g09.slc.cpg/sg12_112_cif.got.tgz:223381.got - 2010.06.28 00:19:55.
