data_PCOD8081340
_publ_section_title
;
Structure prediction by ZEFSAII (Michael W. Deem and Ramdas Pophale) SiO2 
 PCOD8081340
Probable space group: C 2/M
;
_chemical_formula_sum "Si O2"
_cell_formula_units_Z 56
_cell_length_a 25.431722
_cell_length_b 8.888398
_cell_length_c 25.802490
_cell_angle_alpha 90.000000
_cell_angle_beta 145.369450
_cell_angle_gamma 90.000000
_cell_volume 3314.554821
_symmetry_space_group_name_H-M "C 2/M"
_symmetry_group_IT_number 12
_symmetry_cell_setting 'monoclinic'
loop_
_space_group_symop_operation_xyz
x,y,z
-x,y,-z
-x,-y,-z
x,-y,z
1/2+x,1/2+y,z
1/2-x,1/2+y,-z
1/2-x,1/2-y,-z
1/2+x,1/2-y,z
loop_
_atom_site_type_symbol
_atom_site_label
_atom_site_fract_x
_atom_site_fract_y
_atom_site_fract_z
Si Si1 0.213736 0.679372 0.085486
Si Si2 0.222403 0.674445 0.402248
Si Si3 0.392071 0.322702 0.602573
Si Si4 0.109749 0.325013 0.214303
Si Si5 0.911146 0.178376 0.212207
Si Si6 0.574047 0.321887 0.893656
Si Si7 0.397630 0.822441 0.907304
O O1 0.208783 0.500000 0.078372
O O2 0.319111 0.739304 0.165882
O O3 0.173195 0.741312 0.107126
O O4 0.156150 0.744940 0.991484
O O5 0.210722 0.500000 0.406525
O O6 0.327729 0.726560 0.501489
O O7 0.149501 0.762883 0.377706
O O8 0.199228 0.705906 0.323225
O O9 0.394648 0.500000 0.610336
O O10 0.497599 0.262764 0.682566
O O11 0.080042 0.500000 0.191984
O O12 0.137563 0.277182 0.178530
O O13 0.024255 0.226738 0.163507
O O14 0.916445 0.236020 0.157482
O O15 0.908713 0.000000 0.210090
O O16 0.583239 0.500000 0.905559
O O17 0.402438 0.000000 0.917618
O O18 0.500000 0.754292 0.000000
#
# Coordination Sequence:
#
# PCOD8081340 Si02
#       7
#     8   8   8   8   8   8   8
#     4  10  19  33  49  63  85 123 160 183 214 265
#     4   9  17  27  45  69  90 116 146 181 222 260
#     4   9  16  29  45  65  94 118 142 178 222 270
#     4  10  18  30  47  68  91 117 152 186 219 262
#     4   9  18  30  46  66  91 122 149 177 222 273
#     4  11  20  30  44  68  95 119 144 182 230 267
#     4   9  16  28  47  66  84 114 155 193 218 248
#
# _framework density 16.895178999999999
#
# number of rings (size 3 to 8) (size 9 to 14) (size 15 to 20)
#    0.000    2.429    2.857    0.857    0.000    0.000 
#    0.000    2.857    0.000    0.857    0.000    6.000 
#    0.000    0.000    0.000    9.714    0.000   10.286 
#
# Total GULP energy -347028.613631 kJ/mol
# GULP energy per Si atom -12393.879058 kJ/mol
# Density = 1.685673 g / cm^3
# Si number density = 16.895179 Si / 1000 Ang^3
#
#
#
# Elastic Constant Matrix: (Units=GPa)
#
#
# Indices 1 2 3 4 5 6 
#
# 1 120.3340 13.0214 80.1955 0.0000 11.2975 0.0000
# 2 13.0214 16.2358 16.2616 0.0000 2.2725 0.0000
# 3 80.1955 16.2616 165.6131 0.0000 7.2285 0.0000
# 4 0.0000 0.0000 0.0000 17.3137 0.0000 -0.3183
# 5 11.2975 2.2725 7.2285 0.0000 26.3941 0.0000
# 6 0.0000 0.0000 0.0000 -0.3183 0.0000 15.2218
#
#
#
# Elastic Compliance Matrix: (Units=1/GPa)
#
#
# Indices 1 2 3 4 5 6 
#
# 1 0.012876 -0.004143 -0.005671 0.000000 -0.003602 0.000000
# 2 -0.004143 0.070083 -0.004746 0.000000 -0.002961 0.000000
# 3 -0.005671 -0.004746 0.009237 0.000000 0.000306 0.000000
# 4 0.000000 0.000000 0.000000 0.057780 0.000000 0.001208
# 5 -0.003602 -0.002961 0.000306 0.000000 0.039600 0.000000
# 6 0.000000 0.000000 0.000000 0.001208 0.000000 0.065720
#
#
# Mechanical properties :
#
#
# Convention : Reuss Voigt Hill
#
# Bulk Modulus (GPa) = 15.85386 57.90443 36.87915
# Shear Modulus (GPa) = 16.36976 24.63289 20.50132
#
# Velocity S-wave (km/s) = 3.11609 3.82250 3.48723
# Velocity P-wave (km/s) = 4.72766 7.33683 6.17171
#
# Compressibility (1/GPa) = 0.06307612
#
# Stress axis : x y z
#
# Youngs Moduli (GPa) = 77.66367 14.26880 108.26099
#
# Poissons Ratio (x) = 0.05911 0.61395
# Poissons Ratio (y) = 0.32174 0.51383
# Poissons Ratio (z) = 0.44043 0.06772
#
# Static dielectric constant tensor:
#      x y z
#    x 3.326310 0.000000 0.125370 
#    y 0.000000 2.914390 0.000000 
#    z 0.125370 0.000000 3.687580 
# 
# 
# High freq. dielectric constant tensor:
#      x y z
#    x 1.630720 0.000000 -0.000250 
#    y 0.000000 1.622690 0.000000 
#    z -0.000250 0.000000 1.662780 
# 
# From -- ./inp_files/243241.got.cif
#   From: 2010.06.25/outbox.cif.g09.slc.cpg/sg12_122_cif.got.tgz:243241.got - 2010.06.28 00:19:55.
