data_PCOD8081260
_publ_section_title
;
Structure prediction by ZEFSAII (Michael W. Deem and Ramdas Pophale) SiO2 
 PCOD8081260
Probable space group: C 2/M
;
_chemical_formula_sum "Si O2"
_cell_formula_units_Z 64
_cell_length_a 25.132557
_cell_length_b 26.023173
_cell_length_c 20.317131
_cell_angle_alpha 90.000000
_cell_angle_beta 162.039914
_cell_angle_gamma 90.000000
_cell_volume 4097.410100
_symmetry_space_group_name_H-M "C 2/M"
_symmetry_group_IT_number 12
_symmetry_cell_setting 'monoclinic'
loop_
_space_group_symop_operation_xyz
x,y,z
-x,y,-z
-x,-y,-z
x,-y,z
1/2+x,1/2+y,z
1/2-x,1/2+y,-z
1/2-x,1/2-y,-z
1/2+x,1/2-y,z
loop_
_atom_site_type_symbol
_atom_site_label
_atom_site_fract_x
_atom_site_fract_y
_atom_site_fract_z
Si Si1 0.101214 0.852536 0.268364
Si Si2 0.771192 0.701561 0.978012
Si Si3 0.266919 0.852537 0.099767
Si Si4 0.984926 0.743164 0.404875
Si Si5 0.010417 0.440512 0.587934
Si Si6 0.355384 0.440512 0.777865
Si Si7 0.642454 0.201560 0.349273
Si Si8 0.145029 0.243166 0.225079
O O1 0.118859 0.909016 0.258673
O O2 0.247467 0.847906 0.497620
O O3 0.127077 0.810526 0.241954
O O4 0.915719 0.843962 0.081442
O O5 0.625618 0.707534 0.750547
O O6 0.750000 0.750000 0.000000
O O7 0.747161 0.652094 0.997005
O O8 0.956716 0.700136 0.163429
O O9 0.397335 0.810528 0.282458
O O10 0.339233 0.909018 0.199416
O O11 0.170858 0.745215 0.591717
O O12 0.000000 0.747807 0.500000
O O13 0.061078 0.500000 0.653760
O O14 0.829011 0.428037 0.408023
O O15 0.000000 0.423489 0.500000
O O16 0.375714 0.500000 0.783029
O O17 0.500000 0.423491 0.000000
O O18 0.750000 0.250000 0.500000
O O19 0.624257 0.207531 0.249188
O O20 0.000000 0.247811 0.000000
#
# Coordination Sequence:
#
# PCOD8081260 Si02
#       8
#     8   8   8   8   8   8   8   8
#     4  11  20  31  46  64  87 117 150 182 219 261
#     4  10  18  30  45  63  86 113 145 180 218 258
#     4  11  20  31  46  64  87 117 150 182 219 261
#     4  11  20  31  45  64  89 117 149 182 218 259
#     4  10  20  33  47  64  87 115 148 186 224 260
#     4  10  20  33  47  64  87 115 148 186 224 260
#     4  10  18  30  45  63  86 113 145 180 218 258
#     4  11  20  31  45  64  89 117 149 182 218 259
#
# _framework density 15.619623000000001
#
# number of rings (size 3 to 8) (size 9 to 14) (size 15 to 20)
#    0.000    1.500    0.000   11.250    0.000    1.500 
#    0.000    0.000    0.000    0.000    0.000    0.000 
#    0.000    1.000    0.000    3.750    0.000    5.750 
#
# Total GULP energy -396782.795156 kJ/mol
# GULP energy per Si atom -12399.462349 kJ/mol
# Density = 1.558407 g / cm^3
# Si number density = 15.619623 Si / 1000 Ang^3
#
#
#
# Elastic Constant Matrix: (Units=GPa)
#
#
# Indices 1 2 3 4 5 6 
#
# 1 103.7927 37.4235 46.7510 -0.0003 7.1639 0.0011
# 2 37.4235 58.2384 35.2095 0.0001 -5.1886 0.0001
# 3 46.7510 35.2095 111.6208 -0.0007 11.1840 0.0026
# 4 -0.0003 0.0001 -0.0007 26.8221 -0.0005 -4.4329
# 5 7.1639 -5.1886 11.1840 -0.0005 39.4690 0.0008
# 6 0.0011 0.0001 0.0026 -4.4329 0.0008 28.7159
#
#
#
# Elastic Compliance Matrix: (Units=1/GPa)
#
#
# Indices 1 2 3 4 5 6 
#
# 1 0.013872 -0.007140 -0.003305 0.000000 -0.002520 0.000000
# 2 -0.007140 0.025823 -0.005789 0.000000 0.006331 0.000001
# 3 -0.003305 -0.005789 0.012542 0.000000 -0.003715 -0.000001
# 4 0.000000 0.000000 0.000000 0.038259 0.000000 0.005906
# 5 -0.002520 0.006331 -0.003715 0.000000 0.027679 0.000000
# 6 0.000000 0.000001 -0.000001 0.005906 0.000000 0.035736
#
#
# Mechanical properties :
#
#
# Convention : Reuss Voigt Hill
#
# Bulk Modulus (GPa) = 50.58929 56.93555 53.76242
# Shear Modulus (GPa) = 25.91097 29.28590 27.59844
#
# Velocity S-wave (km/s) = 4.07734 4.33476 4.20802
# Velocity P-wave (km/s) = 7.39087 7.84754 7.62263
#
# Compressibility (1/GPa) = 0.01976703
#
# Stress axis : x y z
#
# Youngs Moduli (GPa) = 72.08920 38.72492 79.73382
#
# Poissons Ratio (x) = 0.27650 0.26354
# Poissons Ratio (y) = 0.51472 0.46162
# Poissons Ratio (z) = 0.23827 0.22420
#
# Static dielectric constant tensor:
#      x y z
#    x 3.202710 0.000000 -0.046670 
#    y 0.000000 2.921460 0.000000 
#    z -0.046670 0.000000 3.182500 
# 
# 
# High freq. dielectric constant tensor:
#      x y z
#    x 1.607700 0.000000 0.017210 
#    y 0.000000 1.561200 0.000000 
#    z 0.017210 0.000000 1.615040 
# 
# From -- ./inp_files/286723.got.cif
#   From: 2010.06.25/outbox.cif.g09.slc.cpg/sg12_144_cif.got.tgz:286723.got - 2010.06.28 00:19:55.
