data_PCOD8081267
_publ_section_title
;
Structure prediction by ZEFSAII (Michael W. Deem and Ramdas Pophale) SiO2 
 PCOD8081267
Probable space group: C 2/M
;
_chemical_formula_sum "Si O2"
_cell_formula_units_Z 60
_cell_length_a 30.389365
_cell_length_b 25.753267
_cell_length_c 5.266207
_cell_angle_alpha 90.000000
_cell_angle_beta 121.324110
_cell_angle_gamma 90.000000
_cell_volume 3520.722999
_symmetry_space_group_name_H-M "C 2/M"
_symmetry_group_IT_number 12
_symmetry_cell_setting 'monoclinic'
loop_
_space_group_symop_operation_xyz
x,y,z
-x,y,-z
-x,-y,-z
x,-y,z
1/2+x,1/2+y,z
1/2-x,1/2+y,-z
1/2-x,1/2-y,-z
1/2+x,1/2-y,z
loop_
_atom_site_type_symbol
_atom_site_label
_atom_site_fract_x
_atom_site_fract_y
_atom_site_fract_z
Si Si1 0.465282 0.887202 0.645845
Si Si2 0.867919 0.684434 0.353763
Si Si3 0.560463 0.397275 0.431390
Si Si4 0.307869 0.309214 0.673609
Si Si5 0.631517 0.692919 0.644543
Si Si6 0.533476 0.000000 0.350428
Si Si7 0.307005 0.186321 0.671017
Si Si8 0.551711 0.559674 0.905135
O O1 0.500000 0.880266 0.500000
O O2 0.422651 0.843065 0.517951
O O3 0.436686 0.944431 0.560056
O O4 0.500000 0.880266 0.000000
O O5 0.878894 0.745894 0.386697
O O6 0.836403 0.666809 0.507860
O O7 0.836401 0.666811 0.010561
O O8 0.576629 0.336765 0.479885
O O9 0.498855 0.403607 0.246566
O O10 0.584074 0.426157 0.750631
O O11 0.584073 0.426158 0.253818
O O12 0.337427 0.326380 0.508908
O O13 0.303325 0.247721 0.659960
O O14 0.251284 0.335557 0.503851
O O15 0.337424 0.326377 0.015666
O O16 0.500000 0.000000 0.500000
O O17 0.500000 0.000000 0.000000
O O18 0.534273 0.500000 0.852815
#
# Coordination Sequence:
#
# PCOD8081267 Si02
#       8
#     8   8   8   8   8   4   8   8
#     4  10  19  33  48  71  98 132 160 194 230 268
#     4  10  19  31  46  70 100 128 165 185 227 286
#     4  10  18  30  45  67  92 121 149 197 247 281
#     4   9  17  30  47  66  93 127 158 194 245 263
#     4  10  19  30  44  69 102 126 153 198 229 302
#     4   8  16  30  50  66  92 116 156 204 226 250
#     4   9  17  30  49  67  91 126 161 201 226 273
#     4  10  19  33  50  66  89 119 167 215 236 265
#
# _framework density 17.041954
#
# number of rings (size 3 to 8) (size 9 to 14) (size 15 to 20)
#    0.000    2.400    0.000    4.400    0.000    3.200 
#    4.800    0.000    0.000    0.000    0.000    0.000 
#   52.000    0.000    0.000    0.000    0.000    0.000 
#
# Total GULP energy -371688.858796 kJ/mol
# GULP energy per Si atom -12389.628627 kJ/mol
# Density = 1.700317 g / cm^3
# Si number density = 17.041954 Si / 1000 Ang^3
#
#
#
# Elastic Constant Matrix: (Units=GPa)
#
#
# Indices 1 2 3 4 5 6 
#
# 1 94.4162 49.4932 68.6214 0.0000 -12.8198 0.0000
# 2 49.4932 76.2343 44.2772 0.0000 7.0575 0.0000
# 3 68.6214 44.2772 126.5867 0.0000 -30.7227 0.0000
# 4 0.0000 0.0000 0.0000 0.3223 0.0000 1.5356
# 5 -12.8198 7.0575 -30.7227 0.0000 41.8523 0.0000
# 6 0.0000 0.0000 0.0000 1.5356 0.0000 1.4646
#
#
#
# Elastic Compliance Matrix: (Units=1/GPa)
#
#
# Indices 1 2 3 4 5 6 
#
# 1 0.021707 -0.009902 -0.007647 0.000000 0.002705 0.000000
# 2 -0.009902 0.023922 -0.005737 0.000000 -0.011278 0.000000
# 3 -0.007647 -0.005737 0.016692 0.000000 0.010878 0.000000
# 4 0.000000 0.000000 0.000000 -0.776578 0.000000 0.814228
# 5 0.002705 -0.011278 0.010878 0.000000 0.034610 0.000000
# 6 0.000000 0.000000 0.000000 0.814228 0.000000 -0.170913
#
#
# Mechanical properties :
#
#
# Convention : Reuss Voigt Hill
#
# Bulk Modulus (GPa) = 63.49513 69.11342 66.30428
# Shear Modulus (GPa) = -6.25988 17.71753 5.72883
#
# Velocity S-wave (km/s) = -1.91864 3.22785 1.83546
# Velocity P-wave (km/s) = 5.69480 7.38477 6.59415
#
# Compressibility (1/GPa) = 0.01574924
#
# Stress axis : x y z
#
# Youngs Moduli (GPa) = 46.06752 41.80222 59.90835
#
# Poissons Ratio (x) = 0.41391 0.45814
# Poissons Ratio (y) = 0.45615 0.34370
# Poissons Ratio (z) = 0.35229 0.23982
#
# Static dielectric constant tensor:
#      x y z
#    x 3.481450 0.000000 -0.797530 
#    y 0.000000 3.071070 0.000000 
#    z -0.797530 0.000000 4.071000 
# 
# 
# High freq. dielectric constant tensor:
#      x y z
#    x 1.644170 0.000000 -0.037260 
#    y 0.000000 1.627000 0.000000 
#    z -0.037260 0.000000 1.671710 
# 
# From -- ./inp_files/29622.got.cif
#   From: 2010.06.25/outbox.cif.g09.slc.cpg/sg12_15_cif.got.tgz:29622.got - 2010.06.28 00:19:55.
