data_PCOD8081444
_publ_section_title
;
Structure prediction by ZEFSAII (Michael W. Deem and Ramdas Pophale) SiO2 
 PCOD8081444
Probable space group: C 2/M
;
_chemical_formula_sum "Si O2"
_cell_formula_units_Z 48
_cell_length_a 20.673186
_cell_length_b 8.664119
_cell_length_c 16.832192
_cell_angle_alpha 90.000000
_cell_angle_beta 64.090177
_cell_angle_gamma 90.000000
_cell_volume 2711.848342
_symmetry_space_group_name_H-M "C 2/M"
_symmetry_group_IT_number 12
_symmetry_cell_setting 'monoclinic'
loop_
_space_group_symop_operation_xyz
x,y,z
-x,y,-z
-x,-y,-z
x,-y,z
1/2+x,1/2+y,z
1/2-x,1/2+y,-z
1/2-x,1/2-y,-z
1/2+x,1/2-y,z
loop_
_atom_site_type_symbol
_atom_site_label
_atom_site_fract_x
_atom_site_fract_y
_atom_site_fract_z
Si Si1 0.862133 0.324100 0.403178
Si Si2 0.543595 0.180685 0.055051
Si Si3 0.776953 0.320592 0.590567
Si Si4 0.787684 0.179557 0.219241
Si Si5 0.932302 0.819621 0.227133
Si Si6 0.301001 0.681873 0.038690
O O1 0.884435 0.500000 0.375602
O O2 0.853275 0.291708 0.503833
O O3 0.782637 0.293531 0.412317
O O4 0.921321 0.218091 0.327205
O O5 0.499279 0.224878 0.157404
O O6 0.560325 0.000000 0.045384
O O7 0.500000 0.232170 0.000000
O O8 0.617095 0.273575 0.020302
O O9 0.752726 0.500000 0.591210
O O10 0.779654 0.286949 0.684636
O O11 0.861378 0.241545 0.219307
O O12 0.775951 0.251746 0.138151
O O13 0.798970 0.000000 0.199898
O O14 0.946577 0.000000 0.208475
O O15 0.292970 0.500000 0.039765
O O16 0.250000 0.750000 0.000000
#
# Coordination Sequence:
#
# PCOD8081444 Si02
#       6
#     8   8   8   8   8   8
#     4   9  15  23  38  64  97 126 158 203 249 291
#     4  11  22  35  53  78 104 130 169 216 260 304
#     4   8  14  25  40  61  91 129 165 197 244 303
#     4   8  15  28  47  68  93 130 170 204 243 298
#     4  10  18  30  48  70  98 133 170 201 247 306
#     4  11  22  37  54  74 103 138 176 213 255 301
#
# _framework density 17.700105000000001
#
# number of rings (size 3 to 8) (size 9 to 14) (size 15 to 20)
#    0.000    2.500    1.667    3.000    0.000    1.333 
#    0.000    0.833    0.000    0.000    0.000    1.167 
#    0.000    9.333    0.000    0.000    0.000    0.000 
#
# Total GULP energy -297325.121434 kJ/mol
# GULP energy per Si atom -12388.546726 kJ/mol
# Density = 1.765982 g / cm^3
# Si number density = 17.700105 Si / 1000 Ang^3
#
#
#
# Elastic Constant Matrix: (Units=GPa)
#
#
# Indices 1 2 3 4 5 6 
#
# 1 60.5228 16.4846 44.3671 0.0000 5.7359 0.0001
# 2 16.4846 44.7307 24.7441 0.0000 2.2870 0.0001
# 3 44.3671 24.7441 181.1290 0.0000 5.3555 0.0000
# 4 0.0000 0.0000 0.0000 27.0790 0.0000 -3.2609
# 5 5.7359 2.2870 5.3555 0.0000 13.3612 0.0000
# 6 0.0001 0.0001 0.0000 -3.2609 0.0000 18.9206
#
#
#
# Elastic Compliance Matrix: (Units=1/GPa)
#
#
# Indices 1 2 3 4 5 6 
#
# 1 0.021838 -0.005253 -0.004434 0.000000 -0.006699 0.000000
# 2 -0.005253 0.025555 -0.002167 0.000000 -0.001250 0.000000
# 3 -0.004434 -0.002167 0.006918 0.000000 -0.000498 0.000000
# 4 0.000000 0.000000 0.000000 0.037712 0.000000 0.006499
# 5 -0.006699 -0.001250 -0.000498 0.000000 0.078133 0.000000
# 6 0.000000 0.000000 0.000000 0.006499 0.000000 0.053972
#
#
# Mechanical properties :
#
#
# Convention : Reuss Voigt Hill
#
# Bulk Modulus (GPa) = 32.67657 50.84159 41.75908
# Shear Modulus (GPa) = 19.37704 25.25794 22.31749
#
# Velocity S-wave (km/s) = 3.31228 3.78166 3.55472
# Velocity P-wave (km/s) = 5.75583 6.91767 6.36332
#
# Compressibility (1/GPa) = 0.03060297
#
# Stress axis : x y z
#
# Youngs Moduli (GPa) = 45.79078 39.13164 144.55580
#
# Poissons Ratio (x) = 0.20556 0.64090
# Poissons Ratio (y) = 0.24054 0.31330
# Poissons Ratio (z) = 0.20302 0.08481
#
# Static dielectric constant tensor:
#      x y z
#    x 2.591950 0.000000 0.234830 
#    y 0.000000 3.189520 0.000000 
#    z 0.234830 0.000000 3.992950 
# 
# 
# High freq. dielectric constant tensor:
#      x y z
#    x 1.601960 0.000000 -0.001260 
#    y 0.000000 1.680470 0.000000 
#    z -0.001260 0.000000 1.720850 
# 
# From -- ./inp_files/248771.got.cif
#   From: 2010.06.25/outbox.cif.g09.slc.cpg/sg12_125_cif.got.tgz:248771.got - 2010.06.28 00:19:55.
