data_PCOD8081080
_publ_section_title
;
Structure prediction by ZEFSAII (Michael W. Deem and Ramdas Pophale) SiO2 
 PCOD8081080
Probable space group: C 2/M
;
_chemical_formula_sum "Si O2"
_cell_formula_units_Z 56
_cell_length_a 20.975644
_cell_length_b 9.111735
_cell_length_c 15.555510
_cell_angle_alpha 90.000000
_cell_angle_beta 88.918745
_cell_angle_gamma 90.000000
_cell_volume 2972.509839
_symmetry_space_group_name_H-M "C 2/M"
_symmetry_group_IT_number 12
_symmetry_cell_setting 'monoclinic'
loop_
_space_group_symop_operation_xyz
x,y,z
-x,y,-z
-x,-y,-z
x,-y,z
1/2+x,1/2+y,z
1/2-x,1/2+y,-z
1/2-x,1/2-y,-z
1/2+x,1/2-y,z
loop_
_atom_site_type_symbol
_atom_site_label
_atom_site_fract_x
_atom_site_fract_y
_atom_site_fract_z
Si Si1 0.536891 0.671301 0.913734
Si Si2 0.300259 0.831644 0.265834
Si Si3 0.051810 0.667620 0.746788
Si Si4 0.226751 0.338650 0.125278
Si Si5 0.051974 0.172352 0.569775
Si Si6 0.158945 0.840047 0.002727
Si Si7 0.197620 0.172736 0.559473
O O1 0.527462 0.500000 0.894177
O O2 0.515359 0.758260 0.828550
O O3 0.609714 0.715469 0.932136
O O4 0.500000 0.722091 0.000000
O O5 0.373302 0.818370 0.235945
O O6 0.253951 0.774878 0.193080
O O7 0.287442 0.726450 0.345801
O O8 0.282744 0.000000 0.288435
O O9 0.029604 0.500000 0.739690
O O10 0.033628 0.746630 0.658357
O O11 0.212067 0.500000 0.165734
O O12 0.273826 0.358614 0.044628
O O13 0.162923 0.268251 0.084988
O O14 0.124014 0.214590 0.536867
O O15 0.000000 0.220612 0.500000
O O16 0.048248 0.000000 0.588402
O O17 0.135740 0.000000 0.037672
O O18 0.250000 0.250000 0.500000
O O19 0.208002 0.000000 0.552872
#
# Coordination Sequence:
#
# PCOD8081080 Si02
#       7
#     8   8   8   8   8   8   8
#     4  10  20  35  54  74 101 141 184 222 262 314
#     4  10  19  32  52  77 105 137 175 216 262 316
#     4  10  20  33  53  80 108 138 176 224 273 318
#     4  10  18  29  49  74  99 129 166 211 257 301
#     4   9  19  37  61  85 109 143 186 226 269 326
#     4   9  18  31  47  70 100 131 166 210 257 302
#     4  10  20  35  56  82 112 142 176 220 271 325
#
# _framework density 18.839296999999998
#
# number of rings (size 3 to 8) (size 9 to 14) (size 15 to 20)
#    0.000    2.286    1.429    1.714    0.000    3.429 
#    0.000    1.429    0.000    3.429    0.000    0.000 
#    0.000    0.000    0.000    0.000    0.000    0.000 
#
# Total GULP energy -347028.250788 kJ/mol
# GULP energy per Si atom -12393.866100 kJ/mol
# Density = 1.879642 g / cm^3
# Si number density = 18.839297 Si / 1000 Ang^3
#
#
#
# Elastic Constant Matrix: (Units=GPa)
#
#
# Indices 1 2 3 4 5 6 
#
# 1 51.5452 39.5118 50.0250 0.0000 6.1551 0.0000
# 2 39.5118 100.6748 66.0836 0.0000 6.0263 0.0000
# 3 50.0250 66.0836 124.9511 0.0000 6.1262 0.0000
# 4 0.0000 0.0000 0.0000 37.6879 0.0000 2.8504
# 5 6.1551 6.0263 6.1262 0.0000 30.6515 0.0000
# 6 0.0000 0.0000 0.0000 2.8504 0.0000 21.1671
#
#
#
# Elastic Compliance Matrix: (Units=1/GPa)
#
#
# Indices 1 2 3 4 5 6 
#
# 1 0.034970 -0.006792 -0.010230 0.000000 -0.003642 0.000000
# 2 -0.006792 0.016593 -0.006023 0.000000 -0.000695 0.000000
# 3 -0.010230 -0.006023 0.015275 0.000000 0.000185 0.000000
# 4 0.000000 0.000000 0.000000 0.026807 0.000000 -0.003610
# 5 -0.003642 -0.000695 0.000185 0.000000 0.033456 0.000000
# 6 0.000000 0.000000 0.000000 -0.003610 0.000000 0.047729
#
#
# Mechanical properties :
#
#
# Convention : Reuss Voigt Hill
#
# Bulk Modulus (GPa) = 48.19361 65.37909 56.78635
# Shear Modulus (GPa) = 21.94575 26.00467 23.97521
#
# Velocity S-wave (km/s) = 3.41675 3.71933 3.57125
# Velocity P-wave (km/s) = 6.41892 7.29544 6.87117
#
# Compressibility (1/GPa) = 0.02074964
#
# Stress axis : x y z
#
# Youngs Moduli (GPa) = 28.59626 60.26488 65.46688
#
# Poissons Ratio (x) = 0.40929 0.66972
# Poissons Ratio (y) = 0.19421 0.39429
# Poissons Ratio (z) = 0.29254 0.36296
#
# Static dielectric constant tensor:
#      x y z
#    x 3.391090 0.000000 0.051980 
#    y 0.000000 3.688680 0.000000 
#    z 0.051980 0.000000 3.460900 
# 
# 
# High freq. dielectric constant tensor:
#      x y z
#    x 1.705440 0.000000 0.013730 
#    y 0.000000 1.740200 0.000000 
#    z 0.013730 0.000000 1.725100 
# 
# From -- ./inp_files/230849.got.cif
#   From: 2010.06.25/outbox.cif.g09.slc.cpg/sg12_116_cif.got.tgz:230849.got - 2010.06.28 00:19:55.
