data_PCOD8081093
_publ_section_title
;
Structure prediction by ZEFSAII (Michael W. Deem and Ramdas Pophale) SiO2 
 PCOD8081093
Probable space group: C 2/M
;
_chemical_formula_sum "Si O2"
_cell_formula_units_Z 64
_cell_length_a 20.866204
_cell_length_b 8.951304
_cell_length_c 24.619574
_cell_angle_alpha 90.000000
_cell_angle_beta 127.974404
_cell_angle_gamma 90.000000
_cell_volume 3624.882592
_symmetry_space_group_name_H-M "C 2/M"
_symmetry_group_IT_number 12
_symmetry_cell_setting 'monoclinic'
loop_
_space_group_symop_operation_xyz
x,y,z
-x,y,-z
-x,-y,-z
x,-y,z
1/2+x,1/2+y,z
1/2-x,1/2+y,-z
1/2-x,1/2-y,-z
1/2+x,1/2-y,z
loop_
_atom_site_type_symbol
_atom_site_label
_atom_site_fract_x
_atom_site_fract_y
_atom_site_fract_z
Si Si1 0.781113 0.824248 0.961060
Si Si2 0.124226 0.326028 0.814895
Si Si3 0.048526 0.677757 0.972465
Si Si4 0.991366 0.324893 0.829348
Si Si5 0.279183 0.325242 0.460615
Si Si6 0.042363 0.823105 0.468805
Si Si7 0.381395 0.826093 0.679209
Si Si8 0.484369 0.675748 0.322491
O O1 0.716823 0.792654 0.879227
O O2 0.791077 0.000000 0.976851
O O3 0.750000 0.750000 0.000000
O O4 0.863811 0.753241 0.982933
O O5 0.108187 0.500000 0.797335
O O6 0.098532 0.243453 0.745851
O O7 0.066865 0.263444 0.833352
O O8 0.060690 0.500000 0.978924
O O9 0.996807 0.737802 0.893444
O O10 0.000000 0.732193 0.000000
O O11 0.001069 0.500000 0.839706
O O12 0.907297 0.281617 0.754604
O O13 0.286466 0.500000 0.476300
O O14 0.250000 0.250000 0.500000
O O15 0.365938 0.258583 0.487694
O O16 0.213701 0.291192 0.378827
O O17 0.000000 0.752673 0.500000
O O18 0.989665 0.778625 0.388549
O O19 0.047686 0.000000 0.477619
O O20 0.434640 0.735068 0.664178
O O21 0.400848 0.000000 0.679293
O O22 0.481985 0.500000 0.313782
#
# Coordination Sequence:
#
# PCOD8081093 Si02
#       8
#     8   8   8   8   8   8   8   8
#     4  11  21  35  56  80 107 138 178 224 265 316
#     4   9  18  33  52  73 102 136 168 212 261 310
#     4  10  20  35  54  77 110 144 176 218 263 314
#     4   8  14  29  48  70  99 131 167 203 252 306
#     4  10  18  30  50  73  96 127 167 210 248 294
#     4   9  18  32  48  71 105 138 165 203 256 304
#     4   9  17  29  48  71  98 130 166 207 253 309
#     4  10  18  29  49  76 102 128 165 213 254 299
#
# _framework density 17.655745
#
# number of rings (size 3 to 8) (size 9 to 14) (size 15 to 20)
#    0.000    2.500    2.500    1.500    0.000    1.250 
#    0.000    1.250    0.000    7.875    0.000    0.000 
#    0.000    0.000    0.000    0.000    0.000    0.000 
#
# Total GULP energy -396626.352911 kJ/mol
# GULP energy per Si atom -12394.573528 kJ/mol
# Density = 1.761556 g / cm^3
# Si number density = 17.655745 Si / 1000 Ang^3
#
#
#
# Elastic Constant Matrix: (Units=GPa)
#
#
# Indices 1 2 3 4 5 6 
#
# 1 126.9456 32.4149 87.3032 0.0000 -3.3095 0.0000
# 2 32.4149 46.1738 44.1873 0.0000 0.1297 0.0000
# 3 87.3032 44.1873 175.7708 0.0000 -3.9021 0.0000
# 4 0.0000 0.0000 0.0000 25.6938 0.0000 2.3916
# 5 -3.3095 0.1297 -3.9021 0.0000 28.2972 0.0000
# 6 0.0000 0.0000 0.0000 2.3916 0.0000 19.8390
#
#
#
# Elastic Compliance Matrix: (Units=1/GPa)
#
#
# Indices 1 2 3 4 5 6 
#
# 1 0.012445 -0.003739 -0.005225 0.000000 0.000752 0.000000
# 2 -0.003739 0.029677 -0.005633 0.000000 -0.001350 0.000000
# 3 -0.005225 -0.005633 0.009717 0.000000 0.000755 0.000000
# 4 0.000000 0.000000 0.000000 0.039362 0.000000 -0.004745
# 5 0.000752 -0.001350 0.000755 0.000000 0.035537 0.000000
# 6 0.000000 0.000000 0.000000 -0.004745 0.000000 0.050978
#
#
# Mechanical properties :
#
#
# Convention : Reuss Voigt Hill
#
# Bulk Modulus (GPa) = 44.15957 75.18899 59.67428
# Shear Modulus (GPa) = 23.31466 27.09834 25.20650
#
# Velocity S-wave (km/s) = 3.63783 3.92192 3.78255
# Velocity P-wave (km/s) = 6.53535 7.94904 7.27661
#
# Compressibility (1/GPa) = 0.02264515
#
# Stress axis : x y z
#
# Youngs Moduli (GPa) = 80.35547 33.69626 102.91086
#
# Poissons Ratio (x) = 0.12598 0.53766
# Poissons Ratio (y) = 0.30043 0.57975
# Poissons Ratio (z) = 0.41982 0.18983
#
# Static dielectric constant tensor:
#      x y z
#    x 3.216000 0.000000 0.007510 
#    y 0.000000 3.068320 0.000000 
#    z 0.007510 0.000000 3.873450 
# 
# 
# High freq. dielectric constant tensor:
#      x y z
#    x 1.651310 0.000000 0.004120 
#    y 0.000000 1.659000 0.000000 
#    z 0.004120 0.000000 1.705850 
# 
# From -- ./inp_files/365215.got.cif
#   From: 2010.06.25/outbox.cif.g09.slc.cpg/sg12_183_cif.got.tgz:365215.got - 2010.06.28 00:19:55.
