data_PCOD8081016
_publ_section_title
;
Structure prediction by ZEFSAII (Michael W. Deem and Ramdas Pophale) SiO2 
 PCOD8081016
Probable space group: C 2/M
;
_chemical_formula_sum "Si O2"
_cell_formula_units_Z 56
_cell_length_a 17.419806
_cell_length_b 15.383224
_cell_length_c 16.880924
_cell_angle_alpha 90.000000
_cell_angle_beta 42.480443
_cell_angle_gamma 90.000000
_cell_volume 3054.980259
_symmetry_space_group_name_H-M "C 2/M"
_symmetry_group_IT_number 12
_symmetry_cell_setting 'monoclinic'
loop_
_space_group_symop_operation_xyz
x,y,z
-x,y,-z
-x,-y,-z
x,-y,z
1/2+x,1/2+y,z
1/2-x,1/2+y,-z
1/2-x,1/2-y,-z
1/2+x,1/2-y,z
loop_
_atom_site_type_symbol
_atom_site_label
_atom_site_fract_x
_atom_site_fract_y
_atom_site_fract_z
Si Si1 0.437014 0.307208 0.424934
Si Si2 0.420172 0.145214 0.624256
Si Si3 0.744619 0.274990 0.313717
Si Si4 0.352823 0.400498 0.918457
Si Si5 0.469420 0.743955 0.229167
Si Si6 0.882674 0.596206 0.825499
Si Si7 0.843092 0.902759 0.744492
O O1 0.507584 0.228486 0.406487
O O2 0.321484 0.319726 0.561943
O O3 0.407210 0.291209 0.355647
O O4 0.520934 0.389630 0.371077
O O5 0.500000 0.092783 0.500000
O O6 0.304733 0.179556 0.670239
O O7 0.392461 0.089751 0.722734
O O8 0.735554 0.338223 0.245561
O O9 0.876228 0.264817 0.234257
O O10 0.397065 0.500000 0.895272
O O11 0.450173 0.331566 0.867202
O O12 0.312901 0.384228 0.858832
O O13 0.246996 0.380759 0.055795
O O14 0.536843 0.832327 0.196706
O O15 0.914118 0.500000 0.834793
O O16 0.812016 0.000000 0.742741
#
# Coordination Sequence:
#
# PCOD8081016 Si02
#       7
#     8   8   8   8   8   8   8
#     4   8  16  30  48  69  97 137 172 194 235 296
#     4   8  16  32  51  71  96 129 166 198 235 290
#     4  10  18  29  48  75 104 130 159 206 258 293
#     4   9  19  37  56  70  91 130 177 212 241 293
#     4  10  19  32  52  75 102 131 163 207 255 298
#     4  10  20  35  54  73  96 132 171 202 241 302
#     4   9  17  30  49  73 100 132 171 209 245 294
#
# _framework density 18.330722999999999
#
# number of rings (size 3 to 8) (size 9 to 14) (size 15 to 20)
#    0.000    2.857    0.000    3.000    0.000    2.000 
#    0.000    3.571    0.000   16.286    0.000    0.000 
#    0.000    0.000    0.000    0.000    0.000    0.000 
#
# Total GULP energy -347080.423761 kJ/mol
# GULP energy per Si atom -12395.729420 kJ/mol
# Density = 1.828900 g / cm^3
# Si number density = 18.330723 Si / 1000 Ang^3
#
#
#
# Elastic Constant Matrix: (Units=GPa)
#
#
# Indices 1 2 3 4 5 6 
#
# 1 99.7491 48.3552 40.7701 0.0000 -18.0935 0.0000
# 2 48.3552 84.8451 41.9017 0.0000 -10.1017 0.0000
# 3 40.7701 41.9017 108.7539 0.0000 -1.9615 0.0000
# 4 0.0000 0.0000 0.0000 15.2892 0.0000 -0.5855
# 5 -18.0935 -10.1017 -1.9615 0.0000 18.0563 0.0000
# 6 0.0000 0.0000 0.0000 -0.5855 0.0000 13.7116
#
#
#
# Elastic Compliance Matrix: (Units=1/GPa)
#
#
# Indices 1 2 3 4 5 6 
#
# 1 0.016952 -0.006277 -0.003701 0.000000 0.013073 0.000000
# 2 -0.006277 0.017985 -0.004517 0.000000 0.003281 0.000000
# 3 -0.003701 -0.004517 0.012234 0.000000 -0.004906 0.000000
# 4 0.000000 0.000000 0.000000 0.065513 0.000000 0.002797
# 5 0.013073 0.003281 -0.004906 0.000000 0.069785 0.000000
# 6 0.000000 0.000000 0.000000 0.002797 0.000000 0.073050
#
#
# Mechanical properties :
#
#
# Convention : Reuss Voigt Hill
#
# Bulk Modulus (GPa) = 55.00105 61.71133 58.35619
# Shear Modulus (GPa) = 17.20756 20.23285 18.72020
#
# Velocity S-wave (km/s) = 3.06719 3.32590 3.19916
# Velocity P-wave (km/s) = 6.52790 6.96329 6.74911
#
# Compressibility (1/GPa) = 0.01818147
#
# Stress axis : x y z
#
# Youngs Moduli (GPa) = 58.98986 55.60128 81.73750
#
# Poissons Ratio (x) = 0.34902 0.30249
# Poissons Ratio (y) = 0.37030 0.36921
# Poissons Ratio (z) = 0.21830 0.25116
#
# Static dielectric constant tensor:
#      x y z
#    x 3.180550 0.000000 0.272350 
#    y 0.000000 3.355630 0.000000 
#    z 0.272350 0.000000 3.613290 
# 
# 
# High freq. dielectric constant tensor:
#      x y z
#    x 1.684700 0.000000 0.015650 
#    y 0.000000 1.702040 0.000000 
#    z 0.015650 0.000000 1.713170 
# 
# From -- ./inp_files/183551.got.cif
#   From: 2010.06.25/outbox.cif.g09.slc.cpg/sg12_92_cif.got.tgz:183551.got - 2010.06.28 00:19:55.
