data_PCOD8081722
_publ_section_title
;
Structure prediction by ZEFSAII (Michael W. Deem and Ramdas Pophale) SiO2 
 PCOD8081722
Probable space group: C 2/M
;
_chemical_formula_sum "Si O2"
_cell_formula_units_Z 56
_cell_length_a 20.539123
_cell_length_b 9.183689
_cell_length_c 22.672113
_cell_angle_alpha 90.000000
_cell_angle_beta 47.072453
_cell_angle_gamma 90.000000
_cell_volume 3131.338366
_symmetry_space_group_name_H-M "C 2/M"
_symmetry_group_IT_number 12
_symmetry_cell_setting 'monoclinic'
loop_
_space_group_symop_operation_xyz
x,y,z
-x,y,-z
-x,-y,-z
x,-y,z
1/2+x,1/2+y,z
1/2-x,1/2+y,-z
1/2-x,1/2-y,-z
1/2+x,1/2-y,z
loop_
_atom_site_type_symbol
_atom_site_label
_atom_site_fract_x
_atom_site_fract_y
_atom_site_fract_z
Si Si1 0.949941 0.829571 0.398768
Si Si2 0.302287 0.327576 0.171777
Si Si3 0.106132 0.332315 0.679539
Si Si4 0.448911 0.832080 0.156296
Si Si5 0.355038 0.670830 0.678008
Si Si6 0.926149 0.160527 0.995274
Si Si7 0.695742 0.673057 0.420209
O O1 0.946226 0.754610 0.337796
O O2 0.872353 0.766683 0.488762
O O3 0.043039 0.793280 0.371880
O O4 0.937682 0.000000 0.396535
O O5 0.300822 0.500000 0.183632
O O6 0.366944 0.256769 0.180266
O O7 0.204900 0.258801 0.238361
O O8 0.335279 0.292091 0.084525
O O9 0.111001 0.500000 0.657724
O O10 0.051168 0.312474 0.773545
O O11 0.205908 0.269179 0.625351
O O12 0.543971 0.773626 0.073626
O O13 0.437527 0.000000 0.145118
O O14 0.334076 0.500000 0.697180
O O15 0.333524 0.729993 0.625912
O O16 0.915850 0.000000 0.973007
O O17 0.000000 0.155156 0.000000
O O18 0.693238 0.500000 0.420215
#
# Coordination Sequence:
#
# PCOD8081722 Si02
#       7
#     8   8   8   8   8   8   8
#     4  10  21  34  53  77 101 136 175 212 255 304
#     4  10  19  31  49  75 105 135 166 206 258 305
#     4  10  20  34  52  74 106 139 167 209 256 302
#     4  10  18  30  50  76 102 134 172 208 251 299
#     4  10  19  34  54  76 103 134 173 215 253 301
#     4   8  16  29  45  71 105 133 160 204 258 303
#     4   9  17  34  55  75 100 133 173 214 257 301
#
# _framework density 17.883725999999999
#
# number of rings (size 3 to 8) (size 9 to 14) (size 15 to 20)
#    0.000    2.429    1.429    2.571    0.000    6.571 
#    0.000    0.714    0.000    2.571    0.000    0.000 
#    0.000    0.000    0.000    0.000    0.000    0.000 
#
# Total GULP energy -347178.476571 kJ/mol
# GULP energy per Si atom -12399.231306 kJ/mol
# Density = 1.784302 g / cm^3
# Si number density = 17.883726 Si / 1000 Ang^3
#
#
#
# Elastic Constant Matrix: (Units=GPa)
#
#
# Indices 1 2 3 4 5 6 
#
# 1 62.1809 29.5781 26.8286 -0.0001 12.0446 0.0004
# 2 29.5781 64.2074 49.1157 -0.0001 2.2213 0.0007
# 3 26.8286 49.1157 123.7187 -0.0001 0.9817 0.0002
# 4 -0.0001 -0.0001 -0.0001 26.9592 0.0000 2.0293
# 5 12.0446 2.2213 0.9817 0.0000 12.8172 -0.0001
# 6 0.0004 0.0007 0.0002 2.0293 -0.0001 22.9733
#
#
#
# Elastic Compliance Matrix: (Units=1/GPa)
#
#
# Indices 1 2 3 4 5 6 
#
# 1 0.025806 -0.010007 -0.001446 0.000000 -0.022405 0.000000
# 2 -0.010007 0.026379 -0.008346 0.000000 0.005471 0.000000
# 3 -0.001446 -0.008346 0.011694 0.000000 0.001909 0.000000
# 4 0.000000 0.000000 0.000000 0.037341 0.000000 -0.003299
# 5 -0.022405 0.005471 0.001909 0.000000 0.097980 0.000001
# 6 0.000000 0.000000 0.000000 -0.003299 0.000001 0.043820
#
#
# Mechanical properties :
#
#
# Convention : Reuss Voigt Hill
#
# Bulk Modulus (GPa) = 41.18128 51.23909 46.21019
# Shear Modulus (GPa) = 17.19917 22.18893 19.69405
#
# Velocity S-wave (km/s) = 3.10453 3.52623 3.32207
# Velocity P-wave (km/s) = 5.99400 6.72997 6.37262
#
# Compressibility (1/GPa) = 0.02428288
#
# Stress axis : x y z
#
# Youngs Moduli (GPa) = 38.75106 37.90860 85.51081
#
# Poissons Ratio (x) = 0.37935 0.12361
# Poissons Ratio (y) = 0.38778 0.71366
# Poissons Ratio (z) = 0.05602 0.31638
#
# Static dielectric constant tensor:
#      x y z
#    x 2.989070 0.000000 -0.121120 
#    y 0.000000 3.196900 0.000000 
#    z -0.121120 0.000000 3.730210 
# 
# 
# High freq. dielectric constant tensor:
#      x y z
#    x 1.656340 0.000000 -0.005430 
#    y 0.000000 1.678530 0.000000 
#    z -0.005430 0.000000 1.709810 
# 
# From -- ./inp_files/314395.got.cif
#   From: 2010.06.25/outbox.cif.g09.slc.cpg/sg12_158_cif.got.tgz:314395.got - 2010.06.28 00:19:55.
