data_PCOD8081716
_publ_section_title
;
Structure prediction by ZEFSAII (Michael W. Deem and Ramdas Pophale) SiO2 
 PCOD8081716
Probable space group: C 2/M
;
_chemical_formula_sum "Si O2"
_cell_formula_units_Z 64
_cell_length_a 14.231657
_cell_length_b 15.511920
_cell_length_c 16.688170
_cell_angle_alpha 90.000000
_cell_angle_beta 85.566869
_cell_angle_gamma 90.000000
_cell_volume 3673.063868
_symmetry_space_group_name_H-M "C 2/M"
_symmetry_group_IT_number 12
_symmetry_cell_setting 'monoclinic'
loop_
_space_group_symop_operation_xyz
x,y,z
-x,y,-z
-x,-y,-z
x,-y,z
1/2+x,1/2+y,z
1/2-x,1/2+y,-z
1/2-x,1/2-y,-z
1/2+x,1/2-y,z
loop_
_atom_site_type_symbol
_atom_site_label
_atom_site_fract_x
_atom_site_fract_y
_atom_site_fract_z
Si Si1 0.867228 0.250794 0.165648
Si Si2 0.216881 0.185894 0.069816
Si Si3 0.602569 0.595951 0.958151
Si Si4 0.223133 0.267667 0.310277
Si Si5 0.801228 0.900196 0.415956
Si Si6 0.936558 0.237298 0.794680
Si Si7 0.004960 0.096613 0.674885
Si Si8 0.815491 0.096770 0.601464
O O1 0.806111 0.325881 0.124379
O O2 0.877467 0.165931 0.110768
O O3 0.811571 0.217750 0.246760
O O4 0.969806 0.289768 0.183091
O O5 0.129199 0.224515 0.124544
O O6 0.250000 0.250000 0.000000
O O7 0.179308 0.101393 0.026188
O O8 0.610253 0.500000 0.921129
O O9 0.500000 0.614388 0.000000
O O10 0.222945 0.339112 0.380240
O O11 0.123734 0.283570 0.271016
O O12 0.235236 0.170011 0.342501
O O13 0.901133 0.869358 0.374097
O O14 0.797604 0.883187 0.510247
O O15 0.780180 0.000000 0.397614
O O16 0.976705 0.147829 0.756730
O O17 0.926485 0.102002 0.610932
O O18 0.018903 0.000000 0.705044
O O19 0.778077 0.000000 0.626220
#
# Coordination Sequence:
#
# PCOD8081716 Si02
#       8
#     8   8   8   8   8   8   8   8
#     4  10  19  33  50  72 102 135 169 201 249 301
#     4   9  19  32  48  71  98 132 166 195 239 298
#     4  10  19  31  51  78 106 128 154 204 265 311
#     4  10  20  32  50  76 103 139 175 207 257 309
#     4  10  18  30  50  75 104 136 170 211 260 315
#     4  10  18  31  48  71 103 132 168 208 247 301
#     4   9  17  28  46  75 105 129 157 205 268 321
#     4   9  18  32  50  73 103 134 170 218 263 305
#
# _framework density 17.424146
#
# number of rings (size 3 to 8) (size 9 to 14) (size 15 to 20)
#    0.000    2.375    2.500    0.750    0.000    3.000 
#    0.000    1.875    0.000    1.500    0.000    9.625 
#    0.000    0.000    0.000    0.000    0.000    0.000 
#
# Total GULP energy -396510.105501 kJ/mol
# GULP energy per Si atom -12390.940797 kJ/mol
# Density = 1.738449 g / cm^3
# Si number density = 17.424146 Si / 1000 Ang^3
#
#
#
# Elastic Constant Matrix: (Units=GPa)
#
#
# Indices 1 2 3 4 5 6 
#
# 1 110.0532 35.2908 45.1955 0.0000 13.0013 0.0000
# 2 35.2908 67.4254 36.8756 0.0000 4.9861 0.0000
# 3 45.1955 36.8756 87.6967 0.0000 9.2108 0.0000
# 4 0.0000 0.0000 0.0000 24.3268 0.0000 0.3609
# 5 13.0013 4.9861 9.2108 0.0000 27.9135 0.0000
# 6 0.0000 0.0000 0.0000 0.3609 0.0000 18.8427
#
#
#
# Elastic Compliance Matrix: (Units=1/GPa)
#
#
# Indices 1 2 3 4 5 6 
#
# 1 0.012605 -0.003875 -0.004478 0.000000 -0.003701 0.000000
# 2 -0.003875 0.020469 -0.006646 0.000000 0.000342 0.000000
# 3 -0.004478 -0.006646 0.016742 0.000000 -0.002251 0.000000
# 4 0.000000 0.000000 0.000000 0.041119 0.000000 -0.000788
# 5 -0.003701 0.000342 -0.002251 0.000000 0.038231 0.000000
# 6 0.000000 0.000000 0.000000 -0.000788 0.000000 0.053086
#
#
# Mechanical properties :
#
#
# Convention : Reuss Voigt Hill
#
# Bulk Modulus (GPa) = 50.45883 55.54436 53.00159
# Shear Modulus (GPa) = 22.84615 24.07084 23.45850
#
# Velocity S-wave (km/s) = 3.62495 3.72084 3.67321
# Velocity P-wave (km/s) = 6.82219 7.09976 6.96236
#
# Compressibility (1/GPa) = 0.01981814
#
# Stress axis : x y z
#
# Youngs Moduli (GPa) = 79.33110 48.85504 59.73059
#
# Poissons Ratio (x) = 0.18930 0.26749
# Poissons Ratio (y) = 0.30739 0.39696
# Poissons Ratio (z) = 0.35526 0.32468
#
# Static dielectric constant tensor:
#      x y z
#    x 3.511470 0.000000 0.273000 
#    y 0.000000 3.099870 0.000000 
#    z 0.273000 0.000000 3.439690 
# 
# 
# High freq. dielectric constant tensor:
#      x y z
#    x 1.670190 0.000000 0.010850 
#    y 0.000000 1.637330 0.000000 
#    z 0.010850 0.000000 1.691030 
# 
# From -- ./inp_files/269841.got.cif
#   From: 2010.06.25/outbox.cif.g09.slc.cpg/sg12_135_cif.got.tgz:269841.got - 2010.06.28 00:19:55.
