data_PCOD8081147
_publ_section_title
;
Structure prediction by ZEFSAII (Michael W. Deem and Ramdas Pophale) SiO2 
 PCOD8081147
Probable space group: C 2/M
;
_chemical_formula_sum "Si O2"
_cell_formula_units_Z 64
_cell_length_a 18.991524
_cell_length_b 20.489998
_cell_length_c 18.667856
_cell_angle_alpha 90.000000
_cell_angle_beta 31.825254
_cell_angle_gamma 90.000000
_cell_volume 3830.707045
_symmetry_space_group_name_H-M "C 2/M"
_symmetry_group_IT_number 12
_symmetry_cell_setting 'monoclinic'
loop_
_space_group_symop_operation_xyz
x,y,z
-x,y,-z
-x,-y,-z
x,-y,z
1/2+x,1/2+y,z
1/2-x,1/2+y,-z
1/2-x,1/2-y,-z
1/2+x,1/2-y,z
loop_
_atom_site_type_symbol
_atom_site_label
_atom_site_fract_x
_atom_site_fract_y
_atom_site_fract_z
Si Si1 0.572917 0.810473 0.132896
Si Si2 0.617976 0.725529 0.344900
Si Si3 0.407331 0.379657 0.144807
Si Si4 0.634335 0.926327 0.175558
Si Si5 0.926241 0.073784 0.873462
Si Si6 0.408565 0.774124 0.144466
Si Si7 0.371036 0.688994 0.822945
Si Si8 0.883274 0.621463 0.654487
O O1 0.555623 0.877833 0.190996
O O2 0.454485 0.808937 0.177632
O O3 0.558235 0.750248 0.200159
O O4 0.712390 0.806051 0.970324
O O5 0.500000 0.705127 0.500000
O O6 0.756713 0.705003 0.261582
O O7 0.596694 0.688065 0.288942
O O8 0.618109 0.802032 0.327407
O O9 0.449398 0.415254 0.181455
O O10 0.425186 0.302888 0.140634
O O11 0.256024 0.400335 0.259973
O O12 0.500000 0.404600 0.000000
O O13 0.589501 0.916355 0.295695
O O14 0.601280 0.000000 0.180063
O O15 0.792029 0.910989 0.034361
O O16 0.932649 0.122234 0.800571
O O17 0.928358 0.000000 0.842060
O O18 0.500000 0.798453 0.000000
O O19 0.000000 0.601261 0.500000
#
# Coordination Sequence:
#
# PCOD8081147 Si02
#       8
#     8   8   8   8   8   8   8   8
#     4  10  18  30  54  78 101 130 174 214 249 295
#     4  10  20  34  52  78 109 134 165 211 260 303
#     4  10  18  29  50  75 104 134 172 205 247 301
#     4  10  20  33  50  74 106 140 169 206 256 301
#     4  10  20  32  50  78 105 132 170 217 255 293
#     4  10  18  30  52  81 101 130 172 212 251 298
#     4  10  18  31  53  77 101 136 168 210 257 297
#     4  10  20  33  49  74 108 142 170 199 247 311
#
# _framework density 16.707098999999999
#
# number of rings (size 3 to 8) (size 9 to 14) (size 15 to 20)
#    0.000    2.000    5.000    0.000    0.000    1.000 
#    0.000    1.875    0.000    1.500    0.000    0.000 
#    0.000    0.000    0.000    0.000    0.000    0.000 
#
# Total GULP energy -396913.208818 kJ/mol
# GULP energy per Si atom -12403.537776 kJ/mol
# Density = 1.666907 g / cm^3
# Si number density = 16.707099 Si / 1000 Ang^3
#
#
#
# Elastic Constant Matrix: (Units=GPa)
#
#
# Indices 1 2 3 4 5 6 
#
# 1 138.5880 59.7561 55.7358 -0.0017 5.5744 -0.0002
# 2 59.7561 86.8953 35.8639 -0.0032 8.6240 0.0013
# 3 55.7358 35.8639 94.1698 -0.0006 0.4553 -0.0009
# 4 -0.0017 -0.0032 -0.0006 12.3120 -0.0004 2.9866
# 5 5.5744 8.6240 0.4553 -0.0004 24.7867 0.0004
# 6 -0.0002 0.0013 -0.0009 2.9866 0.0004 24.9813
#
#
#
# Elastic Compliance Matrix: (Units=1/GPa)
#
#
# Indices 1 2 3 4 5 6 
#
# 1 0.011724 -0.006119 -0.004606 0.000000 -0.000423 0.000000
# 2 -0.006119 0.017407 -0.002985 0.000004 -0.004625 -0.000001
# 3 -0.004606 -0.002985 0.014474 -0.000001 0.001809 0.000001
# 4 0.000000 0.000004 -0.000001 0.083647 0.000000 -0.010000
# 5 -0.000423 -0.004625 0.001809 0.000000 0.042015 0.000000
# 6 0.000000 -0.000001 0.000001 -0.010000 0.000000 0.041225
#
#
# Mechanical properties :
#
#
# Convention : Reuss Voigt Hill
#
# Bulk Modulus (GPa) = 61.79342 69.15165 65.47253
# Shear Modulus (GPa) = 20.55005 23.63583 22.09294
#
# Velocity S-wave (km/s) = 3.51097 3.76535 3.64038
# Velocity P-wave (km/s) = 7.31454 7.77073 7.54608
#
# Compressibility (1/GPa) = 0.01618295
#
# Stress axis : x y z
#
# Youngs Moduli (GPa) = 85.29865 57.44764 69.09077
#
# Poissons Ratio (x) = 0.35151 0.31826
# Poissons Ratio (y) = 0.52193 0.20627
# Poissons Ratio (z) = 0.39292 0.17151
#
# Static dielectric constant tensor:
#      x y z
#    x 3.089410 0.000000 -0.020280 
#    y 0.000000 2.964120 0.000000 
#    z -0.020280 0.000000 2.958990 
# 
# 
# High freq. dielectric constant tensor:
#      x y z
#    x 1.647120 0.000000 0.001620 
#    y 0.000000 1.623040 0.000000 
#    z 0.001620 0.000000 1.621480 
# 
# From -- ./inp_files/178185.got.cif
#   From: 2010.06.25/outbox.cif.g09.slc.cpg/sg12_90_cif.got.tgz:178185.got - 2010.06.28 00:19:55.
