data_PCOD8081525
_publ_section_title
;
Structure prediction by ZEFSAII (Michael W. Deem and Ramdas Pophale) SiO2 
 PCOD8081525
Probable space group: C 2/M
;
_chemical_formula_sum "Si O2"
_cell_formula_units_Z 56
_cell_length_a 25.475523
_cell_length_b 13.184164
_cell_length_c 19.767751
_cell_angle_alpha 90.000000
_cell_angle_beta 28.387671
_cell_angle_gamma 90.000000
_cell_volume 3156.632608
_symmetry_space_group_name_H-M "C 2/M"
_symmetry_group_IT_number 12
_symmetry_cell_setting 'monoclinic'
loop_
_space_group_symop_operation_xyz
x,y,z
-x,y,-z
-x,-y,-z
x,-y,z
1/2+x,1/2+y,z
1/2-x,1/2+y,-z
1/2-x,1/2-y,-z
1/2+x,1/2-y,z
loop_
_atom_site_type_symbol
_atom_site_label
_atom_site_fract_x
_atom_site_fract_y
_atom_site_fract_z
Si Si1 0.367254 0.882808 0.880301
Si Si2 0.671282 0.381516 0.706679
Si Si3 0.935520 0.388525 0.511262
Si Si4 0.202369 0.803818 0.963426
Si Si5 0.189670 0.111213 0.832392
Si Si6 0.472889 0.384658 0.254143
Si Si7 0.593620 0.797429 0.590143
O O1 0.305913 0.814900 0.007077
O O2 0.499519 0.862852 0.736037
O O3 0.343412 0.000000 0.922933
O O4 0.316104 0.851735 0.864255
O O5 0.693682 0.500000 0.689095
O O6 0.639288 0.340917 0.819116
O O7 0.568336 0.356434 0.774976
O O8 0.781602 0.338047 0.545786
O O9 0.984797 0.500000 0.432848
O O10 0.813422 0.409779 0.672219
O O11 0.943913 0.303226 0.444873
O O12 0.000000 0.339927 0.500000
O O13 0.102785 0.864503 0.112357
O O14 0.187876 0.814244 0.898841
O O15 0.135837 0.000000 0.911987
O O16 0.444742 0.500000 0.304017
O O17 0.407102 0.317761 0.383378
#
# Coordination Sequence:
#
# PCOD8081525 Si02
#       7
#     8   8   8   8   8   8   8
#     4  10  19  31  48  69  93 120 152 188 224 267
#     4   9  18  31  48  71  93 116 150 192 234 269
#     4   9  16  26  44  70  94 114 141 185 235 273
#     4  10  20  31  46  69  94 123 152 182 225 273
#     4   9  16  27  44  65  91 118 146 185 229 272
#     4  10  20  32  46  66  95 126 154 185 221 269
#     4  10  18  30  49  70  92 119 151 189 230 268
#
# _framework density 17.740423
#
# number of rings (size 3 to 8) (size 9 to 14) (size 15 to 20)
#    0.000    2.429    0.000    4.714    0.000    1.714 
#    0.000    2.143    0.000    3.857    0.000    4.000 
#    0.000    0.000    0.000    0.000    0.000    0.000 
#
# Total GULP energy -346869.092258 kJ/mol
# GULP energy per Si atom -12388.181866 kJ/mol
# Density = 1.770005 g / cm^3
# Si number density = 17.740423 Si / 1000 Ang^3
#
#
#
# Elastic Constant Matrix: (Units=GPa)
#
#
# Indices 1 2 3 4 5 6 
#
# 1 88.5243 48.9982 13.8064 0.0000 8.9934 0.0000
# 2 48.9982 103.0832 26.3890 0.0000 14.3981 0.0000
# 3 13.8064 26.3890 38.0309 0.0000 7.7750 0.0000
# 4 0.0000 0.0000 0.0000 22.5644 0.0000 8.5651
# 5 8.9934 14.3981 7.7750 0.0000 27.7626 0.0000
# 6 0.0000 0.0000 0.0000 8.5651 0.0000 28.9122
#
#
#
# Elastic Compliance Matrix: (Units=1/GPa)
#
#
# Indices 1 2 3 4 5 6 
#
# 1 0.015378 -0.007022 -0.000463 0.000000 -0.001210 0.000000
# 2 -0.007022 0.015450 -0.007423 0.000000 -0.003659 0.000000
# 3 -0.000463 -0.007423 0.032666 0.000000 -0.005148 0.000000
# 4 0.000000 0.000000 0.000000 0.049932 0.000000 -0.014792
# 5 -0.001210 -0.003659 -0.005148 0.000000 0.039751 0.000000
# 6 0.000000 0.000000 0.000000 -0.014792 0.000000 0.038970
#
#
# Mechanical properties :
#
#
# Convention : Reuss Voigt Hill
#
# Bulk Modulus (GPa) = 29.69321 45.33616 37.51468
# Shear Modulus (GPa) = 21.44175 25.21083 23.32629
#
# Velocity S-wave (km/s) = 3.48032 3.77383 3.63004
# Velocity P-wave (km/s) = 5.73795 6.67831 6.22591
#
# Compressibility (1/GPa) = 0.03367774
#
# Stress axis : x y z
#
# Youngs Moduli (GPa) = 65.02701 64.72436 30.61298
#
# Poissons Ratio (x) = 0.45451 0.01417
# Poissons Ratio (y) = 0.45663 0.22725
# Poissons Ratio (z) = 0.03009 0.48047
#
# Static dielectric constant tensor:
#      x y z
#    x 3.087000 0.000000 -0.252750 
#    y 0.000000 3.116040 0.000000 
#    z -0.252750 0.000000 3.176560 
# 
# 
# High freq. dielectric constant tensor:
#      x y z
#    x 1.693730 0.000000 -0.015150 
#    y 0.000000 1.649780 0.000000 
#    z -0.015150 0.000000 1.682160 
# 
# From -- ./inp_files/327591.got.cif
#   From: 2010.06.25/outbox.cif.g09.slc.cpg/sg12_164_cif.got.tgz:327591.got - 2010.06.28 00:19:55.
