data_PCOD8081785
_publ_section_title
;
Structure prediction by ZEFSAII (Michael W. Deem and Ramdas Pophale) SiO2 
 PCOD8081785
Probable space group: C 2/M
;
_chemical_formula_sum "Si O2"
_cell_formula_units_Z 64
_cell_length_a 13.852547
_cell_length_b 13.165865
_cell_length_c 20.251496
_cell_angle_alpha 90.000000
_cell_angle_beta 109.387417
_cell_angle_gamma 90.000000
_cell_volume 3484.046488
_symmetry_space_group_name_H-M "C 2/M"
_symmetry_group_IT_number 12
_symmetry_cell_setting 'monoclinic'
loop_
_space_group_symop_operation_xyz
x,y,z
-x,y,-z
-x,-y,-z
x,-y,z
1/2+x,1/2+y,z
1/2-x,1/2+y,-z
1/2-x,1/2-y,-z
1/2+x,1/2-y,z
loop_
_atom_site_type_symbol
_atom_site_label
_atom_site_fract_x
_atom_site_fract_y
_atom_site_fract_z
Si Si1 0.209033 0.620040 0.123797
Si Si2 0.765545 0.798972 0.398657
Si Si3 0.903327 0.611513 0.025614
Si Si4 0.557982 0.115774 0.308254
Si Si5 0.967733 0.799303 0.359121
Si Si6 0.174269 0.882871 0.450517
Si Si7 0.525359 0.798321 0.163864
Si Si8 0.061976 0.115700 0.788688
O O1 0.187210 0.500000 0.129876
O O2 0.133389 0.684750 0.152773
O O3 0.323169 0.650838 0.168600
O O4 0.190392 0.649473 0.042213
O O5 0.675913 0.848864 0.335110
O O6 0.865335 0.798202 0.377248
O O7 0.780363 0.868014 0.466477
O O8 0.738053 0.683379 0.412199
O O9 0.878414 0.500000 0.048697
O O10 0.928799 0.683466 0.093169
O O11 0.000000 0.604971 0.000000
O O12 0.493358 0.183855 0.344562
O O13 0.515464 0.127426 0.224428
O O14 0.546756 0.000000 0.328721
O O15 0.956434 0.870820 0.292969
O O16 0.056747 0.846248 0.424621
O O17 0.183973 0.000000 0.431874
O O18 0.518091 0.682353 0.187399
O O19 0.042835 0.000000 0.804829
#
# Coordination Sequence:
#
# PCOD8081785 Si02
#       8
#     8   8   8   8   8   8   8   8
#     4   9  17  31  52  75  97 126 165 205 246 291
#     4  10  21  36  53  76 102 129 164 202 242 289
#     4   8  14  26  47  74  98 123 160 204 247 288
#     4  10  20  33  51  76 101 127 162 202 246 292
#     4  10  21  35  52  74 100 130 164 201 241 290
#     4  10  21  36  54  76 101 130 164 201 243 290
#     4  10  18  30  51  73  99 129 162 204 246 286
#     4  10  21  34  49  72 100 131 166 200 240 290
#
# _framework density 18.369444999999999
#
# number of rings (size 3 to 8) (size 9 to 14) (size 15 to 20)
#    0.000    2.375    0.000    3.750    0.000    4.500 
#    0.000    0.000    0.000   16.875    0.000    0.000 
#    0.000    0.000    0.000    0.000    0.000    0.000 
#
# Total GULP energy -396780.520935 kJ/mol
# GULP energy per Si atom -12399.391279 kJ/mol
# Density = 1.832763 g / cm^3
# Si number density = 18.369445 Si / 1000 Ang^3
#
#
#
# Elastic Constant Matrix: (Units=GPa)
#
#
# Indices 1 2 3 4 5 6 
#
# 1 49.7880 23.3273 8.1226 0.0000 -1.5436 0.0000
# 2 23.3273 110.5837 26.1400 0.0000 -8.7799 0.0000
# 3 8.1226 26.1400 75.3986 0.0000 2.8978 0.0000
# 4 0.0000 0.0000 0.0000 17.5967 0.0000 4.1025
# 5 -1.5436 -8.7799 2.8978 0.0000 23.0124 0.0000
# 6 0.0000 0.0000 0.0000 4.1025 0.0000 18.5725
#
#
#
# Elastic Compliance Matrix: (Units=1/GPa)
#
#
# Indices 1 2 3 4 5 6 
#
# 1 0.022337 -0.004525 -0.000833 0.000000 -0.000123 0.000000
# 2 -0.004525 0.011190 -0.003562 0.000000 0.004414 0.000000
# 3 -0.000833 -0.003562 0.014713 0.000000 -0.003267 0.000000
# 4 0.000000 0.000000 0.000000 0.059914 0.000000 -0.013234
# 5 -0.000123 0.004414 -0.003267 0.000000 0.045542 0.000000
# 6 0.000000 0.000000 0.000000 -0.013234 0.000000 0.056766
#
#
# Mechanical properties :
#
#
# Convention : Reuss Voigt Hill
#
# Bulk Modulus (GPa) = 32.89338 38.99447 35.94392
# Shear Modulus (GPa) = 20.97006 23.71502 22.34254
#
# Velocity S-wave (km/s) = 3.38238 3.59695 3.49132
# Velocity P-wave (km/s) = 5.76190 6.20683 5.98850
#
# Compressibility (1/GPa) = 0.03040126
#
# Stress axis : x y z
#
# Youngs Moduli (GPa) = 44.76824 89.36712 67.96744
#
# Poissons Ratio (x) = 0.40438 0.05661
# Poissons Ratio (y) = 0.20257 0.24207
# Poissons Ratio (z) = 0.03729 0.31829
#
# Static dielectric constant tensor:
#      x y z
#    x 3.144030 0.000000 0.289470 
#    y 0.000000 3.284550 0.000000 
#    z 0.289470 0.000000 3.719740 
# 
# 
# High freq. dielectric constant tensor:
#      x y z
#    x 1.689580 0.000000 0.018990 
#    y 0.000000 1.702910 0.000000 
#    z 0.018990 0.000000 1.730920 
# 
# From -- ./inp_files/309914.got.cif
#   From: 2010.06.25/outbox.cif.g09.slc.cpg/sg12_155_cif.got.tgz:309914.got - 2010.06.28 00:19:55.
