data_PCOD8081332
_publ_section_title
;
Structure prediction by ZEFSAII (Michael W. Deem and Ramdas Pophale) SiO2 
 PCOD8081332
Probable space group: C 2/M
;
_chemical_formula_sum "Si O2"
_cell_formula_units_Z 48
_cell_length_a 20.830787
_cell_length_b 8.828958
_cell_length_c 15.199475
_cell_angle_alpha 90.000000
_cell_angle_beta 70.639449
_cell_angle_gamma 90.000000
_cell_volume 2637.321811
_symmetry_space_group_name_H-M "C 2/M"
_symmetry_group_IT_number 12
_symmetry_cell_setting 'monoclinic'
loop_
_space_group_symop_operation_xyz
x,y,z
-x,y,-z
-x,-y,-z
x,-y,z
1/2+x,1/2+y,z
1/2-x,1/2+y,-z
1/2-x,1/2-y,-z
1/2+x,1/2-y,z
loop_
_atom_site_type_symbol
_atom_site_label
_atom_site_fract_x
_atom_site_fract_y
_atom_site_fract_z
Si Si1 0.297426 0.820153 0.786687
Si Si2 0.044228 0.680004 0.605104
Si Si3 0.901650 0.679717 0.597926
Si Si4 0.458275 0.180509 0.199944
Si Si5 0.153850 0.319966 0.884712
Si Si6 0.890577 0.320016 0.904713
O O1 0.335170 0.763526 0.680373
O O2 0.224625 0.743733 0.818822
O O3 0.340892 0.761795 0.850428
O O4 0.289098 0.000000 0.793392
O O5 0.041647 0.500000 0.607441
O O6 0.097703 0.734110 0.504977
O O7 0.064777 0.739438 0.692612
O O8 0.969184 0.742205 0.615501
O O9 0.903662 0.500000 0.601531
O O10 0.404963 0.242824 0.152956
O O11 0.533368 0.244358 0.143954
O O12 0.459857 0.000000 0.196442
O O13 0.156569 0.500000 0.881661
O O14 0.138240 0.259167 0.989612
O O15 0.893443 0.500000 0.902824
#
# Coordination Sequence:
#
# PCOD8081332 Si02
#       6
#     8   8   8   8   8   8
#     4  10  18  30  47  66  90 118 147 180 218 260
#     4   8  12  21  40  66  89 106 138 187 226 250
#     4   8  13  22  40  66  89 108 138 185 225 250
#     4   9  15  26  44  66  89 113 145 186 224 255
#     4  10  20  30  43  66  95 120 143 177 221 265
#     4   9  16  28  46  66  86 114 153 188 215 248
#
# _framework density 18.200281
#
# number of rings (size 3 to 8) (size 9 to 14) (size 15 to 20)
#    0.000    3.000    1.667    2.000    0.000    2.000 
#    0.000    0.833    0.000    3.000    0.000    2.333 
#    0.000    0.000    0.000    0.000    0.000    0.000 
#
# Total GULP energy -297414.703993 kJ/mol
# GULP energy per Si atom -12392.279333 kJ/mol
# Density = 1.815886 g / cm^3
# Si number density = 18.200281 Si / 1000 Ang^3
#
#
#
# Elastic Constant Matrix: (Units=GPa)
#
#
# Indices 1 2 3 4 5 6 
#
# 1 104.9437 9.4458 49.9744 0.0000 -17.7038 0.0000
# 2 9.4458 5.7340 9.8048 0.0000 -0.9767 0.0000
# 3 49.9744 9.8048 155.5520 0.0000 -20.6787 0.0000
# 4 0.0000 0.0000 0.0000 11.3137 0.0000 -8.3417
# 5 -17.7038 -0.9767 -20.6787 0.0000 23.0466 0.0000
# 6 0.0000 0.0000 0.0000 -8.3417 0.0000 17.6548
#
#
#
# Elastic Compliance Matrix: (Units=1/GPa)
#
#
# Indices 1 2 3 4 5 6 
#
# 1 0.013394 -0.016966 -0.002227 0.000000 0.007572 0.000000
# 2 -0.016966 0.217160 -0.009931 0.000000 -0.012741 0.000000
# 3 -0.002227 -0.009931 0.008501 0.000000 0.005496 0.000000
# 4 0.000000 0.000000 0.000000 0.135642 0.000000 0.064090
# 5 0.007572 -0.012741 0.005496 0.000000 0.053598 0.000000
# 6 0.000000 0.000000 0.000000 0.064090 0.000000 0.086924
#
#
# Mechanical properties :
#
#
# Convention : Reuss Voigt Hill
#
# Bulk Modulus (GPa) = 5.53079 44.96441 25.24760
# Shear Modulus (GPa) = 7.88971 23.53665 15.71318
#
# Velocity S-wave (km/s) = 2.08431 3.60001 2.94147
# Velocity P-wave (km/s) = 2.97286 6.48376 5.04366
#
# Compressibility (1/GPa) = 0.18080598
#
# Stress axis : x y z
#
# Youngs Moduli (GPa) = 74.66089 4.60489 117.63616
#
# Poissons Ratio (x) = 0.07813 0.26199
# Poissons Ratio (y) = 1.26673 1.16824
# Poissons Ratio (z) = 0.16628 0.04573
#
# Static dielectric constant tensor:
#      x y z
#    x 3.331810 0.000000 0.057700 
#    y 0.000000 2.612880 0.000000 
#    z 0.057700 0.000000 3.962700 
# 
# 
# High freq. dielectric constant tensor:
#      x y z
#    x 1.692410 0.000000 -0.001480 
#    y 0.000000 1.626990 0.000000 
#    z -0.001480 0.000000 1.731050 
# 
# From -- ./inp_files/212637.got.cif
#   From: 2010.06.25/outbox.cif.g09.slc.cpg/sg12_107_cif.got.tgz:212637.got - 2010.06.28 00:19:55.
