data_PCOD8081855
_publ_section_title
;
Structure prediction by ZEFSAII (Michael W. Deem and Ramdas Pophale) SiO2 
 PCOD8081855
Probable space group: C 2/M
;
_chemical_formula_sum "Si O2"
_cell_formula_units_Z 56
_cell_length_a 18.034175
_cell_length_b 8.748186
_cell_length_c 28.901987
_cell_angle_alpha 90.000000
_cell_angle_beta 141.394040
_cell_angle_gamma 90.000000
_cell_volume 2845.111932
_symmetry_space_group_name_H-M "C 2/M"
_symmetry_group_IT_number 12
_symmetry_cell_setting 'monoclinic'
loop_
_space_group_symop_operation_xyz
x,y,z
-x,y,-z
-x,-y,-z
x,-y,z
1/2+x,1/2+y,z
1/2-x,1/2+y,-z
1/2-x,1/2-y,-z
1/2+x,1/2-y,z
loop_
_atom_site_type_symbol
_atom_site_label
_atom_site_fract_x
_atom_site_fract_y
_atom_site_fract_z
Si Si1 0.636856 0.322195 0.570816
Si Si2 0.044433 0.676825 0.703671
Si Si3 0.213742 0.676487 0.701705
Si Si4 0.206746 0.178545 0.431569
Si Si5 0.832943 0.681513 0.000785
Si Si6 0.485527 0.321551 0.851449
Si Si7 0.352931 0.179169 0.147441
O O1 0.500000 0.274909 0.500000
O O2 0.656420 0.500000 0.570155
O O3 0.684034 0.284596 0.644566
O O4 0.708387 0.226528 0.568453
O O5 0.006848 0.500000 0.684394
O O6 0.125639 0.720436 0.699960
O O7 0.117229 0.716258 0.785197
O O8 0.927114 0.777185 0.645425
O O9 0.199292 0.500000 0.679827
O O10 0.346152 0.710654 0.783333
O O11 0.250000 0.250000 0.500000
O O12 0.214884 0.000000 0.441690
O O13 0.834245 0.500000 0.001394
O O14 0.776324 0.743934 0.925401
O O15 0.750000 0.750000 0.000000
O O16 0.964240 0.745750 0.076473
O O17 0.516069 0.500000 0.866263
O O18 0.543816 0.247765 0.834400
O O19 0.344544 0.000000 0.133352
#
# Coordination Sequence:
#
# PCOD8081855 Si02
#       7
#     8   8   8   8   8   8   8
#     4  11  24  41  62  89 118 150 189 232 280 334
#     4  10  22  40  60  84 116 152 191 234 282 337
#     4  10  22  39  59  84 114 151 191 233 283 336
#     4  12  25  41  63  89 118 152 189 232 281 333
#     4  10  18  30  51  78 108 142 183 231 282 335
#     4  10  19  33  54  80 110 143 185 233 281 337
#     4  10  19  33  55  81 110 145 185 231 282 335
#
# _framework density 19.682881999999999
#
# number of rings (size 3 to 8) (size 9 to 14) (size 15 to 20)
#    0.000    1.571    0.000    7.286    0.000    8.571 
#    0.000    0.714    0.000    4.286    0.000    0.000 
#    0.000    0.000    0.000    0.000    0.000    0.000 
#
# Total GULP energy -347270.015084 kJ/mol
# GULP energy per Si atom -12402.500539 kJ/mol
# Density = 1.963808 g / cm^3
# Si number density = 19.682882 Si / 1000 Ang^3
#
#
#
# Elastic Constant Matrix: (Units=GPa)
#
#
# Indices 1 2 3 4 5 6 
#
# 1 102.9630 52.2498 59.9362 0.0000 -6.3986 0.0000
# 2 52.2498 136.8077 79.0587 0.0000 -2.6653 -0.0002
# 3 59.9362 79.0587 151.4756 0.0000 -3.7567 0.0000
# 4 0.0000 0.0000 0.0000 31.0547 0.0000 -10.3225
# 5 -6.3986 -2.6653 -3.7567 0.0000 31.0291 0.0000
# 6 0.0000 -0.0002 0.0000 -10.3225 0.0000 17.1185
#
#
#
# Elastic Compliance Matrix: (Units=1/GPa)
#
#
# Indices 1 2 3 4 5 6 
#
# 1 0.013529 -0.002954 -0.003760 0.000000 0.002081 0.000000
# 2 -0.002954 0.011113 -0.004637 0.000000 -0.000216 0.000000
# 3 -0.003760 -0.004637 0.010512 0.000000 0.000099 0.000000
# 4 0.000000 0.000000 0.000000 0.040273 0.000000 0.024285
# 5 0.002081 -0.000216 0.000099 0.000000 0.032650 0.000000
# 6 0.000000 0.000000 0.000000 0.024285 0.000000 0.073060
#
#
# Mechanical properties :
#
#
# Convention : Reuss Voigt Hill
#
# Bulk Modulus (GPa) = 80.30091 85.97062 83.13576
# Shear Modulus (GPa) = 24.03960 29.17390 26.60675
#
# Velocity S-wave (km/s) = 3.49857 3.85411 3.68063
# Velocity P-wave (km/s) = 7.56346 7.97359 7.77123
#
# Compressibility (1/GPa) = 0.01245316
#
# Stress axis : x y z
#
# Youngs Moduli (GPa) = 73.91414 89.98582 95.12961
#
# Poissons Ratio (x) = 0.26579 0.35769
# Poissons Ratio (y) = 0.21832 0.44109
# Poissons Ratio (z) = 0.27792 0.41724
#
# Static dielectric constant tensor:
#      x y z
#    x 3.405510 0.000000 0.021390 
#    y 0.000000 3.708250 0.000000 
#    z 0.021390 0.000000 4.126230 
# 
# 
# High freq. dielectric constant tensor:
#      x y z
#    x 1.749430 0.000000 -0.000700 
#    y 0.000000 1.777550 0.000000 
#    z -0.000700 0.000000 1.792030 
# 
# From -- ./inp_files/377780.got.cif
#   From: 2010.06.25/outbox.cif.g09.slc.cpg/sg12_189_cif.got.tgz:377780.got - 2010.06.28 00:19:55.
