data_PCOD8081937
_publ_section_title
;
Structure prediction by ZEFSAII (Michael W. Deem and Ramdas Pophale) SiO2 
 PCOD8081937
Probable space group: C 2/M
;
_chemical_formula_sum "Si O2"
_cell_formula_units_Z 64
_cell_length_a 26.650270
_cell_length_b 14.432263
_cell_length_c 12.515528
_cell_angle_alpha 90.000000
_cell_angle_beta 135.843477
_cell_angle_gamma 90.000000
_cell_volume 3353.371917
_symmetry_space_group_name_H-M "C 2/M"
_symmetry_group_IT_number 12
_symmetry_cell_setting 'monoclinic'
loop_
_space_group_symop_operation_xyz
x,y,z
-x,y,-z
-x,-y,-z
x,-y,z
1/2+x,1/2+y,z
1/2-x,1/2+y,-z
1/2-x,1/2-y,-z
1/2+x,1/2-y,z
loop_
_atom_site_type_symbol
_atom_site_label
_atom_site_fract_x
_atom_site_fract_y
_atom_site_fract_z
Si Si1 0.916839 0.751905 0.901804
Si Si2 0.206293 0.109666 0.314793
Si Si3 0.926734 0.390373 0.338738
Si Si4 0.160814 0.898080 0.865086
Si Si5 0.885223 0.275875 0.091094
Si Si6 0.742605 0.895457 0.172812
Si Si7 0.697705 0.106075 0.337262
Si Si8 0.216070 0.395678 0.776720
O O1 0.872222 0.843120 0.798705
O O2 0.876323 0.663900 0.786679
O O3 0.923043 0.742507 0.037878
O O4 0.000000 0.759991 0.000000
O O5 0.254903 0.139558 0.489837
O O6 0.245318 0.150687 0.267446
O O7 0.193114 0.000000 0.289818
O O8 0.921424 0.500000 0.328147
O O9 0.927761 0.355058 0.219049
O O10 0.859767 0.348413 0.305572
O O11 0.000000 0.353357 0.500000
O O12 0.109541 0.817471 0.829376
O O13 0.180208 0.885366 0.768724
O O14 0.125055 0.000000 0.828289
O O15 0.234793 0.892103 0.044049
O O16 0.804803 0.313467 0.949602
O O17 0.747816 0.881387 0.308527
O O18 0.712018 0.000000 0.102902
O O19 0.673868 0.000000 0.316843
O O20 0.199807 0.500000 0.715253
#
# Coordination Sequence:
#
# PCOD8081937 Si02
#       8
#     8   8   8   8   8   8   8   8
#     4  11  24  38  54  81 114 146 189 238 283 330
#     4  10  20  38  61  83 110 145 191 238 281 329
#     4  10  21  35  52  81 117 145 173 216 274 334
#     4  10  18  30  52  82 108 130 173 226 267 312
#     4  11  20  33  54  76 105 143 181 219 271 327
#     4   9  17  30  51  82 110 133 171 225 273 320
#     4   9  20  37  57  81 110 148 187 226 277 336
#     4   9  17  31  54  82 107 135 174 220 266 316
#
# _framework density 19.085267999999999
#
# number of rings (size 3 to 8) (size 9 to 14) (size 15 to 20)
#    0.000    2.125    2.500    1.125    0.000    2.000 
#    0.000    2.500    0.000    0.375    0.000    0.000 
#    0.000    0.000    0.000    0.000    0.000    0.000 
#
# Total GULP energy -396573.905160 kJ/mol
# GULP energy per Si atom -12392.934536 kJ/mol
# Density = 1.904183 g / cm^3
# Si number density = 19.085268 Si / 1000 Ang^3
#
#
#
# Elastic Constant Matrix: (Units=GPa)
#
#
# Indices 1 2 3 4 5 6 
#
# 1 108.8777 36.8041 56.8091 0.0000 -1.1583 0.0000
# 2 36.8041 56.8543 17.9983 0.0000 1.0959 0.0000
# 3 56.8091 17.9983 92.1055 0.0000 -3.4493 0.0000
# 4 0.0000 0.0000 0.0000 21.3151 0.0000 -2.4868
# 5 -1.1583 1.0959 -3.4493 0.0000 26.4673 0.0000
# 6 0.0000 0.0000 0.0000 -2.4868 0.0000 21.6958
#
#
#
# Elastic Compliance Matrix: (Units=1/GPa)
#
#
# Indices 1 2 3 4 5 6 
#
# 1 0.016273 -0.007839 -0.008508 0.000000 -0.000072 0.000000
# 2 -0.007839 0.022567 0.000379 0.000000 -0.001228 0.000000
# 3 -0.008508 0.000379 0.016094 0.000000 0.001709 0.000000
# 4 0.000000 0.000000 0.000000 0.047551 0.000000 0.005450
# 5 -0.000072 -0.001228 0.001709 0.000000 0.038053 0.000000
# 6 0.000000 0.000000 0.000000 0.005450 0.000000 0.046717
#
#
# Mechanical properties :
#
#
# Convention : Reuss Voigt Hill
#
# Bulk Modulus (GPa) = 43.48004 53.45116 48.46560
# Shear Modulus (GPa) = 22.04037 23.64405 22.84221
#
# Velocity S-wave (km/s) = 3.40198 3.52357 3.46331
# Velocity P-wave (km/s) = 6.18569 6.67992 6.43755
#
# Compressibility (1/GPa) = 0.02299906
#
# Stress axis : x y z
#
# Youngs Moduli (GPa) = 61.45218 44.31223 62.13368
#
# Poissons Ratio (x) = 0.34738 0.52861
# Poissons Ratio (y) = 0.48175 -0.02357
# Poissons Ratio (z) = 0.52281 -0.01681
#
# Static dielectric constant tensor:
#      x y z
#    x 3.487640 0.000000 -0.303610 
#    y 0.000000 3.661260 0.000000 
#    z -0.303610 0.000000 3.349840 
# 
# 
# High freq. dielectric constant tensor:
#      x y z
#    x 1.729170 0.000000 -0.031200 
#    y 0.000000 1.752640 0.000000 
#    z -0.031200 0.000000 1.713470 
# 
# From -- ./inp_files/183860.got.cif
#   From: 2010.06.25/outbox.cif.g09.slc.cpg/sg12_92_cif.got.tgz:183860.got - 2010.06.28 00:19:55.
