data_PCOD8081587
_publ_section_title
;
Structure prediction by ZEFSAII (Michael W. Deem and Ramdas Pophale) SiO2 
 PCOD8081587
Probable space group: C 2/M
;
_chemical_formula_sum "Si O2"
_cell_formula_units_Z 56
_cell_length_a 29.699797
_cell_length_b 8.789626
_cell_length_c 20.616735
_cell_angle_alpha 90.000000
_cell_angle_beta 32.744544
_cell_angle_gamma 90.000000
_cell_volume 2911.094043
_symmetry_space_group_name_H-M "C 2/M"
_symmetry_group_IT_number 12
_symmetry_cell_setting 'monoclinic'
loop_
_space_group_symop_operation_xyz
x,y,z
-x,y,-z
-x,-y,-z
x,-y,z
1/2+x,1/2+y,z
1/2-x,1/2+y,-z
1/2-x,1/2-y,-z
1/2+x,1/2-y,z
loop_
_atom_site_type_symbol
_atom_site_label
_atom_site_fract_x
_atom_site_fract_y
_atom_site_fract_z
Si Si1 0.872224 0.820046 0.433041
Si Si2 0.291268 0.820346 0.296609
Si Si3 0.462638 0.819397 0.720650
Si Si4 0.078934 0.179718 0.362450
Si Si5 0.099294 0.320901 0.067513
Si Si6 0.579830 0.178757 0.756384
Si Si7 0.757358 0.318843 0.196051
O O1 0.785756 0.760989 0.567537
O O2 0.944498 0.745464 0.388500
O O3 0.874130 0.767829 0.356592
O O4 0.881962 0.000000 0.425822
O O5 0.377630 0.772998 0.227126
O O6 0.286474 0.750844 0.230085
O O7 0.285273 0.000000 0.297960
O O8 0.417935 0.758851 0.710988
O O9 0.410896 0.760280 0.846448
O O10 0.467232 0.000000 0.714088
O O11 0.162720 0.231488 0.297511
O O12 0.000000 0.236396 0.500000
O O13 0.074877 0.000000 0.356768
O O14 0.109316 0.500000 0.058042
O O15 0.017602 0.277426 0.124148
O O16 0.180680 0.250272 0.934063
O O17 0.591615 0.000000 0.728305
O O18 0.763679 0.500000 0.188585
#
# Coordination Sequence:
#
# PCOD8081587 Si02
#       7
#     8   8   8   8   8   8   8
#     4  10  18  30  49  74 101 130 166 201 240 292
#     4   9  17  28  46  72 100 130 164 203 243 285
#     4  10  20  34  52  74 100 128 160 202 249 292
#     4  10  20  34  53  76 100 128 163 200 241 292
#     4   8  16  30  47  70  99 128 161 201 242 286
#     4   9  17  30  48  73 102 129 161 202 245 286
#     4   9  17  30  48  71  99 129 163 204 244 284
#
# _framework density 19.236753
#
# number of rings (size 3 to 8) (size 9 to 14) (size 15 to 20)
#    0.000    2.714    0.000    3.000    0.000    3.714 
#    0.000    3.571    0.000    4.286    0.000    4.000 
#    0.000    0.000    0.000    0.000    0.000    0.000 
#
# Total GULP energy -347108.342527 kJ/mol
# GULP energy per Si atom -12396.726519 kJ/mol
# Density = 1.919297 g / cm^3
# Si number density = 19.236753 Si / 1000 Ang^3
#
#
#
# Elastic Constant Matrix: (Units=GPa)
#
#
# Indices 1 2 3 4 5 6 
#
# 1 154.2635 23.2137 64.8674 0.0061 5.4201 0.0009
# 2 23.2137 28.0862 16.4562 -0.0006 0.9744 -0.0012
# 3 64.8674 16.4562 142.7406 -0.0049 -0.4742 0.0003
# 4 0.0061 -0.0006 -0.0049 15.9388 0.0003 2.4296
# 5 5.4201 0.9744 -0.4742 0.0003 21.1102 -0.0014
# 6 0.0009 -0.0012 0.0003 2.4296 -0.0014 25.2440
#
#
#
# Elastic Compliance Matrix: (Units=1/GPa)
#
#
# Indices 1 2 3 4 5 6 
#
# 1 0.008761 -0.005182 -0.003391 -0.000005 -0.002087 0.000000
# 2 -0.005182 0.041322 -0.002411 0.000003 -0.000631 0.000002
# 3 -0.003391 -0.002411 0.008829 0.000004 0.001180 0.000000
# 4 -0.000005 0.000003 0.000004 0.063674 0.000000 -0.006128
# 5 -0.002087 -0.000631 0.001180 0.000000 0.047962 0.000003
# 6 0.000000 0.000002 0.000000 -0.006128 0.000003 0.040203
#
#
# Mechanical properties :
#
#
# Convention : Reuss Voigt Hill
#
# Bulk Modulus (GPa) = 27.06811 59.35168 43.20989
# Shear Modulus (GPa) = 20.40522 27.16211 23.78366
#
# Velocity S-wave (km/s) = 3.26044 3.76172 3.52001
# Velocity P-wave (km/s) = 5.31747 7.05604 6.24753
#
# Compressibility (1/GPa) = 0.03694385
#
# Stress axis : x y z
#
# Youngs Moduli (GPa) = 114.13579 24.19996 113.26757
#
# Poissons Ratio (x) = 0.12541 0.38410
# Poissons Ratio (y) = 0.59148 0.27309
# Poissons Ratio (z) = 0.38704 0.05835
#
# Static dielectric constant tensor:
#      x y z
#    x 3.712670 -0.000020 0.054360 
#    y -0.000020 3.067640 0.000030 
#    z 0.054360 0.000030 3.787930 
# 
# 
# High freq. dielectric constant tensor:
#      x y z
#    x 1.759100 0.000000 -0.000230 
#    y 0.000000 1.700410 0.000000 
#    z -0.000230 0.000000 1.750180 
# 
# From -- ./inp_files/329561.got.cif
#   From: 2010.06.25/outbox.cif.g09.slc.cpg/sg12_165_cif.got.tgz:329561.got - 2010.06.28 00:19:55.
