data_PCOD8081494
_publ_section_title
;
Structure prediction by ZEFSAII (Michael W. Deem and Ramdas Pophale) SiO2 
 PCOD8081494
Probable space group: C 2/M
;
_chemical_formula_sum "Si O2"
_cell_formula_units_Z 52
_cell_length_a 27.843676
_cell_length_b 9.583816
_cell_length_c 19.786589
_cell_angle_alpha 90.000000
_cell_angle_beta 32.353380
_cell_angle_gamma 90.000000
_cell_volume 2825.550478
_symmetry_space_group_name_H-M "C 2/M"
_symmetry_group_IT_number 12
_symmetry_cell_setting 'monoclinic'
loop_
_space_group_symop_operation_xyz
x,y,z
-x,y,-z
-x,-y,-z
x,-y,z
1/2+x,1/2+y,z
1/2-x,1/2+y,-z
1/2-x,1/2-y,-z
1/2+x,1/2-y,z
loop_
_atom_site_type_symbol
_atom_site_label
_atom_site_fract_x
_atom_site_fract_y
_atom_site_fract_z
Si Si1 0.000000 0.258444 0.000000
Si Si2 0.955347 0.660870 0.325839
Si Si3 0.616457 0.662241 0.181571
Si Si4 0.752942 0.837669 0.097716
Si Si5 0.897390 0.654246 0.250145
Si Si6 0.257503 0.836672 0.611265
Si Si7 0.181335 0.841559 0.838881
O O1 0.954803 0.349128 0.112842
O O2 0.924024 0.166626 0.053852
O O3 0.980256 0.500000 0.312745
O O4 0.960628 0.689509 0.239080
O O5 0.856538 0.698393 0.469714
O O6 0.020532 0.764939 0.287430
O O7 0.604203 0.500000 0.215527
O O8 0.668006 0.742227 0.180145
O O9 0.669023 0.680767 0.049437
O O10 0.792243 0.772898 0.120912
O O11 0.723154 0.000000 0.137020
O O12 0.856506 0.500000 0.309330
O O13 0.815112 0.761368 0.349739
O O14 0.242045 0.778976 0.706084
O O15 0.235362 0.000000 0.633856
O O16 0.207649 0.000000 0.817425
#
# Coordination Sequence:
#
# PCOD8081494 Si02
#       7
#     4   8   8   8   8   8   8
#     4  10  18  30  48  76 107 130 161 198 241 292
#     4  10  20  34  51  72  99 132 167 203 243 288
#     4  10  20  33  52  77  99 124 162 204 246 294
#     4   9  18  34  53  74 100 128 159 199 249 294
#     4  10  20  32  48  72 103 135 164 198 244 293
#     4   9  19  34  51  72  98 130 169 205 239 284
#     4   9  17  31  52  75  99 129 164 203 243 285
#
# _framework density 18.403493000000001
#
# number of rings (size 3 to 8) (size 9 to 14) (size 15 to 20)
#    0.000    2.462    0.000    2.308    0.000    2.462 
#    0.000    4.615    0.000    4.615    0.000    0.000 
#    0.000    0.000    0.000    0.000    0.000    0.000 
#
# Total GULP energy -322289.224053 kJ/mol
# GULP energy per Si atom -12395.739387 kJ/mol
# Density = 1.836161 g / cm^3
# Si number density = 18.403493 Si / 1000 Ang^3
#
#
#
# Elastic Constant Matrix: (Units=GPa)
#
#
# Indices 1 2 3 4 5 6 
#
# 1 135.6049 45.0846 48.3311 0.0009 -6.5306 -0.0004
# 2 45.0846 72.3010 36.3391 0.0018 -13.4696 -0.0027
# 3 48.3311 36.3391 80.0121 -0.0004 -12.3833 -0.0004
# 4 0.0009 0.0018 -0.0004 24.0243 -0.0007 -7.0192
# 5 -6.5306 -13.4696 -12.3833 -0.0007 25.5373 0.0005
# 6 -0.0004 -0.0027 -0.0004 -7.0192 0.0005 29.4184
#
#
#
# Elastic Compliance Matrix: (Units=1/GPa)
#
#
# Indices 1 2 3 4 5 6 
#
# 1 0.010413 -0.004591 -0.004506 0.000000 -0.001943 0.000000
# 2 -0.004591 0.020824 -0.005586 -0.000001 0.007101 0.000001
# 3 -0.004506 -0.005586 0.018512 0.000001 0.004878 0.000000
# 4 0.000000 -0.000001 0.000001 0.044744 0.000001 0.010676
# 5 -0.001943 0.007101 0.004878 0.000001 0.044772 0.000000
# 6 0.000000 0.000001 0.000000 0.010676 0.000000 0.036540
#
#
# Mechanical properties :
#
#
# Convention : Reuss Voigt Hill
#
# Bulk Modulus (GPa) = 49.05692 60.82528 54.94110
# Shear Modulus (GPa) = 23.58905 26.34022 24.96464
#
# Velocity S-wave (km/s) = 3.58407 3.78731 3.68709
# Velocity P-wave (km/s) = 6.62130 7.22825 6.93142
#
# Compressibility (1/GPa) = 0.02038448
#
# Stress axis : x y z
#
# Youngs Moduli (GPa) = 96.03468 48.02169 54.02017
#
# Poissons Ratio (x) = 0.22045 0.24340
# Poissons Ratio (y) = 0.44085 0.30174
# Poissons Ratio (z) = 0.43271 0.26823
#
# Static dielectric constant tensor:
#      x y z
#    x 3.548830 0.000000 0.181190 
#    y 0.000000 3.266640 0.000000 
#    z 0.181190 0.000000 3.318380 
# 
# 
# High freq. dielectric constant tensor:
#      x y z
#    x 1.717820 0.000000 0.005250 
#    y 0.000000 1.701780 0.000000 
#    z 0.005250 0.000000 1.704150 
# 
# From -- ./inp_files/329226.got.cif
#   From: 2010.06.25/outbox.cif.g09.slc.cpg/sg12_165_cif.got.tgz:329226.got - 2010.06.28 00:19:55.
