data_PCOD8081618
_publ_section_title
;
Structure prediction by ZEFSAII (Michael W. Deem and Ramdas Pophale) SiO2 
 PCOD8081618
Probable space group: C 2/M
;
_chemical_formula_sum "Si O2"
_cell_formula_units_Z 64
_cell_length_a 24.545058
_cell_length_b 8.940006
_cell_length_c 16.727233
_cell_angle_alpha 90.000000
_cell_angle_beta 86.591716
_cell_angle_gamma 90.000000
_cell_volume 3664.014112
_symmetry_space_group_name_H-M "C 2/M"
_symmetry_group_IT_number 12
_symmetry_cell_setting 'monoclinic'
loop_
_space_group_symop_operation_xyz
x,y,z
-x,y,-z
-x,-y,-z
x,-y,z
1/2+x,1/2+y,z
1/2-x,1/2+y,-z
1/2-x,1/2-y,-z
1/2+x,1/2-y,z
loop_
_atom_site_type_symbol
_atom_site_label
_atom_site_fract_x
_atom_site_fract_y
_atom_site_fract_z
Si Si1 0.422501 0.674085 0.067048
Si Si2 0.146487 0.676771 0.552134
Si Si3 0.561790 0.178067 0.270209
Si Si4 0.720282 0.323003 0.677607
Si Si5 0.555504 0.174977 0.676442
Si Si6 0.542320 0.674197 0.109473
Si Si7 0.841728 0.323218 0.628135
Si Si8 0.358540 0.176931 0.201471
O O1 0.413064 0.500000 0.084429
O O2 0.480215 0.725889 0.099308
O O3 0.373183 0.767221 0.111258
O O4 0.421917 0.707504 0.972587
O O5 0.158275 0.500000 0.556999
O O6 0.191319 0.759177 0.601498
O O7 0.085365 0.713305 0.590088
O O8 0.150575 0.740073 0.462191
O O9 0.505281 0.243610 0.312823
O O10 0.568599 0.232788 0.178977
O O11 0.611246 0.243576 0.318855
O O12 0.562986 0.000000 0.270251
O O13 0.712521 0.500000 0.680173
O O14 0.783484 0.275712 0.668259
O O15 0.696962 0.251685 0.761314
O O16 0.592938 0.235476 0.745232
O O17 0.549457 0.000000 0.688288
O O18 0.543874 0.500000 0.130559
O O19 0.847591 0.500000 0.623070
O O20 0.350963 0.000000 0.203439
#
# Coordination Sequence:
#
# PCOD8081618 Si02
#       8
#     8   8   8   8   8   8   8   8
#     4   9  17  30  49  73 102 131 158 189 234 288
#     4   9  17  32  50  71  96 123 161 211 248 283
#     4  10  18  31  48  69  99 134 165 197 235 287
#     4  10  19  32  49  71  95 127 165 205 249 287
#     4   8  15  26  44  70  96 121 153 192 240 282
#     4   9  18  31  47  72 103 133 159 188 232 287
#     4   9  19  32  49  70  95 129 170 205 240 286
#     4  10  18  30  49  76 100 123 158 202 245 286
#
# _framework density 17.467182000000001
#
# number of rings (size 3 to 8) (size 9 to 14) (size 15 to 20)
#    0.000    2.750    1.250    2.625    0.000    1.000 
#    0.000    6.250    0.000    0.750    0.000    2.625 
#    0.000    0.000    0.000    0.000    0.000    0.000 
#
# Total GULP energy -396700.121386 kJ/mol
# GULP energy per Si atom -12396.878793 kJ/mol
# Density = 1.742743 g / cm^3
# Si number density = 17.467182 Si / 1000 Ang^3
#
#
#
# Elastic Constant Matrix: (Units=GPa)
#
#
# Indices 1 2 3 4 5 6 
#
# 1 112.8087 31.6431 60.8495 0.0000 -15.2608 0.0000
# 2 31.6431 44.5685 35.8105 0.0000 -8.0253 0.0000
# 3 60.8495 35.8105 107.5779 0.0000 -25.9623 0.0000
# 4 0.0000 0.0000 0.0000 26.2459 0.0000 -1.9537
# 5 -15.2608 -8.0253 -25.9623 0.0000 26.0108 0.0000
# 6 0.0000 0.0000 0.0000 -1.9537 0.0000 17.6000
#
#
#
# Elastic Compliance Matrix: (Units=1/GPa)
#
#
# Indices 1 2 3 4 5 6 
#
# 1 0.013443 -0.004699 -0.005910 0.000000 0.000539 0.000000
# 2 -0.004699 0.032291 -0.008367 0.000000 -0.001146 0.000000
# 3 -0.005910 -0.008367 0.018395 0.000000 0.012312 0.000000
# 4 0.000000 0.000000 0.000000 0.038419 0.000000 0.004265
# 5 0.000539 -0.001146 0.012312 0.000000 0.050697 0.000000
# 6 0.000000 0.000000 0.000000 0.004265 0.000000 0.057291
#
#
# Mechanical properties :
#
#
# Convention : Reuss Voigt Hill
#
# Bulk Modulus (GPa) = 38.20274 57.95127 48.07701
# Shear Modulus (GPa) = 19.43910 23.08147 21.26029
#
# Velocity S-wave (km/s) = 3.33962 3.63908 3.49256
# Velocity P-wave (km/s) = 6.06543 7.13487 6.62178
#
# Compressibility (1/GPa) = 0.02617613
#
# Stress axis : x y z
#
# Youngs Moduli (GPa) = 74.38658 30.96879 54.36301
#
# Poissons Ratio (x) = 0.14553 0.32127
# Poissons Ratio (y) = 0.34956 0.45488
# Poissons Ratio (z) = 0.43960 0.25913
#
# Static dielectric constant tensor:
#      x y z
#    x 3.290640 0.000000 -0.168680 
#    y 0.000000 2.963750 0.000000 
#    z -0.168680 0.000000 3.349270 
# 
# 
# High freq. dielectric constant tensor:
#      x y z
#    x 1.655020 0.000000 -0.021350 
#    y 0.000000 1.651750 0.000000 
#    z -0.021350 0.000000 1.678210 
# 
# From -- ./inp_files/287503.got.cif
#   From: 2010.06.25/outbox.cif.g09.slc.cpg/sg12_144_cif.got.tgz:287503.got - 2010.06.28 00:19:55.
