data_PCOD8081304
_publ_section_title
;
Structure prediction by ZEFSAII (Michael W. Deem and Ramdas Pophale) SiO2 
 PCOD8081304
Probable space group: C 2/M
;
_chemical_formula_sum "Si O2"
_cell_formula_units_Z 64
_cell_length_a 31.482269
_cell_length_b 8.858194
_cell_length_c 14.241938
_cell_angle_alpha 90.000000
_cell_angle_beta 90.052518
_cell_angle_gamma 90.000000
_cell_volume 3971.733693
_symmetry_space_group_name_H-M "C 2/M"
_symmetry_group_IT_number 12
_symmetry_cell_setting 'monoclinic'
loop_
_space_group_symop_operation_xyz
x,y,z
-x,y,-z
-x,-y,-z
x,-y,z
1/2+x,1/2+y,z
1/2-x,1/2+y,-z
1/2-x,1/2-y,-z
1/2+x,1/2-y,z
loop_
_atom_site_type_symbol
_atom_site_label
_atom_site_fract_x
_atom_site_fract_y
_atom_site_fract_z
Si Si1 0.501126 0.321482 0.603661
Si Si2 0.907743 0.821544 0.397552
Si Si3 0.247539 0.322247 0.398946
Si Si4 0.667385 0.822011 0.278803
Si Si5 0.701245 0.322303 0.096754
Si Si6 0.408788 0.322018 0.615272
Si Si7 0.671447 0.679493 0.718975
Si Si8 0.798957 0.677692 0.097264
O O1 0.500000 0.251048 0.500000
O O2 0.502781 0.500000 0.594892
O O3 0.546536 0.267208 0.647351
O O4 0.456529 0.278342 0.653546
O O5 0.903578 0.772855 0.506472
O O6 0.869581 0.753767 0.335656
O O7 0.904193 0.000000 0.392881
O O8 0.248397 0.500000 0.411720
O O9 0.250000 0.250000 0.500000
O O10 0.204739 0.267012 0.348063
O O11 0.287338 0.266427 0.338075
O O12 0.672047 0.741136 0.179199
O O13 0.622733 0.774973 0.322303
O O14 0.669289 0.000000 0.262934
O O15 0.695403 0.500000 0.088894
O O16 0.750068 0.276770 0.116309
O O17 0.685313 0.247935 0.000357
O O18 0.399692 0.500000 0.627532
O O19 0.670311 0.500000 0.729952
O O20 0.671912 0.753317 0.821327
O O21 0.805182 0.500000 0.093147
#
# Coordination Sequence:
#
# PCOD8081304 Si02
#       8
#     8   8   8   8   8   8   8   8
#     4   7  11  22  42  68  91 115 153 200 237 263
#     4   8  14  25  45  70  94 122 158 198 232 265
#     4  10  21  32  43  61  91 128 160 190 221 260
#     4  11  21  32  45  66  96 125 155 191 231 274
#     4  10  20  34  52  69  87 117 155 194 233 275
#     4   9  16  28  47  68  93 124 161 197 230 272
#     4  10  18  30  46  66  93 125 158 189 226 275
#     4  10  20  33  50  70  91 116 149 194 238 276
#
# _framework density 16.113869999999999
#
# number of rings (size 3 to 8) (size 9 to 14) (size 15 to 20)
#    0.000    2.625    1.250    3.375    0.000    3.500 
#    0.000    0.625    0.000    4.125    0.000    0.875 
#    0.000    7.000    0.000    0.000    0.000    0.000 
#
# Total GULP energy -396591.593476 kJ/mol
# GULP energy per Si atom -12393.487296 kJ/mol
# Density = 1.607719 g / cm^3
# Si number density = 16.113870 Si / 1000 Ang^3
#
#
#
# Elastic Constant Matrix: (Units=GPa)
#
#
# Indices 1 2 3 4 5 6 
#
# 1 119.7938 21.8919 50.8955 0.0000 -4.9752 0.0000
# 2 21.8919 33.8245 27.0048 0.0000 -0.1780 0.0000
# 3 50.8955 27.0048 104.8958 0.0000 -1.6913 0.0000
# 4 0.0000 0.0000 0.0000 26.7704 0.0000 -1.7375
# 5 -4.9752 -0.1780 -1.6913 0.0000 10.8799 0.0000
# 6 0.0000 0.0000 0.0000 -1.7375 0.0000 17.5779
#
#
#
# Elastic Compliance Matrix: (Units=1/GPa)
#
#
# Indices 1 2 3 4 5 6 
#
# 1 0.011041 -0.003653 -0.004347 0.000000 0.004313 0.000000
# 2 -0.003653 0.038430 -0.008159 0.000000 -0.002310 0.000000
# 3 -0.004347 -0.008159 0.013743 0.000000 0.000015 0.000000
# 4 0.000000 0.000000 0.000000 0.037596 0.000000 0.003716
# 5 0.004313 -0.002310 0.000015 0.000000 0.093849 0.000000
# 6 0.000000 0.000000 0.000000 0.003716 0.000000 0.057257
#
#
# Mechanical properties :
#
#
# Convention : Reuss Voigt Hill
#
# Bulk Modulus (GPa) = 32.36519 50.89983 41.63251
# Shear Modulus (GPa) = 16.97606 21.62713 19.30160
#
# Velocity S-wave (km/s) = 3.24930 3.66750 3.46472
# Velocity P-wave (km/s) = 5.84860 7.04204 6.47288
#
# Compressibility (1/GPa) = 0.03089739
#
# Stress axis : x y z
#
# Youngs Moduli (GPa) = 90.56873 26.02146 72.76315
#
# Poissons Ratio (x) = 0.09505 0.31633
# Poissons Ratio (y) = 0.33081 0.59364
# Poissons Ratio (z) = 0.39374 0.21230
#
# Static dielectric constant tensor:
#      x y z
#    x 3.402510 0.000000 0.101590 
#    y 0.000000 2.804520 0.000000 
#    z 0.101590 0.000000 2.944070 
# 
# 
# High freq. dielectric constant tensor:
#      x y z
#    x 1.616690 0.000000 0.000070 
#    y 0.000000 1.601100 0.000000 
#    z 0.000070 0.000000 1.599670 
# 
# From -- ./inp_files/248402.got.cif
#   From: 2010.06.25/outbox.cif.g09.slc.cpg/sg12_125_cif.got.tgz:248402.got - 2010.06.28 00:19:55.
