data_PCOD8081498
_publ_section_title
;
Structure prediction by ZEFSAII (Michael W. Deem and Ramdas Pophale) SiO2 
 PCOD8081498
Probable space group: C 2/M
;
_chemical_formula_sum "Si O2"
_cell_formula_units_Z 56
_cell_length_a 31.341624
_cell_length_b 13.421079
_cell_length_c 24.604508
_cell_angle_alpha 90.000000
_cell_angle_beta 18.158324
_cell_angle_gamma 90.000000
_cell_volume 3225.389471
_symmetry_space_group_name_H-M "C 2/M"
_symmetry_group_IT_number 12
_symmetry_cell_setting 'monoclinic'
loop_
_space_group_symop_operation_xyz
x,y,z
-x,y,-z
-x,-y,-z
x,-y,z
1/2+x,1/2+y,z
1/2-x,1/2+y,-z
1/2-x,1/2-y,-z
1/2+x,1/2-y,z
loop_
_atom_site_type_symbol
_atom_site_label
_atom_site_fract_x
_atom_site_fract_y
_atom_site_fract_z
Si Si1 0.614524 0.885060 0.978090
Si Si2 0.842539 0.710675 0.963120
Si Si3 0.813237 0.389583 0.311743
Si Si4 0.164277 0.385505 0.142993
Si Si5 0.654026 0.113742 0.465289
Si Si6 0.652300 0.239293 0.567651
Si Si7 0.147626 0.259238 0.833845
O O1 0.666908 0.803416 0.870928
O O2 0.655206 0.000000 0.914484
O O3 0.683672 0.854625 0.951360
O O4 0.449559 0.877671 0.183720
O O5 0.807942 0.641360 0.953577
O O6 0.998238 0.746407 0.773598
O O7 0.750901 0.810599 0.075782
O O8 0.759669 0.500000 0.374130
O O9 0.682396 0.332042 0.492464
O O10 0.848361 0.356204 0.208728
O O11 0.209285 0.500000 0.098372
O O12 0.006734 0.370237 0.350219
O O13 0.685912 0.142245 0.489755
O O14 0.735258 0.179430 0.322611
O O15 0.698451 0.000000 0.403113
O O16 0.750000 0.250000 0.500000
O O17 0.000000 0.207583 0.000000
#
# Coordination Sequence:
#
# PCOD8081498 Si02
#       7
#     8   8   8   8   8   8   8
#     4  10  18  30  51  76 101 130 166 205 253 306
#     4  10  19  32  54  76 103 135 167 210 253 298
#     4   9  17  29  47  72 104 138 162 193 248 304
#     4   9  19  36  54  73  98 134 176 209 248 300
#     4   9  19  35  54  71  96 138 176 206 249 304
#     4  10  18  30  48  77 110 129 160 208 251 303
#     4   9  18  32  51  74 103 130 167 211 248 301
#
# _framework density 17.362245000000001
#
# number of rings (size 3 to 8) (size 9 to 14) (size 15 to 20)
#    0.000    2.571    1.429    0.857    0.000    3.714 
#    0.000    1.429    0.000    5.143    0.000    0.000 
#    0.000    0.000    0.000    0.000    0.000    0.000 
#
# Total GULP energy -347057.139263 kJ/mol
# GULP energy per Si atom -12394.897831 kJ/mol
# Density = 1.732273 g / cm^3
# Si number density = 17.362245 Si / 1000 Ang^3
#
#
#
# Elastic Constant Matrix: (Units=GPa)
#
#
# Indices 1 2 3 4 5 6 
#
# 1 75.2437 37.1385 28.0639 0.0012 2.3559 -0.0004
# 2 37.1385 126.3391 50.1661 0.0004 -0.1492 0.0000
# 3 28.0639 50.1661 68.7763 -0.0006 6.6305 0.0001
# 4 0.0012 0.0004 -0.0006 23.0728 0.0001 -3.2768
# 5 2.3559 -0.1492 6.6305 0.0001 18.7508 0.0003
# 6 -0.0004 0.0000 0.0001 -3.2768 0.0003 20.8308
#
#
#
# Elastic Compliance Matrix: (Units=1/GPa)
#
#
# Indices 1 2 3 4 5 6 
#
# 1 0.016480 -0.003090 -0.004419 -0.000001 -0.000533 0.000000
# 2 -0.003090 0.011895 -0.007725 0.000000 0.003215 0.000000
# 3 -0.004419 -0.007725 0.022704 0.000001 -0.007535 0.000000
# 4 -0.000001 0.000000 0.000001 0.044331 -0.000001 0.006973
# 5 -0.000533 0.003215 -0.007535 -0.000001 0.056088 -0.000001
# 6 0.000000 0.000000 0.000000 0.006973 -0.000001 0.049103
#
#
# Mechanical properties :
#
#
# Convention : Reuss Voigt Hill
#
# Bulk Modulus (GPa) = 48.51999 55.67736 52.09867
# Shear Modulus (GPa) = 21.01358 22.86360 21.93859
#
# Velocity S-wave (km/s) = 3.48272 3.63279 3.55854
# Velocity P-wave (km/s) = 6.64671 7.05223 6.85247
#
# Compressibility (1/GPa) = 0.02061006
#
# Stress axis : x y z
#
# Youngs Moduli (GPa) = 60.67799 84.06947 44.04448
#
# Poissons Ratio (x) = 0.25981 0.19464
# Poissons Ratio (y) = 0.18752 0.34025
# Poissons Ratio (z) = 0.26815 0.64945
#
# Static dielectric constant tensor:
#      x y z
#    x 3.165420 0.000000 0.119180 
#    y 0.000000 3.253240 0.000000 
#    z 0.119180 0.000000 3.402030 
# 
# 
# High freq. dielectric constant tensor:
#      x y z
#    x 1.658170 0.000000 0.007810 
#    y 0.000000 1.671580 0.000000 
#    z 0.007810 0.000000 1.660290 
# 
# From -- ./inp_files/164889.got.cif
#   From: 2010.06.25/outbox.cif.g09.slc.cpg/sg12_83_cif.got.tgz:164889.got - 2010.06.28 00:19:55.
