data_PCOD8081119
_publ_section_title
;
Structure prediction by ZEFSAII (Michael W. Deem and Ramdas Pophale) SiO2 
 PCOD8081119
Probable space group: C 2/M
;
_chemical_formula_sum "Si O2"
_cell_formula_units_Z 44
_cell_length_a 20.680157
_cell_length_b 8.967247
_cell_length_c 15.638382
_cell_angle_alpha 90.000000
_cell_angle_beta 50.200019
_cell_angle_gamma 90.000000
_cell_volume 2228.057635
_symmetry_space_group_name_H-M "C 2/M"
_symmetry_group_IT_number 12
_symmetry_cell_setting 'monoclinic'
loop_
_space_group_symop_operation_xyz
x,y,z
-x,y,-z
-x,-y,-z
x,-y,z
1/2+x,1/2+y,z
1/2-x,1/2+y,-z
1/2-x,1/2-y,-z
1/2+x,1/2-y,z
loop_
_atom_site_type_symbol
_atom_site_label
_atom_site_fract_x
_atom_site_fract_y
_atom_site_fract_z
Si Si1 0.450134 0.822374 0.293083
Si Si2 0.248883 0.678363 0.252573
Si Si3 0.920066 0.325881 0.124262
Si Si4 0.604349 0.160865 0.261464
Si Si5 0.351299 0.666345 0.519285
Si Si6 0.000000 0.256660 0.500000
O O1 0.438447 0.776345 0.205380
O O2 0.543043 0.757886 0.244132
O O3 0.373788 0.751230 0.412022
O O4 0.448842 0.000000 0.308369
O O5 0.242723 0.500000 0.262195
O O6 0.342628 0.731700 0.152654
O O7 0.190003 0.740723 0.223166
O O8 0.220884 0.745301 0.367851
O O9 0.898101 0.500000 0.136791
O O10 0.000000 0.283906 0.000000
O O11 0.547548 0.135915 0.394001
O O12 0.629763 0.000000 0.202075
O O13 0.318016 0.500000 0.526339
O O14 0.434468 0.650754 0.506503
#
# Coordination Sequence:
#
# PCOD8081119 Si02
#       6
#     8   8   8   8   8   4
#     4   9  18  34  55  77 104 138 174 210 251 304
#     4  10  20  34  54  79 107 138 171 208 253 307
#     4  10  22  40  58  74  97 134 177 219 263 307
#     4   8  14  27  49  76 103 133 169 206 247 299
#     4  10  18  29  49  79 112 139 167 206 253 304
#     4   8  14  24  42  72 109 142 165 196 247 302
#
# _framework density 19.748142000000001
#
# number of rings (size 3 to 8) (size 9 to 14) (size 15 to 20)
#    0.000    2.727    0.000    1.636    0.000    6.182 
#    0.000    1.818    0.000    0.000    0.000    0.000 
#    0.000    0.000    0.000    0.000    0.000    0.000 
#
# Total GULP energy -272541.190483 kJ/mol
# GULP energy per Si atom -12388.235931 kJ/mol
# Density = 1.970319 g / cm^3
# Si number density = 19.748142 Si / 1000 Ang^3
#
#
#
# Elastic Constant Matrix: (Units=GPa)
#
#
# Indices 1 2 3 4 5 6 
#
# 1 75.8548 13.8955 21.0195 0.0002 -25.4188 0.0000
# 2 13.8955 67.1150 20.9746 -0.0003 -11.3248 0.0002
# 3 21.0195 20.9746 70.0222 -0.0001 -21.3656 0.0000
# 4 0.0002 -0.0003 -0.0001 23.0798 0.0001 -5.4073
# 5 -25.4188 -11.3248 -21.3656 0.0001 24.5070 0.0000
# 6 0.0000 0.0002 0.0000 -5.4073 0.0000 18.3030
#
#
#
# Elastic Compliance Matrix: (Units=1/GPa)
#
#
# Indices 1 2 3 4 5 6 
#
# 1 0.020256 -0.000816 0.000626 0.000000 0.021178 0.000000
# 2 -0.000816 0.016844 -0.003656 0.000000 0.003750 0.000000
# 3 0.000626 -0.003656 0.020261 0.000000 0.016623 0.000000
# 4 0.000000 0.000000 0.000000 0.046550 0.000000 0.013753
# 5 0.021178 0.003750 0.016623 0.000000 0.078996 0.000000
# 6 0.000000 0.000000 0.000000 0.013753 0.000000 0.058699
#
#
# Mechanical properties :
#
#
# Convention : Reuss Voigt Hill
#
# Bulk Modulus (GPa) = 20.13372 36.08567 28.10970
# Shear Modulus (GPa) = 18.80732 23.65147 21.22939
#
# Velocity S-wave (km/s) = 3.08938 3.46447 3.28229
# Velocity P-wave (km/s) = 4.78989 5.85799 5.35066
#
# Compressibility (1/GPa) = 0.04966791
#
# Stress axis : x y z
#
# Youngs Moduli (GPa) = 49.36853 59.36785 49.35660
#
# Poissons Ratio (x) = 0.04843 -0.03089
# Poissons Ratio (y) = 0.04028 0.18047
# Poissons Ratio (z) = -0.03090 0.21708
#
# Static dielectric constant tensor:
#      x y z
#    x 3.863600 0.000000 -0.073170 
#    y 0.000000 3.214320 0.000000 
#    z -0.073170 0.000000 3.307020 
# 
# 
# High freq. dielectric constant tensor:
#      x y z
#    x 1.781550 0.000000 -0.008560 
#    y 0.000000 1.742090 0.000000 
#    z -0.008560 0.000000 1.735920 
# 
# From -- ./inp_files/280766.got.cif
#   From: 2010.06.25/outbox.cif.g09.slc.cpg/sg12_141_cif.got.tgz:280766.got - 2010.06.28 00:19:55.
