data_PCOD8081646
_publ_section_title
;
Structure prediction by ZEFSAII (Michael W. Deem and Ramdas Pophale) SiO2 
 PCOD8081646
Probable space group: C 2/M
;
_chemical_formula_sum "Si O2"
_cell_formula_units_Z 56
_cell_length_a 32.201995
_cell_length_b 9.199539
_cell_length_c 20.675550
_cell_angle_alpha 90.000000
_cell_angle_beta 28.320917
_cell_angle_gamma 90.000000
_cell_volume 2905.757689
_symmetry_space_group_name_H-M "C 2/M"
_symmetry_group_IT_number 12
_symmetry_cell_setting 'monoclinic'
loop_
_space_group_symop_operation_xyz
x,y,z
-x,y,-z
-x,-y,-z
x,-y,z
1/2+x,1/2+y,z
1/2-x,1/2+y,-z
1/2-x,1/2-y,-z
1/2+x,1/2-y,z
loop_
_atom_site_type_symbol
_atom_site_label
_atom_site_fract_x
_atom_site_fract_y
_atom_site_fract_z
Si Si1 0.511050 0.329333 0.176190
Si Si2 0.170929 0.166515 0.246292
Si Si3 0.650893 0.837493 0.059322
Si Si4 0.549845 0.833225 0.325765
Si Si5 0.757037 0.669610 0.258525
Si Si6 0.546381 0.827614 0.002141
Si Si7 0.408706 0.668602 0.441114
O O1 0.513800 0.500000 0.159236
O O2 0.603807 0.278410 0.077629
O O3 0.434901 0.286445 0.332185
O O4 0.493015 0.246442 0.133912
O O5 0.086135 0.258450 0.341168
O O6 0.209937 0.233210 0.259223
O O7 0.141003 0.000000 0.296501
O O8 0.245220 0.181004 0.089318
O O9 0.624777 0.813657 0.169087
O O10 0.622953 0.000000 0.074521
O O11 0.461524 0.757302 0.422719
O O12 0.528765 0.000000 0.369751
O O13 0.769826 0.500000 0.229025
O O14 0.853863 0.734587 0.136724
O O15 0.694630 0.700242 0.406186
O O16 0.542469 0.000000 0.016465
O O17 0.500000 0.778562 0.000000
O O18 0.431279 0.500000 0.421706
#
# Coordination Sequence:
#
# PCOD8081646 Si02
#       7
#     8   8   8   8   8   8   8
#     4  10  19  32  54  81 108 138 170 214 264 313
#     4  10  18  30  50  72 100 138 182 226 260 302
#     4   9  17  31  50  72 102 139 181 222 258 307
#     4  10  20  31  46  73 108 142 177 223 266 304
#     4   9  18  35  57  78 101 136 181 221 255 306
#     4  10  20  37  62  86 106 132 171 216 261 314
#     4   9  19  36  55  74 103 145 185 212 250 311
#
# _framework density 19.272081
#
# number of rings (size 3 to 8) (size 9 to 14) (size 15 to 20)
#    0.000    2.429    1.429    1.286    0.000    2.571 
#    0.000    5.000    0.000    0.000    0.000    0.000 
#    0.000    0.000    0.000    0.000    0.000    0.000 
#
# Total GULP energy -347143.112559 kJ/mol
# GULP energy per Si atom -12397.968306 kJ/mol
# Density = 1.922822 g / cm^3
# Si number density = 19.272081 Si / 1000 Ang^3
#
#
#
# Elastic Constant Matrix: (Units=GPa)
#
#
# Indices 1 2 3 4 5 6 
#
# 1 129.7383 43.6270 47.7497 0.0007 -1.6500 -0.0009
# 2 43.6270 58.2960 25.0821 0.0013 -2.3065 0.0024
# 3 47.7497 25.0821 90.7473 0.0014 1.7893 0.0006
# 4 0.0007 0.0013 0.0014 18.6331 0.0017 3.2790
# 5 -1.6500 -2.3065 1.7893 0.0017 13.5326 0.0007
# 6 -0.0009 0.0024 0.0006 3.2790 0.0007 26.0922
#
#
#
# Elastic Compliance Matrix: (Units=1/GPa)
#
#
# Indices 1 2 3 4 5 6 
#
# 1 0.011558 -0.006803 -0.004217 0.000000 0.000807 0.000001
# 2 -0.006803 0.023696 -0.003041 -0.000001 0.003611 -0.000002
# 3 -0.004217 -0.003041 0.014136 0.000000 -0.002902 0.000000
# 4 0.000000 -0.000001 0.000000 0.054882 -0.000007 -0.006897
# 5 0.000807 0.003611 -0.002902 -0.000007 0.074993 -0.000001
# 6 0.000001 -0.000002 0.000000 -0.006897 -0.000001 0.039192
#
#
# Mechanical properties :
#
#
# Convention : Reuss Voigt Hill
#
# Bulk Modulus (GPa) = 47.01916 56.85547 51.93731
# Shear Modulus (GPa) = 19.71064 22.47311 21.09187
#
# Velocity S-wave (km/s) = 3.20153 3.41852 3.31180
# Velocity P-wave (km/s) = 6.17389 6.71917 6.45229
#
# Compressibility (1/GPa) = 0.02126793
#
# Stress axis : x y z
#
# Youngs Moduli (GPa) = 86.52094 42.20039 70.73968
#
# Poissons Ratio (x) = 0.28710 0.29832
# Poissons Ratio (y) = 0.58862 0.21512
# Poissons Ratio (z) = 0.36487 0.12833
#
# Static dielectric constant tensor:
#      x y z
#    x 3.371030 0.000000 0.150560 
#    y 0.000000 3.345550 0.000010 
#    z 0.150560 0.000010 3.595280 
# 
# 
# High freq. dielectric constant tensor:
#      x y z
#    x 1.729250 0.000000 0.016780 
#    y 0.000000 1.729520 0.000000 
#    z 0.016780 0.000000 1.752040 
# 
# From -- ./inp_files/319649.got.cif
#   From: 2010.06.25/outbox.cif.g09.slc.cpg/sg12_160_cif.got.tgz:319649.got - 2010.06.28 00:19:55.
