data_PCOD8081605
_publ_section_title
;
Structure prediction by ZEFSAII (Michael W. Deem and Ramdas Pophale) SiO2 
 PCOD8081605
Probable space group: C 2/M
;
_chemical_formula_sum "Si O2"
_cell_formula_units_Z 64
_cell_length_a 20.157966
_cell_length_b 8.992593
_cell_length_c 23.576655
_cell_angle_alpha 90.000000
_cell_angle_beta 57.852374
_cell_angle_gamma 90.000000
_cell_volume 3618.537617
_symmetry_space_group_name_H-M "C 2/M"
_symmetry_group_IT_number 12
_symmetry_cell_setting 'monoclinic'
loop_
_space_group_symop_operation_xyz
x,y,z
-x,y,-z
-x,-y,-z
x,-y,z
1/2+x,1/2+y,z
1/2-x,1/2+y,-z
1/2-x,1/2-y,-z
1/2+x,1/2-y,z
loop_
_atom_site_type_symbol
_atom_site_label
_atom_site_fract_x
_atom_site_fract_y
_atom_site_fract_z
Si Si1 0.830645 0.675478 0.945296
Si Si2 0.085641 0.833125 0.190523
Si Si3 0.001079 0.672269 0.322930
Si Si4 0.222346 0.676080 0.455355
Si Si5 0.985878 0.673179 0.941456
Si Si6 0.544494 0.823529 0.533903
Si Si7 0.155867 0.327978 0.676214
Si Si8 0.572509 0.666577 0.808165
O O1 0.818828 0.500000 0.946862
O O2 0.852400 0.735760 0.872964
O O3 0.898518 0.717638 0.960038
O O4 0.750000 0.750000 0.000000
O O5 0.069820 0.761190 0.259326
O O6 0.004753 0.835145 0.194201
O O7 0.118729 0.000000 0.183246
O O8 0.024726 0.500000 0.310561
O O9 0.994298 0.735521 0.390015
O O10 0.916929 0.696381 0.332479
O O11 0.231789 0.500000 0.455941
O O12 0.250000 0.750000 0.500000
O O13 0.133540 0.726879 0.486959
O O14 0.270900 0.735938 0.380151
O O15 0.999656 0.500000 0.923791
O O16 0.052864 0.761624 0.877512
O O17 0.000000 0.716344 0.000000
O O18 0.500000 0.755443 0.500000
O O19 0.538656 0.000000 0.537743
O O20 0.178514 0.500000 0.670749
O O21 0.137622 0.265444 0.747093
O O22 0.604749 0.500000 0.802641
#
# Coordination Sequence:
#
# PCOD8081605 Si02
#       8
#     8   8   8   8   8   8   8   8
#     4  10  19  32  52  77 104 133 165 206 250 295
#     4   9  17  29  47  73 101 129 164 207 249 291
#     4   9  16  29  49  73  97 126 165 205 249 295
#     4  11  20  32  51  77 102 129 166 208 253 298
#     4   9  18  33  53  76 103 137 171 203 247 300
#     4   9  18  33  52  73  99 132 168 205 247 299
#     4  10  18  30  49  75 102 130 165 209 255 296
#     4   9  17  29  47  75 104 132 166 207 251 294
#
# _framework density 17.686702
#
# number of rings (size 3 to 8) (size 9 to 14) (size 15 to 20)
#    0.000    2.500    1.250    1.875    0.000    4.250 
#    0.000    0.000    2.750    3.375    0.000    0.000 
#    0.000    0.000    0.000    0.000    0.000    0.000 
#
# Total GULP energy -396768.784833 kJ/mol
# GULP energy per Si atom -12399.024526 kJ/mol
# Density = 1.764645 g / cm^3
# Si number density = 17.686702 Si / 1000 Ang^3
#
#
#
# Elastic Constant Matrix: (Units=GPa)
#
#
# Indices 1 2 3 4 5 6 
#
# 1 71.7165 38.8127 62.5739 -0.0001 -0.7422 -0.0003
# 2 38.8127 92.3312 69.2875 -0.0002 -4.2519 -0.0005
# 3 62.5739 69.2875 175.0318 0.0000 -3.2633 -0.0002
# 4 -0.0001 -0.0002 0.0000 37.8705 0.0000 -5.9334
# 5 -0.7422 -4.2519 -3.2633 0.0000 26.4385 -0.0001
# 6 -0.0003 -0.0005 -0.0002 -5.9334 -0.0001 15.7058
#
#
#
# Elastic Compliance Matrix: (Units=1/GPa)
#
#
# Indices 1 2 3 4 5 6 
#
# 1 0.021615 -0.004717 -0.005877 0.000000 -0.000877 0.000000
# 2 -0.004717 0.016516 -0.004816 0.000000 0.001929 0.000000
# 3 -0.005877 -0.004816 0.009725 0.000000 0.000261 0.000000
# 4 0.000000 0.000000 0.000000 0.028067 0.000000 0.010603
# 5 -0.000877 0.001929 0.000261 0.000000 0.038141 0.000000
# 6 0.000000 0.000000 0.000000 0.010603 0.000000 0.067677
#
#
# Mechanical properties :
#
#
# Convention : Reuss Voigt Hill
#
# Bulk Modulus (GPa) = 58.69157 75.60307 67.14732
# Shear Modulus (GPa) = 22.91074 27.22999 25.07037
#
# Velocity S-wave (km/s) = 3.60302 3.92800 3.76901
# Velocity P-wave (km/s) = 7.11091 7.96309 7.54903
#
# Compressibility (1/GPa) = 0.01703822
#
# Stress axis : x y z
#
# Youngs Moduli (GPa) = 46.26493 60.54741 102.82409
#
# Poissons Ratio (x) = 0.28557 0.60425
# Poissons Ratio (y) = 0.21821 0.49518
# Poissons Ratio (z) = 0.27188 0.29159
#
# Static dielectric constant tensor:
#      x y z
#    x 3.007610 0.000000 -0.037280 
#    y 0.000000 3.336860 0.000000 
#    z -0.037280 0.000000 3.615630 
# 
# 
# High freq. dielectric constant tensor:
#      x y z
#    x 1.638350 0.000000 -0.005850 
#    y 0.000000 1.683750 0.000000 
#    z -0.005850 0.000000 1.701230 
# 
# From -- ./inp_files/319784.got.cif
#   From: 2010.06.25/outbox.cif.g09.slc.cpg/sg12_160_cif.got.tgz:319784.got - 2010.06.28 00:19:55.
