data_PCOD8081902
_publ_section_title
;
Structure prediction by ZEFSAII (Michael W. Deem and Ramdas Pophale) SiO2 
 PCOD8081902
Probable space group: C 2/M
;
_chemical_formula_sum "Si O2"
_cell_formula_units_Z 64
_cell_length_a 28.995728
_cell_length_b 8.735659
_cell_length_c 15.661796
_cell_angle_alpha 90.000000
_cell_angle_beta 117.327724
_cell_angle_gamma 90.000000
_cell_volume 3524.337216
_symmetry_space_group_name_H-M "C 2/M"
_symmetry_group_IT_number 12
_symmetry_cell_setting 'monoclinic'
loop_
_space_group_symop_operation_xyz
x,y,z
-x,y,-z
-x,-y,-z
x,-y,z
1/2+x,1/2+y,z
1/2-x,1/2+y,-z
1/2-x,1/2-y,-z
1/2+x,1/2-y,z
loop_
_atom_site_type_symbol
_atom_site_label
_atom_site_fract_x
_atom_site_fract_y
_atom_site_fract_z
Si Si1 0.207519 0.819927 0.280854
Si Si2 0.592669 0.324339 0.562257
Si Si3 0.135790 0.680293 0.346260
Si Si4 0.542112 0.679715 0.348732
Si Si5 0.304752 0.323217 0.446425
Si Si6 0.272006 0.680822 0.893230
Si Si7 0.828952 0.319752 0.093196
Si Si8 0.424414 0.679395 0.265487
O O1 0.156036 0.732952 0.270459
O O2 0.255384 0.778879 0.382664
O O3 0.219738 0.760914 0.195986
O O4 0.197653 0.000000 0.274513
O O5 0.576364 0.500000 0.556481
O O6 0.557629 0.254707 0.455955
O O7 0.653273 0.302541 0.593157
O O8 0.580949 0.247372 0.643914
O O9 0.140654 0.500000 0.361860
O O10 0.075968 0.732198 0.306406
O O11 0.171523 0.766339 0.445077
O O12 0.555916 0.500000 0.355932
O O13 0.481997 0.711984 0.279239
O O14 0.288120 0.500000 0.441867
O O15 0.277182 0.500000 0.904096
O O16 0.215199 0.735135 0.877215
O O17 0.316604 0.754346 0.989307
O O18 0.830904 0.500000 0.088983
O O19 0.884833 0.259681 0.168406
O O20 0.411789 0.500000 0.256734
#
# Coordination Sequence:
#
# PCOD8081902 Si02
#       8
#     8   8   8   8   8   8   8   8
#     4  11  21  34  53  75 100 130 168 210 251 297
#     4   8  15  28  48  74 102 133 169 206 241 286
#     4  11  22  35  50  70 100 136 173 211 252 294
#     4   9  18  33  51  72 100 135 174 211 248 291
#     4  10  19  32  50  74 105 137 170 205 245 295
#     4   9  20  37  55  76 103 134 164 199 247 301
#     4  10  20  34  53  78 107 133 161 200 245 297
#     4  10  18  30  52  77 102 134 170 206 247 298
#
# _framework density 18.159443
#
# number of rings (size 3 to 8) (size 9 to 14) (size 15 to 20)
#    0.000    2.250    0.000    4.500    0.000    3.500 
#    0.000    2.500    0.000    4.500    0.000    5.250 
#    0.000    0.000    0.000    0.000    0.000    0.000 
#
# Total GULP energy -396828.626859 kJ/mol
# GULP energy per Si atom -12400.894589 kJ/mol
# Density = 1.811811 g / cm^3
# Si number density = 18.159443 Si / 1000 Ang^3
#
#
#
# Elastic Constant Matrix: (Units=GPa)
#
#
# Indices 1 2 3 4 5 6 
#
# 1 98.5394 27.4648 51.2043 0.0000 -3.4527 0.0000
# 2 27.4648 40.0823 20.8831 0.0000 -4.7211 0.0000
# 3 51.2043 20.8831 70.7940 0.0000 2.4041 0.0000
# 4 0.0000 0.0000 0.0000 22.7001 0.0000 3.6040
# 5 -3.4527 -4.7211 2.4041 0.0000 27.8713 0.0000
# 6 0.0000 0.0000 0.0000 3.6040 0.0000 26.4946
#
#
#
# Elastic Compliance Matrix: (Units=1/GPa)
#
#
# Indices 1 2 3 4 5 6 
#
# 1 0.017663 -0.006098 -0.011048 0.000000 0.002108 0.000000
# 2 -0.006098 0.032537 -0.005364 0.000000 0.005219 0.000000
# 3 -0.011048 -0.005364 0.023846 0.000000 -0.004334 0.000000
# 4 0.000000 0.000000 0.000000 0.045025 0.000000 -0.006125
# 5 0.002108 0.005219 -0.004334 0.000000 0.037398 0.000000
# 6 0.000000 0.000000 0.000000 -0.006125 0.000000 0.038577
#
#
# Mechanical properties :
#
#
# Convention : Reuss Voigt Hill
#
# Bulk Modulus (GPa) = 34.45370 45.39112 39.92241
# Shear Modulus (GPa) = 20.02078 22.73745 21.37911
#
# Velocity S-wave (km/s) = 3.32399 3.54234 3.43490
# Velocity P-wave (km/s) = 5.80913 6.46383 6.14520
#
# Compressibility (1/GPa) = 0.02902446
#
# Stress axis : x y z
#
# Youngs Moduli (GPa) = 56.61680 30.73442 41.93625
#
# Poissons Ratio (x) = 0.18743 0.46330
# Poissons Ratio (y) = 0.34527 0.22495
# Poissons Ratio (z) = 0.62549 0.16487
#
# Static dielectric constant tensor:
#      x y z
#    x 3.533930 0.000000 -0.155570 
#    y 0.000000 3.175620 0.000000 
#    z -0.155570 0.000000 3.240820 
# 
# 
# High freq. dielectric constant tensor:
#      x y z
#    x 1.706860 0.000000 -0.005190 
#    y 0.000000 1.691970 0.000000 
#    z -0.005190 0.000000 1.680980 
# 
# From -- ./inp_files/244159.got.cif
#   From: 2010.06.25/outbox.cif.g09.slc.cpg/sg12_123_cif.got.tgz:244159.got - 2010.06.28 00:19:55.
