data_PCOD8081853
_publ_section_title
;
Structure prediction by ZEFSAII (Michael W. Deem and Ramdas Pophale) SiO2 
 PCOD8081853
Probable space group: C 2/M
;
_chemical_formula_sum "Si O2"
_cell_formula_units_Z 40
_cell_length_a 25.527000
_cell_length_b 8.738296
_cell_length_c 25.237401
_cell_angle_alpha 90.000000
_cell_angle_beta 23.231193
_cell_angle_gamma 90.000000
_cell_volume 2220.519458
_symmetry_space_group_name_H-M "C 2/M"
_symmetry_group_IT_number 12
_symmetry_cell_setting 'monoclinic'
loop_
_space_group_symop_operation_xyz
x,y,z
-x,y,-z
-x,-y,-z
x,-y,z
1/2+x,1/2+y,z
1/2-x,1/2+y,-z
1/2-x,1/2-y,-z
1/2+x,1/2-y,z
loop_
_atom_site_type_symbol
_atom_site_label
_atom_site_fract_x
_atom_site_fract_y
_atom_site_fract_z
Si Si1 0.615740 0.821954 0.851085
Si Si2 0.539234 0.680407 0.096160
Si Si3 0.388652 0.323302 0.860292
Si Si4 0.675400 0.679617 0.192018
Si Si5 0.120402 0.320550 0.350915
O O1 0.570688 0.771859 0.834512
O O2 0.742998 0.724638 0.748365
O O3 0.652644 0.000000 0.817299
O O4 0.500000 0.783484 0.000000
O O5 0.523508 0.500000 0.100168
O O6 0.512254 0.725237 0.183782
O O7 0.686319 0.730436 0.941670
O O8 0.363827 0.500000 0.890472
O O9 0.424341 0.285792 0.765607
O O10 0.250000 0.250000 0.000000
O O11 0.708891 0.500000 0.165000
O O12 0.599516 0.734427 0.314683
O O13 0.118570 0.500000 0.341776
O O14 0.000000 0.268498 0.500000
#
# Coordination Sequence:
#
# PCOD8081853 Si02
#       5
#     8   8   8   8   8
#     4  11  22  35  54  80 108 139 175 219 266 312
#     4  10  18  30  51  78 108 139 172 214 261 307
#     4   8  16  28  45  73 105 136 169 209 258 307
#     4  10  18  31  51  76 107 139 174 215 259 311
#     4  11  24  39  55  77 105 140 180 219 263 316
#
# _framework density 18.013804
#
# number of rings (size 3 to 8) (size 9 to 14) (size 15 to 20)
#    0.000    2.000    2.000    2.400    0.000    4.000 
#    0.000    0.000    0.000    1.200    0.000    0.000 
#    0.000    0.000    0.000    0.000    0.000    0.000 
#
# Total GULP energy -247816.137730 kJ/mol
# GULP energy per Si atom -12390.806886 kJ/mol
# Density = 1.797280 g / cm^3
# Si number density = 18.013804 Si / 1000 Ang^3
#
#
#
# Elastic Constant Matrix: (Units=GPa)
#
#
# Indices 1 2 3 4 5 6 
#
# 1 168.8239 24.2478 35.7187 0.0015 17.1307 -0.0009
# 2 24.2478 21.4287 9.5125 0.0063 1.4896 -0.0033
# 3 35.7187 9.5125 55.0024 -0.0026 7.8543 -0.0001
# 4 0.0015 0.0063 -0.0026 18.1354 0.0004 2.7493
# 5 17.1307 1.4896 7.8543 0.0004 16.6156 0.0003
# 6 -0.0009 -0.0033 -0.0001 2.7493 0.0003 26.8003
#
#
#
# Elastic Compliance Matrix: (Units=1/GPa)
#
#
# Indices 1 2 3 4 5 6 
#
# 1 0.008336 -0.007571 -0.003189 0.000002 -0.006408 -0.000001
# 2 -0.007571 0.057427 -0.005785 -0.000022 0.005392 0.000009
# 3 -0.003189 -0.005785 0.022208 0.000006 -0.006692 -0.000001
# 4 0.000002 -0.000022 0.000006 0.056012 -0.000004 -0.005746
# 5 -0.006408 0.005392 -0.006692 -0.000004 0.069471 0.000000
# 6 -0.000001 0.000009 -0.000001 -0.005746 0.000000 0.037902
#
#
# Mechanical properties :
#
#
# Convention : Reuss Voigt Hill
#
# Bulk Modulus (GPa) = 18.22140 42.69032 30.45586
# Shear Modulus (GPa) = 16.51587 24.02866 20.27227
#
# Velocity S-wave (km/s) = 3.03123 3.65623 3.35830
# Velocity P-wave (km/s) = 4.73163 6.44780 5.65519
#
# Compressibility (1/GPa) = 0.05488053
#
# Stress axis : x y z
#
# Youngs Moduli (GPa) = 119.96656 17.41338 45.02921
#
# Poissons Ratio (x) = 0.13184 0.14358
# Poissons Ratio (y) = 0.90831 0.26049
# Poissons Ratio (z) = 0.38254 0.10074
#
# Static dielectric constant tensor:
#      x y z
#    x 4.252990 0.000000 0.249320 
#    y 0.000000 3.268570 0.000010 
#    z 0.249320 0.000010 2.937720 
# 
# 
# High freq. dielectric constant tensor:
#      x y z
#    x 1.730150 0.000000 0.010340 
#    y 0.000000 1.711660 0.000000 
#    z 0.010340 0.000000 1.634400 
# 
# From -- ./inp_files/92821.got.cif
#   From: 2010.06.25/outbox.cif.g09.slc.cpg/sg12_47_cif.got.tgz:92821.got - 2010.06.28 00:19:55.
