data_PCOD8081233
_publ_section_title
;
Structure prediction by ZEFSAII (Michael W. Deem and Ramdas Pophale) SiO2 
 PCOD8081233
Probable space group: C 2/M
;
_chemical_formula_sum "Si O2"
_cell_formula_units_Z 52
_cell_length_a 12.209538
_cell_length_b 23.712303
_cell_length_c 13.730834
_cell_angle_alpha 90.000000
_cell_angle_beta 138.071805
_cell_angle_gamma 90.000000
_cell_volume 2656.290325
_symmetry_space_group_name_H-M "C 2/M"
_symmetry_group_IT_number 12
_symmetry_cell_setting 'monoclinic'
loop_
_space_group_symop_operation_xyz
x,y,z
-x,y,-z
-x,-y,-z
x,-y,z
1/2+x,1/2+y,z
1/2-x,1/2+y,-z
1/2-x,1/2-y,-z
1/2+x,1/2-y,z
loop_
_atom_site_type_symbol
_atom_site_label
_atom_site_fract_x
_atom_site_fract_y
_atom_site_fract_z
Si Si1 0.146053 0.810131 0.164272
Si Si2 0.655491 0.127213 0.853534
Si Si3 0.381753 0.602306 0.334324
Si Si4 0.111609 0.500000 0.836984
Si Si5 0.407767 0.178690 0.841507
Si Si6 0.485739 0.386483 0.192007
Si Si7 0.855587 0.500000 0.829252
Si Si8 0.525088 0.500000 0.900909
O O1 0.309717 0.831479 0.216177
O O2 0.124453 0.744785 0.171279
O O3 0.121771 0.840486 0.251770
O O4 0.000000 0.833066 0.000000
O O5 0.506856 0.157219 0.812773
O O6 0.614443 0.062783 0.786659
O O7 0.805827 0.126269 0.029318
O O8 0.500000 0.584615 0.500000
O O9 0.276762 0.656849 0.291246
O O10 0.488815 0.614024 0.310104
O O11 0.254210 0.553719 0.226641
O O12 0.942229 0.500000 0.782460
O O13 0.284211 0.500000 0.008574
O O14 0.500000 0.156886 0.000000
O O15 0.558506 0.445306 0.200056
O O16 0.000000 0.500000 0.000000
O O17 0.500000 0.500000 0.000000
#
# Coordination Sequence:
#
# PCOD8081233 Si02
#       8
#     8   8   8   4   8   8   4   4
#     4   9  21  32  58  90 118 154 201 264 313 355
#     4  10  18  34  57  91 119 147 203 259 314 360
#     4  12  25  39  57  87 127 163 196 244 305 370
#     4  10  18  29  54  85 118 148 181 239 294 369
#     4  11  21  36  59  87 118 158 201 258 306 361
#     4  10  19  35  55  86 122 158 197 248 308 365
#     4  12  21  38  62  93 115 152 198 245 309 349
#     4  10  18  31  57  94 125 147 186 249 314 357
#
# _framework density 19.576173000000001
#
# number of rings (size 3 to 8) (size 9 to 14) (size 15 to 20)
#    0.000    1.538    3.077    5.308    2.154    1.846 
#    0.000    0.769    0.000    0.000    0.000    2.154 
#    0.000    0.000    0.000    0.000    0.000    0.000 
#
# Total GULP energy -322094.750151 kJ/mol
# GULP energy per Si atom -12388.259621 kJ/mol
# Density = 1.953162 g / cm^3
# Si number density = 19.576173 Si / 1000 Ang^3
#
#
#
# Elastic Constant Matrix: (Units=GPa)
#
#
# Indices 1 2 3 4 5 6 
#
# 1 140.5607 61.0269 36.5829 0.0000 -26.0299 0.0000
# 2 61.0269 130.6913 29.1230 0.0000 -8.5212 0.0000
# 3 36.5829 29.1230 66.6739 0.0000 -8.5814 0.0000
# 4 0.0000 0.0000 0.0000 5.4398 0.0000 -3.7507
# 5 -26.0299 -8.5212 -8.5814 0.0000 19.8695 0.0000
# 6 0.0000 0.0000 0.0000 -3.7507 0.0000 36.4660
#
#
#
# Elastic Compliance Matrix: (Units=1/GPa)
#
#
# Indices 1 2 3 4 5 6 
#
# 1 0.012075 -0.004098 -0.003204 0.000000 0.012678 0.000000
# 2 -0.004098 0.009956 -0.002373 0.000000 -0.002124 0.000000
# 3 -0.003204 -0.002373 0.018130 0.000000 0.002615 0.000000
# 4 0.000000 0.000000 0.000000 0.197862 0.000000 0.020351
# 5 0.012678 -0.002124 0.002615 0.000000 0.067156 0.000000
# 6 0.000000 0.000000 0.000000 0.020351 0.000000 0.029516
#
#
# Mechanical properties :
#
#
# Convention : Reuss Voigt Hill
#
# Bulk Modulus (GPa) = 48.05406 65.71016 56.88211
# Shear Modulus (GPa) = 13.85117 26.43459 20.14288
#
# Velocity S-wave (km/s) = 2.66287 3.67869 3.21120
# Velocity P-wave (km/s) = 5.83567 7.18909 6.54744
#
# Compressibility (1/GPa) = 0.02080990
#
# Stress axis : x y z
#
# Youngs Moduli (GPa) = 82.81453 100.44582 55.15871
#
# Poissons Ratio (x) = 0.41163 0.17671
# Poissons Ratio (y) = 0.33938 0.13092
# Poissons Ratio (z) = 0.26531 0.23840
#
# Static dielectric constant tensor:
#      x y z
#    x 3.614120 0.000000 -0.116800 
#    y 0.000000 3.749330 0.000000 
#    z -0.116800 0.000000 2.969810 
# 
# 
# High freq. dielectric constant tensor:
#      x y z
#    x 1.780410 0.000000 -0.009120 
#    y 0.000000 1.785040 0.000000 
#    z -0.009120 0.000000 1.685010 
# 
# From -- ./inp_files/52578.got.cif
#   From: 2010.06.25/outbox.cif.g09.slc.cpg/sg12_27_cif.got.tgz:52578.got - 2010.06.28 00:19:55.
