data_PCOD8081948
_publ_section_title
;
Structure prediction by ZEFSAII (Michael W. Deem and Ramdas Pophale) SiO2 
 PCOD8081948
Probable space group: C 2/M
;
_chemical_formula_sum "Si O2"
_cell_formula_units_Z 48
_cell_length_a 17.239511
_cell_length_b 14.043004
_cell_length_c 11.406150
_cell_angle_alpha 90.000000
_cell_angle_beta 66.519703
_cell_angle_gamma 90.000000
_cell_volume 2532.717401
_symmetry_space_group_name_H-M "C 2/M"
_symmetry_group_IT_number 12
_symmetry_cell_setting 'monoclinic'
loop_
_space_group_symop_operation_xyz
x,y,z
-x,y,-z
-x,-y,-z
x,-y,z
1/2+x,1/2+y,z
1/2-x,1/2+y,-z
1/2-x,1/2-y,-z
1/2+x,1/2-y,z
loop_
_atom_site_type_symbol
_atom_site_label
_atom_site_fract_x
_atom_site_fract_y
_atom_site_fract_z
Si Si1 0.478373 0.500000 0.678202
Si Si2 0.275517 0.389260 0.007871
Si Si3 0.845184 0.260629 0.794455
Si Si4 0.912605 0.894275 0.117085
Si Si5 0.851642 0.000000 0.570337
Si Si6 0.319129 0.707654 0.546459
Si Si7 0.527485 0.699340 0.709881
O O1 0.382421 0.500000 0.686003
O O2 0.556823 0.500000 0.543644
O O3 0.484239 0.595104 0.749776
O O4 0.268875 0.500000 0.980089
O O5 0.299824 0.332241 0.876090
O O6 0.187550 0.354186 0.118386
O O7 0.343742 0.364558 0.064855
O O8 0.821377 0.260653 0.670218
O O9 0.946941 0.268604 0.752512
O O10 0.913486 0.805437 0.209618
O O11 0.890881 0.000000 0.185078
O O12 0.000000 0.900776 0.000000
O O13 0.798420 0.094659 0.571495
O O14 0.250000 0.750000 0.500000
O O15 0.413832 0.719244 0.437425
#
# Coordination Sequence:
#
# PCOD8081948 Si02
#       7
#     4   8   8   8   4   8   8
#     4   9  16  28  51  86 110 139 179 230 290 342
#     4  10  23  39  57  85 120 156 194 234 280 342
#     4  11  22  37  59  86 113 157 196 232 287 341
#     4  10  18  30  52  83 116 146 177 230 294 343
#     4   9  18  32  54  80 113 148 181 227 290 340
#     4  11  23  37  56  87 120 149 189 242 295 347
#     4  11  19  33  59  87 118 147 188 236 292 346
#
# _framework density 18.951975999999998
#
# number of rings (size 3 to 8) (size 9 to 14) (size 15 to 20)
#    0.000    1.667    4.167    1.500    2.333    0.000 
#    1.500    0.000    1.833    1.000    0.000    3.500 
#    0.000    0.000    0.000    0.000    0.000    0.000 
#
# Total GULP energy -297351.306403 kJ/mol
# GULP energy per Si atom -12389.637767 kJ/mol
# Density = 1.890884 g / cm^3
# Si number density = 18.951976 Si / 1000 Ang^3
#
#
#
# Elastic Constant Matrix: (Units=GPa)
#
#
# Indices 1 2 3 4 5 6 
#
# 1 85.4561 23.7900 25.9067 0.0000 5.1173 0.0000
# 2 23.7900 54.9328 12.9484 0.0000 1.9575 0.0000
# 3 25.9067 12.9484 95.7958 0.0000 4.4725 0.0000
# 4 0.0000 0.0000 0.0000 20.1525 0.0000 -0.3562
# 5 5.1173 1.9575 4.4725 0.0000 31.3068 0.0000
# 6 0.0000 0.0000 0.0000 -0.3562 0.0000 38.3262
#
#
#
# Elastic Compliance Matrix: (Units=1/GPa)
#
#
# Indices 1 2 3 4 5 6 
#
# 1 0.014217 -0.005384 -0.003045 0.000000 -0.001552 0.000000
# 2 -0.005384 0.020863 -0.001353 0.000000 -0.000231 0.000000
# 3 -0.003045 -0.001353 0.011495 0.000000 -0.001060 0.000000
# 4 0.000000 0.000000 0.000000 0.049630 0.000000 0.000461
# 5 -0.001552 -0.000231 -0.001060 0.000000 0.032362 0.000000
# 6 0.000000 0.000000 0.000000 0.000461 0.000000 0.026096
#
#
# Mechanical properties :
#
#
# Convention : Reuss Voigt Hill
#
# Bulk Modulus (GPa) = 37.02203 40.16389 38.59296
# Shear Modulus (GPa) = 27.28833 29.52638 28.40736
#
# Velocity S-wave (km/s) = 3.79867 3.95138 3.87578
# Velocity P-wave (km/s) = 6.23033 6.48509 6.35898
#
# Compressibility (1/GPa) = 0.02701094
#
# Stress axis : x y z
#
# Youngs Moduli (GPa) = 70.34000 47.93194 86.99730
#
# Poissons Ratio (x) = 0.25806 0.26486
# Poissons Ratio (y) = 0.37871 0.11772
# Poissons Ratio (z) = 0.21415 0.06486
#
# Static dielectric constant tensor:
#      x y z
#    x 3.978450 0.000000 0.186990 
#    y 0.000000 3.409210 0.000000 
#    z 0.186990 0.000000 3.618050 
# 
# 
# High freq. dielectric constant tensor:
#      x y z
#    x 1.728950 0.000000 0.009880 
#    y 0.000000 1.698130 0.000000 
#    z 0.009880 0.000000 1.751430 
# 
# From -- ./inp_files/155275.got.cif
#   From: 2010.06.25/outbox.cif.g09.slc.cpg/sg12_78_cif.got.tgz:155275.got - 2010.06.28 00:19:55.
