data_PCOD8081488
_publ_section_title
;
Structure prediction by ZEFSAII (Michael W. Deem and Ramdas Pophale) SiO2 
 PCOD8081488
Probable space group: C 2/M
;
_chemical_formula_sum "Si O2"
_cell_formula_units_Z 64
_cell_length_a 30.318983
_cell_length_b 15.351879
_cell_length_c 21.492007
_cell_angle_alpha 90.000000
_cell_angle_beta 19.792709
_cell_angle_gamma 90.000000
_cell_volume 3387.376137
_symmetry_space_group_name_H-M "C 2/M"
_symmetry_group_IT_number 12
_symmetry_cell_setting 'monoclinic'
loop_
_space_group_symop_operation_xyz
x,y,z
-x,y,-z
-x,-y,-z
x,-y,z
1/2+x,1/2+y,z
1/2-x,1/2+y,-z
1/2-x,1/2-y,-z
1/2+x,1/2-y,z
loop_
_atom_site_type_symbol
_atom_site_label
_atom_site_fract_x
_atom_site_fract_y
_atom_site_fract_z
Si Si1 0.523363 0.336111 0.089681
Si Si2 0.888516 0.230416 0.517413
Si Si3 0.554195 0.777568 0.693747
Si Si4 0.729895 0.404800 0.619641
Si Si5 0.221700 0.598641 0.300607
Si Si6 0.100821 0.670343 0.916884
Si Si7 0.847280 0.400412 0.018663
Si Si8 0.929906 0.905457 0.655436
O O1 0.478037 0.301740 0.217337
O O2 0.418034 0.405299 0.207079
O O3 0.664474 0.383367 0.901359
O O4 0.526266 0.256404 0.037944
O O5 0.955707 0.241950 0.362134
O O6 0.883987 0.322109 0.563149
O O7 0.743085 0.191734 0.700128
O O8 0.984539 0.163243 0.421571
O O9 0.693435 0.826854 0.517401
O O10 0.449049 0.852400 0.840537
O O11 0.789777 0.500000 0.523868
O O12 0.724620 0.391949 0.700711
O O13 0.165402 0.500000 0.363861
O O14 0.124453 0.609410 0.945290
O O15 0.000000 0.627564 0.000000
O O16 0.855137 0.500000 0.990586
O O17 0.707983 0.362946 0.181495
O O18 0.000000 0.929686 0.500000
O O19 0.915278 0.000000 0.710388
#
# Coordination Sequence:
#
# PCOD8081488 Si02
#       8
#     8   8   8   8   8   8   8   8
#     4  10  18  30  48  74 110 152 190 217 263 329
#     4  10  20  36  58  85 111 143 184 230 279 324
#     4  10  21  33  49  78 113 146 175 224 284 339
#     4  10  18  30  50  74 104 145 192 233 264 312
#     4   9  18  32  53  80 107 141 190 235 267 314
#     4  10  19  32  53  82 113 145 181 227 277 328
#     4  10  21  37  57  82 109 143 187 232 278 331
#     4  10  20  38  64  86 104 136 189 241 274 324
#
# _framework density 18.89368
#
# number of rings (size 3 to 8) (size 9 to 14) (size 15 to 20)
#    0.000    2.125    1.250    3.750    0.000    3.250 
#    0.000    1.250    0.000    0.375    0.000    0.000 
#    0.000    0.000    0.000    0.000    0.000    0.000 
#
# Total GULP energy -396440.865771 kJ/mol
# GULP energy per Si atom -12388.777055 kJ/mol
# Density = 1.885068 g / cm^3
# Si number density = 18.893680 Si / 1000 Ang^3
#
#
#
# Elastic Constant Matrix: (Units=GPa)
#
#
# Indices 1 2 3 4 5 6 
#
# 1 81.7974 49.0790 46.3804 0.0003 -6.6850 -0.0002
# 2 49.0790 97.7996 31.9239 0.0003 -4.7873 -0.0001
# 3 46.3804 31.9239 87.6377 0.0006 5.0678 -0.0004
# 4 0.0003 0.0003 0.0006 31.4277 -0.0003 -3.2246
# 5 -6.6850 -4.7873 5.0678 -0.0003 36.0114 0.0002
# 6 -0.0002 -0.0001 -0.0004 -3.2246 0.0002 28.0750
#
#
#
# Elastic Compliance Matrix: (Units=1/GPa)
#
#
# Indices 1 2 3 4 5 6 
#
# 1 0.022788 -0.008168 -0.009343 0.000000 0.004459 0.000000
# 2 -0.008168 0.014701 -0.001066 0.000000 0.000588 0.000000
# 3 -0.009343 -0.001066 0.016990 0.000000 -0.004267 0.000000
# 4 0.000000 0.000000 0.000000 0.032198 0.000000 0.003698
# 5 0.004459 0.000588 -0.004267 0.000000 0.029275 0.000000
# 6 0.000000 0.000000 0.000000 0.003698 0.000000 0.036044
#
#
# Mechanical properties :
#
#
# Convention : Reuss Voigt Hill
#
# Bulk Modulus (GPa) = 57.71934 58.00015 57.85974
# Shear Modulus (GPa) = 25.65087 28.42625 27.03856
#
# Velocity S-wave (km/s) = 3.68862 3.88304 3.78708
# Velocity P-wave (km/s) = 6.98263 7.13224 7.05783
#
# Compressibility (1/GPa) = 0.01732522
#
# Stress axis : x y z
#
# Youngs Moduli (GPa) = 43.88295 68.02369 58.85744
#
# Poissons Ratio (x) = 0.55560 0.54988
# Poissons Ratio (y) = 0.35843 0.06277
# Poissons Ratio (z) = 0.40998 0.07254
#
# Static dielectric constant tensor:
#      x y z
#    x 3.136510 0.000000 0.059160 
#    y 0.000000 3.584460 0.000000 
#    z 0.059160 0.000000 3.614220 
# 
# 
# High freq. dielectric constant tensor:
#      x y z
#    x 1.696270 0.000000 0.007420 
#    y 0.000000 1.739190 0.000000 
#    z 0.007420 0.000000 1.739310 
# 
# From -- ./inp_files/330372.got.cif
#   From: 2010.06.25/outbox.cif.g09.slc.cpg/sg12_166_cif.got.tgz:330372.got - 2010.06.28 00:19:55.
