data_PCOD8081046
_publ_section_title
;
Structure prediction by ZEFSAII (Michael W. Deem and Ramdas Pophale) SiO2 
 PCOD8081046
Probable space group: C 2/M
;
_chemical_formula_sum "Si O2"
_cell_formula_units_Z 60
_cell_length_a 29.005850
_cell_length_b 20.527274
_cell_length_c 6.448963
_cell_angle_alpha 90.000000
_cell_angle_beta 99.211610
_cell_angle_gamma 90.000000
_cell_volume 3790.265270
_symmetry_space_group_name_H-M "C 2/M"
_symmetry_group_IT_number 12
_symmetry_cell_setting 'monoclinic'
loop_
_space_group_symop_operation_xyz
x,y,z
-x,y,-z
-x,-y,-z
x,-y,z
1/2+x,1/2+y,z
1/2-x,1/2+y,-z
1/2-x,1/2-y,-z
1/2+x,1/2-y,z
loop_
_atom_site_type_symbol
_atom_site_label
_atom_site_fract_x
_atom_site_fract_y
_atom_site_fract_z
Si Si1 0.157410 0.103167 0.853979
Si Si2 0.774602 0.690146 0.903884
Si Si3 0.708601 0.356518 0.504727
Si Si4 0.545099 0.307174 0.151372
Si Si5 0.057288 0.071694 0.882385
Si Si6 0.147622 0.221811 0.135929
Si Si7 0.500000 0.644829 0.500000
Si Si8 0.745763 0.572095 0.153396
O O1 0.172896 0.103927 0.625333
O O2 0.109924 0.064349 0.842364
O O3 0.151851 0.176915 0.935313
O O4 0.195107 0.064803 0.015305
O O5 0.746216 0.681401 0.670912
O O6 0.828595 0.708532 0.896543
O O7 0.750000 0.750000 0.000000
O O8 0.775626 0.625002 0.044910
O O9 0.676802 0.308509 0.346306
O O10 0.738877 0.405373 0.385169
O O11 0.592837 0.266796 0.150465
O O12 0.534427 0.309248 0.389255
O O13 0.500000 0.275839 0.000000
O O14 0.552375 0.381615 0.077891
O O15 0.028868 0.099510 0.671177
O O16 0.039180 0.000000 0.931856
O O17 0.769590 0.500000 0.167091
#
# Coordination Sequence:
#
# PCOD8081046 Si02
#       8
#     8   8   8   8   8   8   4   8
#     4   9  18  31  46  63  90 122 160 200 239 275
#     4  11  19  33  51  74  97 126 164 199 234 280
#     4  10  18  29  49  68  95 125 163 197 235 281
#     4   9  20  34  46  62  87 115 150 197 245 284
#     4  10  19  29  42  59  82 115 157 200 238 278
#     4  10  18  31  50  72  90 120 159 202 237 278
#     4  10  19  32  42  58  80 114 153 198 248 286
#     4  10  21  32  44  68 101 130 158 193 234 281
#
# _framework density 15.830026
#
# number of rings (size 3 to 8) (size 9 to 14) (size 15 to 20)
#    0.000    2.133    4.000    1.800    0.000    5.600 
#    0.000    0.000    0.000    0.000    0.000    0.000 
#    0.000    0.533    0.000    1.800    0.000    0.000 
#
# Total GULP energy -371828.403423 kJ/mol
# GULP energy per Si atom -12394.280114 kJ/mol
# Density = 1.579400 g / cm^3
# Si number density = 15.830026 Si / 1000 Ang^3
#
#
#
# Elastic Constant Matrix: (Units=GPa)
#
#
# Indices 1 2 3 4 5 6 
#
# 1 103.1735 41.0117 37.5222 0.0000 -11.7106 0.0000
# 2 41.0117 73.0645 34.4754 0.0000 -6.1155 0.0000
# 3 37.5222 34.4754 92.1169 0.0000 -14.7062 0.0000
# 4 0.0000 0.0000 0.0000 8.0143 0.0000 -2.3789
# 5 -11.7106 -6.1155 -14.7062 0.0000 17.2236 0.0000
# 6 0.0000 0.0000 0.0000 -2.3789 0.0000 7.4561
#
#
#
# Elastic Compliance Matrix: (Units=1/GPa)
#
#
# Indices 1 2 3 4 5 6 
#
# 1 0.013549 -0.006023 -0.002473 0.000000 0.004963 0.000000
# 2 -0.006023 0.019306 -0.005015 0.000000 -0.001522 0.000000
# 3 -0.002473 -0.005015 0.015268 0.000000 0.009575 0.000000
# 4 0.000000 0.000000 0.000000 0.137830 0.000000 0.043975
# 5 0.004963 -0.001522 0.009575 0.000000 0.069069 0.000000
# 6 0.000000 0.000000 0.000000 0.043975 0.000000 0.148150
#
#
# Mechanical properties :
#
#
# Convention : Reuss Voigt Hill
#
# Bulk Modulus (GPa) = 47.38837 54.93040 51.15939
# Shear Modulus (GPa) = 11.43567 16.89517 14.16542
#
# Velocity S-wave (km/s) = 2.69067 3.27048 2.99464
# Velocity P-wave (km/s) = 6.29712 7.00263 6.65922
#
# Compressibility (1/GPa) = 0.02110222
#
# Stress axis : x y z
#
# Youngs Moduli (GPa) = 73.80553 51.79636 65.49436
#
# Poissons Ratio (x) = 0.31198 0.16194
# Poissons Ratio (y) = 0.44455 0.32846
# Poissons Ratio (z) = 0.18249 0.25977
#
# Static dielectric constant tensor:
#      x y z
#    x 3.246840 0.000000 -0.134710 
#    y 0.000000 2.756460 0.000000 
#    z -0.134710 0.000000 3.182810 
# 
# 
# High freq. dielectric constant tensor:
#      x y z
#    x 1.598580 0.000000 -0.008460 
#    y 0.000000 1.562490 0.000000 
#    z -0.008460 0.000000 1.622300 
# 
# From -- ./inp_files/32257.got.cif
#   From: 2010.06.25/outbox.cif.g09.slc.cpg/sg12_17_cif.got.tgz:32257.got - 2010.06.28 00:19:55.
