data_PCOD8081564
_publ_section_title
;
Structure prediction by ZEFSAII (Michael W. Deem and Ramdas Pophale) SiO2 
 PCOD8081564
Probable space group: C 2/M
;
_chemical_formula_sum "Si O2"
_cell_formula_units_Z 64
_cell_length_a 28.785465
_cell_length_b 9.102489
_cell_length_c 14.264708
_cell_angle_alpha 90.000000
_cell_angle_beta 86.204995
_cell_angle_gamma 90.000000
_cell_volume 3729.434208
_symmetry_space_group_name_H-M "C 2/M"
_symmetry_group_IT_number 12
_symmetry_cell_setting 'monoclinic'
loop_
_space_group_symop_operation_xyz
x,y,z
-x,y,-z
-x,-y,-z
x,-y,z
1/2+x,1/2+y,z
1/2-x,1/2+y,-z
1/2-x,1/2-y,-z
1/2+x,1/2-y,z
loop_
_atom_site_type_symbol
_atom_site_label
_atom_site_fract_x
_atom_site_fract_y
_atom_site_fract_z
Si Si1 0.903340 0.827239 0.937914
Si Si2 0.448656 0.326570 0.481477
Si Si3 0.524763 0.828115 0.192438
Si Si4 0.738184 0.670891 0.905421
Si Si5 0.404443 0.832406 0.651277
Si Si6 0.360859 0.672184 0.138061
Si Si7 0.565309 0.674098 0.727699
Si Si8 0.164986 0.331144 0.186257
O O1 0.949762 0.742463 0.900577
O O2 0.858490 0.775919 0.885454
O O3 0.910440 0.000000 0.921635
O O4 0.893970 0.785512 0.046848
O O5 0.500000 0.264886 0.500000
O O6 0.448214 0.500000 0.489335
O O7 0.410386 0.266071 0.558583
O O8 0.434314 0.273155 0.379891
O O9 0.555068 0.794360 0.280474
O O10 0.475252 0.752751 0.209882
O O11 0.518486 0.000000 0.175732
O O12 0.731579 0.500000 0.930427
O O13 0.691012 0.740190 0.866886
O O14 0.779584 0.694131 0.824380
O O15 0.750000 0.750000 0.000000
O O16 0.354620 0.797148 0.706758
O O17 0.407500 0.000000 0.618171
O O18 0.353874 0.500000 0.143017
O O19 0.386034 0.723979 0.230577
O O20 0.557281 0.500000 0.736295
O O21 0.151614 0.500000 0.162419
#
# Coordination Sequence:
#
# PCOD8081564 Si02
#       8
#     8   8   8   8   8   8   8   8
#     4  10  18  30  49  72  99 131 169 202 236 288
#     4  10  19  31  50  75  95 121 165 210 249 285
#     4  10  20  33  48  71 101 133 168 199 244 296
#     4  10  18  32  53  76 101 129 167 205 243 289
#     4   9  18  31  48  71  98 127 158 196 247 299
#     4   9  19  33  50  73  99 133 169 201 244 298
#     4  10  20  35  51  69  99 132 167 208 248 292
#     4   9  18  31  49  75 103 129 159 202 248 291
#
# _framework density 17.160779999999999
#
# number of rings (size 3 to 8) (size 9 to 14) (size 15 to 20)
#    0.000    2.375    2.500    1.500    0.000    3.250 
#    0.000    4.375    0.000    0.750    0.000    0.000 
#    0.000    0.000    0.000    0.000    0.000    0.250 
#
# Total GULP energy -396734.343389 kJ/mol
# GULP energy per Si atom -12397.948231 kJ/mol
# Density = 1.712172 g / cm^3
# Si number density = 17.160780 Si / 1000 Ang^3
#
#
#
# Elastic Constant Matrix: (Units=GPa)
#
#
# Indices 1 2 3 4 5 6 
#
# 1 128.7207 29.0909 72.2699 0.0000 -1.8674 0.0000
# 2 29.0909 37.2616 30.2261 0.0000 -2.8215 0.0000
# 3 72.2699 30.2261 116.1230 0.0000 2.4362 0.0000
# 4 0.0000 0.0000 0.0000 21.6805 0.0000 -6.0406
# 5 -1.8674 -2.8215 2.4362 0.0000 20.0397 0.0000
# 6 0.0000 0.0000 0.0000 -6.0406 0.0000 21.1327
#
#
#
# Elastic Compliance Matrix: (Units=1/GPa)
#
#
# Indices 1 2 3 4 5 6 
#
# 1 0.012515 -0.004213 -0.006721 0.000000 0.001390 0.000000
# 2 -0.004213 0.036145 -0.006902 0.000000 0.005535 0.000000
# 3 -0.006721 -0.006902 0.014662 0.000000 -0.003381 0.000000
# 4 0.000000 0.000000 0.000000 0.050116 0.000000 0.014325
# 5 0.001390 0.005535 -0.003381 0.000000 0.051221 0.000000
# 6 0.000000 0.000000 0.000000 0.014325 0.000000 0.051415
#
#
# Mechanical properties :
#
#
# Convention : Reuss Voigt Hill
#
# Bulk Modulus (GPa) = 36.16853 60.58657 48.37755
# Shear Modulus (GPa) = 19.15990 22.60513 20.88252
#
# Velocity S-wave (km/s) = 3.34502 3.63334 3.49216
# Velocity P-wave (km/s) = 6.00341 7.27897 6.67174
#
# Compressibility (1/GPa) = 0.02764835
#
# Stress axis : x y z
#
# Youngs Moduli (GPa) = 79.90654 27.66655 68.20342
#
# Poissons Ratio (x) = 0.11656 0.45840
# Poissons Ratio (y) = 0.33665 0.47076
# Poissons Ratio (z) = 0.53706 0.19096
#
# Static dielectric constant tensor:
#      x y z
#    x 3.407300 0.000000 -0.059800 
#    y 0.000000 3.086540 0.000000 
#    z -0.059800 0.000000 3.229980 
# 
# 
# High freq. dielectric constant tensor:
#      x y z
#    x 1.658160 0.000000 -0.014510 
#    y 0.000000 1.651890 0.000000 
#    z -0.014510 0.000000 1.646700 
# 
# From -- ./inp_files/244064.got.cif
#   From: 2010.06.25/outbox.cif.g09.slc.cpg/sg12_123_cif.got.tgz:244064.got - 2010.06.28 00:19:55.
