data_PCOD8081210
_publ_section_title
;
Structure prediction by ZEFSAII (Michael W. Deem and Ramdas Pophale) SiO2 
 PCOD8081210
Probable space group: C 2/M
;
_chemical_formula_sum "Si O2"
_cell_formula_units_Z 56
_cell_length_a 19.734280
_cell_length_b 8.852555
_cell_length_c 27.963033
_cell_angle_alpha 90.000000
_cell_angle_beta 146.327315
_cell_angle_gamma 90.000000
_cell_volume 2708.537254
_symmetry_space_group_name_H-M "C 2/M"
_symmetry_group_IT_number 12
_symmetry_cell_setting 'monoclinic'
loop_
_space_group_symop_operation_xyz
x,y,z
-x,y,-z
-x,-y,-z
x,-y,z
1/2+x,1/2+y,z
1/2-x,1/2+y,-z
1/2-x,1/2-y,-z
1/2+x,1/2-y,z
loop_
_atom_site_type_symbol
_atom_site_label
_atom_site_fract_x
_atom_site_fract_y
_atom_site_fract_z
Si Si1 0.761250 0.826073 0.406871
Si Si2 0.831827 0.178304 0.088759
Si Si3 0.071029 0.169798 0.353757
Si Si4 0.489064 0.669135 0.411487
Si Si5 0.911797 0.324765 0.781959
Si Si6 0.752117 0.676514 0.242462
Si Si7 0.167284 0.323667 0.814633
O O1 0.704147 0.720409 0.414334
O O2 0.907311 0.789957 0.487969
O O3 0.698512 0.792825 0.319396
O O4 0.743847 0.000000 0.411951
O O5 0.777694 0.232356 0.108167
O O6 0.970951 0.231373 0.165170
O O7 0.823977 0.000000 0.080418
O O8 0.750000 0.250000 0.000000
O O9 0.065550 0.177277 0.407381
O O10 0.975357 0.284531 0.273570
O O11 0.042143 0.000000 0.318807
O O12 0.435972 0.500000 0.388659
O O13 0.375871 0.783190 0.344134
O O14 0.947599 0.500000 0.806350
O O15 0.863979 0.266411 0.805195
O O16 0.728642 0.500000 0.234353
O O17 0.763852 0.724041 0.193717
O O18 0.181017 0.500000 0.833060
#
# Coordination Sequence:
#
# PCOD8081210 Si02
#       7
#     8   8   8   8   8   8   8
#     4  10  20  33  52  78 116 160 203 252 303 354
#     4  12  25  43  69  98 125 151 189 240 295 358
#     4  10  18  29  51  81 114 153 201 253 299 351
#     4   9  19  34  51  78 115 160 208 251 300 352
#     4  11  23  40  62  88 122 162 201 246 301 358
#     4  10  22  39  60  86 121 164 206 251 298 349
#     4  10  20  38  62  88 120 158 199 243 299 356
#
# _framework density 20.675367000000001
#
# number of rings (size 3 to 8) (size 9 to 14) (size 15 to 20)
#    0.000    1.714    1.429    3.429    0.000    4.000 
#    0.000    3.571    0.000    4.286    0.000    0.000 
#    0.000    0.000    0.000    0.000    0.000    0.000 
#
# Total GULP energy -347236.066366 kJ/mol
# GULP energy per Si atom -12401.288084 kJ/mol
# Density = 2.062831 g / cm^3
# Si number density = 20.675367 Si / 1000 Ang^3
#
#
#
# Elastic Constant Matrix: (Units=GPa)
#
#
# Indices 1 2 3 4 5 6 
#
# 1 78.0312 39.7370 23.9784 0.0000 3.4822 0.0000
# 2 39.7370 108.2229 34.0586 -0.0001 -6.6458 0.0003
# 3 23.9784 34.0586 79.0777 0.0000 -23.7764 0.0000
# 4 0.0000 -0.0001 0.0000 31.9825 0.0000 2.3962
# 5 3.4822 -6.6458 -23.7764 0.0000 17.7022 0.0000
# 6 0.0000 0.0003 0.0000 2.3962 0.0000 33.1164
#
#
#
# Elastic Compliance Matrix: (Units=1/GPa)
#
#
# Indices 1 2 3 4 5 6 
#
# 1 0.018962 -0.005292 -0.008705 0.000000 -0.017408 0.000000
# 2 -0.005292 0.012308 -0.003345 0.000000 0.001169 0.000000
# 3 -0.008705 -0.003345 0.028286 0.000000 0.038449 0.000000
# 4 0.000000 0.000000 0.000000 0.031438 0.000000 -0.002275
# 5 -0.017408 0.001169 0.038449 0.000000 0.111995 0.000000
# 6 0.000000 0.000000 0.000000 -0.002275 0.000000 0.030361
#
#
# Mechanical properties :
#
#
# Convention : Reuss Voigt Hill
#
# Bulk Modulus (GPa) = 40.20382 51.20886 45.70634
# Shear Modulus (GPa) = 18.09475 27.73074 22.91275
#
# Velocity S-wave (km/s) = 2.96156 3.66627 3.33260
# Velocity P-wave (km/s) = 5.58408 6.53788 6.07971
#
# Compressibility (1/GPa) = 0.02487326
#
# Stress axis : x y z
#
# Youngs Moduli (GPa) = 52.73695 81.24999 35.35292
#
# Poissons Ratio (x) = 0.42998 0.30773
# Poissons Ratio (y) = 0.27909 0.11824
# Poissons Ratio (z) = 0.45906 0.27175
#
# Static dielectric constant tensor:
#      x y z
#    x 3.824900 0.000000 -0.146110 
#    y 0.000000 3.746550 0.000000 
#    z -0.146110 0.000000 3.633020 
# 
# 
# High freq. dielectric constant tensor:
#      x y z
#    x 1.813440 0.000000 -0.008330 
#    y 0.000000 1.810600 0.000000 
#    z -0.008330 0.000000 1.787880 
# 
# From -- ./inp_files/380750.got.cif
#   From: 2010.06.25/outbox.cif.g09.slc.cpg/sg12_191_cif.got.tgz:380750.got - 2010.06.28 00:19:55.
