data_PCOD8081474
_publ_section_title
;
Structure prediction by ZEFSAII (Michael W. Deem and Ramdas Pophale) SiO2 
 PCOD8081474
Probable space group: C 2/M
;
_chemical_formula_sum "Si O2"
_cell_formula_units_Z 64
_cell_length_a 24.659571
_cell_length_b 8.857408
_cell_length_c 20.181449
_cell_angle_alpha 90.000000
_cell_angle_beta 125.468967
_cell_angle_gamma 90.000000
_cell_volume 3590.031292
_symmetry_space_group_name_H-M "C 2/M"
_symmetry_group_IT_number 12
_symmetry_cell_setting 'monoclinic'
loop_
_space_group_symop_operation_xyz
x,y,z
-x,y,-z
-x,-y,-z
x,-y,z
1/2+x,1/2+y,z
1/2-x,1/2+y,-z
1/2-x,1/2-y,-z
1/2+x,1/2-y,z
loop_
_atom_site_type_symbol
_atom_site_label
_atom_site_fract_x
_atom_site_fract_y
_atom_site_fract_z
Si Si1 0.928260 0.821721 0.705562
Si Si2 0.181598 0.824662 0.472301
Si Si3 0.335994 0.678019 0.756070
Si Si4 0.319572 0.320868 0.029994
Si Si5 0.697574 0.324512 0.632397
Si Si6 0.841827 0.678970 0.266122
Si Si7 0.695956 0.677681 0.125241
Si Si8 0.075763 0.179751 0.787427
O O1 0.879211 0.756541 0.614105
O O2 0.900391 0.776902 0.758610
O O3 0.002149 0.754720 0.749571
O O4 0.932951 0.000000 0.701846
O O5 0.250000 0.750000 0.500000
O O6 0.164623 0.796945 0.537297
O O7 0.189842 0.000000 0.462019
O O8 0.320815 0.500000 0.740322
O O9 0.272584 0.763371 0.681883
O O10 0.347650 0.726658 0.841404
O O11 0.312951 0.500000 0.029287
O O12 0.377291 0.262139 0.119454
O O13 0.250000 0.250000 0.000000
O O14 0.336382 0.265294 0.966594
O O15 0.699053 0.500000 0.652367
O O16 0.653028 0.235664 0.654481
O O17 0.848586 0.500000 0.269136
O O18 0.771436 0.738467 0.186799
O O19 0.900644 0.752175 0.265359
O O20 0.700896 0.500000 0.126207
O O21 0.076821 0.000000 0.783447
#
# Coordination Sequence:
#
# PCOD8081474 Si02
#       8
#     8   8   8   8   8   8   8   8
#     4   9  18  33  51  73 103 138 170 203 253 305
#     4  10  19  32  52  76 103 132 169 212 252 295
#     4   9  16  30  51  71  99 137 167 198 247 303
#     4  10  18  30  48  73 102 129 167 213 250 293
#     4  10  19  30  49  78 103 125 165 216 255 294
#     4  10  19  33  52  72 100 135 166 206 259 308
#     4   8  15  27  46  72  97 123 161 202 245 291
#     4  10  20  33  51  74 102 136 172 210 250 298
#
# _framework density 17.827143
#
# number of rings (size 3 to 8) (size 9 to 14) (size 15 to 20)
#    0.000    2.500    2.500    1.500    0.000    0.500 
#    0.000    2.500    0.000    7.500    0.000    0.000 
#    0.000    4.250    0.000    0.000    0.000    0.000 
#
# Total GULP energy -396649.337642 kJ/mol
# GULP energy per Si atom -12395.291801 kJ/mol
# Density = 1.778657 g / cm^3
# Si number density = 17.827143 Si / 1000 Ang^3
#
#
#
# Elastic Constant Matrix: (Units=GPa)
#
#
# Indices 1 2 3 4 5 6 
#
# 1 158.2573 25.0229 81.6252 0.0000 -7.3302 0.0000
# 2 25.0229 30.2102 24.2038 0.0000 -2.1458 0.0000
# 3 81.6252 24.2038 122.5888 0.0000 -6.5478 0.0000
# 4 0.0000 0.0000 0.0000 16.6959 0.0000 -2.2434
# 5 -7.3302 -2.1458 -6.5478 0.0000 30.0497 0.0000
# 6 0.0000 0.0000 0.0000 -2.2434 0.0000 23.8176
#
#
#
# Elastic Compliance Matrix: (Units=1/GPa)
#
#
# Indices 1 2 3 4 5 6 
#
# 1 0.009946 -0.003453 -0.005893 0.000000 0.000895 0.000000
# 2 -0.003453 0.040558 -0.005665 0.000000 0.000819 0.000000
# 3 -0.005893 -0.005665 0.013255 0.000000 0.001046 0.000000
# 4 0.000000 0.000000 0.000000 0.060663 0.000000 0.005714
# 5 0.000895 0.000819 0.001046 0.000000 0.033783 0.000000
# 6 0.000000 0.000000 0.000000 0.005714 0.000000 0.042524
#
#
# Mechanical properties :
#
#
# Convention : Reuss Voigt Hill
#
# Bulk Modulus (GPa) = 29.64007 63.64000 46.64004
# Shear Modulus (GPa) = 20.66152 26.12629 23.39390
#
# Velocity S-wave (km/s) = 3.40809 3.83238 3.62645
# Velocity P-wave (km/s) = 5.67003 7.44035 6.61468
#
# Compressibility (1/GPa) = 0.03373811
#
# Stress axis : x y z
#
# Youngs Moduli (GPa) = 100.54751 24.65584 75.44192
#
# Poissons Ratio (x) = 0.08514 0.44455
# Poissons Ratio (y) = 0.34721 0.42736
# Poissons Ratio (z) = 0.59248 0.13967
#
# Static dielectric constant tensor:
#      x y z
#    x 3.443080 0.000000 -0.321100 
#    y 0.000000 3.064230 0.000000 
#    z -0.321100 0.000000 3.754820 
# 
# 
# High freq. dielectric constant tensor:
#      x y z
#    x 1.685600 0.000000 -0.026840 
#    y 0.000000 1.664620 0.000000 
#    z -0.026840 0.000000 1.685040 
# 
# From -- ./inp_files/326964.got.cif
#   From: 2010.06.25/outbox.cif.g09.slc.cpg/sg12_164_cif.got.tgz:326964.got - 2010.06.28 00:19:55.
