data_PCOD8081351
_publ_section_title
;
Structure prediction by ZEFSAII (Michael W. Deem and Ramdas Pophale) SiO2 
 PCOD8081351
Probable space group: C 2/M
;
_chemical_formula_sum "Si O2"
_cell_formula_units_Z 64
_cell_length_a 27.808073
_cell_length_b 8.880477
_cell_length_c 26.253286
_cell_angle_alpha 90.000000
_cell_angle_beta 146.143542
_cell_angle_gamma 90.000000
_cell_volume 3611.894614
_symmetry_space_group_name_H-M "C 2/M"
_symmetry_group_IT_number 12
_symmetry_cell_setting 'monoclinic'
loop_
_space_group_symop_operation_xyz
x,y,z
-x,y,-z
-x,-y,-z
x,-y,z
1/2+x,1/2+y,z
1/2-x,1/2+y,-z
1/2-x,1/2-y,-z
1/2+x,1/2-y,z
loop_
_atom_site_type_symbol
_atom_site_label
_atom_site_fract_x
_atom_site_fract_y
_atom_site_fract_z
Si Si1 0.815798 0.176844 0.388226
Si Si2 0.575306 0.177016 0.794179
Si Si3 0.989209 0.333468 0.550362
Si Si4 0.170808 0.820329 0.961537
Si Si5 0.878532 0.674218 0.614228
Si Si6 0.770299 0.825376 0.129557
Si Si7 0.659945 0.672840 0.703972
Si Si8 0.736033 0.676012 0.408420
O O1 0.907425 0.230900 0.491365
O O2 0.803931 0.229993 0.318856
O O3 0.741067 0.250263 0.356802
O O4 0.809198 0.000000 0.387644
O O5 0.585643 0.251037 0.859944
O O6 0.478309 0.208651 0.689628
O O7 0.640428 0.255816 0.812449
O O8 0.595926 0.000000 0.815228
O O9 0.975267 0.500000 0.562137
O O10 0.000000 0.345206 0.500000
O O11 0.076151 0.263146 0.649510
O O12 0.168909 0.000000 0.958445
O O13 0.250000 0.750000 0.000000
O O14 0.186315 0.761533 0.033026
O O15 0.863741 0.500000 0.613934
O O16 0.821063 0.723474 0.515403
O O17 0.849513 0.766258 0.638515
O O18 0.767675 0.807111 0.188651
O O19 0.767026 0.000000 0.110578
O O20 0.631162 0.500000 0.672561
O O21 0.728680 0.500000 0.394365
#
# Coordination Sequence:
#
# PCOD8081351 Si02
#       8
#     8   8   8   8   8   8   8   8
#     4  10  19  32  48  65  92 128 162 196 238 282
#     4  10  19  32  50  71  96 127 160 195 237 285
#     4   9  17  28  42  61  87 119 157 198 233 269
#     4  10  18  30  47  69  96 126 157 192 237 285
#     4   9  20  36  51  70  95 124 159 199 241 286
#     4  10  19  31  47  70  99 129 162 196 233 278
#     4   9  19  32  45  66  94 127 164 196 230 281
#     4  10  20  34  51  72  96 123 160 203 243 280
#
# _framework density 17.719232000000002
#
# number of rings (size 3 to 8) (size 9 to 14) (size 15 to 20)
#    0.000    2.375    0.000    4.500    1.750    4.500 
#    0.000    0.000    0.000    0.000    0.000    0.875 
#    0.000    7.000    0.000    0.000    0.000    0.000 
#
# Total GULP energy -396679.616176 kJ/mol
# GULP energy per Si atom -12396.238006 kJ/mol
# Density = 1.767890 g / cm^3
# Si number density = 17.719232 Si / 1000 Ang^3
#
#
#
# Elastic Constant Matrix: (Units=GPa)
#
#
# Indices 1 2 3 4 5 6 
#
# 1 72.9046 28.6072 10.3999 0.0000 -11.9536 0.0000
# 2 28.6072 92.5537 19.2769 0.0000 -6.8862 0.0001
# 3 10.3999 19.2769 49.5705 0.0000 -12.8905 0.0000
# 4 0.0000 0.0000 0.0000 24.7603 0.0000 -0.3462
# 5 -11.9536 -6.8862 -12.8905 0.0000 22.3113 0.0000
# 6 0.0000 0.0001 0.0000 -0.3462 0.0000 25.2910
#
#
#
# Elastic Compliance Matrix: (Units=1/GPa)
#
#
# Indices 1 2 3 4 5 6 
#
# 1 0.016773 -0.004674 0.000306 0.000000 0.007721 0.000000
# 2 -0.004674 0.013085 -0.004365 0.000000 -0.000987 0.000000
# 3 0.000306 -0.004365 0.025300 0.000000 0.013434 0.000000
# 4 0.000000 0.000000 0.000000 0.040395 0.000000 0.000553
# 5 0.007721 -0.000987 0.013434 0.000000 0.056414 0.000000
# 6 0.000000 0.000000 0.000000 0.000553 0.000000 0.039547
#
#
# Mechanical properties :
#
#
# Convention : Reuss Voigt Hill
#
# Bulk Modulus (GPa) = 26.52982 36.84412 31.68697
# Shear Modulus (GPa) = 22.56913 24.92215 23.74564
#
# Velocity S-wave (km/s) = 3.57278 3.75441 3.66472
# Velocity P-wave (km/s) = 5.65902 6.29544 5.98569
#
# Compressibility (1/GPa) = 0.03769344
#
# Stress axis : x y z
#
# Youngs Moduli (GPa) = 59.62086 76.42530 39.52600
#
# Poissons Ratio (x) = 0.35718 -0.01211
# Poissons Ratio (y) = 0.27864 0.17251
# Poissons Ratio (z) = -0.01826 0.33356
#
# Static dielectric constant tensor:
#      x y z
#    x 3.202040 0.000000 -0.337900 
#    y 0.000000 3.416430 0.000000 
#    z -0.337900 0.000000 3.504600 
# 
# 
# High freq. dielectric constant tensor:
#      x y z
#    x 1.660360 0.000000 -0.026350 
#    y 0.000000 1.699710 0.000000 
#    z -0.026350 0.000000 1.660770 
# 
# From -- ./inp_files/384632.got.cif
#   From: 2010.06.25/outbox.cif.g09.slc.cpg/sg12_193_cif.got.tgz:384632.got - 2010.06.28 00:19:55.
