data_PCOD8081297
_publ_section_title
;
Structure prediction by ZEFSAII (Michael W. Deem and Ramdas Pophale) SiO2 
 PCOD8081297
Probable space group: C 2/M
;
_chemical_formula_sum "Si O2"
_cell_formula_units_Z 48
_cell_length_a 27.824292
_cell_length_b 9.122220
_cell_length_c 12.178927
_cell_angle_alpha 90.000000
_cell_angle_beta 109.396082
_cell_angle_gamma 90.000000
_cell_volume 2915.804309
_symmetry_space_group_name_H-M "C 2/M"
_symmetry_group_IT_number 12
_symmetry_cell_setting 'monoclinic'
loop_
_space_group_symop_operation_xyz
x,y,z
-x,y,-z
-x,-y,-z
x,-y,z
1/2+x,1/2+y,z
1/2-x,1/2+y,-z
1/2-x,1/2-y,-z
1/2+x,1/2-y,z
loop_
_atom_site_type_symbol
_atom_site_label
_atom_site_fract_x
_atom_site_fract_y
_atom_site_fract_z
Si Si1 0.672874 0.671069 0.424778
Si Si2 0.751642 0.169046 0.337519
Si Si3 0.479169 0.165337 0.106897
Si Si4 0.721445 0.827889 0.076493
Si Si5 0.072618 0.832265 0.244121
Si Si6 0.115526 0.830204 0.034495
O O1 0.677616 0.500000 0.405106
O O2 0.704634 0.744748 0.352289
O O3 0.695289 0.714354 0.561695
O O4 0.613352 0.715844 0.369003
O O5 0.755395 0.201825 0.211140
O O6 0.739756 0.000000 0.350566
O O7 0.522707 0.232024 0.219049
O O8 0.466889 0.000000 0.135452
O O9 0.500000 0.168529 0.000000
O O10 0.428646 0.264030 0.076863
O O11 0.666057 0.760022 0.048948
O O12 0.715945 0.000000 0.048391
O O13 0.750000 0.750000 0.000000
O O14 0.100377 0.809704 0.149083
O O15 0.055038 0.000000 0.244334
O O16 0.123631 0.000000 0.009955
#
# Coordination Sequence:
#
# PCOD8081297 Si02
#       6
#     8   8   8   8   8   8
#     4   9  16  28  46  68  94 123 151 184 230 279
#     4   9  18  30  45  66  92 121 155 192 229 273
#     4   9  17  27  41  63  92 123 153 186 225 272
#     4  11  22  34  48  67  92 125 163 198 232 270
#     4   9  16  26  43  67  94 123 151 181 225 279
#     4  10  18  30  46  65  91 122 155 192 232 274
#
# _framework density 16.462011
#
# number of rings (size 3 to 8) (size 9 to 14) (size 15 to 20)
#    0.000    2.500    1.667    1.500    0.000    4.000 
#    0.000    0.000    0.000    0.000    0.000    1.167 
#    0.000    9.333    0.000    0.000    0.000    0.000 
#
# Total GULP energy -297508.299319 kJ/mol
# GULP energy per Si atom -12396.179138 kJ/mol
# Density = 1.642454 g / cm^3
# Si number density = 16.462011 Si / 1000 Ang^3
#
#
#
# Elastic Constant Matrix: (Units=GPa)
#
#
# Indices 1 2 3 4 5 6 
#
# 1 65.6289 45.1188 48.2943 0.0000 27.7144 0.0000
# 2 45.1188 92.7353 47.3134 0.0000 15.0190 0.0000
# 3 48.2943 47.3134 88.5649 0.0000 25.4962 0.0000
# 4 0.0000 0.0000 0.0000 19.1324 0.0000 5.1868
# 5 27.7144 15.0190 25.4962 0.0000 29.1191 0.0000
# 6 0.0000 0.0000 0.0000 5.1868 0.0000 30.6946
#
#
#
# Elastic Compliance Matrix: (Units=1/GPa)
#
#
# Indices 1 2 3 4 5 6 
#
# 1 0.039227 -0.010732 -0.008694 0.000000 -0.024187 0.000000
# 2 -0.010732 0.017780 -0.005277 0.000000 0.005664 0.000000
# 3 -0.008694 -0.005277 0.020972 0.000000 -0.007366 0.000000
# 4 0.000000 0.000000 0.000000 0.054777 0.000000 -0.009256
# 5 -0.024187 0.005664 -0.007366 0.000000 0.060890 0.000000
# 6 0.000000 0.000000 0.000000 -0.009256 0.000000 0.034143
#
#
# Mechanical properties :
#
#
# Convention : Reuss Voigt Hill
#
# Bulk Modulus (GPa) = 34.99917 58.70911 46.85414
# Shear Modulus (GPa) = 17.43875 22.86942 20.15408
#
# Velocity S-wave (km/s) = 3.25827 3.73127 3.50276
# Velocity P-wave (km/s) = 5.95498 7.36913 6.69947
#
# Compressibility (1/GPa) = 0.02857211
#
# Stress axis : x y z
#
# Youngs Moduli (GPa) = 25.49270 56.24354 47.68375
#
# Poissons Ratio (x) = 0.60362 0.41456
# Poissons Ratio (y) = 0.27360 0.25161
# Poissons Ratio (z) = 0.22163 0.29678
#
# Static dielectric constant tensor:
#      x y z
#    x 3.074170 0.000000 0.401580 
#    y 0.000000 3.245720 0.000000 
#    z 0.401580 0.000000 3.225860 
# 
# 
# High freq. dielectric constant tensor:
#      x y z
#    x 1.610460 0.000000 0.043410 
#    y 0.000000 1.645120 0.000000 
#    z 0.043410 0.000000 1.609900 
# 
# From -- ./inp_files/172397.got.cif
#   From: 2010.06.25/outbox.cif.g09.slc.cpg/sg12_87_cif.got.tgz:172397.got - 2010.06.28 00:19:55.
