data_PCOD8081648
_publ_section_title
;
Structure prediction by ZEFSAII (Michael W. Deem and Ramdas Pophale) SiO2 
 PCOD8081648
Probable space group: C 2/M
;
_chemical_formula_sum "Si O2"
_cell_formula_units_Z 40
_cell_length_a 23.192587
_cell_length_b 8.376119
_cell_length_c 13.696084
_cell_angle_alpha 90.000000
_cell_angle_beta 53.869182
_cell_angle_gamma 90.000000
_cell_volume 2148.938219
_symmetry_space_group_name_H-M "C 2/M"
_symmetry_group_IT_number 12
_symmetry_cell_setting 'monoclinic'
loop_
_space_group_symop_operation_xyz
x,y,z
-x,y,-z
-x,-y,-z
x,-y,z
1/2+x,1/2+y,z
1/2-x,1/2+y,-z
1/2-x,1/2-y,-z
1/2+x,1/2-y,z
loop_
_atom_site_type_symbol
_atom_site_label
_atom_site_fract_x
_atom_site_fract_y
_atom_site_fract_z
Si Si1 0.751061 0.810960 0.889662
Si Si2 0.398877 0.313582 0.651562
Si Si3 0.392002 0.810042 0.063379
Si Si4 0.466345 0.810316 0.179754
Si Si5 0.540556 0.186611 0.596679
O O1 0.822144 0.751476 0.764039
O O2 0.683011 0.739101 0.899411
O O3 0.747522 0.000000 0.893700
O O4 0.750000 0.750000 0.000000
O O5 0.409839 0.500000 0.661831
O O6 0.458289 0.214457 0.650256
O O7 0.406392 0.281094 0.528330
O O8 0.407150 0.753636 0.159868
O O9 0.390391 0.000000 0.061648
O O10 0.455659 0.745853 0.930389
O O11 0.446412 0.745654 0.307044
O O12 0.470165 0.000000 0.179249
O O13 0.557594 0.000000 0.572223
#
# Coordination Sequence:
#
# PCOD8081648 Si02
#       5
#     8   8   8   8   8
#     4  10  20  32  49  70  95 124 153 187 231 277
#     4  10  20  32  45  67  97 127 153 184 231 284
#     4   8  14  27  45  68  94 118 147 188 232 275
#     4   8  14  25  46  71  91 113 150 195 232 263
#     4  10  18  30  50  72  90 118 159 200 229 261
#
# _framework density 18.613844
#
# number of rings (size 3 to 8) (size 9 to 14) (size 15 to 20)
#    0.000    2.800    0.000    4.800    0.000    3.200 
#    0.000    1.000    0.000    2.400    0.000    9.800 
#    0.000    0.000    0.000    0.000    0.000    0.000 
#
# Total GULP energy -247916.003389 kJ/mol
# GULP energy per Si atom -12395.800169 kJ/mol
# Density = 1.857148 g / cm^3
# Si number density = 18.613844 Si / 1000 Ang^3
#
#
#
# Elastic Constant Matrix: (Units=GPa)
#
#
# Indices 1 2 3 4 5 6 
#
# 1 141.2166 2.2665 95.2979 0.0000 6.1793 0.0000
# 2 2.2665 16.2339 6.8000 0.0000 -1.2952 0.0000
# 3 95.2979 6.8000 157.5988 0.0000 9.9880 0.0000
# 4 0.0000 0.0000 0.0000 22.0152 0.0000 1.6119
# 5 6.1793 -1.2952 9.9880 0.0000 39.6493 0.0000
# 6 0.0000 0.0000 0.0000 1.6119 0.0000 15.1958
#
#
#
# Elastic Compliance Matrix: (Units=1/GPa)
#
#
# Indices 1 2 3 4 5 6 
#
# 1 0.011994 0.001390 -0.007314 0.000000 0.000019 0.000000
# 2 0.001390 0.063196 -0.003744 0.000000 0.002791 0.000000
# 3 -0.007314 -0.003744 0.011041 0.000000 -0.001764 0.000000
# 4 0.000000 0.000000 0.000000 0.045779 0.000000 -0.004856
# 5 0.000019 0.002791 -0.001764 0.000000 0.025754 0.000000
# 6 0.000000 0.000000 0.000000 -0.004856 0.000000 0.066323
#
#
# Mechanical properties :
#
#
# Convention : Reuss Voigt Hill
#
# Bulk Modulus (GPa) = 14.94858 58.19758 36.57308
# Shear Modulus (GPa) = 18.81679 29.41770 24.11725
#
# Velocity S-wave (km/s) = 3.18292 3.97976 3.60344
# Velocity P-wave (km/s) = 4.64288 7.24235 6.08309
#
# Compressibility (1/GPa) = 0.06689597
#
# Stress axis : x y z
#
# Youngs Moduli (GPa) = 83.37747 15.82367 90.57158
#
# Poissons Ratio (x) = -0.02200 0.66240
# Poissons Ratio (y) = -0.11593 0.33914
# Poissons Ratio (z) = 0.60979 0.05925
#
# Static dielectric constant tensor:
#      x y z
#    x 3.713750 0.000000 0.099560 
#    y 0.000000 3.002870 0.000000 
#    z 0.099560 0.000000 3.700670 
# 
# 
# High freq. dielectric constant tensor:
#      x y z
#    x 1.718950 0.000000 0.011780 
#    y 0.000000 1.686900 0.000000 
#    z 0.011780 0.000000 1.725560 
# 
# From -- ./inp_files/236507.got.cif
#   From: 2010.06.25/outbox.cif.g09.slc.cpg/sg12_119_cif.got.tgz:236507.got - 2010.06.28 00:19:55.
