data_PCOD8081739
_publ_section_title
;
Structure prediction by ZEFSAII (Michael W. Deem and Ramdas Pophale) SiO2 
 PCOD8081739
Probable space group: C 2/M
;
_chemical_formula_sum "Si O2"
_cell_formula_units_Z 56
_cell_length_a 23.407407
_cell_length_b 13.091575
_cell_length_c 22.340302
_cell_angle_alpha 90.000000
_cell_angle_beta 28.361959
_cell_angle_gamma 90.000000
_cell_volume 3252.104470
_symmetry_space_group_name_H-M "C 2/M"
_symmetry_group_IT_number 12
_symmetry_cell_setting 'monoclinic'
loop_
_space_group_symop_operation_xyz
x,y,z
-x,y,-z
-x,-y,-z
x,-y,z
1/2+x,1/2+y,z
1/2-x,1/2+y,-z
1/2-x,1/2-y,-z
1/2+x,1/2-y,z
loop_
_atom_site_type_symbol
_atom_site_label
_atom_site_fract_x
_atom_site_fract_y
_atom_site_fract_z
Si Si1 0.322895 0.295628 0.800131
Si Si2 0.520578 0.265832 0.793018
Si Si3 0.682435 0.384587 0.972379
Si Si4 0.276305 0.883989 0.353454
Si Si5 0.678127 0.112725 0.037759
Si Si6 0.444024 0.381745 0.356877
Si Si7 0.633450 0.618671 0.364897
O O1 0.283997 0.176704 0.841759
O O2 0.458650 0.315883 0.696320
O O3 0.307008 0.323496 0.745599
O O4 0.230874 0.362550 0.924048
O O5 0.620035 0.199299 0.734913
O O6 0.427283 0.189533 0.846498
O O7 0.576718 0.338940 0.690731
O O8 0.450345 0.333517 0.908072
O O9 0.679301 0.500000 0.950677
O O10 0.714768 0.378994 0.013080
O O11 0.182340 0.871107 0.493605
O O12 0.214450 0.860378 0.347571
O O13 0.327813 0.000000 0.306354
O O14 0.622227 0.000000 0.088523
O O15 0.486090 0.500000 0.315461
O O16 0.500000 0.661771 0.500000
O O17 0.624736 0.500000 0.356181
#
# Coordination Sequence:
#
# PCOD8081739 Si02
#       7
#     8   8   8   8   8   8   8
#     4  11  18  32  55  82 105 133 175 218 265 308
#     4  11  19  33  50  76 110 142 171 209 266 312
#     4  10  20  34  54  77 104 137 179 222 259 308
#     4  10  22  35  50  78 112 142 173 211 258 314
#     4  10  18  30  50  77 106 136 172 215 261 309
#     4  11  19  31  53  81 111 139 171 213 260 318
#     4  10  19  33  55  80 106 139 176 212 254 311
#
# _framework density 17.219619999999999
#
# number of rings (size 3 to 8) (size 9 to 14) (size 15 to 20)
#    0.000    1.571    4.286    3.429    0.000    0.000 
#    0.000    2.857    0.000   11.571    0.000    0.000 
#    0.000    0.000    0.000    0.000    0.000    0.000 
#
# Total GULP energy -347208.000501 kJ/mol
# GULP energy per Si atom -12400.285732 kJ/mol
# Density = 1.718043 g / cm^3
# Si number density = 17.219620 Si / 1000 Ang^3
#
#
#
# Elastic Constant Matrix: (Units=GPa)
#
#
# Indices 1 2 3 4 5 6 
#
# 1 66.7518 39.7099 38.4161 -0.0001 -2.1107 0.0002
# 2 39.7099 126.1015 51.8152 -0.0001 -8.0317 0.0002
# 3 38.4161 51.8152 79.5709 -0.0001 2.1864 0.0003
# 4 -0.0001 -0.0001 -0.0001 28.8604 0.0003 -5.0799
# 5 -2.1107 -8.0317 2.1864 0.0003 28.6657 -0.0004
# 6 0.0002 0.0002 0.0003 -5.0799 -0.0004 22.4518
#
#
#
# Elastic Compliance Matrix: (Units=1/GPa)
#
#
# Indices 1 2 3 4 5 6 
#
# 1 0.021850 -0.003342 -0.008409 0.000000 0.001314 0.000000
# 2 -0.003342 0.011717 -0.006113 0.000000 0.003503 0.000000
# 3 -0.008409 -0.006113 0.020715 0.000000 -0.003912 0.000000
# 4 0.000000 0.000000 0.000000 0.036087 0.000000 0.008165
# 5 0.001314 0.003503 -0.003912 0.000000 0.036262 0.000001
# 6 0.000000 0.000000 0.000000 0.008165 0.000001 0.046387
#
#
# Mechanical properties :
#
#
# Convention : Reuss Voigt Hill
#
# Bulk Modulus (GPa) = 53.89334 59.14516 56.51925
# Shear Modulus (GPa) = 23.26332 25.49445 24.37889
#
# Velocity S-wave (km/s) = 3.67955 3.85196 3.76674
# Velocity P-wave (km/s) = 7.02977 7.36244 7.19803
#
# Compressibility (1/GPa) = 0.01855517
#
# Stress axis : x y z
#
# Youngs Moduli (GPa) = 45.76720 85.34283 48.27321
#
# Poissons Ratio (x) = 0.28519 0.40593
# Poissons Ratio (y) = 0.15294 0.29510
# Poissons Ratio (z) = 0.38485 0.52171
#
# Static dielectric constant tensor:
#      x y z
#    x 2.941110 0.000000 -0.026750 
#    y 0.000000 3.379510 0.000000 
#    z -0.026750 0.000000 3.212570 
# 
# 
# High freq. dielectric constant tensor:
#      x y z
#    x 1.636140 0.000000 -0.001530 
#    y 0.000000 1.665780 0.000000 
#    z -0.001530 0.000000 1.665370 
# 
# From -- ./inp_files/325136.got.cif
#   From: 2010.06.25/outbox.cif.g09.slc.cpg/sg12_163_cif.got.tgz:325136.got - 2010.06.28 00:19:55.
