data_PCOD8081892
_publ_section_title
;
Structure prediction by ZEFSAII (Michael W. Deem and Ramdas Pophale) SiO2 
 PCOD8081892
Probable space group: C 2/M
;
_chemical_formula_sum "Si O2"
_cell_formula_units_Z 56
_cell_length_a 22.455701
_cell_length_b 13.591220
_cell_length_c 13.157254
_cell_angle_alpha 90.000000
_cell_angle_beta 129.619667
_cell_angle_gamma 90.000000
_cell_volume 3093.193282
_symmetry_space_group_name_H-M "C 2/M"
_symmetry_group_IT_number 12
_symmetry_cell_setting 'monoclinic'
loop_
_space_group_symop_operation_xyz
x,y,z
-x,y,-z
-x,-y,-z
x,-y,z
1/2+x,1/2+y,z
1/2-x,1/2+y,-z
1/2-x,1/2-y,-z
1/2+x,1/2-y,z
loop_
_atom_site_type_symbol
_atom_site_label
_atom_site_fract_x
_atom_site_fract_y
_atom_site_fract_z
Si Si1 0.735688 0.612210 0.882376
Si Si2 0.976118 0.611776 0.729454
Si Si3 0.677763 0.613498 0.603140
Si Si4 0.891192 0.698654 0.001413
Si Si5 0.595450 0.611283 0.870628
Si Si6 0.847955 0.386787 0.744978
Si Si7 0.979236 0.791834 0.595104
O O1 0.761894 0.500000 0.893055
O O2 0.689520 0.647573 0.732340
O O3 0.682168 0.623190 0.922193
O O4 0.813372 0.675431 0.980468
O O5 0.979239 0.500000 0.693501
O O6 0.893314 0.635866 0.690730
O O7 0.990051 0.681172 0.647833
O O8 0.041248 0.628016 0.885425
O O9 0.652955 0.500000 0.570415
O O10 0.757036 0.633605 0.627207
O O11 0.609126 0.677206 0.480710
O O12 0.913993 0.812847 0.046292
O O13 0.880261 0.682579 0.869812
O O14 0.581941 0.500000 0.895215
O O15 0.534485 0.633558 0.715284
O O16 0.860087 0.500000 0.792295
O O17 0.000000 0.796212 0.500000
#
# Coordination Sequence:
#
# PCOD8081892 Si02
#       7
#     8   8   8   8   8   8   8
#     4   9  16  28  48  74 102 130 162 204 246 291
#     4  10  21  35  52  75 101 130 167 209 252 297
#     4   9  17  30  52  77  99 127 166 209 247 286
#     4  10  18  30  52  76 100 127 164 205 251 298
#     4  10  20  31  47  74 105 135 166 201 245 296
#     4   9  18  34  56  78  98 126 166 211 253 294
#     4  11  21  33  52  74 100 135 171 204 248 296
#
# _framework density 18.104268000000001
#
# number of rings (size 3 to 8) (size 9 to 14) (size 15 to 20)
#    0.000    2.286    1.429    3.429    0.000    2.571 
#    0.000    0.000    0.000   11.143    0.000    0.000 
#    0.000    0.000    0.000    0.000    0.000    0.000 
#
# Total GULP energy -347194.043451 kJ/mol
# GULP energy per Si atom -12399.787266 kJ/mol
# Density = 1.806306 g / cm^3
# Si number density = 18.104268 Si / 1000 Ang^3
#
#
#
# Elastic Constant Matrix: (Units=GPa)
#
#
# Indices 1 2 3 4 5 6 
#
# 1 47.5249 22.4376 21.9476 0.0000 14.6125 0.0000
# 2 22.4376 93.4711 32.7999 0.0000 3.0147 0.0000
# 3 21.9476 32.7999 54.8715 0.0000 16.5985 0.0000
# 4 0.0000 0.0000 0.0000 21.7514 0.0000 3.3057
# 5 14.6125 3.0147 16.5985 0.0000 24.4304 0.0000
# 6 0.0000 0.0000 0.0000 3.3057 0.0000 22.4291
#
#
#
# Elastic Compliance Matrix: (Units=1/GPa)
#
#
# Indices 1 2 3 4 5 6 
#
# 1 0.029939 -0.005097 -0.004660 0.000000 -0.014112 0.000000
# 2 -0.005097 0.014872 -0.009086 0.000000 0.007386 0.000000
# 3 -0.004660 -0.009086 0.030633 0.000000 -0.016904 0.000000
# 4 0.000000 0.000000 0.000000 0.047027 0.000000 -0.006931
# 5 -0.014112 0.007386 -0.016904 0.000000 0.059947 0.000000
# 6 0.000000 0.000000 0.000000 -0.006931 0.000000 0.045606
#
#
# Mechanical properties :
#
#
# Convention : Reuss Voigt Hill
#
# Bulk Modulus (GPa) = 26.48299 38.91531 32.69915
# Shear Modulus (GPa) = 17.96660 21.63433 19.80047
#
# Velocity S-wave (km/s) = 3.15365 3.46061 3.31069
# Velocity P-wave (km/s) = 5.28398 6.12450 5.71970
#
# Compressibility (1/GPa) = 0.03776008
#
# Stress axis : x y z
#
# Youngs Moduli (GPa) = 33.40149 67.24102 32.64504
#
# Poissons Ratio (x) = 0.34269 0.15211
# Poissons Ratio (y) = 0.17023 0.29660
# Poissons Ratio (z) = 0.15563 0.61092
#
# Static dielectric constant tensor:
#      x y z
#    x 3.320490 0.000000 0.299030 
#    y 0.000000 3.225780 0.000000 
#    z 0.299030 0.000000 3.154810 
# 
# 
# High freq. dielectric constant tensor:
#      x y z
#    x 1.697000 0.000000 0.025770 
#    y 0.000000 1.692910 0.000000 
#    z 0.025770 0.000000 1.685740 
# 
# From -- ./inp_files/223922.got.cif
#   From: 2010.06.25/outbox.cif.g09.slc.cpg/sg12_112_cif.got.tgz:223922.got - 2010.06.28 00:19:55.
