data_PCOD8081687
_publ_section_title
;
Structure prediction by ZEFSAII (Michael W. Deem and Ramdas Pophale) SiO2 
 PCOD8081687
Probable space group: C 2/M
;
_chemical_formula_sum "Si O2"
_cell_formula_units_Z 64
_cell_length_a 23.232156
_cell_length_b 19.295745
_cell_length_c 9.088840
_cell_angle_alpha 90.000000
_cell_angle_beta 67.793257
_cell_angle_gamma 90.000000
_cell_volume 3772.149961
_symmetry_space_group_name_H-M "C 2/M"
_symmetry_group_IT_number 12
_symmetry_cell_setting 'monoclinic'
loop_
_space_group_symop_operation_xyz
x,y,z
-x,y,-z
-x,-y,-z
x,-y,z
1/2+x,1/2+y,z
1/2-x,1/2+y,-z
1/2-x,1/2-y,-z
1/2+x,1/2-y,z
loop_
_atom_site_type_symbol
_atom_site_label
_atom_site_fract_x
_atom_site_fract_y
_atom_site_fract_z
Si Si1 0.261344 0.420333 0.387136
Si Si2 0.327872 0.720991 0.806916
Si Si3 0.137156 0.422888 0.683664
Si Si4 0.425513 0.785889 0.230793
Si Si5 0.687517 0.292940 0.516632
Si Si6 0.065867 0.287617 0.118345
Si Si7 0.745746 0.138970 0.086066
Si Si8 0.136787 0.422957 0.019182
O O1 0.281604 0.500000 0.388439
O O2 0.191930 0.407885 0.515416
O O3 0.307848 0.371546 0.431865
O O4 0.267182 0.398844 0.212385
O O5 0.328124 0.699354 0.638394
O O6 0.395146 0.741175 0.806108
O O7 0.283219 0.786679 0.854404
O O8 0.303935 0.654970 0.923552
O O9 0.109689 0.500000 0.684099
O O10 0.083500 0.366353 0.714916
O O11 0.160820 0.414298 0.828432
O O12 0.373119 0.740466 0.355333
O O13 0.494437 0.770384 0.223504
O O14 0.419065 0.769188 0.064686
O O15 0.750000 0.250000 0.500000
O O16 0.082830 0.369196 0.118575
O O17 0.697737 0.087376 0.056842
O O18 0.109829 0.500000 0.072453
#
# Coordination Sequence:
#
# PCOD8081687 Si02
#       8
#     8   8   8   8   8   8   8   8
#     4  11  21  33  50  78 109 139 174 218 276 328
#     4  10  20  32  52  78 102 135 180 224 269 309
#     4   9  17  29  47  72 106 144 180 218 256 308
#     4  10  19  34  52  75 107 144 186 222 266 319
#     4  12  21  34  56  80 103 140 179 226 275 316
#     4   9  20  33  50  75 107 144 183 224 263 318
#     4  10  18  30  50  74 104 137 173 225 266 312
#     4   9  17  29  46  71 106 146 182 215 256 311
#
# _framework density 16.966450999999999
#
# number of rings (size 3 to 8) (size 9 to 14) (size 15 to 20)
#    0.000    2.000    2.500    1.875    3.500    1.000 
#    0.000    3.125    0.000    0.000    0.000   16.625 
#    0.000    0.000    0.000    0.000    0.000    0.000 
#
# Total GULP energy -396632.952554 kJ/mol
# GULP energy per Si atom -12394.779767 kJ/mol
# Density = 1.692783 g / cm^3
# Si number density = 16.966451 Si / 1000 Ang^3
#
#
#
# Elastic Constant Matrix: (Units=GPa)
#
#
# Indices 1 2 3 4 5 6 
#
# 1 112.5513 54.5640 63.9947 0.0000 3.4777 0.0000
# 2 54.5640 79.0322 46.2559 0.0000 -0.1898 0.0000
# 3 63.9947 46.2559 104.3558 0.0000 1.1245 0.0000
# 4 0.0000 0.0000 0.0000 26.7291 0.0000 1.6462
# 5 3.4777 -0.1898 1.1245 0.0000 28.3476 0.0000
# 6 0.0000 0.0000 0.0000 1.6462 0.0000 14.8910
#
#
#
# Elastic Compliance Matrix: (Units=1/GPa)
#
#
# Indices 1 2 3 4 5 6 
#
# 1 0.016329 -0.007330 -0.006745 0.000000 -0.001785 0.000000
# 2 -0.007330 0.020381 -0.004552 0.000000 0.001216 0.000000
# 3 -0.006745 -0.004552 0.015735 0.000000 0.000173 0.000000
# 4 0.000000 0.000000 0.000000 0.037669 0.000000 -0.004164
# 5 -0.001785 0.001216 0.000173 0.000000 0.035497 0.000000
# 6 0.000000 0.000000 0.000000 -0.004164 0.000000 0.067615
#
#
# Mechanical properties :
#
#
# Convention : Reuss Voigt Hill
#
# Bulk Modulus (GPa) = 65.83169 69.50761 67.66965
# Shear Modulus (GPa) = 21.22769 22.73519 21.98144
#
# Velocity S-wave (km/s) = 3.54101 3.66458 3.60333
# Velocity P-wave (km/s) = 7.45678 7.67868 7.56855
#
# Compressibility (1/GPa) = 0.01519025
#
# Stress axis : x y z
#
# Youngs Moduli (GPa) = 61.24247 49.06605 63.55368
#
# Poissons Ratio (x) = 0.35964 0.42867
# Poissons Ratio (y) = 0.44889 0.28930
# Poissons Ratio (z) = 0.41308 0.22335
#
# Static dielectric constant tensor:
#      x y z
#    x 3.030190 0.000000 0.127150 
#    y 0.000000 3.260990 0.000000 
#    z 0.127150 0.000000 3.263420 
# 
# 
# High freq. dielectric constant tensor:
#      x y z
#    x 1.633300 0.000000 0.015730 
#    y 0.000000 1.646190 0.000000 
#    z 0.015730 0.000000 1.656720 
# 
# From -- ./inp_files/89559.got.cif
#   From: 2010.06.25/outbox.cif.g09.slc.cpg/sg12_45_cif.got.tgz:89559.got - 2010.06.28 00:19:55.
