data_PCOD8081955
_publ_section_title
;
Structure prediction by ZEFSAII (Michael W. Deem and Ramdas Pophale) SiO2 
 PCOD8081955
Probable space group: C 2/M
;
_chemical_formula_sum "Si O2"
_cell_formula_units_Z 56
_cell_length_a 25.199148
_cell_length_b 8.979669
_cell_length_c 15.166030
_cell_angle_alpha 90.000000
_cell_angle_beta 74.461949
_cell_angle_gamma 90.000000
_cell_volume 3306.347704
_symmetry_space_group_name_H-M "C 2/M"
_symmetry_group_IT_number 12
_symmetry_cell_setting 'monoclinic'
loop_
_space_group_symop_operation_xyz
x,y,z
-x,y,-z
-x,-y,-z
x,-y,z
1/2+x,1/2+y,z
1/2-x,1/2+y,-z
1/2-x,1/2-y,-z
1/2+x,1/2-y,z
loop_
_atom_site_type_symbol
_atom_site_label
_atom_site_fract_x
_atom_site_fract_y
_atom_site_fract_z
Si Si1 0.122230 0.827431 0.402483
Si Si2 0.144733 0.674034 0.713644
Si Si3 0.760159 0.173068 0.587563
Si Si4 0.935012 0.173165 0.387850
Si Si5 0.450387 0.823352 0.705716
Si Si6 0.042015 0.323304 0.102668
Si Si7 0.923742 0.323719 0.095681
O O1 0.183963 0.767521 0.392803
O O2 0.084491 0.800247 0.504050
O O3 0.099390 0.732561 0.331807
O O4 0.122490 0.000000 0.375217
O O5 0.131167 0.500000 0.705395
O O6 0.209551 0.706398 0.675848
O O7 0.111586 0.765127 0.655820
O O8 0.127022 0.727637 0.819953
O O9 0.750000 0.250000 0.500000
O O10 0.766818 0.000000 0.563769
O O11 0.992070 0.257706 0.352079
O O12 0.943961 0.000000 0.363712
O O13 0.437280 0.767120 0.811380
O O14 0.454754 0.000000 0.698426
O O15 0.041331 0.500000 0.102839
O O16 0.979960 0.263649 0.114989
O O17 0.080521 0.264639 0.004054
O O18 0.926124 0.500000 0.090882
#
# Coordination Sequence:
#
# PCOD8081955 Si02
#       7
#     8   8   8   8   8   8   8
#     4  10  22  37  48  66 100 139 167 192 244 303
#     4  10  18  30  53  78  98 124 166 209 238 279
#     4  10  20  34  52  73  98 129 167 206 242 283
#     4  11  21  33  49  70 102 138 160 191 249 303
#     4  11  21  33  51  75  98 127 169 209 238 284
#     4   8  14  25  45  72 100 124 152 197 251 291
#     4   8  13  25  46  73 100 123 151 199 251 289
#
# _framework density 16.937118000000002
#
# number of rings (size 3 to 8) (size 9 to 14) (size 15 to 20)
#    0.000    2.286    2.857    2.143    0.000    3.429 
#    0.000    0.000    0.000    3.429    0.000    0.000 
#    0.000    0.000    0.000    0.000    0.000    0.143 
#
# Total GULP energy -347061.229784 kJ/mol
# GULP energy per Si atom -12395.043921 kJ/mol
# Density = 1.689857 g / cm^3
# Si number density = 16.937118 Si / 1000 Ang^3
#
#
#
# Elastic Constant Matrix: (Units=GPa)
#
#
# Indices 1 2 3 4 5 6 
#
# 1 112.1976 39.5066 65.6425 0.0000 13.1018 0.0000
# 2 39.5066 46.1223 42.2914 0.0000 5.3562 0.0000
# 3 65.6425 42.2914 143.8065 0.0000 8.5280 0.0000
# 4 0.0000 0.0000 0.0000 8.7716 0.0000 1.0147
# 5 13.1018 5.3562 8.5280 0.0000 21.7201 0.0000
# 6 0.0000 0.0000 0.0000 1.0147 0.0000 24.3712
#
#
#
# Elastic Compliance Matrix: (Units=1/GPa)
#
#
# Indices 1 2 3 4 5 6 
#
# 1 0.014829 -0.008445 -0.003971 0.000000 -0.005303 0.000000
# 2 -0.008445 0.034837 -0.006330 0.000000 -0.001011 0.000000
# 3 -0.003971 -0.006330 0.010641 0.000000 -0.000222 0.000000
# 4 0.000000 0.000000 0.000000 0.114556 0.000000 -0.004769
# 5 -0.005303 -0.001011 -0.000222 0.000000 0.049576 0.000000
# 6 0.000000 0.000000 0.000000 -0.004769 0.000000 0.041231
#
#
# Mechanical properties :
#
#
# Convention : Reuss Voigt Hill
#
# Bulk Modulus (GPa) = 43.83092 66.33413 55.08253
# Shear Modulus (GPa) = 16.08925 21.28499 18.68712
#
# Velocity S-wave (km/s) = 3.08545 3.54885 3.32524
# Velocity P-wave (km/s) = 6.21516 7.48615 6.88007
#
# Compressibility (1/GPa) = 0.02281494
#
# Stress axis : x y z
#
# Youngs Moduli (GPa) = 67.43569 28.70504 93.97510
#
# Poissons Ratio (x) = 0.24241 0.37316
# Poissons Ratio (y) = 0.56950 0.59489
# Poissons Ratio (z) = 0.26778 0.18171
#
# Static dielectric constant tensor:
#      x y z
#    x 3.189870 0.000000 -0.072690 
#    y 0.000000 2.983580 0.000000 
#    z -0.072690 0.000000 3.734240 
# 
# 
# High freq. dielectric constant tensor:
#      x y z
#    x 1.634760 0.000000 -0.002820 
#    y 0.000000 1.629460 0.000000 
#    z -0.002820 0.000000 1.664290 
# 
# From -- ./inp_files/237392.got.cif
#   From: 2010.06.25/outbox.cif.g09.slc.cpg/sg12_119_cif.got.tgz:237392.got - 2010.06.28 00:19:55.
