data_PCOD8081597
_publ_section_title
;
Structure prediction by ZEFSAII (Michael W. Deem and Ramdas Pophale) SiO2 
 PCOD8081597
Probable space group: C 2/M
;
_chemical_formula_sum "Si O2"
_cell_formula_units_Z 64
_cell_length_a 24.295341
_cell_length_b 13.309092
_cell_length_c 11.420545
_cell_angle_alpha 90.000000
_cell_angle_beta 101.717513
_cell_angle_gamma 90.000000
_cell_volume 3615.865484
_symmetry_space_group_name_H-M "C 2/M"
_symmetry_group_IT_number 12
_symmetry_cell_setting 'monoclinic'
loop_
_space_group_symop_operation_xyz
x,y,z
-x,y,-z
-x,-y,-z
x,-y,z
1/2+x,1/2+y,z
1/2-x,1/2+y,-z
1/2-x,1/2-y,-z
1/2+x,1/2-y,z
loop_
_atom_site_type_symbol
_atom_site_label
_atom_site_fract_x
_atom_site_fract_y
_atom_site_fract_z
Si Si1 0.422066 0.113495 0.706340
Si Si2 0.064534 0.616806 0.025064
Si Si3 0.726761 0.384282 0.882256
Si Si4 0.470111 0.116070 0.374348
Si Si5 0.274857 0.616374 0.392494
Si Si6 0.830783 0.704364 0.047479
Si Si7 0.152893 0.382694 0.706226
Si Si8 0.672067 0.205358 0.474133
O O1 0.489148 0.129405 0.719860
O O2 0.389700 0.189284 0.606231
O O3 0.405513 0.000000 0.661255
O O4 0.408079 0.131057 0.835375
O O5 0.066173 0.500000 0.985639
O O6 0.103875 0.682453 0.955862
O O7 0.000000 0.655379 0.000000
O O8 0.720958 0.500000 0.915368
O O9 0.712884 0.368906 0.739404
O O10 0.682593 0.323243 0.945353
O O11 0.790396 0.347125 0.934318
O O12 0.500000 0.166320 0.500000
O O13 0.409958 0.166332 0.323360
O O14 0.458266 0.000000 0.398503
O O15 0.277400 0.500000 0.429476
O O16 0.320125 0.676738 0.491695
O O17 0.214243 0.663885 0.394188
O O18 0.814663 0.661062 0.168251
O O19 0.150938 0.500000 0.723209
O O20 0.183836 0.355541 0.598997
#
# Coordination Sequence:
#
# PCOD8081597 Si02
#       8
#     8   8   8   8   8   8   8   8
#     4  10  18  30  49  74 105 140 168 198 246 309
#     4  10  20  34  53  79 112 145 173 209 260 320
#     4  10  21  38  56  74 101 140 182 221 262 310
#     4   9  16  26  42  68 105 135 158 192 243 301
#     4  10  21  37  52  70 100 134 172 215 255 306
#     4  11  21  34  54  78 103 137 180 218 262 310
#     4  11  19  29  46  76 109 133 161 209 255 302
#     4  11  20  31  51  76  99 133 171 204 258 310
#
# _framework density 17.699774999999999
#
# number of rings (size 3 to 8) (size 9 to 14) (size 15 to 20)
#    0.000    1.750    2.500    3.750    0.000    4.000 
#    0.000    0.000    0.000    0.375    0.000    4.375 
#    0.000    0.000    0.000    0.000    0.000    0.000 
#
# Total GULP energy -396710.189877 kJ/mol
# GULP energy per Si atom -12397.193434 kJ/mol
# Density = 1.765949 g / cm^3
# Si number density = 17.699775 Si / 1000 Ang^3
#
#
#
# Elastic Constant Matrix: (Units=GPa)
#
#
# Indices 1 2 3 4 5 6 
#
# 1 77.8006 39.3982 14.8731 0.0000 -4.3448 0.0000
# 2 39.3982 102.8862 32.0548 0.0000 1.7172 0.0000
# 3 14.8731 32.0548 62.0149 0.0000 -3.9173 0.0000
# 4 0.0000 0.0000 0.0000 25.4329 0.0000 -1.4842
# 5 -4.3448 1.7172 -3.9173 0.0000 26.3553 0.0000
# 6 0.0000 0.0000 0.0000 -1.4842 0.0000 23.4700
#
#
#
# Elastic Compliance Matrix: (Units=1/GPa)
#
#
# Indices 1 2 3 4 5 6 
#
# 1 0.016207 -0.006083 -0.000554 0.000000 0.002986 0.000000
# 2 -0.006083 0.013941 -0.005923 0.000000 -0.002792 0.000000
# 3 -0.000554 -0.005923 0.019522 0.000000 0.003196 0.000000
# 4 0.000000 0.000000 0.000000 0.039465 0.000000 0.002496
# 5 0.002986 -0.002792 0.003196 0.000000 0.039092 0.000000
# 6 0.000000 0.000000 0.000000 0.002496 0.000000 0.042765
#
#
# Mechanical properties :
#
#
# Convention : Reuss Voigt Hill
#
# Bulk Modulus (GPa) = 40.73611 46.15043 43.44327
# Shear Modulus (GPa) = 24.47440 25.47669 24.97555
#
# Velocity S-wave (km/s) = 3.72257 3.79803 3.76049
# Velocity P-wave (km/s) = 6.44529 6.73528 6.59188
#
# Compressibility (1/GPa) = 0.02454824
#
# Stress axis : x y z
#
# Youngs Moduli (GPa) = 61.70346 71.73107 51.22535
#
# Poissons Ratio (x) = 0.43636 0.02837
# Poissons Ratio (y) = 0.37536 0.30342
# Poissons Ratio (z) = 0.03418 0.42489
#
# Static dielectric constant tensor:
#      x y z
#    x 3.289730 0.000000 0.000110 
#    y 0.000000 3.076100 0.000000 
#    z 0.000110 0.000000 3.390000 
# 
# 
# High freq. dielectric constant tensor:
#      x y z
#    x 1.676650 0.000000 -0.004980 
#    y 0.000000 1.641360 0.000000 
#    z -0.004980 0.000000 1.701180 
# 
# From -- ./inp_files/174693.got.cif
#   From: 2010.06.25/outbox.cif.g09.slc.cpg/sg12_88_cif.got.tgz:174693.got - 2010.06.28 00:19:55.
