data_PCOD8081313
_publ_section_title
;
Structure prediction by ZEFSAII (Michael W. Deem and Ramdas Pophale) SiO2 
 PCOD8081313
Probable space group: C 2/M
;
_chemical_formula_sum "Si O2"
_cell_formula_units_Z 64
_cell_length_a 18.717223
_cell_length_b 14.688724
_cell_length_c 26.572348
_cell_angle_alpha 90.000000
_cell_angle_beta 28.521594
_cell_angle_gamma 90.000000
_cell_volume 3488.346709
_symmetry_space_group_name_H-M "C 2/M"
_symmetry_group_IT_number 12
_symmetry_cell_setting 'monoclinic'
loop_
_space_group_symop_operation_xyz
x,y,z
-x,y,-z
-x,-y,-z
x,-y,z
1/2+x,1/2+y,z
1/2-x,1/2+y,-z
1/2-x,1/2-y,-z
1/2+x,1/2-y,z
loop_
_atom_site_type_symbol
_atom_site_label
_atom_site_fract_x
_atom_site_fract_y
_atom_site_fract_z
Si Si1 0.669580 0.223142 0.688578
Si Si2 0.619477 0.399100 0.382055
Si Si3 0.872114 0.177973 0.470436
Si Si4 0.584999 0.102839 0.201663
Si Si5 0.873605 0.892221 0.220772
Si Si6 0.048494 0.399236 0.418703
Si Si7 0.421416 0.607790 0.998568
Si Si8 0.593022 0.137455 0.594240
O O1 0.747112 0.170807 0.687732
O O2 0.788463 0.226957 0.569345
O O3 0.522816 0.166835 0.763825
O O4 0.613420 0.324896 0.738805
O O5 0.500000 0.404094 0.500000
O O6 0.687673 0.500000 0.330847
O O7 0.527405 0.368841 0.389550
O O8 0.755250 0.107440 0.516657
O O9 0.914792 0.252902 0.402187
O O10 0.752280 0.143847 0.097002
O O11 0.536087 0.098608 0.290415
O O12 0.580061 0.000000 0.182791
O O13 0.710020 0.866973 0.298952
O O14 0.892534 0.000000 0.223868
O O15 0.990611 0.862539 0.105924
O O16 0.075237 0.500000 0.421552
O O17 0.000000 0.343591 0.500000
O O18 0.926086 0.397914 0.450654
O O19 0.419223 0.500000 0.005578
O O20 0.500000 0.649518 0.000000
#
# Coordination Sequence:
#
# PCOD8081313 Si02
#       8
#     8   8   8   8   8   8   8   8
#     4  10  19  32  51  74 103 132 168 212 250 299
#     4   9  17  30  48  70 100 136 168 201 245 292
#     4   9  19  30  45  70 101 135 169 206 245 295
#     4  10  20  33  52  76 100 129 167 212 258 301
#     4  10  20  33  50  72 100 134 166 203 257 309
#     4  10  19  29  45  69  94 123 160 196 236 293
#     4   9  18  33  51  73 100 128 164 210 257 306
#     4  10  18  30  46  67  99 131 163 202 249 293
#
# _framework density 18.346800000000002
#
# number of rings (size 3 to 8) (size 9 to 14) (size 15 to 20)
#    0.000    2.375    0.000    3.000    0.000    7.000 
#    0.000    0.625    0.000    4.500    0.000    0.000 
#    0.000    3.500    0.000    0.000    0.000    0.000 
#
# Total GULP energy -396434.653335 kJ/mol
# GULP energy per Si atom -12388.582917 kJ/mol
# Density = 1.830504 g / cm^3
# Si number density = 18.346800 Si / 1000 Ang^3
#
#
#
# Elastic Constant Matrix: (Units=GPa)
#
#
# Indices 1 2 3 4 5 6 
#
# 1 118.7672 27.0069 43.5039 -0.0005 -15.5470 0.0002
# 2 27.0069 78.2315 24.8857 -0.0004 -3.6114 -0.0008
# 3 43.5039 24.8857 90.3168 -0.0073 -10.5637 -0.0004
# 4 -0.0005 -0.0004 -0.0073 16.1374 -0.0022 2.1112
# 5 -15.5470 -3.6114 -10.5637 -0.0022 25.1390 -0.0011
# 6 0.0002 -0.0008 -0.0004 2.1112 -0.0011 16.5502
#
#
#
# Elastic Compliance Matrix: (Units=1/GPa)
#
#
# Indices 1 2 3 4 5 6 
#
# 1 0.011086 -0.002286 -0.004151 -0.000001 0.004784 0.000000
# 2 -0.002286 0.014486 -0.002958 -0.000001 -0.000576 0.000001
# 3 -0.004151 -0.002958 0.014236 0.000007 0.002990 0.000000
# 4 -0.000001 -0.000001 0.000007 0.063019 0.000007 -0.008039
# 5 0.004784 -0.000576 0.002990 0.000007 0.043911 0.000002
# 6 0.000000 0.000001 0.000000 -0.008039 0.000002 0.061448
#
#
# Mechanical properties :
#
#
# Convention : Reuss Voigt Hill
#
# Bulk Modulus (GPa) = 47.57419 53.12315 50.34867
# Shear Modulus (GPa) = 21.36916 24.35991 22.86454
#
# Velocity S-wave (km/s) = 3.41652 3.64778 3.53404
# Velocity P-wave (km/s) = 6.44595 6.83810 6.64492
#
# Compressibility (1/GPa) = 0.02101980
#
# Stress axis : x y z
#
# Youngs Moduli (GPa) = 90.20222 69.03215 70.24382
#
# Poissons Ratio (x) = 0.15781 0.29156
# Poissons Ratio (y) = 0.20620 0.20776
# Poissons Ratio (z) = 0.37440 0.20417
#
# Static dielectric constant tensor:
#      x y z
#    x 3.476470 0.000000 -0.182960 
#    y 0.000000 3.331660 0.000020 
#    z -0.182960 0.000020 3.316450 
# 
# 
# High freq. dielectric constant tensor:
#      x y z
#    x 1.712840 0.000000 -0.015200 
#    y 0.000000 1.695080 0.000000 
#    z -0.015200 0.000000 1.684080 
# 
# From -- ./inp_files/364277.got.cif
#   From: 2010.06.25/outbox.cif.g09.slc.cpg/sg12_183_cif.got.tgz:364277.got - 2010.06.28 00:19:55.
