data_PCOD8081236
_publ_section_title
;
Structure prediction by ZEFSAII (Michael W. Deem and Ramdas Pophale) SiO2 
 PCOD8081236
Probable space group: C 2/M
;
_chemical_formula_sum "Si O2"
_cell_formula_units_Z 64
_cell_length_a 22.586142
_cell_length_b 13.483563
_cell_length_c 12.677260
_cell_angle_alpha 90.000000
_cell_angle_beta 95.333590
_cell_angle_gamma 90.000000
_cell_volume 3844.038294
_symmetry_space_group_name_H-M "C 2/M"
_symmetry_group_IT_number 12
_symmetry_cell_setting 'monoclinic'
loop_
_space_group_symop_operation_xyz
x,y,z
-x,y,-z
-x,-y,-z
x,-y,z
1/2+x,1/2+y,z
1/2-x,1/2+y,-z
1/2-x,1/2-y,-z
1/2+x,1/2-y,z
loop_
_atom_site_type_symbol
_atom_site_label
_atom_site_fract_x
_atom_site_fract_y
_atom_site_fract_z
Si Si1 0.791468 0.884310 0.506988
Si Si2 0.432984 0.115132 0.466252
Si Si3 0.829919 0.889486 0.157456
Si Si4 0.168764 0.614509 0.392896
Si Si5 0.237299 0.884344 0.268576
Si Si6 0.848025 0.249000 0.341544
Si Si7 0.807803 0.788457 0.950850
Si Si8 0.188630 0.389296 0.167600
O O1 0.722772 0.848866 0.476309
O O2 0.804340 0.867581 0.633983
O O3 0.834236 0.815873 0.444045
O O4 0.800627 0.000000 0.477139
O O5 0.500000 0.148053 0.500000
O O6 0.394466 0.135353 0.564904
O O7 0.406127 0.183386 0.369937
O O8 0.429313 0.000000 0.431588
O O9 0.864530 0.824620 0.249204
O O10 0.759812 0.887858 0.170767
O O11 0.855128 0.000000 0.169320
O O12 0.845334 0.850692 0.041896
O O13 0.179589 0.500000 0.373314
O O14 0.172356 0.661062 0.277233
O O15 0.295937 0.819681 0.292533
O O16 0.205073 0.855013 0.154606
O O17 0.255558 0.000000 0.266105
O O18 0.840997 0.686521 0.921022
O O19 0.750000 0.750000 0.000000
O O20 0.163192 0.500000 0.144633
#
# Coordination Sequence:
#
# PCOD8081236 Si02
#       8
#     8   8   8   8   8   8   8   8
#     4  10  19  29  46  76 104 125 154 197 246 296
#     4  10  22  36  48  69 101 133 166 203 245 294
#     4  10  19  31  45  67 102 135 164 194 238 298
#     4   9  15  27  46  68  98 132 159 192 241 292
#     4  11  20  28  41  68 102 131 159 194 236 286
#     4  12  19  30  51  71  97 131 166 198 240 295
#     4  10  18  30  40  63 102 141 162 190 234 292
#     4   9  16  26  43  68  97 129 163 194 230 285
#
# _framework density 16.649156999999999
#
# number of rings (size 3 to 8) (size 9 to 14) (size 15 to 20)
#    0.000    1.875    5.000    1.500    1.750    0.500 
#    0.000    0.000    0.000    1.500    0.000    0.875 
#    0.000    5.000    0.000    0.000    0.000    0.000 
#
# Total GULP energy -396543.555927 kJ/mol
# GULP energy per Si atom -12391.986123 kJ/mol
# Density = 1.661126 g / cm^3
# Si number density = 16.649157 Si / 1000 Ang^3
#
#
#
# Elastic Constant Matrix: (Units=GPa)
#
#
# Indices 1 2 3 4 5 6 
#
# 1 43.7897 21.2827 27.5706 0.0000 5.1594 0.0000
# 2 21.2827 112.5263 68.4112 0.0000 0.6310 0.0000
# 3 27.5706 68.4112 130.2918 0.0000 -13.6822 0.0000
# 4 0.0000 0.0000 0.0000 37.4165 0.0000 -2.3135
# 5 5.1594 0.6310 -13.6822 0.0000 15.3208 0.0000
# 6 0.0000 0.0000 0.0000 -2.3135 0.0000 14.8234
#
#
#
# Elastic Compliance Matrix: (Units=1/GPa)
#
#
# Indices 1 2 3 4 5 6 
#
# 1 0.030110 -0.000948 -0.007652 0.000000 -0.016935 0.000000
# 2 -0.000948 0.013879 -0.007849 0.000000 -0.007262 0.000000
# 3 -0.007652 -0.007849 0.015140 0.000000 0.016421 0.000000
# 4 0.000000 0.000000 0.000000 0.026987 0.000000 0.004212
# 5 -0.016935 -0.007262 0.016421 0.000000 0.085938 0.000000
# 6 0.000000 0.000000 0.000000 0.004212 0.000000 0.068118
#
#
# Mechanical properties :
#
#
# Convention : Reuss Voigt Hill
#
# Bulk Modulus (GPa) = 38.12330 57.90410 48.01370
# Shear Modulus (GPa) = 17.74219 24.80170 21.27194
#
# Velocity S-wave (km/s) = 3.26797 3.86381 3.57831
# Velocity P-wave (km/s) = 6.09814 7.39999 6.78038
#
# Compressibility (1/GPa) = 0.02623068
#
# Stress axis : x y z
#
# Youngs Moduli (GPa) = 33.21116 72.05204 66.04942
#
# Poissons Ratio (x) = 0.06828 0.50543
# Poissons Ratio (y) = 0.03147 0.51845
# Poissons Ratio (z) = 0.25414 0.56556
#
# Static dielectric constant tensor:
#      x y z
#    x 2.532690 0.000000 -0.233810 
#    y 0.000000 3.645420 0.000000 
#    z -0.233810 0.000000 3.488930 
# 
# 
# High freq. dielectric constant tensor:
#      x y z
#    x 1.554760 0.000000 -0.029330 
#    y 0.000000 1.670240 0.000000 
#    z -0.029330 0.000000 1.646840 
# 
# From -- ./inp_files/167308.got.cif
#   From: 2010.06.25/outbox.cif.g09.slc.cpg/sg12_84_cif.got.tgz:167308.got - 2010.06.28 00:19:55.
