data_PCOD8081301
_publ_section_title
;
Structure prediction by ZEFSAII (Michael W. Deem and Ramdas Pophale) SiO2 
 PCOD8081301
Probable space group: C 2/M
;
_chemical_formula_sum "Si O2"
_cell_formula_units_Z 56
_cell_length_a 19.661907
_cell_length_b 21.950787
_cell_length_c 7.518010
_cell_angle_alpha 90.000000
_cell_angle_beta 94.512222
_cell_angle_gamma 90.000000
_cell_volume 3234.673708
_symmetry_space_group_name_H-M "C 2/M"
_symmetry_group_IT_number 12
_symmetry_cell_setting 'monoclinic'
loop_
_space_group_symop_operation_xyz
x,y,z
-x,y,-z
-x,-y,-z
x,-y,z
1/2+x,1/2+y,z
1/2-x,1/2+y,-z
1/2-x,1/2-y,-z
1/2+x,1/2-y,z
loop_
_atom_site_type_symbol
_atom_site_label
_atom_site_fract_x
_atom_site_fract_y
_atom_site_fract_z
Si Si1 0.146946 0.770936 0.931925
Si Si2 0.220860 0.346025 0.031154
Si Si3 0.033845 0.172142 0.679903
Si Si4 0.773823 0.927980 0.721202
Si Si5 0.902708 0.868448 0.853708
Si Si6 0.267197 0.932816 0.677536
Si Si7 0.613490 0.567377 0.770375
O O1 0.214751 0.807092 0.881338
O O2 0.083190 0.778548 0.783326
O O3 0.161443 0.699355 0.954192
O O4 0.127204 0.800322 0.118192
O O5 0.191191 0.384597 0.193156
O O6 0.238525 0.391403 0.873456
O O7 0.078279 0.113633 0.623186
O O8 0.000000 0.203420 0.500000
O O9 0.977951 0.141926 0.797391
O O10 0.852436 0.906076 0.713143
O O11 0.735430 0.912846 0.528986
O O12 0.772379 0.000000 0.762280
O O13 0.902849 0.904268 0.040418
O O14 0.193252 0.935449 0.752868
O O15 0.300720 0.000000 0.696895
O O16 0.581416 0.500000 0.749014
#
# Coordination Sequence:
#
# PCOD8081301 Si02
#       7
#     8   8   8   8   8   8   8
#     4   9  19  34  48  69  91 132 177 206 245 291
#     4  10  18  34  52  67 101 131 167 212 247 292
#     4  11  21  33  47  67 100 131 172 214 243 285
#     4  10  19  31  50  77 104 132 166 202 249 297
#     4  10  19  31  50  66  96 139 165 208 248 279
#     4  10  18  30  49  73 101 127 160 205 248 297
#     4  10  18  30  46  65  95 133 173 205 240 284
#
# _framework density 17.312411000000001
#
# number of rings (size 3 to 8) (size 9 to 14) (size 15 to 20)
#    0.000    2.000    4.286    3.429    0.000    2.000 
#    2.571    2.143    0.000    0.000    0.000    0.000 
#    0.000   11.429    0.000    0.000    0.000    0.000 
#
# Total GULP energy -346897.480267 kJ/mol
# GULP energy per Si atom -12389.195724 kJ/mol
# Density = 1.727301 g / cm^3
# Si number density = 17.312411 Si / 1000 Ang^3
#
#
#
# Elastic Constant Matrix: (Units=GPa)
#
#
# Indices 1 2 3 4 5 6 
#
# 1 33.9742 38.3480 15.4668 0.0000 10.1500 0.0000
# 2 38.3480 120.5863 58.5763 0.0000 18.1847 0.0000
# 3 15.4668 58.5763 96.4774 0.0000 14.4777 0.0000
# 4 0.0000 0.0000 0.0000 22.7928 0.0000 9.8431
# 5 10.1500 18.1847 14.4777 0.0000 18.8863 0.0000
# 6 0.0000 0.0000 0.0000 9.8431 0.0000 21.7317
#
#
#
# Elastic Compliance Matrix: (Units=1/GPa)
#
#
# Indices 1 2 3 4 5 6 
#
# 1 0.049346 -0.015196 0.003502 0.000000 -0.014573 0.000000
# 2 -0.015196 0.017220 -0.007635 0.000000 -0.002561 0.000000
# 3 0.003502 -0.007635 0.015389 0.000000 -0.006328 0.000000
# 4 0.000000 0.000000 0.000000 0.054542 0.000000 -0.024704
# 5 -0.014573 -0.002561 -0.006328 0.000000 0.068097 0.000000
# 6 0.000000 0.000000 0.000000 -0.024704 0.000000 0.057205
#
#
# Mechanical properties :
#
#
# Convention : Reuss Voigt Hill
#
# Bulk Modulus (GPa) = 23.09599 52.86891 37.98245
# Shear Modulus (GPa) = 15.87858 21.92528 18.90193
#
# Velocity S-wave (km/s) = 3.03178 3.56258 3.30785
# Velocity P-wave (km/s) = 5.06214 6.89399 6.04782
#
# Compressibility (1/GPa) = 0.04329756
#
# Stress axis : x y z
#
# Youngs Moduli (GPa) = 20.26502 58.07063 64.98291
#
# Poissons Ratio (x) = 0.88247 -0.22760
# Poissons Ratio (y) = 0.30796 0.49613
# Poissons Ratio (z) = -0.07098 0.44336
#
# Static dielectric constant tensor:
#      x y z
#    x 2.945960 0.000000 0.079960 
#    y 0.000000 3.509150 0.000000 
#    z 0.079960 0.000000 3.289620 
# 
# 
# High freq. dielectric constant tensor:
#      x y z
#    x 1.621550 0.000000 0.001370 
#    y 0.000000 1.661330 0.000000 
#    z 0.001370 0.000000 1.670380 
# 
# From -- ./inp_files/88813.got.cif
#   From: 2010.06.25/outbox.cif.g09.slc.cpg/sg12_45_cif.got.tgz:88813.got - 2010.06.28 00:19:55.
