data_PCOD8081125
_publ_section_title
;
Structure prediction by ZEFSAII (Michael W. Deem and Ramdas Pophale) SiO2 
 PCOD8081125
Probable space group: C 2/M
;
_chemical_formula_sum "Si O2"
_cell_formula_units_Z 64
_cell_length_a 20.610524
_cell_length_b 8.701992
_cell_length_c 24.375740
_cell_angle_alpha 90.000000
_cell_angle_beta 52.886715
_cell_angle_gamma 90.000000
_cell_volume 3486.307903
_symmetry_space_group_name_H-M "C 2/M"
_symmetry_group_IT_number 12
_symmetry_cell_setting 'monoclinic'
loop_
_space_group_symop_operation_xyz
x,y,z
-x,y,-z
-x,-y,-z
x,-y,z
1/2+x,1/2+y,z
1/2-x,1/2+y,-z
1/2-x,1/2-y,-z
1/2+x,1/2-y,z
loop_
_atom_site_type_symbol
_atom_site_label
_atom_site_fract_x
_atom_site_fract_y
_atom_site_fract_z
Si Si1 0.466138 0.319653 0.366125
Si Si2 0.680434 0.818345 0.497620
Si Si3 0.686452 0.822423 0.992490
Si Si4 0.580928 0.681425 0.732553
Si Si5 0.236420 0.317939 0.351610
Si Si6 0.702280 0.681076 0.155561
Si Si7 0.641239 0.818720 0.293518
Si Si8 0.928968 0.680231 0.858863
O O1 0.454825 0.500000 0.379843
O O2 0.408398 0.234068 0.438517
O O3 0.442572 0.269120 0.316932
O O4 0.557626 0.272059 0.331594
O O5 0.750000 0.750000 0.500000
O O6 0.693880 0.758010 0.428810
O O7 0.687447 0.000000 0.496911
O O8 0.597331 0.785111 0.063640
O O9 0.704314 0.000000 0.986042
O O10 0.750000 0.750000 0.000000
O O11 0.710633 0.772223 0.917930
O O12 0.573125 0.500000 0.744651
O O13 0.671215 0.743626 0.698934
O O14 0.521503 0.765419 0.805721
O O15 0.239655 0.500000 0.350437
O O16 0.185454 0.258794 0.325769
O O17 0.695816 0.500000 0.171695
O O18 0.699258 0.776539 0.213079
O O19 0.626615 0.726100 0.155396
O O20 0.624530 0.000000 0.303377
O O21 0.920487 0.500000 0.849870
#
# Coordination Sequence:
#
# PCOD8081125 Si02
#       8
#     8   8   8   8   8   8   8   8
#     4  11  22  37  58  83 112 142 177 222 272 321
#     4  11  21  38  61  84 110 142 182 224 271 321
#     4   8  16  28  44  70 106 141 173 215 265 314
#     4  10  19  35  56  77 107 144 179 218 270 320
#     4   9  21  40  58  77 106 144 180 218 267 323
#     4  10  18  31  50  74 108 146 176 214 272 321
#     4  11  22  37  57  80 107 142 184 223 264 318
#     4  10  18  29  49  80 109 136 180 226 261 311
#
# _framework density 18.357529
#
# number of rings (size 3 to 8) (size 9 to 14) (size 15 to 20)
#    0.000    2.000    2.500    1.875    0.000    2.000 
#    0.000    6.250    0.000    0.750    0.000    5.250 
#    0.000    0.000    0.000    0.000    0.000    0.000 
#
# Total GULP energy -396630.872296 kJ/mol
# GULP energy per Si atom -12394.714759 kJ/mol
# Density = 1.831575 g / cm^3
# Si number density = 18.357529 Si / 1000 Ang^3
#
#
#
# Elastic Constant Matrix: (Units=GPa)
#
#
# Indices 1 2 3 4 5 6 
#
# 1 96.5820 14.0999 50.0971 -0.0001 3.9283 0.0000
# 2 14.0999 32.4283 25.2415 -0.0002 0.7779 0.0004
# 3 50.0971 25.2415 160.9875 0.0000 -3.9767 -0.0001
# 4 -0.0001 -0.0002 0.0000 31.7712 0.0000 -3.2114
# 5 3.9283 0.7779 -3.9767 0.0000 24.3558 -0.0001
# 6 0.0000 0.0004 -0.0001 -3.2114 -0.0001 22.0486
#
#
#
# Elastic Compliance Matrix: (Units=1/GPa)
#
#
# Indices 1 2 3 4 5 6 
#
# 1 0.012715 -0.002663 -0.003602 0.000000 -0.002554 0.000000
# 2 -0.002663 0.035782 -0.004819 0.000000 -0.001500 -0.000001
# 3 -0.003602 -0.004819 0.008139 0.000000 0.002064 0.000000
# 4 0.000000 0.000000 0.000000 0.031945 0.000000 0.004653
# 5 -0.002554 -0.001500 0.002064 0.000000 0.041855 0.000000
# 6 0.000000 -0.000001 0.000000 0.004653 0.000000 0.046032
#
#
# Mechanical properties :
#
#
# Convention : Reuss Voigt Hill
#
# Bulk Modulus (GPa) = 29.01257 52.09721 40.55489
# Shear Modulus (GPa) = 23.79525 29.00575 26.40050
#
# Velocity S-wave (km/s) = 3.60420 3.97929 3.79638
# Velocity P-wave (km/s) = 5.75837 7.03945 6.43089
#
# Compressibility (1/GPa) = 0.03446782
#
# Stress axis : x y z
#
# Youngs Moduli (GPa) = 78.64679 27.94700 122.86328
#
# Poissons Ratio (x) = 0.07443 0.44258
# Poissons Ratio (y) = 0.20947 0.59203
# Poissons Ratio (z) = 0.28331 0.13466
#
# Static dielectric constant tensor:
#      x y z
#    x 3.176300 0.000000 -0.035680 
#    y 0.000000 3.333430 0.000000 
#    z -0.035680 0.000000 4.158150 
# 
# 
# High freq. dielectric constant tensor:
#      x y z
#    x 1.672480 0.000000 -0.007960 
#    y 0.000000 1.709210 0.000000 
#    z -0.007960 0.000000 1.738420 
# 
# From -- ./inp_files/345999.got.cif
#   From: 2010.06.25/outbox.cif.g09.slc.cpg/sg12_173_cif.got.tgz:345999.got - 2010.06.28 00:19:55.
