data_PCOD8081799
_publ_section_title
;
Structure prediction by ZEFSAII (Michael W. Deem and Ramdas Pophale) SiO2 
 PCOD8081799
Probable space group: C 2/M
;
_chemical_formula_sum "Si O2"
_cell_formula_units_Z 64
_cell_length_a 20.158835
_cell_length_b 9.426821
_cell_length_c 25.470884
_cell_angle_alpha 90.000000
_cell_angle_beta 51.198174
_cell_angle_gamma 90.000000
_cell_volume 3772.153987
_symmetry_space_group_name_H-M "C 2/M"
_symmetry_group_IT_number 12
_symmetry_cell_setting 'monoclinic'
loop_
_space_group_symop_operation_xyz
x,y,z
-x,y,-z
-x,-y,-z
x,-y,z
1/2+x,1/2+y,z
1/2-x,1/2+y,-z
1/2-x,1/2-y,-z
1/2+x,1/2-y,z
loop_
_atom_site_type_symbol
_atom_site_label
_atom_site_fract_x
_atom_site_fract_y
_atom_site_fract_z
Si Si1 0.072696 0.832465 0.423367
Si Si2 0.994230 0.167822 0.158194
Si Si3 0.740398 0.835113 0.343056
Si Si4 0.816677 0.833643 0.932525
Si Si5 0.325425 0.335332 0.189457
Si Si6 0.707433 0.333785 0.177025
Si Si7 0.457017 0.668371 0.678473
Si Si8 0.413248 0.668433 0.303413
O O1 0.159378 0.758207 0.398010
O O2 0.044868 0.774374 0.379960
O O3 0.000000 0.788242 0.500000
O O4 0.088498 0.000000 0.415104
O O5 0.924403 0.209764 0.148821
O O6 0.965956 0.233014 0.228250
O O7 0.089093 0.219812 0.096770
O O8 0.995699 0.000000 0.164120
O O9 0.772232 0.802493 0.268486
O O10 0.814119 0.788655 0.347829
O O11 0.717188 0.000000 0.360659
O O12 0.802329 0.796252 0.878933
O O13 0.805104 0.000000 0.948595
O O14 0.750000 0.750000 0.000000
O O15 0.318650 0.500000 0.178070
O O16 0.290289 0.244642 0.158527
O O17 0.719698 0.500000 0.180037
O O18 0.624787 0.276286 0.248967
O O19 0.456576 0.500000 0.678563
O O20 0.543235 0.724356 0.664354
O O21 0.419756 0.500000 0.297001
#
# Coordination Sequence:
#
# PCOD8081799 Si02
#       8
#     8   8   8   8   8   8   8   8
#     4  10  20  32  47  69  99 133 163 192 234 290
#     4   8  14  28  48  70  94 122 158 196 234 283
#     4   9  17  29  48  73  96 120 154 200 247 283
#     4  10  20  34  52  73  98 128 163 199 239 285
#     4   9  17  29  49  75  98 119 152 201 246 281
#     4  10  18  30  51  75  95 124 164 200 234 280
#     4   9  15  27  48  71  93 121 162 201 230 272
#     4   8  13  25  48  73  91 115 160 205 234 273
#
# _framework density 16.966432999999999
#
# number of rings (size 3 to 8) (size 9 to 14) (size 15 to 20)
#    0.000    2.875    2.500    1.500    0.000    0.750 
#    0.000    1.875    0.000    6.000    0.000    0.000 
#    0.000    0.000    0.000    0.000    0.000    0.000 
#
# Total GULP energy -396623.470269 kJ/mol
# GULP energy per Si atom -12394.483446 kJ/mol
# Density = 1.692782 g / cm^3
# Si number density = 16.966433 Si / 1000 Ang^3
#
#
#
# Elastic Constant Matrix: (Units=GPa)
#
#
# Indices 1 2 3 4 5 6 
#
# 1 168.6604 43.7926 74.6030 0.0000 -14.3938 0.0001
# 2 43.7926 29.7538 36.6398 0.0001 -5.1629 0.0003
# 3 74.6030 36.6398 112.3419 0.0000 -10.2227 0.0000
# 4 0.0000 0.0001 0.0000 21.3379 0.0000 -3.3440
# 5 -14.3938 -5.1629 -10.2227 0.0000 25.9662 0.0000
# 6 0.0001 0.0003 0.0000 -3.3440 0.0000 25.5321
#
#
#
# Elastic Compliance Matrix: (Units=1/GPa)
#
#
# Indices 1 2 3 4 5 6 
#
# 1 0.010354 -0.011078 -0.003050 0.000000 0.002336 0.000000
# 2 -0.011078 0.068444 -0.014818 0.000000 0.001634 -0.000001
# 3 -0.003050 -0.014818 0.015908 0.000000 0.001626 0.000000
# 4 0.000000 0.000000 0.000000 0.047847 0.000000 0.006267
# 5 0.002336 0.001634 0.001626 0.000000 0.040772 0.000000
# 6 0.000000 -0.000001 0.000000 0.006267 0.000000 0.039987
#
#
# Mechanical properties :
#
#
# Convention : Reuss Voigt Hill
#
# Bulk Modulus (GPa) = 27.16318 68.98078 48.07198
# Shear Modulus (GPa) = 17.03726 24.94863 20.99295
#
# Velocity S-wave (km/s) = 3.17231 3.83883 3.52138
# Velocity P-wave (km/s) = 5.42796 7.77138 6.70288
#
# Compressibility (1/GPa) = 0.03681454
#
# Stress axis : x y z
#
# Youngs Moduli (GPa) = 96.58124 14.61042 62.86298
#
# Poissons Ratio (x) = 0.16185 0.19175
# Poissons Ratio (y) = 1.06991 0.93148
# Poissons Ratio (z) = 0.29459 0.21649
#
# Static dielectric constant tensor:
#      x y z
#    x 3.564150 0.000000 -0.029040 
#    y 0.000000 2.750630 0.000000 
#    z -0.029040 0.000000 3.036230 
# 
# 
# High freq. dielectric constant tensor:
#      x y z
#    x 1.673880 0.000000 -0.004600 
#    y 0.000000 1.611120 0.000000 
#    z -0.004600 0.000000 1.630560 
# 
# From -- ./inp_files/346021.got.cif
#   From: 2010.06.25/outbox.cif.g09.slc.cpg/sg12_174_cif.got.tgz:346021.got - 2010.06.28 00:19:55.
