data_PCOD8081216
_publ_section_title
;
Structure prediction by ZEFSAII (Michael W. Deem and Ramdas Pophale) SiO2 
 PCOD8081216
Probable space group: C 2/M
;
_chemical_formula_sum "Si O2"
_cell_formula_units_Z 64
_cell_length_a 23.965968
_cell_length_b 8.576835
_cell_length_c 21.419760
_cell_angle_alpha 90.000000
_cell_angle_beta 128.725164
_cell_angle_gamma 90.000000
_cell_volume 3434.930330
_symmetry_space_group_name_H-M "C 2/M"
_symmetry_group_IT_number 12
_symmetry_cell_setting 'monoclinic'
loop_
_space_group_symop_operation_xyz
x,y,z
-x,y,-z
-x,-y,-z
x,-y,z
1/2+x,1/2+y,z
1/2-x,1/2+y,-z
1/2-x,1/2-y,-z
1/2+x,1/2-y,z
loop_
_atom_site_type_symbol
_atom_site_label
_atom_site_fract_x
_atom_site_fract_y
_atom_site_fract_z
Si Si1 0.253326 0.316139 0.598684
Si Si2 0.039252 0.314967 0.160415
Si Si3 0.610796 0.317108 0.957229
Si Si4 0.356246 0.317901 0.561851
Si Si5 0.516951 0.179826 0.286292
Si Si6 0.187493 0.815128 0.228916
Si Si7 0.143821 0.681385 0.848398
Si Si8 0.776343 0.681379 0.873918
O O1 0.254888 0.500000 0.600739
O O2 0.311267 0.251840 0.589429
O O3 0.174428 0.258281 0.523170
O O4 0.273796 0.252733 0.681274
O O5 0.041415 0.500000 0.153501
O O6 0.040632 0.265156 0.233968
O O7 0.104827 0.235226 0.171017
O O8 0.966964 0.248865 0.079148
O O9 0.606632 0.500000 0.940192
O O10 0.642895 0.227934 0.920126
O O11 0.662405 0.284608 0.051265
O O12 0.347891 0.500000 0.548818
O O13 0.439098 0.274242 0.630616
O O14 0.433103 0.213016 0.236938
O O15 0.534872 0.000000 0.307983
O O16 0.228380 0.731379 0.201317
O O17 0.193181 0.000000 0.225817
O O18 0.165090 0.500000 0.858941
O O19 0.199996 0.786471 0.851411
O O20 0.795122 0.500000 0.893535
#
# Coordination Sequence:
#
# PCOD8081216 Si02
#       8
#     8   8   8   8   8   8   8   8
#     4   9  19  33  50  77 112 147 179 218 266 321
#     4  10  20  35  55  82 113 146 181 224 275 329
#     4  11  22  38  60  84 110 142 181 231 278 323
#     4  10  18  29  51  82 112 143 180 220 264 318
#     4   9  18  32  54  81 112 143 175 220 273 323
#     4  11  22  38  57  79 111 149 186 225 271 330
#     4  10  21  39  60  84 110 142 183 230 278 323
#     4  12  25  40  57  80 108 145 187 228 275 328
#
# _framework density 18.632110000000001
#
# number of rings (size 3 to 8) (size 9 to 14) (size 15 to 20)
#    0.000    1.750    1.250    4.875    0.000    4.500 
#    0.000    2.500    0.000    0.750    0.000    5.250 
#    0.000    0.000    0.000    0.000    0.000    0.000 
#
# Total GULP energy -396923.906001 kJ/mol
# GULP energy per Si atom -12403.872063 kJ/mol
# Density = 1.858970 g / cm^3
# Si number density = 18.632110 Si / 1000 Ang^3
#
#
#
# Elastic Constant Matrix: (Units=GPa)
#
#
# Indices 1 2 3 4 5 6 
#
# 1 45.3739 17.5080 38.1557 0.0000 -7.5770 0.0000
# 2 17.5080 50.2213 18.4808 0.0000 1.0152 0.0000
# 3 38.1557 18.4808 112.2904 0.0000 2.9446 0.0000
# 4 0.0000 0.0000 0.0000 30.8262 0.0000 2.9587
# 5 -7.5770 1.0152 2.9446 0.0000 19.4491 0.0000
# 6 0.0000 0.0000 0.0000 2.9587 0.0000 30.0417
#
#
#
# Elastic Compliance Matrix: (Units=1/GPa)
#
#
# Indices 1 2 3 4 5 6 
#
# 1 0.038723 -0.009411 -0.012065 0.000000 0.017404 0.000000
# 2 -0.009411 0.023489 -0.000542 0.000000 -0.004811 0.000000
# 3 -0.012065 -0.000542 0.013270 0.000000 -0.006681 0.000000
# 4 0.000000 0.000000 0.000000 0.032750 0.000000 -0.003225
# 5 0.017404 -0.004811 -0.006681 0.000000 0.059459 0.000000
# 6 0.000000 0.000000 0.000000 -0.003225 0.000000 0.033605
#
#
# Mechanical properties :
#
#
# Convention : Reuss Voigt Hill
#
# Bulk Modulus (GPa) = 31.80168 39.57495 35.68832
# Shear Modulus (GPa) = 19.54550 24.97945 22.26247
#
# Velocity S-wave (km/s) = 3.24237 3.66548 3.46040
# Velocity P-wave (km/s) = 5.57876 6.26104 5.92972
#
# Compressibility (1/GPa) = 0.03144488
#
# Stress axis : x y z
#
# Youngs Moduli (GPa) = 25.82470 42.57224 75.36052
#
# Poissons Ratio (x) = 0.40066 0.90924
# Poissons Ratio (y) = 0.24305 0.04083
# Poissons Ratio (z) = 0.31158 0.02307
#
# Static dielectric constant tensor:
#      x y z
#    x 3.250110 0.000000 0.097290 
#    y 0.000000 3.369980 0.000000 
#    z 0.097290 0.000000 3.526770 
# 
# 
# High freq. dielectric constant tensor:
#      x y z
#    x 1.695790 0.000000 0.014180 
#    y 0.000000 1.732100 0.000000 
#    z 0.014180 0.000000 1.726300 
# 
# From -- ./inp_files/295637.got.cif
#   From: 2010.06.25/outbox.cif.g09.slc.cpg/sg12_148_cif.got.tgz:295637.got - 2010.06.28 00:19:55.
