data_PCOD8081558
_publ_section_title
;
Structure prediction by ZEFSAII (Michael W. Deem and Ramdas Pophale) SiO2 
 PCOD8081558
Probable space group: C 2/M
;
_chemical_formula_sum "Si O2"
_cell_formula_units_Z 56
_cell_length_a 28.661072
_cell_length_b 8.936461
_cell_length_c 13.496220
_cell_angle_alpha 90.000000
_cell_angle_beta 76.975106
_cell_angle_gamma 90.000000
_cell_volume 3367.832394
_symmetry_space_group_name_H-M "C 2/M"
_symmetry_group_IT_number 12
_symmetry_cell_setting 'monoclinic'
loop_
_space_group_symop_operation_xyz
x,y,z
-x,y,-z
-x,-y,-z
x,-y,z
1/2+x,1/2+y,z
1/2-x,1/2+y,-z
1/2-x,1/2-y,-z
1/2+x,1/2-y,z
loop_
_atom_site_type_symbol
_atom_site_label
_atom_site_fract_x
_atom_site_fract_y
_atom_site_fract_z
Si Si1 0.534749 0.825012 0.781146
Si Si2 0.049938 0.830083 0.082381
Si Si3 0.477867 0.824634 0.614656
Si Si4 0.608839 0.671430 0.250909
Si Si5 0.299172 0.176043 0.092267
Si Si6 0.800090 0.675935 0.863573
Si Si7 0.889240 0.824322 0.136894
O O1 0.495476 0.776736 0.881358
O O2 0.515724 0.778956 0.681613
O O3 0.584713 0.739027 0.777163
O O4 0.544209 0.000000 0.785534
O O5 0.087171 0.811120 0.152730
O O6 0.030739 0.000000 0.085071
O O7 0.076698 0.781152 0.970668
O O8 0.500000 0.774841 0.500000
O O9 0.427674 0.739315 0.651419
O O10 0.466789 0.000000 0.624424
O O11 0.619094 0.500000 0.273633
O O12 0.658345 0.762309 0.227679
O O13 0.248709 0.246441 0.147481
O O14 0.338503 0.244884 0.146567
O O15 0.296798 0.000000 0.109646
O O16 0.311288 0.217056 0.972588
O O17 0.795068 0.500000 0.851042
O O18 0.880532 0.000000 0.150758
#
# Coordination Sequence:
#
# PCOD8081558 Si02
#       7
#     8   8   8   8   8   8   8
#     4  10  20  31  46  68  92 121 160 200 238 285
#     4   9  18  30  43  62  92 129 162 192 230 278
#     4   9  19  36  54  72  96 125 158 200 249 295
#     4  10  18  30  49  72  98 127 162 201 240 284
#     4  10  20  31  46  67  95 130 169 206 235 271
#     4  10  19  31  47  68  96 130 166 201 240 281
#     4  11  20  31  45  64  95 132 164 194 235 282
#
# _framework density 16.627907
#
# number of rings (size 3 to 8) (size 9 to 14) (size 15 to 20)
#    0.000    2.143    1.429    2.571    0.000    5.429 
#    0.000    0.000    0.000    0.000    0.000    1.000 
#    0.000    0.000    0.000    0.000    0.000    0.000 
#
# Total GULP energy -347268.312373 kJ/mol
# GULP energy per Si atom -12402.439728 kJ/mol
# Density = 1.659006 g / cm^3
# Si number density = 16.627907 Si / 1000 Ang^3
#
#
#
# Elastic Constant Matrix: (Units=GPa)
#
#
# Indices 1 2 3 4 5 6 
#
# 1 130.6657 62.2376 46.9445 0.0000 -11.3393 0.0000
# 2 62.2376 82.8244 32.1195 0.0000 -12.0115 0.0000
# 3 46.9445 32.1195 68.6822 0.0000 -13.6744 0.0000
# 4 0.0000 0.0000 0.0000 18.8714 0.0000 -4.3925
# 5 -11.3393 -12.0115 -13.6744 0.0000 14.8112 0.0000
# 6 0.0000 0.0000 0.0000 -4.3925 0.0000 35.4325
#
#
#
# Elastic Compliance Matrix: (Units=1/GPa)
#
#
# Indices 1 2 3 4 5 6 
#
# 1 0.013425 -0.008105 -0.005695 0.000000 -0.001552 0.000000
# 2 -0.008105 0.020232 -0.002316 0.000000 0.008064 0.000000
# 3 -0.005695 -0.002316 0.022413 0.000000 0.014455 0.000000
# 4 0.000000 0.000000 0.000000 0.054565 0.000000 0.006764
# 5 -0.001552 0.008064 0.014455 0.000000 0.086213 0.000000
# 6 0.000000 0.000000 0.000000 0.006764 0.000000 0.029061
#
#
# Mechanical properties :
#
#
# Convention : Reuss Voigt Hill
#
# Bulk Modulus (GPa) = 41.94952 62.75283 52.35117
# Shear Modulus (GPa) = 18.79095 23.21439 21.00267
#
# Velocity S-wave (km/s) = 3.36532 3.74051 3.55786
# Velocity P-wave (km/s) = 6.35481 7.51509 6.95918
#
# Compressibility (1/GPa) = 0.02383818
#
# Stress axis : x y z
#
# Youngs Moduli (GPa) = 74.48980 49.42767 44.61629
#
# Poissons Ratio (x) = 0.40059 0.25408
# Poissons Ratio (y) = 0.60371 0.10335
# Poissons Ratio (z) = 0.42420 0.11449
#
# Static dielectric constant tensor:
#      x y z
#    x 3.172200 0.000000 0.002130 
#    y 0.000000 3.170400 0.000000 
#    z 0.002130 0.000000 2.827280 
# 
# 
# High freq. dielectric constant tensor:
#      x y z
#    x 1.643590 0.000000 -0.005780 
#    y 0.000000 1.653480 0.000000 
#    z -0.005780 0.000000 1.592820 
# 
# From -- ./inp_files/243044.got.cif
#   From: 2010.06.25/outbox.cif.g09.slc.cpg/sg12_122_cif.got.tgz:243044.got - 2010.06.28 00:19:55.
