data_PCOD8081931
_publ_section_title
;
Structure prediction by ZEFSAII (Michael W. Deem and Ramdas Pophale) SiO2 
 PCOD8081931
Probable space group: C 2/M
;
_chemical_formula_sum "Si O2"
_cell_formula_units_Z 64
_cell_length_a 15.302810
_cell_length_b 24.734834
_cell_length_c 9.374605
_cell_angle_alpha 90.000000
_cell_angle_beta 89.787700
_cell_angle_gamma 90.000000
_cell_volume 3548.380489
_symmetry_space_group_name_H-M "C 2/M"
_symmetry_group_IT_number 12
_symmetry_cell_setting 'monoclinic'
loop_
_space_group_symop_operation_xyz
x,y,z
-x,y,-z
-x,-y,-z
x,-y,z
1/2+x,1/2+y,z
1/2-x,1/2+y,-z
1/2-x,1/2-y,-z
1/2+x,1/2-y,z
loop_
_atom_site_type_symbol
_atom_site_label
_atom_site_fract_x
_atom_site_fract_y
_atom_site_fract_z
Si Si1 0.321089 0.563263 0.828695
Si Si2 0.182174 0.937640 0.840019
Si Si3 0.974269 0.780749 0.662283
Si Si4 0.312832 0.863644 0.331851
Si Si5 0.276280 0.258531 0.660592
Si Si6 0.500129 0.838059 0.331760
Si Si7 0.502941 0.383789 0.833292
Si Si8 0.692301 0.139900 0.327953
O O1 0.322054 0.500000 0.795362
O O2 0.243404 0.589549 0.738907
O O3 0.414493 0.587272 0.780805
O O4 0.302913 0.575147 0.994222
O O5 0.084242 0.922145 0.794095
O O6 0.253648 0.906195 0.748571
O O7 0.196186 0.000000 0.805209
O O8 0.870640 0.785117 0.674547
O O9 0.000000 0.790376 0.500000
O O10 0.006218 0.723392 0.726380
O O11 0.018681 0.827206 0.755201
O O12 0.287919 0.803648 0.271563
O O13 0.414692 0.872523 0.287174
O O14 0.297915 0.865671 0.501873
O O15 0.250000 0.250000 0.500000
O O16 0.273549 0.198534 0.729931
O O17 0.500000 0.830569 0.500000
O O18 0.590071 0.866881 0.283214
O O19 0.500000 0.371996 0.000000
#
# Coordination Sequence:
#
# PCOD8081931 Si02
#       8
#     8   8   8   8   8   8   8   8
#     4  10  21  39  55  74 104 142 182 220 264 319
#     4  10  22  38  56  74 103 144 182 221 269 312
#     4  10  18  30  52  81 110 140 174 209 255 317
#     4  10  18  33  56  80 106 139 176 218 260 315
#     4   9  17  29  51  80 110 137 169 209 265 314
#     4   8  17  33  53  78 111 143 169 205 265 325
#     4  10  21  35  52  76 107 142 177 214 263 319
#     4   9  19  34  55  81 106 136 178 218 262 313
#
# _framework density 18.036396
#
# number of rings (size 3 to 8) (size 9 to 14) (size 15 to 20)
#    0.000    2.500    1.250    2.625    5.250    2.000 
#    0.000    4.375    0.000    6.000    0.000    0.000 
#    0.000    0.000    0.000    0.000    0.000    0.000 
#
# Total GULP energy -396623.316002 kJ/mol
# GULP energy per Si atom -12394.478625 kJ/mol
# Density = 1.799534 g / cm^3
# Si number density = 18.036396 Si / 1000 Ang^3
#
#
#
# Elastic Constant Matrix: (Units=GPa)
#
#
# Indices 1 2 3 4 5 6 
#
# 1 138.2670 68.8216 44.1309 0.0000 0.0954 0.0000
# 2 68.8216 106.8263 42.2162 0.0000 -2.3805 0.0000
# 3 44.1309 42.2162 37.5487 0.0000 -1.3842 0.0000
# 4 0.0000 0.0000 0.0000 43.3908 0.0000 1.6640
# 5 0.0954 -2.3805 -1.3842 0.0000 25.7790 0.0000
# 6 0.0000 0.0000 0.0000 1.6640 0.0000 32.6399
#
#
#
# Elastic Compliance Matrix: (Units=1/GPa)
#
#
# Indices 1 2 3 4 5 6 
#
# 1 0.012495 -0.004056 -0.010161 0.000000 -0.000966 0.000000
# 2 -0.004056 0.018170 -0.015630 0.000000 0.000854 0.000000
# 3 -0.010161 -0.015630 0.056207 0.000000 0.001612 0.000000
# 4 0.000000 0.000000 0.000000 0.023091 0.000000 -0.001177
# 5 -0.000966 0.000854 0.001612 0.000000 0.038960 0.000000
# 6 0.000000 0.000000 0.000000 -0.001177 0.000000 0.030697
#
#
# Mechanical properties :
#
#
# Convention : Reuss Voigt Hill
#
# Bulk Modulus (GPa) = 36.79492 65.88660 51.34076
# Shear Modulus (GPa) = 20.13104 28.86018 24.49561
#
# Velocity S-wave (km/s) = 3.34448 4.00447 3.68927
# Velocity P-wave (km/s) = 5.94632 7.61513 6.83187
#
# Compressibility (1/GPa) = 0.02717767
#
# Stress axis : x y z
#
# Youngs Moduli (GPa) = 80.03303 55.03681 17.79153
#
# Poissons Ratio (x) = 0.22322 0.18078
# Poissons Ratio (y) = 0.32460 0.27808
# Poissons Ratio (z) = 0.81320 0.86023
#
# Static dielectric constant tensor:
#      x y z
#    x 3.631260 0.000000 0.062260 
#    y 0.000000 3.353060 0.000000 
#    z 0.062260 0.000000 2.987910 
# 
# 
# High freq. dielectric constant tensor:
#      x y z
#    x 1.714140 0.000000 0.006010 
#    y 0.000000 1.694880 0.000000 
#    z 0.006010 0.000000 1.660210 
# 
# From -- ./inp_files/65901.got.cif
#   From: 2010.06.25/outbox.cif.g09.slc.cpg/sg12_33_cif.got.tgz:65901.got - 2010.06.28 00:19:55.
