data_PCOD8081312
_publ_section_title
;
Structure prediction by ZEFSAII (Michael W. Deem and Ramdas Pophale) SiO2 
 PCOD8081312
Probable space group: C 2/M
;
_chemical_formula_sum "Si O2"
_cell_formula_units_Z 64
_cell_length_a 27.963669
_cell_length_b 13.510360
_cell_length_c 10.464133
_cell_angle_alpha 90.000000
_cell_angle_beta 72.178724
_cell_angle_gamma 90.000000
_cell_volume 3763.643562
_symmetry_space_group_name_H-M "C 2/M"
_symmetry_group_IT_number 12
_symmetry_cell_setting 'monoclinic'
loop_
_space_group_symop_operation_xyz
x,y,z
-x,y,-z
-x,-y,-z
x,-y,z
1/2+x,1/2+y,z
1/2-x,1/2+y,-z
1/2-x,1/2-y,-z
1/2+x,1/2-y,z
loop_
_atom_site_type_symbol
_atom_site_label
_atom_site_fract_x
_atom_site_fract_y
_atom_site_fract_z
Si Si1 0.965821 0.884810 0.904425
Si Si2 0.290990 0.892777 0.760082
Si Si3 0.972983 0.117063 0.397279
Si Si4 0.687367 0.611957 0.727688
Si Si5 0.710329 0.888168 0.950669
Si Si6 0.813271 0.817331 0.769754
Si Si7 0.637574 0.386903 0.518123
Si Si8 0.360542 0.288324 0.992397
O O1 0.997445 0.854452 0.754484
O O2 0.947612 0.000000 0.912449
O O3 0.920112 0.806625 0.946184
O O4 0.000000 0.868327 0.000000
O O5 0.247216 0.882732 0.691840
O O6 0.326056 0.796456 0.717006
O O7 0.318812 0.000000 0.717668
O O8 0.268161 0.889628 0.922383
O O9 0.917154 0.164654 0.438001
O O10 0.000000 0.162697 0.500000
O O11 0.969274 0.000000 0.415894
O O12 0.668370 0.500000 0.753542
O O13 0.671878 0.659623 0.603207
O O14 0.660523 0.668835 0.861327
O O15 0.753185 0.835928 0.829195
O O16 0.657771 0.826858 0.992253
O O17 0.699966 0.000000 0.910095
O O18 0.835875 0.884464 0.640967
O O19 0.839261 0.843027 0.883211
O O20 0.629336 0.500000 0.560352
#
# Coordination Sequence:
#
# PCOD8081312 Si02
#       8
#     8   8   8   8   8   8   8   8
#     4  10  20  32  50  75  99 122 157 203 246 292
#     4   9  17  31  48  68  97 130 160 200 243 279
#     4   9  17  31  44  62  94 126 153 192 242 284
#     4  10  18  30  46  67  97 129 158 193 242 287
#     4  10  19  32  49  73 104 128 161 208 242 279
#     4  11  19  32  50  75  98 132 172 198 232 287
#     4  10  21  31  45  70 101 132 161 195 241 293
#     4  11  19  32  52  76  94 130 169 201 241 292
#
# _framework density 17.004798000000001
#
# number of rings (size 3 to 8) (size 9 to 14) (size 15 to 20)
#    0.000    2.000    2.500    3.000    0.000    5.000 
#    0.000    0.000    0.000    0.375    0.000    0.875 
#    0.000    5.000    0.000    0.000    0.000    0.000 
#
# Total GULP energy -396518.912991 kJ/mol
# GULP energy per Si atom -12391.216031 kJ/mol
# Density = 1.696609 g / cm^3
# Si number density = 17.004798 Si / 1000 Ang^3
#
#
#
# Elastic Constant Matrix: (Units=GPa)
#
#
# Indices 1 2 3 4 5 6 
#
# 1 92.3955 32.2548 35.6738 0.0000 4.4769 0.0000
# 2 32.2548 57.6146 17.0560 0.0000 2.6658 0.0000
# 3 35.6738 17.0560 97.4257 0.0000 14.9022 0.0000
# 4 0.0000 0.0000 0.0000 12.0423 0.0000 0.4725
# 5 4.4769 2.6658 14.9022 0.0000 23.7150 0.0000
# 6 0.0000 0.0000 0.0000 0.4725 0.0000 17.3979
#
#
#
# Elastic Compliance Matrix: (Units=1/GPa)
#
#
# Indices 1 2 3 4 5 6 
#
# 1 0.014947 -0.007117 -0.004335 0.000000 0.000702 0.000000
# 2 -0.007117 0.021694 -0.001133 0.000000 -0.000383 0.000000
# 3 -0.004335 -0.001133 0.013171 0.000000 -0.007331 0.000000
# 4 0.000000 0.000000 0.000000 0.083129 0.000000 -0.002258
# 5 0.000702 -0.000383 -0.007331 0.000000 0.046685 0.000000
# 6 0.000000 0.000000 0.000000 -0.002258 0.000000 0.057540
#
#
# Mechanical properties :
#
#
# Convention : Reuss Voigt Hill
#
# Bulk Modulus (GPa) = 40.58029 46.37834 43.47931
# Shear Modulus (GPa) = 18.48085 21.46112 19.97098
#
# Velocity S-wave (km/s) = 3.30024 3.55641 3.43072
# Velocity P-wave (km/s) = 6.19984 6.64808 6.42787
#
# Compressibility (1/GPa) = 0.02464250
#
# Stress axis : x y z
#
# Youngs Moduli (GPa) = 66.90224 46.09474 75.92381
#
# Poissons Ratio (x) = 0.32807 0.32909
# Poissons Ratio (y) = 0.47616 0.08604
# Poissons Ratio (z) = 0.28999 0.05224
#
# Static dielectric constant tensor:
#      x y z
#    x 3.338840 0.000000 0.219870 
#    y 0.000000 3.130060 0.000000 
#    z 0.219870 0.000000 3.180080 
# 
# 
# High freq. dielectric constant tensor:
#      x y z
#    x 1.639240 0.000000 0.015080 
#    y 0.000000 1.621890 0.000000 
#    z 0.015080 0.000000 1.659520 
# 
# From -- ./inp_files/111177.got.cif
#   From: 2010.06.25/outbox.cif.g09.slc.cpg/sg12_56_cif.got.tgz:111177.got - 2010.06.28 00:19:55.
