data_PCOD8081717
_publ_section_title
;
Structure prediction by ZEFSAII (Michael W. Deem and Ramdas Pophale) SiO2 
 PCOD8081717
Probable space group: C 2/M
;
_chemical_formula_sum "Si O2"
_cell_formula_units_Z 64
_cell_length_a 23.441563
_cell_length_b 8.787648
_cell_length_c 21.424257
_cell_angle_alpha 90.000000
_cell_angle_beta 52.700538
_cell_angle_gamma 90.000000
_cell_volume 3510.700651
_symmetry_space_group_name_H-M "C 2/M"
_symmetry_group_IT_number 12
_symmetry_cell_setting 'monoclinic'
loop_
_space_group_symop_operation_xyz
x,y,z
-x,y,-z
-x,-y,-z
x,-y,z
1/2+x,1/2+y,z
1/2-x,1/2+y,-z
1/2-x,1/2-y,-z
1/2+x,1/2-y,z
loop_
_atom_site_type_symbol
_atom_site_label
_atom_site_fract_x
_atom_site_fract_y
_atom_site_fract_z
Si Si1 0.832562 0.822196 0.096054
Si Si2 0.326497 0.679423 0.961852
Si Si3 0.927253 0.681633 0.278388
Si Si4 0.779363 0.818781 0.417312
Si Si5 0.114341 0.667640 0.825231
Si Si6 0.677536 0.180501 0.245110
Si Si7 0.725858 0.671686 0.332427
Si Si8 0.573662 0.319482 0.216679
O O1 0.890925 0.762846 0.107395
O O2 0.752048 0.765102 0.164101
O O3 0.834196 0.000000 0.101573
O O4 0.854052 0.768614 0.012179
O O5 0.316703 0.500000 0.965562
O O6 0.382931 0.736367 0.873177
O O7 0.250000 0.750000 0.000000
O O8 0.917411 0.500000 0.289321
O O9 0.860259 0.761594 0.355284
O O10 0.932637 0.732682 0.201455
O O11 0.997463 0.736892 0.267416
O O12 0.750000 0.750000 0.500000
O O13 0.727146 0.760129 0.397003
O O14 0.777904 0.000000 0.419893
O O15 0.087654 0.500000 0.860305
O O16 0.195184 0.666641 0.747771
O O17 0.674905 0.236034 0.318576
O O18 0.613845 0.265432 0.251882
O O19 0.666944 0.000000 0.248506
O O20 0.696600 0.500000 0.361439
O O21 0.563422 0.500000 0.224177
#
# Coordination Sequence:
#
# PCOD8081717 Si02
#       8
#     8   8   8   8   8   8   8   8
#     4   9  17  29  47  71  98 130 174 224 272 316
#     4  10  20  33  48  71 102 137 180 228 276 322
#     4  10  21  38  56  77 107 141 179 220 265 320
#     4  11  21  36  60  89 116 142 174 212 260 311
#     4   8  16  30  49  71  96 130 171 216 266 313
#     4  10  18  30  50  75 104 140 182 224 270 317
#     4   9  17  31  51  79 111 139 175 219 261 307
#     4  11  22  34  51  75 105 143 183 225 276 327
#
# _framework density 18.229979
#
# number of rings (size 3 to 8) (size 9 to 14) (size 15 to 20)
#    0.000    2.250    1.250    3.375    0.000    5.000 
#    0.000    0.625    0.000    4.500    0.000    5.250 
#    0.000    0.000    0.000    0.000    0.000    0.000 
#
# Total GULP energy -396724.292537 kJ/mol
# GULP energy per Si atom -12397.634142 kJ/mol
# Density = 1.818849 g / cm^3
# Si number density = 18.229979 Si / 1000 Ang^3
#
#
#
# Elastic Constant Matrix: (Units=GPa)
#
#
# Indices 1 2 3 4 5 6 
#
# 1 109.5000 34.0244 51.5496 -0.0013 22.4155 0.0039
# 2 34.0244 77.0599 35.8903 -0.0003 9.9885 0.0036
# 3 51.5496 35.8903 88.6940 0.0000 24.0205 0.0005
# 4 -0.0013 -0.0003 0.0000 23.7345 -0.0002 7.1910
# 5 22.4155 9.9885 24.0205 -0.0002 26.7790 0.0001
# 6 0.0039 0.0036 0.0005 7.1910 0.0001 33.5504
#
#
#
# Elastic Compliance Matrix: (Units=1/GPa)
#
#
# Indices 1 2 3 4 5 6 
#
# 1 0.013645 -0.002848 -0.005247 0.000001 -0.005652 -0.000001
# 2 -0.002848 0.016586 -0.005318 0.000001 0.000968 -0.000002
# 3 -0.005247 -0.005318 0.019483 -0.000001 -0.011100 0.000001
# 4 0.000001 0.000001 -0.000001 0.045059 0.000000 -0.009658
# 5 -0.005652 0.000968 -0.011100 0.000000 0.051669 0.000001
# 6 -0.000001 -0.000002 0.000001 -0.009658 0.000001 0.031876
#
#
# Mechanical properties :
#
#
# Convention : Reuss Voigt Hill
#
# Bulk Modulus (GPa) = 43.69465 57.57581 50.63523
# Shear Modulus (GPa) = 23.49922 27.06542 25.28232
#
# Velocity S-wave (km/s) = 3.59422 3.85732 3.72809
# Velocity P-wave (km/s) = 6.42224 7.17566 6.80938
#
# Compressibility (1/GPa) = 0.02288610
#
# Stress axis : x y z
#
# Youngs Moduli (GPa) = 73.28865 60.29191 51.32795
#
# Poissons Ratio (x) = 0.17172 0.26932
# Poissons Ratio (y) = 0.20873 0.27298
# Poissons Ratio (z) = 0.38455 0.32066
#
# Static dielectric constant tensor:
#      x y z
#    x 3.501840 0.000000 0.321510 
#    y 0.000000 3.424270 0.000000 
#    z 0.321510 0.000000 3.206160 
# 
# 
# High freq. dielectric constant tensor:
#      x y z
#    x 1.704940 0.000000 0.029810 
#    y 0.000000 1.713870 0.000000 
#    z 0.029810 0.000000 1.676570 
# 
# From -- ./inp_files/319799.got.cif
#   From: 2010.06.25/outbox.cif.g09.slc.cpg/sg12_160_cif.got.tgz:319799.got - 2010.06.28 00:19:55.
