data_PCOD8081901
_publ_section_title
;
Structure prediction by ZEFSAII (Michael W. Deem and Ramdas Pophale) SiO2 
 PCOD8081901
Probable space group: C 2/M
;
_chemical_formula_sum "Si O2"
_cell_formula_units_Z 64
_cell_length_a 20.229123
_cell_length_b 19.288994
_cell_length_c 19.916443
_cell_angle_alpha 90.000000
_cell_angle_beta 29.272991
_cell_angle_gamma 90.000000
_cell_volume 3799.984162
_symmetry_space_group_name_H-M "C 2/M"
_symmetry_group_IT_number 12
_symmetry_cell_setting 'monoclinic'
loop_
_space_group_symop_operation_xyz
x,y,z
-x,y,-z
-x,-y,-z
x,-y,z
1/2+x,1/2+y,z
1/2-x,1/2+y,-z
1/2-x,1/2-y,-z
1/2+x,1/2-y,z
loop_
_atom_site_type_symbol
_atom_site_label
_atom_site_fract_x
_atom_site_fract_y
_atom_site_fract_z
Si Si1 0.306237 0.288019 0.122582
Si Si2 0.871582 0.280080 0.349035
Si Si3 0.309733 0.077077 0.820356
Si Si4 0.850537 0.923533 0.291288
Si Si5 0.396378 0.922102 0.390192
Si Si6 0.154490 0.219728 0.141939
Si Si7 0.108000 0.215000 0.809769
Si Si8 0.361749 0.423589 0.895877
O O1 0.257197 0.367869 0.170653
O O2 0.196231 0.244307 0.179033
O O3 0.321050 0.258013 0.184811
O O4 0.446805 0.283121 0.958537
O O5 0.750000 0.250000 0.500000
O O6 0.884009 0.363659 0.343498
O O7 0.847536 0.262502 0.292031
O O8 0.003658 0.243383 0.260654
O O9 0.469483 0.090137 0.684694
O O10 0.278984 0.000000 0.819665
O O11 0.246779 0.087138 0.949481
O O12 0.728541 0.912864 0.450050
O O13 0.843794 0.864534 0.241059
O O14 0.988016 0.914205 0.210095
O O15 0.844362 0.000000 0.263045
O O16 0.398132 0.000000 0.356630
O O17 0.164475 0.136100 0.135417
O O18 0.250000 0.250000 0.000000
O O19 0.343777 0.500000 0.878997
#
# Coordination Sequence:
#
# PCOD8081901 Si02
#       8
#     8   8   8   8   8   8   8   8
#     4  11  22  34  53  78 111 142 177 220 265 314
#     4  12  20  34  58  81 103 138 183 224 258 308
#     4  10  18  31  49  76 104 138 177 209 256 319
#     4  10  18  33  51  75 108 140 171 209 261 316
#     4  10  20  32  52  79 108 137 172 219 265 308
#     4  12  18  34  56  76 101 142 179 220 261 306
#     4  11  22  35  51  81 109 141 178 221 267 308
#     4  10  18  30  52  77 102 131 178 224 257 304
#
# _framework density 16.842175000000001
#
# number of rings (size 3 to 8) (size 9 to 14) (size 15 to 20)
#    0.000    1.250    7.500    0.000    0.000    0.500 
#    0.000    3.750    0.000    3.000    0.000    1.750 
#    0.000    5.000    0.000    0.000    0.000    0.000 
#
# Total GULP energy -396709.653200 kJ/mol
# GULP energy per Si atom -12397.176663 kJ/mol
# Density = 1.680384 g / cm^3
# Si number density = 16.842175 Si / 1000 Ang^3
#
#
#
# Elastic Constant Matrix: (Units=GPa)
#
#
# Indices 1 2 3 4 5 6 
#
# 1 102.3090 41.3687 57.4879 0.0033 -3.1502 -0.0004
# 2 41.3687 113.2552 17.9879 0.0017 9.3240 -0.0002
# 3 57.4879 17.9879 131.2086 0.0141 -20.9157 -0.0057
# 4 0.0033 0.0017 0.0141 23.3395 -0.0033 -0.4464
# 5 -3.1502 9.3240 -20.9157 -0.0033 25.9383 0.0006
# 6 -0.0004 -0.0002 -0.0057 -0.4464 0.0006 23.7925
#
#
#
# Elastic Compliance Matrix: (Units=1/GPa)
#
#
# Indices 1 2 3 4 5 6 
#
# 1 0.014983 -0.004348 -0.006230 0.000002 -0.001641 -0.000001
# 2 -0.004348 0.010858 -0.000332 -0.000001 -0.004699 0.000000
# 3 -0.006230 -0.000332 0.011814 -0.000005 0.008889 0.000002
# 4 0.000002 -0.000001 -0.000005 0.042861 0.000002 0.000804
# 5 -0.001641 -0.004699 0.008889 0.000002 0.047211 0.000001
# 6 -0.000001 0.000000 0.000002 0.000804 0.000001 0.042045
#
#
# Mechanical properties :
#
#
# Convention : Reuss Voigt Hill
#
# Bulk Modulus (GPa) = 63.16093 64.49577 63.82835
# Shear Modulus (GPa) = 25.39753 29.94260 27.67007
#
# Velocity S-wave (km/s) = 3.88747 4.22101 4.05767
# Velocity P-wave (km/s) = 7.59822 7.88247 7.74165
#
# Compressibility (1/GPa) = 0.01583257
#
# Stress axis : x y z
#
# Youngs Moduli (GPa) = 66.74411 92.10199 84.64805
#
# Poissons Ratio (x) = 0.40047 0.52736
# Poissons Ratio (y) = 0.29021 0.02815
# Poissons Ratio (z) = 0.41581 0.03062
#
# Static dielectric constant tensor:
#      x y z
#    x 2.908880 0.000010 -0.263810 
#    y 0.000010 3.500780 -0.000030 
#    z -0.263810 -0.000030 3.524360 
# 
# 
# High freq. dielectric constant tensor:
#      x y z
#    x 1.610420 0.000000 -0.020890 
#    y 0.000000 1.657090 0.000000 
#    z -0.020890 0.000000 1.660070 
# 
# From -- ./inp_files/279095.got.cif
#   From: 2010.06.25/outbox.cif.g09.slc.cpg/sg12_140_cif.got.tgz:279095.got - 2010.06.28 00:19:55.
