data_PCOD8081010
_publ_section_title
;
Structure prediction by ZEFSAII (Michael W. Deem and Ramdas Pophale) SiO2 
 PCOD8081010
Probable space group: C 2/M
;
_chemical_formula_sum "Si O2"
_cell_formula_units_Z 64
_cell_length_a 20.874380
_cell_length_b 9.383559
_cell_length_c 24.988034
_cell_angle_alpha 90.000000
_cell_angle_beta 50.007281
_cell_angle_gamma 90.000000
_cell_volume 3749.846861
_symmetry_space_group_name_H-M "C 2/M"
_symmetry_group_IT_number 12
_symmetry_cell_setting 'monoclinic'
loop_
_space_group_symop_operation_xyz
x,y,z
-x,y,-z
-x,-y,-z
x,-y,z
1/2+x,1/2+y,z
1/2-x,1/2+y,-z
1/2-x,1/2-y,-z
1/2+x,1/2-y,z
loop_
_atom_site_type_symbol
_atom_site_label
_atom_site_fract_x
_atom_site_fract_y
_atom_site_fract_z
Si Si1 0.753952 0.335033 0.826062
Si Si2 0.165176 0.165862 0.037051
Si Si3 0.382803 0.661783 0.822542
Si Si4 0.497837 0.664224 0.667218
Si Si5 0.831185 0.164455 0.472580
Si Si6 0.911321 0.168100 0.031470
Si Si7 0.402464 0.666182 0.549482
Si Si8 0.866845 0.667828 0.669422
O O1 0.767443 0.500000 0.831213
O O2 0.807454 0.256747 0.842122
O O3 0.656898 0.292318 0.886192
O O4 0.784897 0.298453 0.749553
O O5 0.104512 0.189357 0.121070
O O6 0.187584 0.000000 0.017223
O O7 0.250000 0.250000 0.000000
O O8 0.117429 0.227511 0.010861
O O9 0.355176 0.500000 0.826802
O O10 0.468574 0.694132 0.744006
O O11 0.481058 0.500000 0.658795
O O12 0.596236 0.697341 0.609836
O O13 0.448171 0.765464 0.653558
O O14 0.750000 0.250000 0.500000
O O15 0.865395 0.210381 0.512181
O O16 0.806165 0.000000 0.485831
O O17 0.922625 0.000000 0.020572
O O18 0.000000 0.238683 0.000000
O O19 0.500000 0.706250 0.500000
O O20 0.389002 0.500000 0.568823
O O21 0.352209 0.758510 0.620158
O O22 0.881109 0.500000 0.654392
#
# Coordination Sequence:
#
# PCOD8081010 Si02
#       8
#     8   8   8   8   8   8   8   8
#     4   9  17  30  47  71 101 130 160 198 250 294
#     4  10  18  29  48  74  98 124 164 206 244 286
#     4   9  17  28  48  75  97 122 164 207 241 286
#     4   9  17  33  51  70 100 135 166 199 247 302
#     4  10  21  36  54  74 101 136 168 203 249 300
#     4   9  17  30  48  69  98 134 166 197 240 295
#     4  10  19  35  55  74  99 133 172 205 244 299
#     4  10  19  29  48  79 105 125 161 213 256 288
#
# _framework density 17.067363
#
# number of rings (size 3 to 8) (size 9 to 14) (size 15 to 20)
#    0.000    2.500    2.500    0.375    0.000    1.750 
#    0.000    1.250    0.000    6.000    0.000    0.000 
#    0.000    0.000    0.000    0.000    0.000    0.000 
#
# Total GULP energy -396689.650619 kJ/mol
# GULP energy per Si atom -12396.551582 kJ/mol
# Density = 1.702852 g / cm^3
# Si number density = 17.067363 Si / 1000 Ang^3
#
#
#
# Elastic Constant Matrix: (Units=GPa)
#
#
# Indices 1 2 3 4 5 6 
#
# 1 121.8559 38.9457 77.6497 0.0000 -6.4604 0.0000
# 2 38.9457 47.5638 46.6985 0.0001 -0.6571 -0.0003
# 3 77.6497 46.6985 143.9973 0.0000 -1.3110 -0.0001
# 4 0.0000 0.0001 0.0000 21.2734 0.0000 0.6161
# 5 -6.4604 -0.6571 -1.3110 0.0000 26.0485 0.0000
# 6 0.0000 -0.0003 -0.0001 0.6161 0.0000 24.0276
#
#
#
# Elastic Compliance Matrix: (Units=1/GPa)
#
#
# Indices 1 2 3 4 5 6 
#
# 1 0.013715 -0.005802 -0.005487 0.000000 0.002979 0.000000
# 2 -0.005802 0.033302 -0.007680 0.000000 -0.000985 0.000000
# 3 -0.005487 -0.007680 0.012386 0.000000 -0.000931 0.000000
# 4 0.000000 0.000000 0.000000 0.047042 0.000000 -0.001206
# 5 0.002979 -0.000985 -0.000931 0.000000 0.039057 0.000000
# 6 0.000000 0.000000 0.000000 -0.001206 0.000000 0.041650
#
#
# Mechanical properties :
#
#
# Convention : Reuss Voigt Hill
#
# Bulk Modulus (GPa) = 46.58859 71.11165 58.85012
# Shear Modulus (GPa) = 21.52903 24.27811 22.90357
#
# Velocity S-wave (km/s) = 3.55549 3.77568 3.66724
# Velocity P-wave (km/s) = 6.64918 7.79509 7.24482
#
# Compressibility (1/GPa) = 0.02146448
#
# Stress axis : x y z
#
# Youngs Moduli (GPa) = 72.91194 30.02845 80.73753
#
# Poissons Ratio (x) = 0.17421 0.44303
# Poissons Ratio (y) = 0.42300 0.62009
# Poissons Ratio (z) = 0.40009 0.23063
#
# Static dielectric constant tensor:
#      x y z
#    x 3.052840 0.000000 0.104530 
#    y 0.000000 3.102710 0.000000 
#    z 0.104530 0.000000 3.624800 
# 
# 
# High freq. dielectric constant tensor:
#      x y z
#    x 1.625820 0.000000 0.009550 
#    y 0.000000 1.645780 0.000000 
#    z 0.009550 0.000000 1.678090 
# 
# From -- ./inp_files/365154.got.cif
#   From: 2010.06.25/outbox.cif.g09.slc.cpg/sg12_183_cif.got.tgz:365154.got - 2010.06.28 00:19:55.
