data_PCOD8081325
_publ_section_title
;
Structure prediction by ZEFSAII (Michael W. Deem and Ramdas Pophale) SiO2 
 PCOD8081325
Probable space group: C 2/M
;
_chemical_formula_sum "Si O2"
_cell_formula_units_Z 64
_cell_length_a 27.804331
_cell_length_b 8.781411
_cell_length_c 20.628544
_cell_angle_alpha 90.000000
_cell_angle_beta 126.796129
_cell_angle_gamma 90.000000
_cell_volume 4033.240525
_symmetry_space_group_name_H-M "C 2/M"
_symmetry_group_IT_number 12
_symmetry_cell_setting 'monoclinic'
loop_
_space_group_symop_operation_xyz
x,y,z
-x,y,-z
-x,-y,-z
x,-y,z
1/2+x,1/2+y,z
1/2-x,1/2+y,-z
1/2-x,1/2-y,-z
1/2+x,1/2-y,z
loop_
_atom_site_type_symbol
_atom_site_label
_atom_site_fract_x
_atom_site_fract_y
_atom_site_fract_z
Si Si1 0.246769 0.679914 0.067939
Si Si2 0.141414 0.682526 0.769784
Si Si3 0.621235 0.822627 0.028693
Si Si4 0.036439 0.672010 0.431106
Si Si5 0.977304 0.821643 0.269648
Si Si6 0.993980 0.677872 0.147992
Si Si7 0.090138 0.669624 0.600367
Si Si8 0.559377 0.670976 0.090606
O O1 0.253613 0.500000 0.068123
O O2 0.298470 0.746868 0.154309
O O3 0.183903 0.728457 0.048613
O O4 0.250000 0.750000 0.000000
O O5 0.143617 0.500000 0.774292
O O6 0.084761 0.734538 0.766673
O O7 0.135650 0.743557 0.689956
O O8 0.613531 0.736291 0.090831
O O9 0.618893 0.000000 0.042599
O O10 0.569401 0.778882 0.935936
O O11 0.055672 0.500000 0.426624
O O12 0.082918 0.745539 0.522595
O O13 0.030560 0.776914 0.362964
O O14 0.972789 0.664606 0.414143
O O15 0.000664 0.775401 0.218154
O O16 0.965129 0.000000 0.263937
O O17 0.998322 0.500000 0.167601
O O18 0.048937 0.725101 0.145449
O O19 0.112417 0.500000 0.603617
O O20 0.575333 0.500000 0.125400
O O21 0.500000 0.675275 0.000000
#
# Coordination Sequence:
#
# PCOD8081325 Si02
#       8
#     8   8   8   8   8   8   8   8
#     4  11  22  34  47  65  89 118 153 190 223 254
#     4  10  19  32  46  61  84 117 154 187 221 260
#     4   9  19  33  47  62  83 113 148 182 216 257
#     4   8  13  25  42  59  80 110 144 175 213 260
#     4  11  20  28  40  63  92 118 146 181 220 261
#     4  10  18  30  47  64  85 116 148 177 215 262
#     4   7  12  24  43  60  77 107 146 181 212 256
#     4   9  17  29  46  67  87 107 136 177 221 261
#
# _framework density 15.868133
#
# number of rings (size 3 to 8) (size 9 to 14) (size 15 to 20)
#    0.000    2.625    0.000    4.875    0.000    4.000 
#    0.000    5.625    0.000    0.000    0.000    0.000 
#    0.000    1.000    0.000    3.000    0.000    4.875 
#
# Total GULP energy -396523.090521 kJ/mol
# GULP energy per Si atom -12391.346579 kJ/mol
# Density = 1.583202 g / cm^3
# Si number density = 15.868133 Si / 1000 Ang^3
#
#
#
# Elastic Constant Matrix: (Units=GPa)
#
#
# Indices 1 2 3 4 5 6 
#
# 1 87.7664 37.0866 51.3515 0.0000 -12.7702 0.0000
# 2 37.0866 65.3221 36.1393 0.0000 -5.4153 0.0000
# 3 51.3515 36.1393 116.1578 0.0000 -13.9034 0.0000
# 4 0.0000 0.0000 0.0000 19.2115 0.0000 -1.7807
# 5 -12.7702 -5.4153 -13.9034 0.0000 14.7908 0.0000
# 6 0.0000 0.0000 0.0000 -1.7807 0.0000 22.4712
#
#
#
# Elastic Compliance Matrix: (Units=1/GPa)
#
#
# Indices 1 2 3 4 5 6 
#
# 1 0.018555 -0.007066 -0.004954 0.000000 0.008776 0.000000
# 2 -0.007066 0.021214 -0.003692 0.000000 -0.001805 0.000000
# 3 -0.004954 -0.003692 0.012703 0.000000 0.006312 0.000000
# 4 0.000000 0.000000 0.000000 0.052437 0.000000 0.004155
# 5 0.008776 -0.001805 0.006312 0.000000 0.080460 0.000000
# 6 0.000000 0.000000 0.000000 0.004155 0.000000 0.044831
#
#
# Mechanical properties :
#
#
# Convention : Reuss Voigt Hill
#
# Bulk Modulus (GPa) = 47.51209 57.60015 52.55612
# Shear Modulus (GPa) = 18.61217 20.93929 19.77573
#
# Velocity S-wave (km/s) = 3.42852 3.63654 3.53406
# Velocity P-wave (km/s) = 6.75868 7.34920 7.06012
#
# Compressibility (1/GPa) = 0.02104727
#
# Stress axis : x y z
#
# Youngs Moduli (GPa) = 53.89253 47.13909 78.71963
#
# Poissons Ratio (x) = 0.33311 0.38998
# Poissons Ratio (y) = 0.38083 0.29064
# Poissons Ratio (z) = 0.26699 0.17404
#
# Static dielectric constant tensor:
#      x y z
#    x 2.816710 0.000000 -0.206110 
#    y 0.000000 3.008600 0.000000 
#    z -0.206110 0.000000 3.436970 
# 
# 
# High freq. dielectric constant tensor:
#      x y z
#    x 1.572480 0.000000 -0.026260 
#    y 0.000000 1.607940 0.000000 
#    z -0.026260 0.000000 1.603790 
# 
# From -- ./inp_files/326986.got.cif
#   From: 2010.06.25/outbox.cif.g09.slc.cpg/sg12_164_cif.got.tgz:326986.got - 2010.06.28 00:19:55.
