data_PCOD8081568
_publ_section_title
;
Structure prediction by ZEFSAII (Michael W. Deem and Ramdas Pophale) SiO2 
 PCOD8081568
Probable space group: C 2/M
;
_chemical_formula_sum "Si O2"
_cell_formula_units_Z 56
_cell_length_a 31.605896
_cell_length_b 13.478677
_cell_length_c 12.201491
_cell_angle_alpha 90.000000
_cell_angle_beta 140.577103
_cell_angle_gamma 90.000000
_cell_volume 3300.873325
_symmetry_space_group_name_H-M "C 2/M"
_symmetry_group_IT_number 12
_symmetry_cell_setting 'monoclinic'
loop_
_space_group_symop_operation_xyz
x,y,z
-x,y,-z
-x,-y,-z
x,-y,z
1/2+x,1/2+y,z
1/2-x,1/2+y,-z
1/2-x,1/2-y,-z
1/2+x,1/2-y,z
loop_
_atom_site_type_symbol
_atom_site_label
_atom_site_fract_x
_atom_site_fract_y
_atom_site_fract_z
Si Si1 0.046092 0.112492 0.490038
Si Si2 0.574589 0.109510 0.190562
Si Si3 0.926604 0.385836 0.386923
Si Si4 0.308928 0.611740 0.121620
Si Si5 0.537687 0.796325 0.327776
Si Si6 0.605153 0.117599 0.016008
Si Si7 0.314141 0.802087 0.010336
O O1 0.121976 0.124925 0.677296
O O2 0.032192 0.182304 0.356786
O O3 0.000000 0.144281 0.500000
O O4 0.029622 0.000000 0.420881
O O5 0.578305 0.191773 0.294379
O O6 0.597674 0.000000 0.278827
O O7 0.500000 0.098761 0.000000
O O8 0.617033 0.142388 0.168469
O O9 0.914862 0.500000 0.338634
O O10 0.919212 0.360199 0.499853
O O11 0.872725 0.326297 0.211761
O O12 0.000000 0.349763 0.500000
O O13 0.300783 0.500000 0.060689
O O14 0.301491 0.684284 0.001487
O O15 0.251769 0.635598 0.095473
O O16 0.464472 0.841988 0.169165
O O17 0.664728 0.172208 0.071007
O O18 0.606576 0.000000 0.996803
#
# Coordination Sequence:
#
# PCOD8081568 Si02
#       7
#     8   8   8   8   8   8   8
#     4  10  20  34  50  69  95 128 167 205 242 286
#     4   8  16  28  44  69  99 130 157 189 236 287
#     4  11  19  26  43  75 106 126 148 194 246 289
#     4  10  21  35  48  69  99 130 163 195 238 295
#     4  11  17  28  47  70 100 127 157 196 241 284
#     4  10  18  30  49  73 101 130 159 193 236 292
#     4  11  20  32  50  72  99 130 161 193 239 292
#
# _framework density 16.965208000000001
#
# number of rings (size 3 to 8) (size 9 to 14) (size 15 to 20)
#    0.000    1.857    2.857    4.714    0.000    0.000 
#    0.000    0.000    0.000    5.571    0.000    0.000 
#    0.000    0.000    0.000    0.000    0.000    0.000 
#
# Total GULP energy -347065.421644 kJ/mol
# GULP energy per Si atom -12395.193630 kJ/mol
# Density = 1.692659 g / cm^3
# Si number density = 16.965208 Si / 1000 Ang^3
#
#
#
# Elastic Constant Matrix: (Units=GPa)
#
#
# Indices 1 2 3 4 5 6 
#
# 1 147.4044 62.8699 39.6005 0.0000 -15.9899 0.0000
# 2 62.8699 121.4816 25.2377 0.0000 -11.2406 0.0000
# 3 39.6005 25.2377 40.8843 0.0000 -2.7823 0.0000
# 4 0.0000 0.0000 0.0000 26.8384 0.0000 -1.9065
# 5 -15.9899 -11.2406 -2.7823 0.0000 29.9265 0.0000
# 6 0.0000 0.0000 0.0000 -1.9065 0.0000 23.0147
#
#
#
# Elastic Compliance Matrix: (Units=1/GPa)
#
#
# Indices 1 2 3 4 5 6 
#
# 1 0.010899 -0.003621 -0.008069 0.000000 0.003713 0.000000
# 2 -0.003621 0.010925 -0.003109 0.000000 0.001880 0.000000
# 3 -0.008069 -0.003109 0.034037 0.000000 -0.002315 0.000000
# 4 0.000000 0.000000 0.000000 0.037481 0.000000 0.003105
# 5 0.003713 0.001880 -0.002315 0.000000 0.035890 0.000000
# 6 0.000000 0.000000 0.000000 0.003105 0.000000 0.043708
#
#
# Mechanical properties :
#
#
# Convention : Reuss Voigt Hill
#
# Bulk Modulus (GPa) = 38.07612 62.79849 50.43731
# Shear Modulus (GPa) = 23.66400 28.09340 25.87870
#
# Velocity S-wave (km/s) = 3.73883 4.07374 3.90987
# Velocity P-wave (km/s) = 6.41333 7.69568 7.08359
#
# Compressibility (1/GPa) = 0.02626318
#
# Stress axis : x y z
#
# Youngs Moduli (GPa) = 91.75335 91.53031 29.38003
#
# Poissons Ratio (x) = 0.33139 0.23707
# Poissons Ratio (y) = 0.33219 0.09135
# Poissons Ratio (z) = 0.74035 0.28460
#
# Static dielectric constant tensor:
#      x y z
#    x 3.589720 0.000000 -0.076500 
#    y 0.000000 3.336210 0.000000 
#    z -0.076500 0.000000 2.954400 
# 
# 
# High freq. dielectric constant tensor:
#      x y z
#    x 1.651900 0.000000 0.003530 
#    y 0.000000 1.659200 0.000000 
#    z 0.003530 0.000000 1.619000 
# 
# From -- ./inp_files/189227.got.cif
#   From: 2010.06.25/outbox.cif.g09.slc.cpg/sg12_95_cif.got.tgz:189227.got - 2010.06.28 00:19:55.
