data_PCOD8081133
_publ_section_title
;
Structure prediction by ZEFSAII (Michael W. Deem and Ramdas Pophale) SiO2 
 PCOD8081133
Probable space group: C 2/M
;
_chemical_formula_sum "Si O2"
_cell_formula_units_Z 56
_cell_length_a 13.706085
_cell_length_b 13.319540
_cell_length_c 27.977251
_cell_angle_alpha 90.000000
_cell_angle_beta 142.535020
_cell_angle_gamma 90.000000
_cell_volume 3106.766818
_symmetry_space_group_name_H-M "C 2/M"
_symmetry_group_IT_number 12
_symmetry_cell_setting 'monoclinic'
loop_
_space_group_symop_operation_xyz
x,y,z
-x,y,-z
-x,-y,-z
x,-y,z
1/2+x,1/2+y,z
1/2-x,1/2+y,-z
1/2-x,1/2-y,-z
1/2+x,1/2-y,z
loop_
_atom_site_type_symbol
_atom_site_label
_atom_site_fract_x
_atom_site_fract_y
_atom_site_fract_z
Si Si1 0.778438 0.617368 0.936342
Si Si2 0.123152 0.118504 0.357002
Si Si3 0.930193 0.389787 0.525574
Si Si4 0.780286 0.886216 0.264309
Si Si5 0.080847 0.306461 0.104006
Si Si6 0.233325 0.700163 0.682370
Si Si7 0.569468 0.385580 0.157846
O O1 0.812294 0.500000 0.941162
O O2 0.805968 0.675449 0.897484
O O3 0.599187 0.638716 0.882837
O O4 0.898921 0.660444 0.022984
O O5 0.247174 0.149883 0.447827
O O6 0.162120 0.177759 0.323686
O O7 0.946093 0.148189 0.304234
O O8 0.139846 0.000000 0.352505
O O9 0.929997 0.500000 0.549583
O O10 0.000000 0.397997 0.500000
O O11 0.042973 0.318539 0.601066
O O12 0.639672 0.873741 0.171106
O O13 0.745265 0.817342 0.296628
O O14 0.788543 0.000000 0.285810
O O15 0.090663 0.188337 0.121005
O O16 0.292036 0.631918 0.749290
O O17 0.577137 0.500000 0.142177
#
# Coordination Sequence:
#
# PCOD8081133 Si02
#       7
#     8   8   8   8   8   8   8
#     4  10  19  33  53  72  92 123 161 196 228 270
#     4   9  17  31  51  72  93 120 158 197 230 271
#     4   8  14  26  46  71  94 118 153 195 232 268
#     4  10  20  32  48  71  96 123 156 193 233 277
#     4  10  19  32  51  72  95 122 157 196 233 273
#     4  10  18  29  50  71  95 124 155 193 234 275
#     4  10  20  32  49  73  98 123 154 192 235 281
#
# _framework density 18.025169000000002
#
# number of rings (size 3 to 8) (size 9 to 14) (size 15 to 20)
#    0.000    2.429    0.000    5.143    0.000    2.857 
#    0.000    1.429    0.000   21.000    0.000    0.000 
#    0.000    0.000    0.000    0.000    0.000    0.000 
#
# Total GULP energy -347152.509835 kJ/mol
# GULP energy per Si atom -12398.303923 kJ/mol
# Density = 1.798414 g / cm^3
# Si number density = 18.025169 Si / 1000 Ang^3
#
#
#
# Elastic Constant Matrix: (Units=GPa)
#
#
# Indices 1 2 3 4 5 6 
#
# 1 52.0632 46.9646 27.9231 0.0000 -4.2693 0.0000
# 2 46.9646 108.5912 48.7509 0.0000 -4.4454 0.0000
# 3 27.9231 48.7509 116.5921 0.0000 -3.2014 0.0000
# 4 0.0000 0.0000 0.0000 20.5060 0.0000 -2.2100
# 5 -4.2693 -4.4454 -3.2014 0.0000 14.5193 0.0000
# 6 0.0000 0.0000 0.0000 -2.2100 0.0000 26.4132
#
#
#
# Elastic Compliance Matrix: (Units=1/GPa)
#
#
# Indices 1 2 3 4 5 6 
#
# 1 0.032361 -0.012767 -0.002272 0.000000 0.005106 0.000000
# 2 -0.012767 0.016460 -0.003813 0.000000 0.000445 0.000000
# 3 -0.002272 -0.003813 0.010730 0.000000 0.000530 0.000000
# 4 0.000000 0.000000 0.000000 0.049210 0.000000 0.004117
# 5 0.005106 0.000445 0.000530 0.000000 0.070628 0.000000
# 6 0.000000 0.000000 0.000000 0.004117 0.000000 0.038204
#
#
# Mechanical properties :
#
#
# Convention : Reuss Voigt Hill
#
# Bulk Modulus (GPa) = 45.77027 58.28042 52.02535
# Shear Modulus (GPa) = 19.04180 22.52821 20.78501
#
# Velocity S-wave (km/s) = 3.25376 3.53911 3.39943
# Velocity P-wave (km/s) = 6.28995 7.00738 6.65834
#
# Compressibility (1/GPa) = 0.02184824
#
# Stress axis : x y z
#
# Youngs Moduli (GPa) = 30.90112 60.75198 93.19827
#
# Poissons Ratio (x) = 0.77562 0.21173
# Poissons Ratio (y) = 0.39451 0.35534
# Poissons Ratio (z) = 0.07020 0.23163
#
# Static dielectric constant tensor:
#      x y z
#    x 3.063880 0.000000 0.258950 
#    y 0.000000 3.258710 0.000000 
#    z 0.258950 0.000000 3.673300 
# 
# 
# High freq. dielectric constant tensor:
#      x y z
#    x 1.667870 0.000000 0.017910 
#    y 0.000000 1.687210 0.000000 
#    z 0.017910 0.000000 1.717620 
# 
# From -- ./inp_files/360840.got.cif
#   From: 2010.06.25/outbox.cif.g09.slc.cpg/sg12_181_cif.got.tgz:360840.got - 2010.06.28 00:19:55.
