data_PCOD8081926
_publ_section_title
;
Structure prediction by ZEFSAII (Michael W. Deem and Ramdas Pophale) SiO2 
 PCOD8081926
Probable space group: C 2/M
;
_chemical_formula_sum "Si O2"
_cell_formula_units_Z 56
_cell_length_a 14.840274
_cell_length_b 9.151654
_cell_length_c 25.374877
_cell_angle_alpha 90.000000
_cell_angle_beta 129.894428
_cell_angle_gamma 90.000000
_cell_volume 2644.049826
_symmetry_space_group_name_H-M "C 2/M"
_symmetry_group_IT_number 12
_symmetry_cell_setting 'monoclinic'
loop_
_space_group_symop_operation_xyz
x,y,z
-x,y,-z
-x,-y,-z
x,-y,z
1/2+x,1/2+y,z
1/2-x,1/2+y,-z
1/2-x,1/2-y,-z
1/2+x,1/2-y,z
loop_
_atom_site_type_symbol
_atom_site_label
_atom_site_fract_x
_atom_site_fract_y
_atom_site_fract_z
Si Si1 0.702635 0.826967 0.430684
Si Si2 0.553009 0.334050 0.204868
Si Si3 0.770148 0.332370 0.355518
Si Si4 0.197240 0.165426 0.058098
Si Si5 0.071393 0.335087 0.926227
Si Si6 0.325073 0.666747 0.190912
Si Si7 0.065984 0.666993 0.675330
O O1 0.750000 0.750000 0.500000
O O2 0.777969 0.769900 0.409508
O O3 0.567773 0.779220 0.371524
O O4 0.716347 0.000000 0.441643
O O5 0.571343 0.500000 0.192749
O O6 0.665892 0.276684 0.278567
O O7 0.536071 0.235404 0.146624
O O8 0.442902 0.320150 0.201708
O O9 0.747563 0.500000 0.364573
O O10 0.892014 0.317637 0.369450
O O11 0.312659 0.169760 0.065655
O O12 0.220301 0.249075 0.121649
O O13 0.159531 0.000000 0.056294
O O14 0.091451 0.244586 0.987399
O O15 0.037845 0.500000 0.928668
O O16 0.285998 0.500000 0.183921
O O17 0.348663 0.737307 0.256444
O O18 0.076510 0.500000 0.698595
#
# Coordination Sequence:
#
# PCOD8081926 Si02
#       7
#     8   8   8   8   8   8   8
#     4  11  24  42  65  92 122 155 191 235 285 342
#     4   9  17  30  51  77 107 147 189 234 287 343
#     4  10  21  40  63  88 119 156 196 238 285 343
#     4   9  16  26  42  68 105 147 192 240 290 346
#     4   9  16  25  41  69 105 144 189 241 290 341
#     4  10  18  30  52  80 111 148 192 241 291 343
#     4  10  22  39  61  88 119 155 195 237 287 344
#
# _framework density 21.17963
#
# number of rings (size 3 to 8) (size 9 to 14) (size 15 to 20)
#    0.000    2.286    1.429    1.714    0.000    6.286 
#    0.000    2.857    0.000    0.857    0.000    6.000 
#    0.000    0.000    0.000    0.000    0.000    0.000 
#
# Total GULP energy -347294.931323 kJ/mol
# GULP energy per Si atom -12403.390404 kJ/mol
# Density = 2.113142 g / cm^3
# Si number density = 21.179630 Si / 1000 Ang^3
#
#
#
# Elastic Constant Matrix: (Units=GPa)
#
#
# Indices 1 2 3 4 5 6 
#
# 1 31.5064 22.6703 23.0182 0.0000 -15.7919 0.0000
# 2 22.6703 140.4857 77.4284 0.0000 -16.0727 0.0000
# 3 23.0182 77.4284 131.0048 0.0000 -19.6170 0.0000
# 4 0.0000 0.0000 0.0000 45.9564 0.0000 -5.8191
# 5 -15.7919 -16.0727 -19.6170 0.0000 16.6440 0.0000
# 6 0.0000 0.0000 0.0000 -5.8191 0.0000 20.0476
#
#
#
# Elastic Compliance Matrix: (Units=1/GPa)
#
#
# Indices 1 2 3 4 5 6 
#
# 1 0.062222 -0.003357 -0.000721 0.000000 0.054944 0.000000
# 2 -0.003357 0.010904 -0.005774 0.000000 0.000539 0.000000
# 3 -0.000721 -0.005774 0.012429 0.000000 0.008389 0.000000
# 4 0.000000 0.000000 0.000000 0.022590 0.000000 0.006557
# 5 0.054944 0.000539 0.008389 0.000000 0.122621 0.000000
# 6 0.000000 0.000000 0.000000 0.006557 0.000000 0.051785
#
#
# Mechanical properties :
#
#
# Convention : Reuss Voigt Hill
#
# Bulk Modulus (GPa) = 15.18606 61.02564 38.10585
# Shear Modulus (GPa) = 15.42238 28.52160 21.97199
#
# Velocity S-wave (km/s) = 2.70139 3.67366 3.22438
# Velocity P-wave (km/s) = 4.11287 6.84619 5.64739
#
# Compressibility (1/GPa) = 0.06584985
#
# Stress axis : x y z
#
# Youngs Moduli (GPa) = 16.07160 91.71016 80.45815
#
# Poissons Ratio (x) = 0.30791 0.05799
# Poissons Ratio (y) = 0.05396 0.46457
# Poissons Ratio (z) = 0.01158 0.52954
#
# Static dielectric constant tensor:
#      x y z
#    x 3.562260 0.000000 0.019960 
#    y 0.000000 3.851920 0.000000 
#    z 0.019960 0.000000 3.810760 
# 
# 
# High freq. dielectric constant tensor:
#      x y z
#    x 1.812720 0.000000 -0.002470 
#    y 0.000000 1.830470 0.000000 
#    z -0.002470 0.000000 1.829880 
# 
# From -- ./inp_files/339025.got.cif
#   From: 2010.06.25/outbox.cif.g09.slc.cpg/sg12_170_cif.got.tgz:339025.got - 2010.06.28 00:19:55.
