data_PCOD8081730
_publ_section_title
;
Structure prediction by ZEFSAII (Michael W. Deem and Ramdas Pophale) SiO2 
 PCOD8081730
Probable space group: C 2/M
;
_chemical_formula_sum "Si O2"
_cell_formula_units_Z 56
_cell_length_a 20.109645
_cell_length_b 9.262181
_cell_length_c 16.530797
_cell_angle_alpha 90.000000
_cell_angle_beta 90.154677
_cell_angle_gamma 90.000000
_cell_volume 3079.001339
_symmetry_space_group_name_H-M "C 2/M"
_symmetry_group_IT_number 12
_symmetry_cell_setting 'monoclinic'
loop_
_space_group_symop_operation_xyz
x,y,z
-x,y,-z
-x,-y,-z
x,-y,z
1/2+x,1/2+y,z
1/2-x,1/2+y,-z
1/2-x,1/2-y,-z
1/2+x,1/2-y,z
loop_
_atom_site_type_symbol
_atom_site_label
_atom_site_fract_x
_atom_site_fract_y
_atom_site_fract_z
Si Si1 0.422485 0.667053 0.345272
Si Si2 0.920973 0.663166 0.501083
Si Si3 0.112077 0.668440 0.186425
Si Si4 0.368790 0.333603 0.174321
Si Si5 0.236443 0.333037 0.082347
Si Si6 0.018828 0.667964 0.912450
Si Si7 0.922038 0.168847 0.658933
O O1 0.412058 0.500000 0.367839
O O2 0.394742 0.762111 0.419146
O O3 0.379938 0.714523 0.267043
O O4 0.499828 0.698612 0.327969
O O5 0.893271 0.500000 0.506165
O O6 0.895657 0.754751 0.577485
O O7 0.000000 0.663877 0.500000
O O8 0.121099 0.500000 0.208064
O O9 0.167548 0.718778 0.122259
O O10 0.118968 0.762096 0.267437
O O11 0.040293 0.700971 0.149245
O O12 0.388970 0.500000 0.165196
O O13 0.293093 0.303735 0.149261
O O14 0.414543 0.244924 0.114343
O O15 0.232612 0.500000 0.058695
O O16 0.250000 0.250000 0.000000
O O17 0.035284 0.500000 0.918221
O O18 0.000000 0.729654 0.000000
O O19 0.906132 0.000000 0.653278
#
# Coordination Sequence:
#
# PCOD8081730 Si02
#       7
#     8   8   8   8   8   8   8
#     4   9  17  30  48  74 106 135 169 211 259 309
#     4   9  17  28  46  74 107 139 170 206 254 310
#     4  10  20  34  52  75 105 138 174 216 262 311
#     4  10  20  35  54  77 104 136 174 217 262 310
#     4  10  22  39  57  76 103 140 180 220 263 313
#     4  10  20  33  51  75 103 134 169 214 265 313
#     4  10  18  30  50  76 106 138 172 212 260 309
#
# _framework density 18.187716999999999
#
# number of rings (size 3 to 8) (size 9 to 14) (size 15 to 20)
#    0.000    2.286    1.429    1.714    0.000    5.429 
#    0.000    0.000    0.000    0.857    0.000    0.000 
#    0.000    0.000    0.000    0.000    0.000    0.000 
#
# Total GULP energy -347263.478162 kJ/mol
# GULP energy per Si atom -12402.267077 kJ/mol
# Density = 1.814632 g / cm^3
# Si number density = 18.187717 Si / 1000 Ang^3
#
#
#
# Elastic Constant Matrix: (Units=GPa)
#
#
# Indices 1 2 3 4 5 6 
#
# 1 29.1183 18.7278 6.0457 0.0000 -2.7126 0.0000
# 2 18.7278 81.2098 62.4924 0.0000 -4.2496 0.0000
# 3 6.0457 62.4924 130.2113 0.0000 1.2754 0.0000
# 4 0.0000 0.0000 0.0000 40.0920 0.0000 -2.3696
# 5 -2.7126 -4.2496 1.2754 0.0000 25.9062 0.0000
# 6 0.0000 0.0000 0.0000 -2.3696 0.0000 19.2092
#
#
#
# Elastic Compliance Matrix: (Units=1/GPa)
#
#
# Indices 1 2 3 4 5 6 
#
# 1 0.041869 -0.012739 0.004149 0.000000 0.002090 0.000000
# 2 -0.012739 0.023755 -0.010839 0.000000 0.003096 0.000000
# 3 0.004149 -0.010839 0.012709 0.000000 -0.001969 0.000000
# 4 0.000000 0.000000 0.000000 0.025126 0.000000 0.003099
# 5 0.002090 0.003096 -0.001969 0.000000 0.039425 0.000000
# 6 0.000000 0.000000 0.000000 0.003099 0.000000 0.052441
#
#
# Mechanical properties :
#
#
# Convention : Reuss Voigt Hill
#
# Bulk Modulus (GPa) = 25.33301 46.11905 35.72603
# Shear Modulus (GPa) = 20.21508 27.25972 23.73740
#
# Velocity S-wave (km/s) = 3.33749 3.87563 3.61658
# Velocity P-wave (km/s) = 5.36755 6.74089 6.09304
#
# Compressibility (1/GPa) = 0.03947419
#
# Stress axis : x y z
#
# Youngs Moduli (GPa) = 23.88394 42.09680 78.68648
#
# Poissons Ratio (x) = 0.53628 -0.32651
# Poissons Ratio (y) = 0.30426 0.85292
# Poissons Ratio (z) = -0.09911 0.45631
#
# Static dielectric constant tensor:
#      x y z
#    x 3.110900 0.000000 0.083210 
#    y 0.000000 3.355750 0.000000 
#    z 0.083210 0.000000 3.480350 
# 
# 
# High freq. dielectric constant tensor:
#      x y z
#    x 1.669860 0.000000 0.006610 
#    y 0.000000 1.704330 0.000000 
#    z 0.006610 0.000000 1.718510 
# 
# From -- ./inp_files/280240.got.cif
#   From: 2010.06.25/outbox.cif.g09.slc.cpg/sg12_141_cif.got.tgz:280240.got - 2010.06.28 00:19:55.
