data_PCOD8081834
_publ_section_title
;
Structure prediction by ZEFSAII (Michael W. Deem and Ramdas Pophale) SiO2 
 PCOD8081834
Probable space group: C 2/M
;
_chemical_formula_sum "Si O2"
_cell_formula_units_Z 48
_cell_length_a 18.243105
_cell_length_b 14.440782
_cell_length_c 13.998313
_cell_angle_alpha 90.000000
_cell_angle_beta 135.186326
_cell_angle_gamma 90.000000
_cell_volume 2599.161362
_symmetry_space_group_name_H-M "C 2/M"
_symmetry_group_IT_number 12
_symmetry_cell_setting 'monoclinic'
loop_
_space_group_symop_operation_xyz
x,y,z
-x,y,-z
-x,-y,-z
x,-y,z
1/2+x,1/2+y,z
1/2-x,1/2+y,-z
1/2-x,1/2-y,-z
1/2+x,1/2-y,z
loop_
_atom_site_type_symbol
_atom_site_label
_atom_site_fract_x
_atom_site_fract_y
_atom_site_fract_z
Si Si1 0.231682 0.603657 0.653511
Si Si2 0.828421 0.893350 0.940849
Si Si3 0.021861 0.725544 0.911310
Si Si4 0.616674 0.892659 0.842212
Si Si5 0.532379 0.224319 0.427368
Si Si6 0.354613 0.702422 0.628583
O O1 0.194663 0.500000 0.634603
O O2 0.280688 0.641356 0.796618
O O3 0.130396 0.658808 0.531195
O O4 0.320602 0.609193 0.652589
O O5 0.740444 0.883368 0.940883
O O6 0.867885 0.000000 0.971155
O O7 0.925210 0.826713 0.052299
O O8 0.092233 0.647292 0.925040
O O9 0.911456 0.729001 0.755827
O O10 0.000000 0.696938 0.000000
O O11 0.559085 0.835051 0.705591
O O12 0.582048 0.000000 0.804278
O O13 0.500000 0.265521 0.500000
O O14 0.568013 0.309925 0.391277
O O15 0.250000 0.750000 0.500000
#
# Coordination Sequence:
#
# PCOD8081834 Si02
#       6
#     8   8   8   8   8   8
#     4  10  18  30  51  77 105 135 168 214 266 310
#     4  10  20  33  52  79 107 137 174 215 263 314
#     4  11  21  35  54  77 108 142 175 216 265 316
#     4  10  21  35  52  77 107 140 179 219 263 313
#     4  10  18  31  54  78 102 134 174 220 266 307
#     4   9  20  35  49  75 107 137 173 211 258 316
#
# _framework density 18.467495
#
# number of rings (size 3 to 8) (size 9 to 14) (size 15 to 20)
#    0.000    2.000    3.333    1.000    0.000    2.000 
#    0.000    0.000    0.000    0.500    0.000    0.000 
#    0.000    0.000    0.000    0.000    0.000    0.000 
#
# Total GULP energy -297405.346439 kJ/mol
# GULP energy per Si atom -12391.889435 kJ/mol
# Density = 1.842546 g / cm^3
# Si number density = 18.467495 Si / 1000 Ang^3
#
#
#
# Elastic Constant Matrix: (Units=GPa)
#
#
# Indices 1 2 3 4 5 6 
#
# 1 121.5618 26.2182 40.2756 0.0000 -28.9580 0.0000
# 2 26.2182 37.1013 13.5440 0.0000 -1.7316 0.0000
# 3 40.2756 13.5440 82.1439 0.0000 -9.5852 0.0000
# 4 0.0000 0.0000 0.0000 16.5850 0.0000 -2.1047
# 5 -28.9580 -1.7316 -9.5852 0.0000 36.7930 0.0000
# 6 0.0000 0.0000 0.0000 -2.1047 0.0000 28.1122
#
#
#
# Elastic Compliance Matrix: (Units=1/GPa)
#
#
# Indices 1 2 3 4 5 6 
#
# 1 0.013433 -0.007503 -0.004287 0.000000 0.009103 0.000000
# 2 -0.007503 0.032871 -0.002320 0.000000 -0.004963 0.000000
# 3 -0.004287 -0.002320 0.014699 0.000000 0.000346 0.000000
# 4 0.000000 0.000000 0.000000 0.060874 0.000000 0.004557
# 5 0.009103 -0.004963 0.000346 0.000000 0.034200 0.000000
# 6 0.000000 0.000000 0.000000 0.004557 0.000000 0.035913
#
#
# Mechanical properties :
#
#
# Convention : Reuss Voigt Hill
#
# Bulk Modulus (GPa) = 30.50434 44.54250 37.52342
# Shear Modulus (GPa) = 21.63220 27.01602 24.32411
#
# Velocity S-wave (km/s) = 3.42624 3.82893 3.63317
# Velocity P-wave (km/s) = 5.67502 6.61206 6.16138
#
# Compressibility (1/GPa) = 0.03278222
#
# Stress axis : x y z
#
# Youngs Moduli (GPa) = 74.44178 30.42230 68.03336
#
# Poissons Ratio (x) = 0.22826 0.29167
# Poissons Ratio (y) = 0.55853 0.15784
# Poissons Ratio (z) = 0.31914 0.07058
#
# Static dielectric constant tensor:
#      x y z
#    x 3.974370 0.000000 -0.210440 
#    y 0.000000 3.223100 0.000000 
#    z -0.210440 0.000000 3.524780 
# 
# 
# High freq. dielectric constant tensor:
#      x y z
#    x 1.735000 0.000000 -0.001110 
#    y 0.000000 1.674040 0.000000 
#    z -0.001110 0.000000 1.721730 
# 
# From -- ./inp_files/157670.got.cif
#   From: 2010.06.25/outbox.cif.g09.slc.cpg/sg12_79_cif.got.tgz:157670.got - 2010.06.28 00:19:55.
