data_PCOD8081810
_publ_section_title
;
Structure prediction by ZEFSAII (Michael W. Deem and Ramdas Pophale) SiO2 
 PCOD8081810
Probable space group: C 2/M
;
_chemical_formula_sum "Si O2"
_cell_formula_units_Z 56
_cell_length_a 23.454126
_cell_length_b 9.325091
_cell_length_c 15.280142
_cell_angle_alpha 90.000000
_cell_angle_beta 115.777393
_cell_angle_gamma 90.000000
_cell_volume 3009.392428
_symmetry_space_group_name_H-M "C 2/M"
_symmetry_group_IT_number 12
_symmetry_cell_setting 'monoclinic'
loop_
_space_group_symop_operation_xyz
x,y,z
-x,y,-z
-x,-y,-z
x,-y,z
1/2+x,1/2+y,z
1/2-x,1/2+y,-z
1/2-x,1/2-y,-z
1/2+x,1/2-y,z
loop_
_atom_site_type_symbol
_atom_site_label
_atom_site_fract_x
_atom_site_fract_y
_atom_site_fract_z
Si Si1 0.236844 0.670991 0.581020
Si Si2 0.087297 0.663305 0.857378
Si Si3 0.018290 0.670332 0.645953
Si Si4 0.808453 0.830895 0.796979
Si Si5 0.069456 0.830527 0.020657
Si Si6 0.401775 0.170006 0.461128
Si Si7 0.272707 0.163025 0.097486
O O1 0.238221 0.500000 0.567420
O O2 0.250000 0.750000 0.500000
O O3 0.288952 0.723818 0.687329
O O4 0.168809 0.726308 0.570013
O O5 0.073778 0.500000 0.878371
O O6 0.033663 0.723111 0.754804
O O7 0.151827 0.671664 0.844790
O O8 0.091055 0.761951 0.944436
O O9 0.024150 0.500000 0.648334
O O10 0.069313 0.732085 0.609985
O O11 0.947584 0.719588 0.571836
O O12 0.880264 0.785063 0.870340
O O13 0.759122 0.770747 0.836391
O O14 0.801440 0.000000 0.791126
O O15 0.068998 0.000000 0.006843
O O16 0.000000 0.773115 0.000000
O O17 0.400978 0.000000 0.455708
O O18 0.249532 0.000000 0.069320
O O19 0.250000 0.250000 0.000000
#
# Coordination Sequence:
#
# PCOD8081810 Si02
#       7
#     8   8   8   8   8   8   8
#     4  10  20  34  52  73  97 130 169 205 244 290
#     4  10  19  30  49  78 103 123 155 204 255 292
#     4   8  14  26  47  75 101 122 153 200 248 293
#     4   9  18  34  53  71  97 132 167 204 245 294
#     4  10  21  36  51  67  94 136 176 199 229 292
#     4   8  14  27  48  72  97 126 160 198 242 295
#     4  10  18  30  51  76 100 128 161 200 247 296
#
# _framework density 18.608407
#
# number of rings (size 3 to 8) (size 9 to 14) (size 15 to 20)
#    0.000    2.714    1.429    1.714    0.000    4.857 
#    0.000    1.429    0.000    2.571    0.000    2.000 
#    0.000    0.000    0.000    0.000    0.000    0.000 
#
# Total GULP energy -347021.491784 kJ/mol
# GULP energy per Si atom -12393.624707 kJ/mol
# Density = 1.856605 g / cm^3
# Si number density = 18.608407 Si / 1000 Ang^3
#
#
#
# Elastic Constant Matrix: (Units=GPa)
#
#
# Indices 1 2 3 4 5 6 
#
# 1 108.9899 18.4167 60.3808 0.0000 10.5172 0.0000
# 2 18.4167 22.9924 28.8205 0.0000 0.5194 0.0000
# 3 60.3808 28.8205 172.1400 0.0000 11.8605 0.0000
# 4 0.0000 0.0000 0.0000 22.2974 0.0000 -5.9731
# 5 10.5172 0.5194 11.8605 0.0000 29.3854 0.0000
# 6 0.0000 0.0000 0.0000 -5.9731 0.0000 16.4783
#
#
#
# Elastic Compliance Matrix: (Units=1/GPa)
#
#
# Indices 1 2 3 4 5 6 
#
# 1 0.012154 -0.005800 -0.003085 0.000000 -0.003002 0.000000
# 2 -0.005800 0.058041 -0.007977 0.000000 0.004270 0.000000
# 3 -0.003085 -0.007977 0.008374 0.000000 -0.002135 0.000000
# 4 0.000000 0.000000 0.000000 0.049671 0.000000 0.018005
# 5 -0.003002 0.004270 -0.002135 0.000000 0.035891 0.000000
# 6 0.000000 0.000000 0.000000 0.018005 0.000000 0.067213
#
#
# Mechanical properties :
#
#
# Convention : Reuss Voigt Hill
#
# Bulk Modulus (GPa) = 22.29946 57.70648 40.00297
# Shear Modulus (GPa) = 17.85596 26.73251 22.29424
#
# Velocity S-wave (km/s) = 3.10104 3.79434 3.46507
# Velocity P-wave (km/s) = 4.98312 7.09044 6.12804
#
# Compressibility (1/GPa) = 0.04484414
#
# Stress axis : x y z
#
# Youngs Moduli (GPa) = 82.27567 17.22911 119.41541
#
# Poissons Ratio (x) = 0.09993 0.36844
# Poissons Ratio (y) = 0.47722 0.95261
# Poissons Ratio (z) = 0.25385 0.13744
#
# Static dielectric constant tensor:
#      x y z
#    x 3.691930 0.000000 0.259890 
#    y 0.000000 2.913630 0.000000 
#    z 0.259890 0.000000 3.734460 
# 
# 
# High freq. dielectric constant tensor:
#      x y z
#    x 1.722660 0.000000 0.012070 
#    y 0.000000 1.663680 0.000000 
#    z 0.012070 0.000000 1.736300 
# 
# From -- ./inp_files/237901.got.cif
#   From: 2010.06.25/outbox.cif.g09.slc.cpg/sg12_119_cif.got.tgz:237901.got - 2010.06.28 00:19:55.
