data_PCOD8081820
_publ_section_title
;
Structure prediction by ZEFSAII (Michael W. Deem and Ramdas Pophale) SiO2 
 PCOD8081820
Probable space group: C 2/M
;
_chemical_formula_sum "Si O2"
_cell_formula_units_Z 56
_cell_length_a 22.397460
_cell_length_b 14.239160
_cell_length_c 21.554053
_cell_angle_alpha 90.000000
_cell_angle_beta 153.620334
_cell_angle_gamma 90.000000
_cell_volume 3054.254888
_symmetry_space_group_name_H-M "C 2/M"
_symmetry_group_IT_number 12
_symmetry_cell_setting 'monoclinic'
loop_
_space_group_symop_operation_xyz
x,y,z
-x,y,-z
-x,-y,-z
x,-y,z
1/2+x,1/2+y,z
1/2-x,1/2+y,-z
1/2-x,1/2-y,-z
1/2+x,1/2-y,z
loop_
_atom_site_type_symbol
_atom_site_label
_atom_site_fract_x
_atom_site_fract_y
_atom_site_fract_z
Si Si1 0.900433 0.606664 0.642297
Si Si2 0.573030 0.210437 0.205769
Si Si3 0.134344 0.893711 0.320035
Si Si4 0.310823 0.107209 0.142292
Si Si5 0.272147 0.212648 0.882775
Si Si6 0.634882 0.606451 0.860710
Si Si7 0.653062 0.106803 0.163936
O O1 0.895063 0.500000 0.661916
O O2 0.895745 0.673483 0.696864
O O3 0.776077 0.630292 0.482617
O O4 0.032589 0.622788 0.724405
O O5 0.607316 0.321822 0.238053
O O6 0.666766 0.157413 0.243234
O O7 0.418872 0.191685 0.046309
O O8 0.020463 0.880931 0.266358
O O9 0.130676 0.000000 0.289845
O O10 0.260706 0.175739 0.151117
O O11 0.278047 0.000000 0.130905
O O12 0.228411 0.138356 0.004731
O O13 0.161910 0.168940 0.825930
O O14 0.257390 0.165850 0.801431
O O15 0.670723 0.500000 0.876397
O O16 0.706951 0.000000 0.218618
O O17 0.500000 0.107599 0.000000
#
# Coordination Sequence:
#
# PCOD8081820 Si02
#       7
#     8   8   8   8   8   8   8
#     4  10  20  33  52  78 105 134 169 209 254 305
#     4  11  19  32  52  74 103 139 172 207 252 303
#     4  10  21  34  50  77 108 135 166 207 257 309
#     4  10  19  31  51  77 103 133 168 210 257 303
#     4  11  19  31  51  76 105 135 170 211 254 300
#     4  10  18  30  51  76 103 133 164 209 262 301
#     4   9  20  34  50  75 104 135 171 210 249 295
#
# _framework density 18.335076999999998
#
# number of rings (size 3 to 8) (size 9 to 14) (size 15 to 20)
#    0.000    1.857    2.857    2.571    0.000    1.143 
#    0.000    0.714    0.000    6.000    0.000   10.000 
#    0.000    0.000    0.000    0.000    0.000    0.000 
#
# Total GULP energy -347226.283024 kJ/mol
# GULP energy per Si atom -12400.938679 kJ/mol
# Density = 1.829335 g / cm^3
# Si number density = 18.335077 Si / 1000 Ang^3
#
#
#
# Elastic Constant Matrix: (Units=GPa)
#
#
# Indices 1 2 3 4 5 6 
#
# 1 82.8987 61.2889 14.9950 0.0030 -3.9734 0.0015
# 2 61.2889 127.9779 8.5060 0.0048 -15.1220 0.0029
# 3 14.9950 8.5060 44.7659 0.0058 14.2334 0.0036
# 4 0.0030 0.0048 0.0058 21.9833 0.0033 1.0588
# 5 -3.9734 -15.1220 14.2334 0.0033 22.4315 0.0018
# 6 0.0015 0.0029 0.0036 1.0588 0.0018 31.6285
#
#
#
# Elastic Compliance Matrix: (Units=1/GPa)
#
#
# Indices 1 2 3 4 5 6 
#
# 1 0.019672 -0.009008 -0.005080 0.000000 0.000635 0.000000
# 2 -0.009008 0.013332 -0.002338 -0.000002 0.008875 -0.000001
# 3 -0.005080 -0.002338 0.031658 -0.000004 -0.022564 -0.000002
# 4 0.000000 -0.000002 -0.000004 0.045562 -0.000006 -0.001525
# 5 0.000635 0.008875 -0.022564 -0.000006 0.064993 -0.000002
# 6 0.000000 -0.000001 -0.000002 -0.001525 -0.000002 0.031668
#
#
# Mechanical properties :
#
#
# Convention : Reuss Voigt Hill
#
# Bulk Modulus (GPa) = 31.43549 47.24692 39.34120
# Shear Modulus (GPa) = 19.97268 26.59885 23.28577
#
# Velocity S-wave (km/s) = 3.30406 3.81295 3.56759
# Velocity P-wave (km/s) = 5.63364 6.72379 6.20271
#
# Compressibility (1/GPa) = 0.03181118
#
# Stress axis : x y z
#
# Youngs Moduli (GPa) = 50.83277 75.00675 31.58722
#
# Poissons Ratio (x) = 0.67570 0.16045
# Poissons Ratio (y) = 0.45793 0.07384
# Poissons Ratio (z) = 0.25821 0.17534
#
# Static dielectric constant tensor:
#      x y z
#    x 3.282240 0.000000 0.119830 
#    y 0.000000 3.770140 0.000000 
#    z 0.119830 0.000000 3.118520 
# 
# 
# High freq. dielectric constant tensor:
#      x y z
#    x 1.685250 0.000000 0.018200 
#    y 0.000000 1.734580 0.000000 
#    z 0.018200 0.000000 1.680290 
# 
# From -- ./inp_files/96760.got.cif
#   From: 2010.06.25/outbox.cif.g09.slc.cpg/sg12_49_cif.got.tgz:96760.got - 2010.06.28 00:19:55.
