data_PCOD8081502
_publ_section_title
;
Structure prediction by ZEFSAII (Michael W. Deem and Ramdas Pophale) SiO2 
 PCOD8081502
Probable space group: C 2/M
;
_chemical_formula_sum "Si O2"
_cell_formula_units_Z 52
_cell_length_a 23.616741
_cell_length_b 9.864789
_cell_length_c 23.827679
_cell_angle_alpha 90.000000
_cell_angle_beta 149.918655
_cell_angle_gamma 90.000000
_cell_volume 2782.439436
_symmetry_space_group_name_H-M "C 2/M"
_symmetry_group_IT_number 12
_symmetry_cell_setting 'monoclinic'
loop_
_space_group_symop_operation_xyz
x,y,z
-x,y,-z
-x,-y,-z
x,-y,z
1/2+x,1/2+y,z
1/2-x,1/2+y,-z
1/2-x,1/2-y,-z
1/2+x,1/2-y,z
loop_
_atom_site_type_symbol
_atom_site_label
_atom_site_fract_x
_atom_site_fract_y
_atom_site_fract_z
Si Si1 0.285526 0.348045 0.185502
Si Si2 0.500000 0.779446 0.500000
Si Si3 0.133547 0.848990 0.240212
Si Si4 0.521344 0.149710 0.640252
Si Si5 0.074078 0.153677 0.008406
Si Si6 0.770160 0.657118 0.464246
Si Si7 0.782016 0.855927 0.311896
O O1 0.279699 0.500000 0.151638
O O2 0.393738 0.258862 0.257824
O O3 0.304805 0.374464 0.266567
O O4 0.171199 0.262375 0.078873
O O5 0.459423 0.864159 0.410922
O O6 0.599925 0.688248 0.559633
O O7 0.171527 0.802638 0.334884
O O8 0.186652 0.754624 0.238484
O O9 0.000348 0.843417 0.112893
O O10 0.181983 0.000000 0.272094
O O11 0.392497 0.189992 0.543397
O O12 0.548150 0.000000 0.687890
O O13 0.122109 0.000000 0.058113
O O14 0.000000 0.193083 0.000000
O O15 0.759201 0.500000 0.472172
O O16 0.750000 0.750000 0.500000
O O17 0.744323 0.000000 0.306128
#
# Coordination Sequence:
#
# PCOD8081502 Si02
#       7
#     8   4   8   8   8   8   8
#     4  10  21  33  48  76 115 150 179 218 268 327
#     4  10  18  30  48  78 112 144 176 222 274 330
#     4  10  20  35  53  77 107 140 186 229 266 319
#     4  10  20  34  56  81 108 143 184 225 274 335
#     4  10  19  32  53  78 109 151 189 224 268 329
#     4  10  22  40  59  83 110 143 185 233 278 325
#     4  10  19  29  44  71 109 148 179 212 262 323
#
# _framework density 18.688638000000001
#
# number of rings (size 3 to 8) (size 9 to 14) (size 15 to 20)
#    0.000    2.000    3.077    0.923    0.000    5.231 
#    0.000    0.000    0.000    0.923    0.000    0.000 
#    0.000    0.000    0.000    0.000    0.000    0.000 
#
# Total GULP energy -322106.157747 kJ/mol
# GULP energy per Si atom -12388.698375 kJ/mol
# Density = 1.864610 g / cm^3
# Si number density = 18.688638 Si / 1000 Ang^3
#
#
#
# Elastic Constant Matrix: (Units=GPa)
#
#
# Indices 1 2 3 4 5 6 
#
# 1 54.0064 30.7760 25.9070 0.0000 0.9840 0.0000
# 2 30.7760 122.0930 58.0769 -0.0001 8.5159 0.0000
# 3 25.9070 58.0769 110.0064 -0.0001 4.8037 0.0000
# 4 0.0000 -0.0001 -0.0001 -11.3185 0.0000 4.3989
# 5 0.9840 8.5159 4.8037 0.0000 16.1561 0.0000
# 6 0.0000 0.0000 0.0000 4.3989 0.0000 23.4853
#
#
#
# Elastic Compliance Matrix: (Units=1/GPa)
#
#
# Indices 1 2 3 4 5 6 
#
# 1 0.022419 -0.004312 -0.003083 0.000000 0.001824 0.000000
# 2 -0.004312 0.012041 -0.005143 0.000000 -0.004555 0.000000
# 3 -0.003083 -0.005143 0.012568 0.000000 -0.000838 0.000000
# 4 0.000000 0.000000 0.000000 -0.082356 0.000000 0.015425
# 5 0.001824 -0.004555 -0.000838 0.000000 0.064436 0.000000
# 6 0.000000 0.000000 0.000000 0.015425 0.000000 0.039691
#
#
# Mechanical properties :
#
#
# Convention : Reuss Voigt Hill
#
# Bulk Modulus (GPa) = 45.55117 57.29172 51.42144
# Shear Modulus (GPa) = 49.41093 17.08765 33.24929
#
# Velocity S-wave (km/s) = 5.14747 3.02708 4.22253
# Velocity P-wave (km/s) = 7.73015 6.55286 7.16572
#
# Compressibility (1/GPa) = 0.02195333
#
# Stress axis : x y z
#
# Youngs Moduli (GPa) = 44.60465 83.04682 79.56637
#
# Poissons Ratio (x) = 0.35809 0.24531
# Poissons Ratio (y) = 0.19233 0.40919
# Poissons Ratio (z) = 0.13752 0.42709
#
# Static dielectric constant tensor:
#      x y z
#    x 2.926660 0.000000 0.038310 
#    y 0.000000 3.851300 0.000000 
#    z 0.038310 0.000000 3.497700 
# 
# 
# High freq. dielectric constant tensor:
#      x y z
#    x 1.663300 0.000000 0.006890 
#    y 0.000000 1.739060 0.000000 
#    z 0.006890 0.000000 1.727850 
# 
# From -- ./inp_files/367420.got.cif
#   From: 2010.06.25/outbox.cif.g09.slc.cpg/sg12_184_cif.got.tgz:367420.got - 2010.06.28 00:19:55.
