data_PCOD8081972
_publ_section_title
;
Structure prediction by ZEFSAII (Michael W. Deem and Ramdas Pophale) SiO2 
 PCOD8081972
Probable space group: C 2/M
;
_chemical_formula_sum "Si O2"
_cell_formula_units_Z 32
_cell_length_a 13.095331
_cell_length_b 15.038528
_cell_length_c 8.765956
_cell_angle_alpha 90.000000
_cell_angle_beta 45.123279
_cell_angle_gamma 90.000000
_cell_volume 1223.315641
_symmetry_space_group_name_H-M "C 2/M"
_symmetry_group_IT_number 12
_symmetry_cell_setting 'monoclinic'
loop_
_space_group_symop_operation_xyz
x,y,z
-x,y,-z
-x,-y,-z
x,-y,z
1/2+x,1/2+y,z
1/2-x,1/2+y,-z
1/2-x,1/2-y,-z
1/2+x,1/2-y,z
loop_
_atom_site_type_symbol
_atom_site_label
_atom_site_fract_x
_atom_site_fract_y
_atom_site_fract_z
Si Si1 0.282434 0.156383 0.891886
Si Si2 0.643356 0.283771 0.751073
Si Si3 0.062109 0.401392 0.765534
Si Si4 0.502500 0.401531 0.330240
O O1 0.269272 0.172219 0.722483
O O2 0.437929 0.118747 0.771802
O O3 0.250000 0.250000 0.000000
O O4 0.160253 0.091399 0.087163
O O5 0.675605 0.183795 0.643925
O O6 0.611403 0.351148 0.651126
O O7 0.500000 0.268406 0.000000
O O8 0.128868 0.500000 0.655956
O O9 0.000000 0.407732 0.000000
O O10 0.500000 0.355205 0.500000
O O11 0.439929 0.500000 0.415515
#
# Coordination Sequence:
#
# PCOD8081972 Si02
#       4
#     8   8   8   8
#     4  11  18  34  57  82 106 144 188 229 272 324
#     4   9  18  33  55  77 110 137 186 228 269 324
#     4  10  18  30  53  82 109 138 181 231 274 323
#     4  10  21  36  55  82 114 144 179 229 286 334
#
# _framework density 26.158415000000002
#
# number of rings (size 3 to 8) (size 9 to 14) (size 15 to 20)
#    0.000    2.000    7.500    0.750    0.000    5.500 
#    0.000    1.250    0.000    0.750    0.000    0.000 
#    0.000    0.000    0.000    0.000    0.000    0.000 
#
# Total GULP energy -198254.324285 kJ/mol
# GULP energy per Si atom -12390.895268 kJ/mol
# Density = 2.609888 g / cm^3
# Si number density = 26.158415 Si / 1000 Ang^3
#
#
#
# Elastic Constant Matrix: (Units=GPa)
#
#
# Indices 1 2 3 4 5 6 
#
# 1 186.0183 65.7583 66.3164 0.0001 43.7664 0.0000
# 2 65.7583 192.2611 14.8730 0.0000 30.1620 0.0000
# 3 66.3164 14.8730 54.7404 0.0000 26.8756 0.0000
# 4 0.0001 0.0000 0.0000 -22.6983 0.0000 38.2341
# 5 43.7664 30.1620 26.8756 0.0000 59.0449 0.0000
# 6 0.0000 0.0000 0.0000 38.2341 0.0000 0.8054
#
#
#
# Elastic Compliance Matrix: (Units=1/GPa)
#
#
# Indices 1 2 3 4 5 6 
#
# 1 0.010765 -0.002566 -0.011681 0.000000 -0.001352 0.000000
# 2 -0.002566 0.006267 0.002632 0.000000 -0.002497 0.000000
# 3 -0.011681 0.002632 0.036204 0.000000 -0.009165 0.000000
# 4 0.000000 0.000000 0.000000 -0.000544 0.000000 0.025832
# 5 -0.001352 -0.002497 -0.009165 0.000000 0.023386 0.000000
# 6 0.000000 0.000000 0.000000 0.025832 0.000000 0.015335
#
#
# Mechanical properties :
#
#
# Convention : Reuss Voigt Hill
#
# Bulk Modulus (GPa) = 33.32607 80.76837 57.04722
# Shear Modulus (GPa) = 40.11371 26.50188 33.30780
#
# Velocity S-wave (km/s) = 3.92023 3.18642 3.57222
# Velocity P-wave (km/s) = 5.76704 6.66944 6.23458
#
# Compressibility (1/GPa) = 0.03000654
#
# Stress axis : x y z
#
# Youngs Moduli (GPa) = 92.88972 159.56158 27.62138
#
# Poissons Ratio (x) = 0.40949 0.32265
# Poissons Ratio (y) = 0.23839 -0.07271
# Poissons Ratio (z) = 1.08505 -0.42003
#
# Static dielectric constant tensor:
#      x y z
#    x -21.858640 0.000000 -4.646650 
#    y 0.000000 5.414010 0.000000 
#    z -4.646650 0.000000 4.531020 
# 
# 
# High freq. dielectric constant tensor:
#      x y z
#    x 2.054390 0.000000 0.011380 
#    y 0.000000 2.056400 0.000000 
#    z 0.011380 0.000000 2.047760 
# 
# From -- ./inp_files/58233.got.cif
#   From: 2010.06.25/outbox.cif.g09.slc.cpg/sg12_30_cif.got.tgz:58233.got - 2010.06.28 00:19:55.
