data_PCOD8082263
_publ_section_title
;
Structure prediction by ZEFSAII (Michael W. Deem and Ramdas Pophale) SiO2 
 PCOD8082263
Probable space group: C 2/M
;
_chemical_formula_sum "Si O2"
_cell_formula_units_Z 56
_cell_length_a 21.582380
_cell_length_b 13.110226
_cell_length_c 21.123343
_cell_angle_alpha 90.000000
_cell_angle_beta 146.838240
_cell_angle_gamma 90.000000
_cell_volume 3269.363196
_symmetry_space_group_name_H-M "C 2/M"
_symmetry_group_IT_number 12
_symmetry_cell_setting 'monoclinic'
loop_
_space_group_symop_operation_xyz
x,y,z
-x,y,-z
-x,-y,-z
x,-y,z
1/2+x,1/2+y,z
1/2-x,1/2+y,-z
1/2-x,1/2-y,-z
1/2+x,1/2-y,z
loop_
_atom_site_type_symbol
_atom_site_label
_atom_site_fract_x
_atom_site_fract_y
_atom_site_fract_z
Si Si1 0.375473 0.386119 0.909796
Si Si2 0.829975 0.384819 0.349450
Si Si3 0.738961 0.280600 0.080021
Si Si4 0.872158 0.881775 0.606529
Si Si5 0.326443 0.200023 0.480856
Si Si6 0.630678 0.618585 0.868052
Si Si7 0.937595 0.383125 0.311680
O O1 0.373579 0.500000 0.939991
O O2 0.300715 0.388956 0.782895
O O3 0.330794 0.296211 0.916012
O O4 0.500000 0.351881 0.000000
O O5 0.868098 0.500000 0.403456
O O6 0.834283 0.306159 0.411560
O O7 0.908390 0.342660 0.358444
O O8 0.778237 0.162878 0.104821
O O9 0.857785 0.340337 0.188077
O O10 0.657806 0.320890 0.955314
O O11 0.789222 0.850936 0.593259
O O12 0.838402 0.816578 0.515327
O O13 0.001215 0.860159 0.737347
O O14 0.855313 0.000000 0.574772
O O15 0.434361 0.138080 0.599880
O O16 0.654444 0.500000 0.897100
O O17 0.907316 0.500000 0.289195
#
# Coordination Sequence:
#
# PCOD8082263 Si02
#       7
#     8   8   8   8   8   8   8
#     4   9  18  31  50  80 109 131 158 206 261 308
#     4   9  18  30  49  76 103 131 165 204 256 308
#     4  10  19  33  53  77 103 134 170 207 258 301
#     4  10  22  36  51  73 103 138 174 212 250 295
#     4  11  20  33  52  74 101 138 172 205 253 305
#     4  10  20  35  54  74 101 137 176 212 247 298
#     4  10  18  31  50  78 107 131 161 211 259 305
#
# _framework density 17.128717999999999
#
# number of rings (size 3 to 8) (size 9 to 14) (size 15 to 20)
#    0.000    2.143    1.429    3.857    2.000    1.143 
#    0.000    0.000    0.000    5.571    0.000    0.000 
#    0.000    0.000    0.000    0.000    0.000    0.000 
#
# Total GULP energy -346965.241237 kJ/mol
# GULP energy per Si atom -12391.615758 kJ/mol
# Density = 1.708973 g / cm^3
# Si number density = 17.128718 Si / 1000 Ang^3
#
#
#
# Elastic Constant Matrix: (Units=GPa)
#
#
# Indices 1 2 3 4 5 6 
#
# 1 61.4274 34.5238 34.9377 0.0000 9.3243 0.0000
# 2 34.5238 77.7726 37.7427 0.0000 4.1114 0.0000
# 3 34.9377 37.7427 77.9373 0.0001 14.3252 0.0000
# 4 0.0000 0.0000 0.0001 25.6431 0.0000 -0.5808
# 5 9.3243 4.1114 14.3252 0.0000 32.1494 0.0000
# 6 0.0000 0.0000 0.0000 -0.5808 0.0000 26.2966
#
#
#
# Elastic Compliance Matrix: (Units=1/GPa)
#
#
# Indices 1 2 3 4 5 6 
#
# 1 0.024950 -0.007533 -0.006953 0.000000 -0.003175 0.000000
# 2 -0.007533 0.019160 -0.006375 0.000000 0.002575 0.000000
# 3 -0.006953 -0.006375 0.020166 0.000000 -0.006154 0.000000
# 4 0.000000 0.000000 0.000000 0.039016 0.000000 0.000862
# 5 -0.003175 0.002575 -0.006154 0.000000 0.034438 0.000000
# 6 0.000000 0.000000 0.000000 0.000862 0.000000 0.038047
#
#
# Mechanical properties :
#
#
# Convention : Reuss Voigt Hill
#
# Bulk Modulus (GPa) = 44.33907 47.94952 46.14430
# Shear Modulus (GPa) = 22.22066 24.14670 23.18368
#
# Velocity S-wave (km/s) = 3.60568 3.75870 3.68298
# Velocity P-wave (km/s) = 6.57849 6.84774 6.71446
#
# Compressibility (1/GPa) = 0.02255347
#
# Stress axis : x y z
#
# Youngs Moduli (GPa) = 40.08065 52.19323 49.58901
#
# Poissons Ratio (x) = 0.39319 0.34478
# Poissons Ratio (y) = 0.30194 0.31611
# Poissons Ratio (z) = 0.27867 0.33271
#
# Static dielectric constant tensor:
#      x y z
#    x 3.195000 0.000000 0.116560 
#    y 0.000000 3.152170 0.000000 
#    z 0.116560 0.000000 3.422800 
# 
# 
# High freq. dielectric constant tensor:
#      x y z
#    x 1.648120 0.000000 0.011320 
#    y 0.000000 1.634510 0.000000 
#    z 0.011320 0.000000 1.681920 
# 
# From -- ./inp_files/349193.got.cif
#   From: 2010.06.25/outbox.cif.g09.slc.cpg/sg12_175_cif.got.tgz:349193.got - 2010.06.28 00:19:55.
