data_PCOD8082341
_publ_section_title
;
Structure prediction by ZEFSAII (Michael W. Deem and Ramdas Pophale) SiO2 
 PCOD8082341
Probable space group: C 2/M
;
_chemical_formula_sum "Si O2"
_cell_formula_units_Z 48
_cell_length_a 20.764573
_cell_length_b 8.603795
_cell_length_c 14.349026
_cell_angle_alpha 90.000000
_cell_angle_beta 89.705543
_cell_angle_gamma 90.000000
_cell_volume 2563.478894
_symmetry_space_group_name_H-M "C 2/M"
_symmetry_group_IT_number 12
_symmetry_cell_setting 'monoclinic'
loop_
_space_group_symop_operation_xyz
x,y,z
-x,y,-z
-x,-y,-z
x,-y,z
1/2+x,1/2+y,z
1/2-x,1/2+y,-z
1/2-x,1/2-y,-z
1/2+x,1/2-y,z
loop_
_atom_site_type_symbol
_atom_site_label
_atom_site_fract_x
_atom_site_fract_y
_atom_site_fract_z
Si Si1 0.501365 0.815436 0.396123
Si Si2 0.749360 0.316947 0.603351
Si Si3 0.072898 0.315174 0.100877
Si Si4 0.571974 0.815666 0.896796
Si Si5 0.872612 0.316159 0.293626
Si Si6 0.626434 0.814750 0.289846
O O1 0.500000 0.746592 0.500000
O O2 0.437417 0.761392 0.344033
O O3 0.564478 0.748782 0.344863
O O4 0.504941 0.000000 0.397716
O O5 0.755281 0.500000 0.594375
O O6 0.750000 0.250000 0.500000
O O7 0.685595 0.273483 0.659148
O O8 0.809467 0.248146 0.661927
O O9 0.070620 0.500000 0.102744
O O10 0.120702 0.255619 0.182263
O O11 0.000458 0.251897 0.119806
O O12 0.097251 0.258296 0.998366
O O13 0.620395 0.761734 0.814520
O O14 0.568045 0.000000 0.894043
O O15 0.861245 0.500000 0.303716
O O16 0.627328 0.000000 0.292873
#
# Coordination Sequence:
#
# PCOD8082341 Si02
#       6
#     8   8   8   8   8   8
#     4   9  15  24  43  70  94 118 159 211 248 277
#     4  11  23  37  52  70  97 135 170 203 245 294
#     4   8  12  22  42  73 105 125 154 203 251 285
#     4   8  13  22  43  75 105 126 150 200 256 288
#     4  10  18  31  51  76 102 128 160 201 251 298
#     4   9  16  28  46  70  97 128 167 207 243 284
#
# _framework density 18.724554000000001
#
# number of rings (size 3 to 8) (size 9 to 14) (size 15 to 20)
#    0.000    2.833    1.667    2.500    0.000    2.667 
#    0.000    0.833    0.000    5.500    0.000    3.500 
#    0.000    0.000    0.000    0.000    0.000    0.000 
#
# Total GULP energy -297401.514831 kJ/mol
# GULP energy per Si atom -12391.729785 kJ/mol
# Density = 1.868194 g / cm^3
# Si number density = 18.724554 Si / 1000 Ang^3
#
#
#
# Elastic Constant Matrix: (Units=GPa)
#
#
# Indices 1 2 3 4 5 6 
#
# 1 132.2391 16.1201 87.6533 0.0000 3.6629 0.0000
# 2 16.1201 17.1428 17.9825 0.0000 1.1071 0.0000
# 3 87.6533 17.9825 206.8629 0.0000 4.6485 0.0000
# 4 0.0000 0.0000 0.0000 13.5918 0.0000 -3.3578
# 5 3.6629 1.1071 4.6485 0.0000 36.5845 0.0000
# 6 0.0000 0.0000 0.0000 -3.3578 0.0000 18.8747
#
#
#
# Elastic Compliance Matrix: (Units=1/GPa)
#
#
# Indices 1 2 3 4 5 6 
#
# 1 0.011060 -0.006017 -0.004155 0.000000 -0.000397 0.000000
# 2 -0.006017 0.067515 -0.003297 0.000000 -0.001022 0.000000
# 3 -0.004155 -0.003297 0.006889 0.000000 -0.000360 0.000000
# 4 0.000000 0.000000 0.000000 0.076956 0.000000 0.013690
# 5 -0.000397 -0.001022 -0.000360 0.000000 0.027450 0.000000
# 6 0.000000 0.000000 0.000000 0.013690 0.000000 0.055416
#
#
# Mechanical properties :
#
#
# Convention : Reuss Voigt Hill
#
# Bulk Modulus (GPa) = 17.08556 66.63962 41.86259
# Shear Modulus (GPa) = 17.13894 29.44279 23.29086
#
# Velocity S-wave (km/s) = 3.02871 3.96967 3.53068
# Velocity P-wave (km/s) = 4.62334 7.52846 6.24712
#
# Compressibility (1/GPa) = 0.05852896
#
# Stress axis : x y z
#
# Youngs Moduli (GPa) = 90.41301 14.81142 145.15488
#
# Poissons Ratio (x) = 0.08912 0.60306
# Poissons Ratio (y) = 0.54399 0.47853
# Poissons Ratio (z) = 0.37563 0.04883
#
# Static dielectric constant tensor:
#      x y z
#    x 3.468670 0.000000 0.078080 
#    y 0.000000 2.751640 0.000000 
#    z 0.078080 0.000000 4.114210 
# 
# 
# High freq. dielectric constant tensor:
#      x y z
#    x 1.712410 0.000000 0.001450 
#    y 0.000000 1.655990 0.000000 
#    z 0.001450 0.000000 1.754040 
# 
# From -- ./inp_files/229290.got.cif
#   From: 2010.06.25/outbox.cif.g09.slc.cpg/sg12_115_cif.got.tgz:229290.got - 2010.06.28 00:19:55.
