data_PCOD8082280
_publ_section_title
;
Structure prediction by ZEFSAII (Michael W. Deem and Ramdas Pophale) SiO2 
 PCOD8082280
Probable space group: C 2/M
;
_chemical_formula_sum "Si O2"
_cell_formula_units_Z 64
_cell_length_a 15.394028
_cell_length_b 9.105146
_cell_length_c 25.332519
_cell_angle_alpha 90.000000
_cell_angle_beta 72.562293
_cell_angle_gamma 90.000000
_cell_volume 3387.549564
_symmetry_space_group_name_H-M "C 2/M"
_symmetry_group_IT_number 12
_symmetry_cell_setting 'monoclinic'
loop_
_space_group_symop_operation_xyz
x,y,z
-x,y,-z
-x,-y,-z
x,-y,z
1/2+x,1/2+y,z
1/2-x,1/2+y,-z
1/2-x,1/2-y,-z
1/2+x,1/2-y,z
loop_
_atom_site_type_symbol
_atom_site_label
_atom_site_fract_x
_atom_site_fract_y
_atom_site_fract_z
Si Si1 0.474397 0.673721 0.225601
Si Si2 0.396974 0.673331 0.885898
Si Si3 0.218747 0.833017 0.766790
Si Si4 0.153053 0.825401 0.499964
Si Si5 0.600220 0.325324 0.295064
Si Si6 0.270466 0.332832 0.116397
Si Si7 0.097091 0.824948 0.998073
Si Si8 0.960340 0.173945 0.580454
O O1 0.484872 0.500000 0.225841
O O2 0.512513 0.726533 0.161434
O O3 0.369106 0.718792 0.250696
O O4 0.531017 0.741161 0.264103
O O5 0.393992 0.500000 0.890959
O O6 0.316799 0.730568 0.863788
O O7 0.384268 0.740101 0.946952
O O8 0.298827 0.725158 0.737040
O O9 0.185487 0.823922 0.833787
O O10 0.247549 0.000000 0.748030
O O11 0.250000 0.750000 0.500000
O O12 0.116836 0.775719 0.448200
O O13 0.065735 0.775781 0.551676
O O14 0.169881 0.000000 0.500046
O O15 0.599038 0.500000 0.295531
O O16 0.570275 0.263008 0.357399
O O17 0.243753 0.500000 0.107271
O O18 0.333680 0.266132 0.058685
O O19 0.096988 0.000000 0.998019
O O20 0.000000 0.761884 0.000000
O O21 0.961477 0.000000 0.578527
#
# Coordination Sequence:
#
# PCOD8082280 Si02
#       8
#     8   8   8   8   8   8   8   8
#     4   9  18  32  51  72  96 130 171 209 249 302
#     4  10  18  31  51  71  92 124 167 207 245 302
#     4  10  20  34  51  73 102 134 168 212 262 306
#     4   9  17  33  55  80 108 140 175 208 249 297
#     4  10  19  35  55  75 101 136 177 213 248 297
#     4  10  19  31  48  70  97 126 158 204 261 307
#     4   9  17  29  47  70  93 121 161 204 248 305
#     4   8  17  33  53  75 106 144 173 203 251 308
#
# _framework density 18.892712
#
# number of rings (size 3 to 8) (size 9 to 14) (size 15 to 20)
#    0.000    2.625    1.250    1.875    0.000    4.000 
#    0.000    5.000    0.000    3.000    0.000    0.000 
#    0.000    0.000    0.000    0.000    0.000    0.000 
#
# Total GULP energy -396427.965247 kJ/mol
# GULP energy per Si atom -12388.373914 kJ/mol
# Density = 1.884971 g / cm^3
# Si number density = 18.892712 Si / 1000 Ang^3
#
#
#
# Elastic Constant Matrix: (Units=GPa)
#
#
# Indices 1 2 3 4 5 6 
#
# 1 143.2310 15.9345 63.6542 0.0000 6.4254 0.0000
# 2 15.9345 8.3617 22.1312 0.0000 1.1428 0.0000
# 3 63.6542 22.1312 139.4239 0.0000 -6.9305 0.0000
# 4 0.0000 0.0000 0.0000 12.7172 0.0000 1.9437
# 5 6.4254 1.1428 -6.9305 0.0000 19.2899 0.0000
# 6 0.0000 0.0000 0.0000 1.9437 0.0000 25.3188
#
#
#
# Elastic Compliance Matrix: (Units=1/GPa)
#
#
# Indices 1 2 3 4 5 6 
#
# 1 0.009569 -0.009803 -0.002996 0.000000 -0.003683 0.000000
# 2 -0.009803 0.228231 -0.032849 0.000000 -0.022058 0.000000
# 3 -0.002996 -0.032849 0.014153 0.000000 0.008029 0.000000
# 4 0.000000 0.000000 0.000000 0.079567 0.000000 -0.006108
# 5 -0.003683 -0.022058 0.008029 0.000000 0.057259 0.000000
# 6 0.000000 0.000000 0.000000 -0.006108 0.000000 0.039965
#
#
# Mechanical properties :
#
#
# Convention : Reuss Voigt Hill
#
# Bulk Modulus (GPa) = 6.22439 54.93961 30.58200
# Shear Modulus (GPa) = 8.71700 24.08494 16.40097
#
# Velocity S-wave (km/s) = 2.15034 3.57435 2.94957
# Velocity P-wave (km/s) = 3.07685 6.79540 5.27468
#
# Compressibility (1/GPa) = 0.16065840
#
# Stress axis : x y z
#
# Youngs Moduli (GPa) = 104.50574 4.38153 70.65452
#
# Poissons Ratio (x) = 0.04295 0.21166
# Poissons Ratio (y) = 1.02444 2.32092
# Poissons Ratio (z) = 0.31307 0.14393
#
# Static dielectric constant tensor:
#      x y z
#    x 3.558790 0.000000 0.058030 
#    y 0.000000 2.948230 0.000000 
#    z 0.058030 0.000000 3.918210 
# 
# 
# High freq. dielectric constant tensor:
#      x y z
#    x 1.741620 0.000000 0.001350 
#    y 0.000000 1.680460 0.000000 
#    z 0.001350 0.000000 1.743030 
# 
# From -- ./inp_files/335255.got.cif
#   From: 2010.06.25/outbox.cif.g09.slc.cpg/sg12_168_cif.got.tgz:335255.got - 2010.06.28 00:19:55.
