data_PCOD8082244
_publ_section_title
;
Structure prediction by ZEFSAII (Michael W. Deem and Ramdas Pophale) SiO2 
 PCOD8082244
Probable space group: C 2/M
;
_chemical_formula_sum "Si O2"
_cell_formula_units_Z 56
_cell_length_a 8.651952
_cell_length_b 29.134817
_cell_length_c 18.193047
_cell_angle_alpha 90.000000
_cell_angle_beta 135.507231
_cell_angle_gamma 90.000000
_cell_volume 3213.940672
_symmetry_space_group_name_H-M "C 2/M"
_symmetry_group_IT_number 12
_symmetry_cell_setting 'monoclinic'
loop_
_space_group_symop_operation_xyz
x,y,z
-x,y,-z
-x,-y,-z
x,-y,z
1/2+x,1/2+y,z
1/2-x,1/2+y,-z
1/2-x,1/2-y,-z
1/2+x,1/2-y,z
loop_
_atom_site_type_symbol
_atom_site_label
_atom_site_fract_x
_atom_site_fract_y
_atom_site_fract_z
Si Si1 0.859137 0.050089 0.617289
Si Si2 0.990683 0.144457 0.704977
Si Si3 0.875760 0.644457 0.295025
Si Si4 0.736294 0.701502 0.112366
Si Si5 0.182021 0.300334 0.500001
Si Si6 0.600807 0.798498 0.112367
Si Si7 0.007278 0.550089 0.382713
O O1 0.025780 0.091598 0.691316
O O2 0.750762 0.056672 0.500002
O O3 0.664168 0.052390 0.609447
O O4 0.978472 0.000000 0.661970
O O5 0.833167 0.148717 0.722113
O O6 0.892672 0.172711 0.603083
O O7 0.231333 0.162406 0.806101
O O8 0.813036 0.662406 0.193900
O O9 0.083429 0.672711 0.396919
O O10 0.951843 0.591598 0.308687
O O11 0.727201 0.750000 0.151468
O O12 0.904918 0.706095 0.103278
O O13 0.500000 0.687613 0.000000
O O14 0.250000 0.250000 0.500000
O O15 0.000000 0.296618 0.500000
O O16 0.500000 0.812386 0.000000
O O17 0.992573 0.500000 0.338034
#
# Coordination Sequence:
#
# PCOD8082244 Si02
#       7
#     8   8   8   8   8   8   8
#     4   8  13  24  46  75 104 134 169 207 246 293
#     4  10  18  31  50  75 105 135 168 207 249 296
#     4  10  18  31  50  75 105 135 168 207 249 296
#     4  11  22  37  55  75  98 130 170 212 254 300
#     4  10  20  30  43  67 101 137 166 198 243 294
#     4  11  22  37  55  75  98 130 170 212 254 300
#     4   8  13  24  46  75 104 134 169 207 246 293
#
# _framework density 17.424092000000002
#
# number of rings (size 3 to 8) (size 9 to 14) (size 15 to 20)
#    0.000    2.286    1.429    5.143    0.000    3.429 
#    0.000    0.000    0.000    1.714    0.000    2.000 
#    0.000    0.000    0.000    0.000    0.000    0.000 
#
# Total GULP energy -347106.270246 kJ/mol
# GULP energy per Si atom -12396.652509 kJ/mol
# Density = 1.738443 g / cm^3
# Si number density = 17.424092 Si / 1000 Ang^3
#
#
#
# Elastic Constant Matrix: (Units=GPa)
#
#
# Indices 1 2 3 4 5 6 
#
# 1 67.4178 40.4359 36.7004 0.0000 -0.1159 0.0000
# 2 40.4359 170.8412 80.5722 0.0000 -0.4667 0.0000
# 3 36.7004 80.5722 102.7767 0.0000 -0.2877 0.0000
# 4 0.0000 0.0000 0.0000 23.8812 0.0000 -0.0848
# 5 -0.1159 -0.4667 -0.2877 0.0000 20.3760 0.0000
# 6 0.0000 0.0000 0.0000 -0.0848 0.0000 16.5698
#
#
#
# Elastic Compliance Matrix: (Units=1/GPa)
#
#
# Indices 1 2 3 4 5 6 
#
# 1 0.018851 -0.002042 -0.005130 0.000000 -0.000012 0.000000
# 2 -0.002042 0.009509 -0.006725 0.000000 0.000111 0.000000
# 3 -0.005130 -0.006725 0.016834 0.000000 0.000054 0.000000
# 4 0.000000 0.000000 0.000000 0.041875 0.000000 0.000214
# 5 -0.000012 0.000111 0.000054 0.000000 0.049081 0.000000
# 6 0.000000 0.000000 0.000000 0.000214 0.000000 0.060352
#
#
# Mechanical properties :
#
#
# Convention : Reuss Voigt Hill
#
# Bulk Modulus (GPa) = 57.47646 72.93920 65.20783
# Shear Modulus (GPa) = 21.73025 24.38723 23.05874
#
# Velocity S-wave (km/s) = 3.53532 3.74522 3.64178
# Velocity P-wave (km/s) = 7.05145 7.78808 7.42890
#
# Compressibility (1/GPa) = 0.01739843
#
# Stress axis : x y z
#
# Youngs Moduli (GPa) = 53.04894 105.16833 59.40387
#
# Poissons Ratio (x) = 0.21476 0.30477
# Poissons Ratio (y) = 0.10833 0.39948
# Poissons Ratio (z) = 0.27216 0.70723
#
# Static dielectric constant tensor:
#      x y z
#    x 2.944520 0.000000 -0.002480 
#    y 0.000000 3.558600 0.000000 
#    z -0.002480 0.000000 3.158510 
# 
# 
# High freq. dielectric constant tensor:
#      x y z
#    x 1.646860 0.000000 -0.000120 
#    y 0.000000 1.682120 0.000000 
#    z -0.000120 0.000000 1.656870 
# 
# From -- ./inp_files/199405.got.cif
#   From: 2010.06.25/outbox.cif.g09.slc.cpg/sg12_100_cif.got.tgz:199405.got - 2010.06.28 00:19:55.
