data_PCOD8082210
_publ_section_title
;
Structure prediction by ZEFSAII (Michael W. Deem and Ramdas Pophale) SiO2 
 PCOD8082210
Probable space group: C 2/M
;
_chemical_formula_sum "Si O2"
_cell_formula_units_Z 56
_cell_length_a 28.835024
_cell_length_b 8.737161
_cell_length_c 17.646609
_cell_angle_alpha 90.000000
_cell_angle_beta 136.686409
_cell_angle_gamma 90.000000
_cell_volume 3049.792667
_symmetry_space_group_name_H-M "C 2/M"
_symmetry_group_IT_number 12
_symmetry_cell_setting 'monoclinic'
loop_
_space_group_symop_operation_xyz
x,y,z
-x,y,-z
-x,-y,-z
x,-y,z
1/2+x,1/2+y,z
1/2-x,1/2+y,-z
1/2-x,1/2-y,-z
1/2+x,1/2-y,z
loop_
_atom_site_type_symbol
_atom_site_label
_atom_site_fract_x
_atom_site_fract_y
_atom_site_fract_z
Si Si1 0.193154 0.679683 0.074651
Si Si2 0.359558 0.178683 0.408966
Si Si3 0.318488 0.821832 0.611177
Si Si4 0.720250 0.177662 0.271507
Si Si5 0.345236 0.680300 0.235123
Si Si6 0.587260 0.817774 0.829388
Si Si7 0.436945 0.180662 0.648711
O O1 0.190695 0.500000 0.060135
O O2 0.179360 0.722921 0.146373
O O3 0.267462 0.738474 0.138758
O O4 0.135737 0.753070 0.952553
O O5 0.287020 0.220250 0.358177
O O6 0.375781 0.275052 0.353022
O O7 0.415554 0.223183 0.537809
O O8 0.361240 0.000000 0.391083
O O9 0.250000 0.750000 0.500000
O O10 0.326587 0.792051 0.711036
O O11 0.383543 0.749379 0.645918
O O12 0.313861 0.000000 0.587060
O O13 0.742868 0.000000 0.293122
O O14 0.350920 0.500000 0.230071
O O15 0.387341 0.766133 0.221895
O O16 0.511705 0.752429 0.753161
O O17 0.586827 0.000000 0.830761
O O18 0.438118 0.000000 0.660675
#
# Coordination Sequence:
#
# PCOD8082210 Si02
#       7
#     8   8   8   8   8   8   8
#     4   8  16  31  51  73  97 126 163 203 244 288
#     4  10  18  31  50  73 100 129 164 200 243 295
#     4  10  18  31  51  75 102 130 162 200 242 287
#     4   9  17  30  50  76 102 126 158 206 249 281
#     4  10  20  34  51  74 100 124 163 211 249 287
#     4  10  19  34  52  69  96 135 169 199 241 293
#     4   9  19  32  48  73 103 130 163 203 240 289
#
# _framework density 18.361903999999999
#
# number of rings (size 3 to 8) (size 9 to 14) (size 15 to 20)
#    0.000    2.571    1.429    2.143    0.000    0.571 
#    0.000    8.571    0.000    4.286    0.000    0.000 
#    0.000    6.857    0.000    0.000    0.000    0.000 
#
# Total GULP energy -347098.473953 kJ/mol
# GULP energy per Si atom -12396.374070 kJ/mol
# Density = 1.832011 g / cm^3
# Si number density = 18.361904 Si / 1000 Ang^3
#
#
#
# Elastic Constant Matrix: (Units=GPa)
#
#
# Indices 1 2 3 4 5 6 
#
# 1 144.4098 11.4437 81.9138 0.0000 0.6206 0.0000
# 2 11.4437 17.2094 16.8145 0.0000 0.3656 0.0000
# 3 81.9138 16.8145 109.3193 0.0000 6.6310 0.0000
# 4 0.0000 0.0000 0.0000 17.9085 0.0000 -1.4213
# 5 0.6206 0.3656 6.6310 0.0000 22.8780 0.0000
# 6 0.0000 0.0000 0.0000 -1.4213 0.0000 21.5795
#
#
#
# Elastic Compliance Matrix: (Units=1/GPa)
#
#
# Indices 1 2 3 4 5 6 
#
# 1 0.012184 0.001070 -0.009439 0.000000 0.002388 0.000000
# 2 0.001070 0.068568 -0.011482 0.000000 0.002203 0.000000
# 3 -0.009439 -0.011482 0.018281 0.000000 -0.004859 0.000000
# 4 0.000000 0.000000 0.000000 0.056133 0.000000 0.003697
# 5 0.002388 0.002203 -0.004859 0.000000 0.045018 0.000000
# 6 0.000000 0.000000 0.000000 0.003697 0.000000 0.046584
#
#
# Mechanical properties :
#
#
# Convention : Reuss Voigt Hill
#
# Bulk Modulus (GPa) = 16.85461 54.58698 35.72080
# Shear Modulus (GPa) = 16.32677 23.19097 19.75887
#
# Velocity S-wave (km/s) = 2.98512 3.55772 3.28392
# Velocity P-wave (km/s) = 4.59133 6.83150 5.82021
#
# Compressibility (1/GPa) = 0.05933094
#
# Stress axis : x y z
#
# Youngs Moduli (GPa) = 82.07746 14.58407 54.70249
#
# Poissons Ratio (x) = -0.01560 0.51632
# Poissons Ratio (y) = -0.08779 0.62807
# Poissons Ratio (z) = 0.77470 0.16745
#
# Static dielectric constant tensor:
#      x y z
#    x 3.593020 0.000000 -0.077020 
#    y 0.000000 3.106040 0.000000 
#    z -0.077020 0.000000 3.711170 
# 
# 
# High freq. dielectric constant tensor:
#      x y z
#    x 1.712050 0.000000 -0.015790 
#    y 0.000000 1.682190 0.000000 
#    z -0.015790 0.000000 1.709450 
# 
# From -- ./inp_files/288397.got.cif
#   From: 2010.06.25/outbox.cif.g09.slc.cpg/sg12_145_cif.got.tgz:288397.got - 2010.06.28 00:19:55.
