data_PCOD8082359
_publ_section_title
;
Structure prediction by ZEFSAII (Michael W. Deem and Ramdas Pophale) SiO2 
 PCOD8082359
Probable space group: C 2/M
;
_chemical_formula_sum "Si O2"
_cell_formula_units_Z 48
_cell_length_a 19.321323
_cell_length_b 14.227304
_cell_length_c 24.112333
_cell_angle_alpha 90.000000
_cell_angle_beta 156.166530
_cell_angle_gamma 90.000000
_cell_volume 2678.340267
_symmetry_space_group_name_H-M "C 2/M"
_symmetry_group_IT_number 12
_symmetry_cell_setting 'monoclinic'
loop_
_space_group_symop_operation_xyz
x,y,z
-x,y,-z
-x,-y,-z
x,-y,z
1/2+x,1/2+y,z
1/2-x,1/2+y,-z
1/2-x,1/2-y,-z
1/2+x,1/2-y,z
loop_
_atom_site_type_symbol
_atom_site_label
_atom_site_fract_x
_atom_site_fract_y
_atom_site_fract_z
Si Si1 0.617134 0.729128 0.950342
Si Si2 0.667431 0.608600 0.090177
Si Si3 0.246921 0.697653 0.649952
Si Si4 0.515472 0.893856 0.073804
Si Si5 0.933120 0.390999 0.377605
Si Si6 0.197738 0.100023 0.636026
O O1 0.449445 0.676519 0.801282
O O2 0.584192 0.828299 0.956093
O O3 0.750000 0.750000 0.000000
O O4 0.697305 0.659174 0.053917
O O5 0.636158 0.500000 0.054580
O O6 0.841409 0.625843 0.252033
O O7 0.500000 0.648274 0.000000
O O8 0.163310 0.673562 0.648210
O O9 0.237967 0.808873 0.628510
O O10 0.135037 0.639959 0.522324
O O11 0.713247 0.891237 0.238124
O O12 0.439544 0.000000 0.020695
O O13 0.500000 0.854156 0.000000
O O14 0.920003 0.500000 0.385904
O O15 0.000000 0.094828 0.500000
O O16 0.259081 0.000000 0.653255
#
# Coordination Sequence:
#
# PCOD8082359 Si02
#       6
#     8   8   8   8   8   8
#     4  11  23  35  52  80 114 150 180 216 272 338
#     4  10  20  35  57  83 109 141 185 236 279 320
#     4  10  18  31  51  77 111 140 174 227 275 323
#     4   9  19  34  53  74 100 134 176 224 263 303
#     4  10  19  32  54  84 109 135 181 236 281 318
#     4   9  16  26  44  73 100 126 163 209 263 308
#
# _framework density 17.921545999999999
#
# number of rings (size 3 to 8) (size 9 to 14) (size 15 to 20)
#    0.000    2.167    3.333    1.500    2.333    1.333 
#    0.000    0.833    0.000    0.000    0.000    9.333 
#    0.000    0.000    0.000    0.000    0.000    0.000 
#
# Total GULP energy -297332.532035 kJ/mol
# GULP energy per Si atom -12388.855501 kJ/mol
# Density = 1.788076 g / cm^3
# Si number density = 17.921546 Si / 1000 Ang^3
#
#
#
# Elastic Constant Matrix: (Units=GPa)
#
#
# Indices 1 2 3 4 5 6 
#
# 1 93.9639 32.6019 54.8623 0.0100 -1.8602 -0.0013
# 2 32.6019 97.0070 47.9404 -0.0611 -6.9248 0.0151
# 3 54.8623 47.9404 146.6028 -0.0804 -3.0436 0.0309
# 4 0.0100 -0.0611 -0.0804 31.3022 0.0146 -5.9747
# 5 -1.8602 -6.9248 -3.0436 0.0146 16.6068 0.0060
# 6 -0.0013 0.0151 0.0309 -5.9747 0.0060 10.9634
#
#
#
# Elastic Compliance Matrix: (Units=1/GPa)
#
#
# Indices 1 2 3 4 5 6 
#
# 1 0.014128 -0.002569 -0.004453 -0.000019 -0.000305 0.000007
# 2 -0.002569 0.013093 -0.003225 0.000015 0.004581 -0.000003
# 3 -0.004453 -0.003225 0.009540 0.000017 -0.000095 -0.000014
# 4 -0.000019 0.000015 0.000017 0.035656 -0.000031 0.019431
# 5 -0.000305 0.004581 -0.000095 -0.000031 0.062075 -0.000057
# 6 0.000007 -0.000003 -0.000014 0.019431 -0.000057 0.101802
#
#
# Mechanical properties :
#
#
# Convention : Reuss Voigt Hill
#
# Bulk Modulus (GPa) = 61.47648 67.59812 64.53730
# Shear Modulus (GPa) = 19.06872 25.25240 22.16056
#
# Velocity S-wave (km/s) = 3.26546 3.75781 3.52025
# Velocity P-wave (km/s) = 6.97102 7.52522 7.25342
#
# Compressibility (1/GPa) = 0.01626638
#
# Stress axis : x y z
#
# Youngs Moduli (GPa) = 70.78248 76.37859 104.81898
#
# Poissons Ratio (x) = 0.19622 0.46678
# Poissons Ratio (y) = 0.18184 0.33803
# Poissons Ratio (z) = 0.31521 0.24631
#
# Static dielectric constant tensor:
#      x y z
#    x 2.656260 0.000030 -0.053280 
#    y 0.000030 3.945960 -0.000080 
#    z -0.053280 -0.000080 3.789820 
# 
# 
# High freq. dielectric constant tensor:
#      x y z
#    x 1.613370 0.000000 -0.005900 
#    y 0.000000 1.716810 0.000000 
#    z -0.005900 0.000000 1.717650 
# 
# From -- ./inp_files/316355.got.cif
#   From: 2010.06.25/outbox.cif.g09.slc.cpg/sg12_159_cif.got.tgz:316355.got - 2010.06.28 00:19:55.
