data_PCOD8082164
_publ_section_title
;
Structure prediction by ZEFSAII (Michael W. Deem and Ramdas Pophale) SiO2 
 PCOD8082164
Probable space group: C 2/M
;
_chemical_formula_sum "Si O2"
_cell_formula_units_Z 56
_cell_length_a 9.611992
_cell_length_b 22.266603
_cell_length_c 18.013620
_cell_angle_alpha 90.000000
_cell_angle_beta 124.955591
_cell_angle_gamma 90.000000
_cell_volume 3159.863983
_symmetry_space_group_name_H-M "C 2/M"
_symmetry_group_IT_number 12
_symmetry_cell_setting 'monoclinic'
loop_
_space_group_symop_operation_xyz
x,y,z
-x,y,-z
-x,-y,-z
x,-y,z
1/2+x,1/2+y,z
1/2-x,1/2+y,-z
1/2-x,1/2-y,-z
1/2+x,1/2-y,z
loop_
_atom_site_type_symbol
_atom_site_label
_atom_site_fract_x
_atom_site_fract_y
_atom_site_fract_z
Si Si1 0.946419 0.255074 0.062839
Si Si2 0.712416 0.931170 0.846673
Si Si3 0.645191 0.571491 0.489744
Si Si4 0.882793 0.386174 0.027871
Si Si5 0.502524 0.363776 0.859612
Si Si6 0.850721 0.929838 0.676430
Si Si7 0.506588 0.930192 0.645879
O O1 0.986123 0.325791 0.085632
O O2 0.027004 0.209133 0.148351
O O3 0.750000 0.250000 0.000000
O O4 0.000000 0.229884 0.000000
O O5 0.636614 0.927506 0.905953
O O6 0.572576 0.906071 0.745687
O O7 0.885630 0.894115 0.887501
O O8 0.755881 0.000000 0.841163
O O9 0.500000 0.597118 0.500000
O O10 0.652107 0.500000 0.496066
O O11 0.602503 0.590576 0.392378
O O12 0.827185 0.600189 0.568975
O O13 0.698203 0.375324 0.937395
O O14 0.000000 0.417311 0.000000
O O15 0.461837 0.389794 0.766207
O O16 0.650297 0.917669 0.627784
O O17 0.892475 0.000000 0.703347
O O18 0.469508 0.000000 0.641329
#
# Coordination Sequence:
#
# PCOD8082164 Si02
#       7
#     8   8   8   8   8   8   8
#     4   9  17  31  49  67  89 121 163 205 238 273
#     4  10  20  33  50  72  98 132 169 201 242 295
#     4   9  16  26  42  64  92 127 159 188 230 286
#     4  10  21  33  46  68  98 130 161 199 247 292
#     4  10  18  31  50  69  92 125 165 208 242 281
#     4   9  17  28  44  67  92 120 157 199 243 287
#     4   8  15  28  44  63  90 123 160 197 230 275
#
# _framework density 17.722282
#
# number of rings (size 3 to 8) (size 9 to 14) (size 15 to 20)
#    0.000    2.714    0.000    3.857    0.000    4.857 
#    0.000    1.429    0.000    0.000    0.000    1.000 
#    0.000    4.571    0.000    2.000    0.000    0.000 
#
# Total GULP energy -346901.344974 kJ/mol
# GULP energy per Si atom -12389.333749 kJ/mol
# Density = 1.768195 g / cm^3
# Si number density = 17.722282 Si / 1000 Ang^3
#
#
#
# Elastic Constant Matrix: (Units=GPa)
#
#
# Indices 1 2 3 4 5 6 
#
# 1 131.6128 21.4967 59.3754 0.0000 -16.3622 0.0000
# 2 21.4967 49.7789 34.2572 0.0000 5.0630 0.0000
# 3 59.3754 34.2572 98.2641 0.0000 -6.8030 0.0000
# 4 0.0000 0.0000 0.0000 9.3141 0.0000 3.4875
# 5 -16.3622 5.0630 -6.8030 0.0000 25.2422 0.0000
# 6 0.0000 0.0000 0.0000 3.4875 0.0000 15.9814
#
#
#
# Elastic Compliance Matrix: (Units=1/GPa)
#
#
# Indices 1 2 3 4 5 6 
#
# 1 0.011222 -0.001410 -0.005875 0.000000 0.005973 0.000000
# 2 -0.001410 0.028263 -0.009637 0.000000 -0.009180 0.000000
# 3 -0.005875 -0.009637 0.017279 0.000000 0.002781 0.000000
# 4 0.000000 0.000000 0.000000 0.116918 0.000000 -0.025514
# 5 0.005973 -0.009180 0.002781 0.000000 0.046079 0.000000
# 6 0.000000 0.000000 0.000000 -0.025514 0.000000 0.068141
#
#
# Mechanical properties :
#
#
# Convention : Reuss Voigt Hill
#
# Bulk Modulus (GPa) = 43.63132 56.65714 50.14423
# Shear Modulus (GPa) = 15.17974 21.07596 18.12785
#
# Velocity S-wave (km/s) = 2.92984 3.45227 3.20173
# Velocity P-wave (km/s) = 6.00984 6.92313 6.48259
#
# Compressibility (1/GPa) = 0.02291932
#
# Stress axis : x y z
#
# Youngs Moduli (GPa) = 89.11389 35.38142 57.87365
#
# Poissons Ratio (x) = 0.04989 0.34003
# Poissons Ratio (y) = 0.12566 0.55772
# Poissons Ratio (z) = 0.52358 0.34096
#
# Static dielectric constant tensor:
#      x y z
#    x 3.545340 0.000000 -0.022150 
#    y 0.000000 5.982690 0.000000 
#    z -0.022150 0.000000 3.307900 
# 
# 
# High freq. dielectric constant tensor:
#      x y z
#    x 1.699290 0.000000 -0.003200 
#    y 0.000000 1.639920 0.000000 
#    z -0.003200 0.000000 1.671620 
# 
# From -- ./inp_files/259232.got.cif
#   From: 2010.06.25/outbox.cif.g09.slc.cpg/sg12_130_cif.got.tgz:259232.got - 2010.06.28 00:19:55.
