data_PCOD8082792
_publ_section_title
;
Structure prediction by ZEFSAII (Michael W. Deem and Ramdas Pophale) SiO2 
 PCOD8082792
Probable space group: C 2/M
;
_chemical_formula_sum "Si O2"
_cell_formula_units_Z 56
_cell_length_a 30.018367
_cell_length_b 8.602094
_cell_length_c 12.530964
_cell_angle_alpha 90.000000
_cell_angle_beta 127.577873
_cell_angle_gamma 90.000000
_cell_volume 2564.418010
_symmetry_space_group_name_H-M "C 2/M"
_symmetry_group_IT_number 12
_symmetry_cell_setting 'monoclinic'
loop_
_space_group_symop_operation_xyz
x,y,z
-x,y,-z
-x,-y,-z
x,-y,z
1/2+x,1/2+y,z
1/2-x,1/2+y,-z
1/2-x,1/2-y,-z
1/2+x,1/2-y,z
loop_
_atom_site_type_symbol
_atom_site_label
_atom_site_fract_x
_atom_site_fract_y
_atom_site_fract_z
Si Si1 0.884970 0.683578 0.167157
Si Si2 0.002910 0.677859 0.279408
Si Si3 0.953104 0.832397 0.012399
Si Si4 0.800106 0.819433 0.880151
Si Si5 0.371079 0.184110 0.541911
Si Si6 0.684163 0.318918 0.742814
Si Si7 0.348290 0.680659 0.731549
O O1 0.882281 0.500000 0.143795
O O2 0.951111 0.736139 0.279526
O O3 0.853236 0.726075 0.228095
O O4 0.857980 0.766118 0.023018
O O5 0.014875 0.500000 0.319050
O O6 0.977422 0.702860 0.125782
O O7 0.065088 0.755294 0.378873
O O8 0.934820 0.000000 0.040122
O O9 0.902774 0.757403 0.872544
O O10 0.000000 0.880495 0.000000
O O11 0.749401 0.721483 0.856917
O O12 0.799985 0.792478 0.750878
O O13 0.790342 0.000000 0.891435
O O14 0.332701 0.268442 0.399900
O O15 0.342693 0.220660 0.615268
O O16 0.369285 0.000000 0.521852
O O17 0.674657 0.500000 0.747270
O O18 0.352849 0.500000 0.706212
#
# Coordination Sequence:
#
# PCOD8082792 Si02
#       7
#     8   8   8   8   8   8   8
#     4  11  23  42  67  95 126 160 204 257 311 365
#     4  10  22  37  60  93 127 162 201 249 305 365
#     4  10  18  31  55  88 126 163 199 247 303 358
#     4  11  23  42  68  96 125 160 206 258 310 363
#     4  11  24  42  63  91 128 169 208 249 303 369
#     4  12  27  46  65  87 120 164 213 261 311 368
#     4  10  21  37  61  94 128 163 203 250 305 366
#
# _framework density 21.837313999999999
#
# number of rings (size 3 to 8) (size 9 to 14) (size 15 to 20)
#    0.000    1.286    2.857    3.000    0.000    4.286 
#    0.000    2.857    0.000    0.000    0.000    0.000 
#    0.000    0.000    0.000    0.000    0.000    0.000 
#
# Total GULP energy -346950.366859 kJ/mol
# GULP energy per Si atom -12391.084531 kJ/mol
# Density = 2.178761 g / cm^3
# Si number density = 21.837314 Si / 1000 Ang^3
#
#
#
# Elastic Constant Matrix: (Units=GPa)
#
#
# Indices 1 2 3 4 5 6 
#
# 1 85.7610 25.3258 4.0700 0.0000 -11.5849 0.0000
# 2 25.3258 56.2043 12.8689 0.0000 1.4351 0.0000
# 3 4.0700 12.8689 58.2591 0.0000 -7.3886 0.0000
# 4 0.0000 0.0000 0.0000 35.1173 0.0000 -4.3746
# 5 -11.5849 1.4351 -7.3886 0.0000 28.3443 0.0000
# 6 0.0000 0.0000 0.0000 -4.3746 0.0000 30.8984
#
#
#
# Elastic Compliance Matrix: (Units=1/GPa)
#
#
# Indices 1 2 3 4 5 6 
#
# 1 0.014581 -0.007059 0.001388 0.000000 0.006679 0.000000
# 2 -0.007059 0.022278 -0.005106 0.000000 -0.005344 0.000000
# 3 0.001388 -0.005106 0.018926 0.000000 0.005759 0.000000
# 4 0.000000 0.000000 0.000000 0.028987 0.000000 0.004104
# 5 0.006679 -0.005344 0.005759 0.000000 0.039782 0.000000
# 6 0.000000 0.000000 0.000000 0.004104 0.000000 0.032945
#
#
# Mechanical properties :
#
#
# Convention : Reuss Voigt Hill
#
# Bulk Modulus (GPa) = 29.21243 31.63932 30.42588
# Shear Modulus (GPa) = 26.25171 29.40264 27.82717
#
# Velocity S-wave (km/s) = 3.47096 3.67337 3.57360
# Velocity P-wave (km/s) = 5.42861 5.70190 5.56693
#
# Compressibility (1/GPa) = 0.03423200
#
# Stress axis : x y z
#
# Youngs Moduli (GPa) = 68.58209 44.88669 52.83749
#
# Poissons Ratio (x) = 0.31683 -0.07331
# Poissons Ratio (y) = 0.48409 0.26977
# Poissons Ratio (z) = -0.09516 0.22918
#
# Static dielectric constant tensor:
#      x y z
#    x 4.310590 0.000000 0.099820 
#    y 0.000000 3.755680 0.000000 
#    z 0.099820 0.000000 3.758720 
# 
# 
# High freq. dielectric constant tensor:
#      x y z
#    x 1.880490 0.000000 0.003540 
#    y 0.000000 1.848160 0.000000 
#    z 0.003540 0.000000 1.841620 
# 
# From -- ./inp_files/187696.got.cif
#   From: 2010.06.25/outbox.cif.g09.slc.cpg/sg12_94_cif.got.tgz:187696.got - 2010.06.28 00:19:55.
