data_PCOD8082082
_publ_section_title
;
Structure prediction by ZEFSAII (Michael W. Deem and Ramdas Pophale) SiO2 
 PCOD8082082
Probable space group: C 2/M
;
_chemical_formula_sum "Si O2"
_cell_formula_units_Z 64
_cell_length_a 28.709945
_cell_length_b 9.117444
_cell_length_c 14.198740
_cell_angle_alpha 90.000000
_cell_angle_beta 72.414283
_cell_angle_gamma 90.000000
_cell_volume 3542.985555
_symmetry_space_group_name_H-M "C 2/M"
_symmetry_group_IT_number 12
_symmetry_cell_setting 'monoclinic'
loop_
_space_group_symop_operation_xyz
x,y,z
-x,y,-z
-x,-y,-z
x,-y,z
1/2+x,1/2+y,z
1/2-x,1/2+y,-z
1/2-x,1/2-y,-z
1/2+x,1/2-y,z
loop_
_atom_site_type_symbol
_atom_site_label
_atom_site_fract_x
_atom_site_fract_y
_atom_site_fract_z
Si Si1 0.481209 0.164583 0.304177
Si Si2 0.895776 0.336838 0.220886
Si Si3 0.312781 0.328616 0.379045
Si Si4 0.446354 0.335497 0.492083
Si Si5 0.131429 0.826838 0.314797
Si Si6 0.446152 0.172466 0.003689
Si Si7 0.927157 0.826575 0.822385
Si Si8 0.715525 0.328050 0.395062
O O1 0.450699 0.161023 0.227028
O O2 0.444496 0.226639 0.405108
O O3 0.526232 0.274306 0.265489
O O4 0.499216 0.000000 0.318748
O O5 0.872713 0.500000 0.241690
O O6 0.861434 0.225931 0.297815
O O7 0.904917 0.290575 0.107057
O O8 0.308853 0.500000 0.364979
O O9 0.313378 0.289796 0.490151
O O10 0.266296 0.256093 0.357459
O O11 0.500000 0.340993 0.500000
O O12 0.429538 0.500000 0.471755
O O13 0.410786 0.264467 0.591406
O O14 0.120514 0.782306 0.212570
O O15 0.183677 0.774410 0.324142
O O16 0.128277 0.000000 0.324667
O O17 0.449989 0.000000 0.981201
O O18 0.500000 0.232718 0.000000
O O19 0.425044 0.248738 0.923682
O O20 0.930614 0.000000 0.835061
O O21 0.726752 0.500000 0.383922
#
# Coordination Sequence:
#
# PCOD8082082 Si02
#       8
#     8   8   8   8   8   8   8   8
#     4  11  21  33  48  72 105 141 179 216 258 312
#     4  10  21  36  55  75 104 143 176 214 270 326
#     4  10  20  34  56  85 110 132 173 227 266 309
#     4  10  18  31  48  69 103 142 175 212 255 307
#     4   9  18  33  52  74 104 144 180 211 259 319
#     4  10  20  38  56  74 105 143 180 221 269 321
#     4  11  21  34  52  76 104 138 181 222 260 307
#     4   9  18  35  57  78 108 146 176 207 262 326
#
# _framework density 18.063860999999999
#
# number of rings (size 3 to 8) (size 9 to 14) (size 15 to 20)
#    0.000    2.000    2.500    1.875    0.000    3.500 
#    0.000    1.875    0.000    0.750    0.000    0.000 
#    0.000    0.000    0.000    0.000    0.000    0.000 
#
# Total GULP energy -396674.366391 kJ/mol
# GULP energy per Si atom -12396.073950 kJ/mol
# Density = 1.802275 g / cm^3
# Si number density = 18.063861 Si / 1000 Ang^3
#
#
#
# Elastic Constant Matrix: (Units=GPa)
#
#
# Indices 1 2 3 4 5 6 
#
# 1 95.6023 31.4837 39.1915 0.0000 18.1734 0.0000
# 2 31.4837 60.3134 35.2423 0.0000 7.5999 0.0000
# 3 39.1915 35.2423 82.2928 0.0000 20.3996 0.0000
# 4 0.0000 0.0000 0.0000 25.9252 0.0000 -0.7289
# 5 18.1734 7.5999 20.3996 0.0000 29.7451 0.0000
# 6 0.0000 0.0000 0.0000 -0.7289 0.0000 22.7122
#
#
#
# Elastic Compliance Matrix: (Units=1/GPa)
#
#
# Indices 1 2 3 4 5 6 
#
# 1 0.014493 -0.004842 -0.003543 0.000000 -0.005188 0.000000
# 2 -0.004842 0.023757 -0.008550 0.000000 0.002752 0.000000
# 3 -0.003543 -0.008550 0.019786 0.000000 -0.009221 0.000000
# 4 0.000000 0.000000 0.000000 0.038607 0.000000 0.001239
# 5 -0.005188 0.002752 -0.009221 0.000000 0.042409 0.000000
# 6 0.000000 0.000000 0.000000 0.001239 0.000000 0.044069
#
#
# Mechanical properties :
#
#
# Convention : Reuss Voigt Hill
#
# Bulk Modulus (GPa) = 41.37912 50.00484 45.69198
# Shear Modulus (GPa) = 22.21760 24.49588 23.35674
#
# Velocity S-wave (km/s) = 3.51087 3.68648 3.59975
# Velocity P-wave (km/s) = 6.27629 6.77219 6.52895
#
# Compressibility (1/GPa) = 0.02416678
#
# Stress axis : x y z
#
# Youngs Moduli (GPa) = 68.99906 42.09328 50.53971
#
# Poissons Ratio (x) = 0.20380 0.17905
# Poissons Ratio (y) = 0.33406 0.43214
# Poissons Ratio (z) = 0.24444 0.35992
#
# Static dielectric constant tensor:
#      x y z
#    x 3.336680 0.000000 0.212580 
#    y 0.000000 3.252620 0.000000 
#    z 0.212580 0.000000 3.347890 
# 
# 
# High freq. dielectric constant tensor:
#      x y z
#    x 1.687980 0.000000 0.014670 
#    y 0.000000 1.689340 0.000000 
#    z 0.014670 0.000000 1.689800 
# 
# From -- ./inp_files/243756.got.cif
#   From: 2010.06.25/outbox.cif.g09.slc.cpg/sg12_122_cif.got.tgz:243756.got - 2010.06.28 00:19:55.
