data_PCOD8082404
_publ_section_title
;
Structure prediction by ZEFSAII (Michael W. Deem and Ramdas Pophale) SiO2 
 PCOD8082404
Probable space group: C 2/M
;
_chemical_formula_sum "Si O2"
_cell_formula_units_Z 64
_cell_length_a 25.000852
_cell_length_b 9.089374
_cell_length_c 19.132054
_cell_angle_alpha 90.000000
_cell_angle_beta 63.730089
_cell_angle_gamma 90.000000
_cell_volume 3898.582654
_symmetry_space_group_name_H-M "C 2/M"
_symmetry_group_IT_number 12
_symmetry_cell_setting 'monoclinic'
loop_
_space_group_symop_operation_xyz
x,y,z
-x,y,-z
-x,-y,-z
x,-y,z
1/2+x,1/2+y,z
1/2-x,1/2+y,-z
1/2-x,1/2-y,-z
1/2+x,1/2-y,z
loop_
_atom_site_type_symbol
_atom_site_label
_atom_site_fract_x
_atom_site_fract_y
_atom_site_fract_z
Si Si1 0.199218 0.670445 0.072210
Si Si2 0.759802 0.828340 0.177197
Si Si3 0.690788 0.826834 0.506819
Si Si4 0.044797 0.171808 0.824988
Si Si5 0.424772 0.169797 0.917031
Si Si6 0.383038 0.170357 0.095315
Si Si7 0.864003 0.171099 0.344888
Si Si8 0.745815 0.172122 0.338166
O O1 0.203708 0.500000 0.049697
O O2 0.208590 0.698887 0.149337
O O3 0.134380 0.729555 0.087588
O O4 0.250000 0.750000 0.000000
O O5 0.818396 0.740061 0.121632
O O6 0.734615 0.767611 0.266231
O O7 0.777193 0.000000 0.170821
O O8 0.750000 0.750000 0.500000
O O9 0.634700 0.756920 0.581009
O O10 0.690457 0.792930 0.422995
O O11 0.693272 0.000000 0.519596
O O12 0.081167 0.251290 0.864401
O O13 0.075608 0.201863 0.732321
O O14 0.978432 0.232731 0.857159
O O15 0.043968 0.000000 0.843278
O O16 0.436908 0.000000 0.891107
O O17 0.419891 0.190504 0.002872
O O18 0.375557 0.000000 0.118854
O O19 0.808513 0.234700 0.331547
O O20 0.855472 0.000000 0.366621
O O21 0.754819 0.000000 0.326967
#
# Coordination Sequence:
#
# PCOD8082404 Si02
#       8
#     8   8   8   8   8   8   8   8
#     4  10  20  34  53  72  95 127 164 204 245 287
#     4  10  18  31  52  73  95 130 167 197 236 287
#     4   9  16  26  42  65  95 127 155 188 232 285
#     4  11  22  35  51  71  95 128 170 205 236 291
#     4  10  22  37  48  68 100 129 161 206 251 284
#     4  11  21  33  49  70 101 131 157 201 249 288
#     4   9  17  30  45  65  95 124 155 197 237 280
#     4   8  14  27  44  66  96 122 151 195 233 272
#
# _framework density 16.416222999999999
#
# number of rings (size 3 to 8) (size 9 to 14) (size 15 to 20)
#    0.000    2.250    2.500    2.250    0.000    4.000 
#    0.000    0.625    0.000    0.000    0.000    0.875 
#    0.000    7.000    0.000    0.000    0.000    0.000 
#
# Total GULP energy -396637.468677 kJ/mol
# GULP energy per Si atom -12394.920896 kJ/mol
# Density = 1.637886 g / cm^3
# Si number density = 16.416223 Si / 1000 Ang^3
#
#
#
# Elastic Constant Matrix: (Units=GPa)
#
#
# Indices 1 2 3 4 5 6 
#
# 1 69.9844 34.3698 38.7148 0.0000 -8.1272 0.0001
# 2 34.3698 72.0543 52.9742 -0.0001 -5.5446 -0.0001
# 3 38.7148 52.9742 123.4345 0.0000 -0.8766 0.0000
# 4 0.0000 -0.0001 0.0000 27.8474 0.0000 -4.0344
# 5 -8.1272 -5.5446 -0.8766 0.0000 17.3368 0.0000
# 6 0.0001 -0.0001 0.0000 -4.0344 0.0000 20.5332
#
#
#
# Elastic Compliance Matrix: (Units=1/GPa)
#
#
# Indices 1 2 3 4 5 6 
#
# 1 0.020279 -0.006542 -0.003501 0.000000 0.007237 0.000000
# 2 -0.006542 0.023040 -0.007809 0.000000 0.003907 0.000000
# 3 -0.003501 -0.007809 0.012526 0.000000 -0.003505 0.000000
# 4 0.000000 0.000000 0.000000 0.036962 0.000000 0.007262
# 5 0.007237 0.003907 -0.003505 0.000000 0.062146 0.000000
# 6 0.000000 0.000000 0.000000 0.007262 0.000000 0.050129
#
#
# Mechanical properties :
#
#
# Convention : Reuss Voigt Hill
#
# Bulk Modulus (GPa) = 49.64873 57.51008 53.57940
# Shear Modulus (GPa) = 20.20202 22.43779 21.31991
#
# Velocity S-wave (km/s) = 3.51182 3.70104 3.60767
# Velocity P-wave (km/s) = 6.83763 7.30563 7.07550
#
# Compressibility (1/GPa) = 0.02014150
#
# Stress axis : x y z
#
# Youngs Moduli (GPa) = 49.31178 43.40196 79.83389
#
# Poissons Ratio (x) = 0.28393 0.27954
# Poissons Ratio (y) = 0.32259 0.62339
# Poissons Ratio (z) = 0.17266 0.33891
#
# Static dielectric constant tensor:
#      x y z
#    x 2.983520 0.000000 0.154960 
#    y 0.000000 3.132740 0.000000 
#    z 0.154960 0.000000 3.591540 
# 
# 
# High freq. dielectric constant tensor:
#      x y z
#    x 1.592650 0.000000 0.007090 
#    y 0.000000 1.628930 0.000000 
#    z 0.007090 0.000000 1.642560 
# 
# From -- ./inp_files/320129.got.cif
#   From: 2010.06.25/outbox.cif.g09.slc.cpg/sg12_161_cif.got.tgz:320129.got - 2010.06.28 00:19:55.
