data_PCOD8082597
_publ_section_title
;
Structure prediction by ZEFSAII (Michael W. Deem and Ramdas Pophale) SiO2 
 PCOD8082597
Probable space group: C 2/M
;
_chemical_formula_sum "Si O2"
_cell_formula_units_Z 56
_cell_length_a 28.279268
_cell_length_b 8.919189
_cell_length_c 21.212124
_cell_angle_alpha 90.000000
_cell_angle_beta 148.069781
_cell_angle_gamma 90.000000
_cell_volume 2829.695999
_symmetry_space_group_name_H-M "C 2/M"
_symmetry_group_IT_number 12
_symmetry_cell_setting 'monoclinic'
loop_
_space_group_symop_operation_xyz
x,y,z
-x,y,-z
-x,-y,-z
x,-y,z
1/2+x,1/2+y,z
1/2-x,1/2+y,-z
1/2-x,1/2-y,-z
1/2+x,1/2-y,z
loop_
_atom_site_type_symbol
_atom_site_label
_atom_site_fract_x
_atom_site_fract_y
_atom_site_fract_z
Si Si1 0.577407 0.833504 0.137714
Si Si2 0.480663 0.171829 0.251067
Si Si3 0.756956 0.822465 0.193255
Si Si4 0.432450 0.827606 0.058960
Si Si5 0.684363 0.822355 0.477738
Si Si6 0.245917 0.674964 0.684836
Si Si7 0.320890 0.676990 0.128548
O O1 0.527986 0.762329 0.143515
O O2 0.650304 0.716832 0.197235
O O3 0.619914 0.000000 0.198038
O O4 0.500000 0.847641 0.000000
O O5 0.423067 0.188979 0.122640
O O6 0.581466 0.229324 0.352411
O O7 0.423868 0.272109 0.235024
O O8 0.483492 0.000000 0.278092
O O9 0.800531 0.750624 0.305909
O O10 0.804949 0.773966 0.182958
O O11 0.759329 0.000000 0.203909
O O12 0.655349 0.758502 0.073057
O O13 0.435570 0.000000 0.041755
O O14 0.750000 0.750000 0.500000
O O15 0.707306 0.767178 0.574467
O O16 0.694822 0.000000 0.482287
O O17 0.231039 0.500000 0.674818
O O18 0.311450 0.500000 0.109277
O O19 0.250000 0.750000 0.000000
#
# Coordination Sequence:
#
# PCOD8082597 Si02
#       7
#     8   8   8   8   8   8   8
#     4  10  18  31  53  78 107 149 194 227 276 350
#     4  10  20  38  61  84 115 156 199 246 295 344
#     4  10  20  37  57  81 113 152 193 230 280 353
#     4   9  16  30  53  80 108 143 190 233 275 340
#     4  10  23  42  64  88 118 157 201 245 291 351
#     4  11  23  37  54  84 120 150 189 243 298 344
#     4  11  22  37  60  90 122 154 195 246 297 353
#
# _framework density 19.790113000000002
#
# number of rings (size 3 to 8) (size 9 to 14) (size 15 to 20)
#    0.000    1.857    2.857    1.714    0.000    4.286 
#    0.000    1.429    0.000    4.286    0.000    0.000 
#    0.000    0.000    0.000    0.000    0.000    0.000 
#
# Total GULP energy -346922.719120 kJ/mol
# GULP energy per Si atom -12390.097111 kJ/mol
# Density = 1.974507 g / cm^3
# Si number density = 19.790113 Si / 1000 Ang^3
#
#
#
# Elastic Constant Matrix: (Units=GPa)
#
#
# Indices 1 2 3 4 5 6 
#
# 1 158.6997 46.2573 50.0198 0.0000 -9.6906 0.0000
# 2 46.2573 49.9439 27.7735 0.0000 -5.6314 0.0000
# 3 50.0198 27.7735 82.3734 0.0000 -7.4251 0.0000
# 4 0.0000 0.0000 0.0000 20.5113 0.0000 -1.2853
# 5 -9.6906 -5.6314 -7.4251 0.0000 35.7832 0.0000
# 6 0.0000 0.0000 0.0000 -1.2853 0.0000 34.8117
#
#
#
# Elastic Compliance Matrix: (Units=1/GPa)
#
#
# Indices 1 2 3 4 5 6 
#
# 1 0.009364 -0.006722 -0.003349 0.000000 0.000783 0.000000
# 2 -0.006722 0.029639 -0.005763 0.000000 0.001648 0.000000
# 3 -0.003349 -0.005763 0.016257 0.000000 0.001560 0.000000
# 4 0.000000 0.000000 0.000000 0.048867 0.000000 0.001804
# 5 0.000783 0.001648 0.001560 0.000000 0.028741 0.000000
# 6 0.000000 0.000000 0.000000 0.001804 0.000000 0.028793
#
#
# Mechanical properties :
#
#
# Convention : Reuss Voigt Hill
#
# Bulk Modulus (GPa) = 42.38714 59.90203 51.14459
# Shear Modulus (GPa) = 24.85189 29.35233 27.10211
#
# Velocity S-wave (km/s) = 3.54753 3.85539 3.70466
# Velocity P-wave (km/s) = 6.18424 7.08188 6.64823
#
# Compressibility (1/GPa) = 0.02359206
#
# Stress axis : x y z
#
# Youngs Moduli (GPa) = 106.79300 33.73956 61.51163
#
# Poissons Ratio (x) = 0.22680 0.20601
# Poissons Ratio (y) = 0.71787 0.35448
# Poissons Ratio (z) = 0.35766 0.19443
#
# Static dielectric constant tensor:
#      x y z
#    x 4.160290 0.000000 -0.107330 
#    y 0.000000 3.374460 0.000000 
#    z -0.107330 0.000000 3.552180 
# 
# 
# High freq. dielectric constant tensor:
#      x y z
#    x 1.793090 0.000000 -0.009540 
#    y 0.000000 1.740590 0.000000 
#    z -0.009540 0.000000 1.754170 
# 
# From -- ./inp_files/237877.got.cif
#   From: 2010.06.25/outbox.cif.g09.slc.cpg/sg12_119_cif.got.tgz:237877.got - 2010.06.28 00:19:55.
