data_PCOD8082887
_publ_section_title
;
Structure prediction by ZEFSAII (Michael W. Deem and Ramdas Pophale) SiO2 
 PCOD8082887
Probable space group: C 2/M
;
_chemical_formula_sum "Si O2"
_cell_formula_units_Z 60
_cell_length_a 13.662297
_cell_length_b 9.966640
_cell_length_c 28.811216
_cell_angle_alpha 90.000000
_cell_angle_beta 62.549903
_cell_angle_gamma 90.000000
_cell_volume 3481.446338
_symmetry_space_group_name_H-M "C 2/M"
_symmetry_group_IT_number 12
_symmetry_cell_setting 'monoclinic'
loop_
_space_group_symop_operation_xyz
x,y,z
-x,y,-z
-x,-y,-z
x,-y,z
1/2+x,1/2+y,z
1/2-x,1/2+y,-z
1/2-x,1/2-y,-z
1/2+x,1/2-y,z
loop_
_atom_site_type_symbol
_atom_site_label
_atom_site_fract_x
_atom_site_fract_y
_atom_site_fract_z
Si Si1 0.282886 0.844581 0.724324
Si Si2 0.205957 0.843329 0.640332
Si Si3 0.348456 0.342096 0.159112
Si Si4 0.723668 0.346166 0.926259
Si Si5 0.457839 0.850530 0.907819
Si Si6 0.018425 0.658574 0.641569
Si Si7 0.500000 0.210865 0.000000
Si Si8 0.443625 0.842503 0.557729
O O1 0.210372 0.819546 0.694494
O O2 0.222250 0.783111 0.782427
O O3 0.406038 0.788074 0.690151
O O4 0.297482 0.000000 0.730544
O O5 0.318692 0.792371 0.591709
O O6 0.113613 0.746774 0.641714
O O7 0.182034 0.000000 0.634580
O O8 0.379093 0.500000 0.157858
O O9 0.275978 0.317583 0.128939
O O10 0.459887 0.255809 0.133306
O O11 0.724873 0.500000 0.938032
O O12 0.835840 0.287816 0.924792
O O13 0.611759 0.295810 0.973828
O O14 0.485721 0.873383 0.956123
O O15 0.469331 0.000000 0.882698
O O16 0.037768 0.500000 0.645949
O O17 0.015252 0.690656 0.587457
O O18 0.500000 0.774760 0.500000
O O19 0.437022 0.000000 0.552184
#
# Coordination Sequence:
#
# PCOD8082887 Si02
#       8
#     8   8   8   8   8   8   4   8
#     4   8  16  32  50  66  90 124 157 186 227 284
#     4   9  17  30  48  69  93 122 156 194 234 279
#     4   9  18  34  52  68  89 122 159 191 224 273
#     4   9  18  31  49  71  93 118 154 194 227 265
#     4  10  20  33  48  72 100 122 148 189 237 274
#     4   9  17  30  49  71  93 122 160 197 232 276
#     4  10  18  32  50  68  93 130 157 180 219 280
#     4   8  15  29  47  66  93 130 164 191 229 284
#
# _framework density 17.234216
#
# number of rings (size 3 to 8) (size 9 to 14) (size 15 to 20)
#    0.000    3.067    0.000    2.400    0.000    2.133 
#    0.000    8.667    0.000    0.800    0.000    0.000 
#    0.000    0.000    0.000    0.000    0.000    0.000 
#
# Total GULP energy -371717.515668 kJ/mol
# GULP energy per Si atom -12390.583856 kJ/mol
# Density = 1.719499 g / cm^3
# Si number density = 17.234216 Si / 1000 Ang^3
#
#
#
# Elastic Constant Matrix: (Units=GPa)
#
#
# Indices 1 2 3 4 5 6 
#
# 1 118.9781 44.4503 44.2706 0.0000 -13.2883 0.0000
# 2 44.4503 48.9873 32.6933 0.0000 -4.7656 0.0000
# 3 44.2706 32.6933 121.9330 0.0000 -3.7758 0.0000
# 4 0.0000 0.0000 0.0000 10.5394 0.0000 -2.3483
# 5 -13.2883 -4.7656 -3.7758 0.0000 15.6200 0.0000
# 6 0.0000 0.0000 0.0000 -2.3483 0.0000 33.4049
#
#
#
# Elastic Compliance Matrix: (Units=1/GPa)
#
#
# Indices 1 2 3 4 5 6 
#
# 1 0.014023 -0.010592 -0.001997 0.000000 0.008215 0.000000
# 2 -0.010592 0.033438 -0.005121 0.000000 -0.000047 0.000000
# 3 -0.001997 -0.005121 0.010275 0.000000 -0.000777 0.000000
# 4 0.000000 0.000000 0.000000 0.096392 0.000000 0.006776
# 5 0.008215 -0.000047 -0.000777 0.000000 0.070807 0.000000
# 6 0.000000 0.000000 0.000000 0.006776 0.000000 0.030412
#
#
# Mechanical properties :
#
#
# Convention : Reuss Voigt Hill
#
# Bulk Modulus (GPa) = 44.81221 59.19184 52.00202
# Shear Modulus (GPa) = 16.76694 23.14515 19.95604
#
# Velocity S-wave (km/s) = 3.12250 3.66864 3.40653
# Velocity P-wave (km/s) = 6.24967 7.23639 6.76105
#
# Compressibility (1/GPa) = 0.02231535
#
# Stress axis : x y z
#
# Youngs Moduli (GPa) = 71.31324 29.90626 97.32077
#
# Poissons Ratio (x) = 0.31677 0.19434
# Poissons Ratio (y) = 0.75536 0.49841
# Poissons Ratio (z) = 0.14240 0.15316
#
# Static dielectric constant tensor:
#      x y z
#    x 3.237080 0.000000 -0.049840 
#    y 0.000000 2.860230 0.000000 
#    z -0.049840 0.000000 4.119460 
# 
# 
# High freq. dielectric constant tensor:
#      x y z
#    x 1.669280 0.000000 -0.000200 
#    y 0.000000 1.632290 0.000000 
#    z -0.000200 0.000000 1.671050 
# 
# From -- ./inp_files/373716.got.cif
#   From: 2010.06.25/outbox.cif.g09.slc.cpg/sg12_187_cif.got.tgz:373716.got - 2010.06.28 00:19:55.
