data_PCOD8082596
_publ_section_title
;
Structure prediction by ZEFSAII (Michael W. Deem and Ramdas Pophale) SiO2 
 PCOD8082596
Probable space group: C 2/M
;
_chemical_formula_sum "Si O2"
_cell_formula_units_Z 64
_cell_length_a 28.038956
_cell_length_b 8.802267
_cell_length_c 13.934985
_cell_angle_alpha 90.000000
_cell_angle_beta 106.304166
_cell_angle_gamma 90.000000
_cell_volume 3300.933594
_symmetry_space_group_name_H-M "C 2/M"
_symmetry_group_IT_number 12
_symmetry_cell_setting 'monoclinic'
loop_
_space_group_symop_operation_xyz
x,y,z
-x,y,-z
-x,-y,-z
x,-y,z
1/2+x,1/2+y,z
1/2-x,1/2+y,-z
1/2-x,1/2-y,-z
1/2+x,1/2-y,z
loop_
_atom_site_type_symbol
_atom_site_label
_atom_site_fract_x
_atom_site_fract_y
_atom_site_fract_z
Si Si1 0.715072 0.820361 0.059697
Si Si2 0.249271 0.321001 0.287489
Si Si3 0.924373 0.180006 0.815936
Si Si4 0.027805 0.180646 0.795558
Si Si5 0.391241 0.320374 0.006117
Si Si6 0.044972 0.818678 0.591334
Si Si7 0.334175 0.319295 0.636306
Si Si8 0.148200 0.820439 0.567525
O O1 0.732708 0.760986 0.173913
O O2 0.659646 0.767402 0.007639
O O3 0.718882 0.000000 0.056203
O O4 0.750000 0.750000 0.000000
O O5 0.241652 0.500000 0.292203
O O6 0.217286 0.243086 0.352248
O O7 0.306678 0.274893 0.336631
O O8 0.916535 0.230448 0.920983
O O9 0.879403 0.243982 0.726341
O O10 0.976184 0.248764 0.806851
O O11 0.926014 0.000000 0.808753
O O12 0.037068 0.244321 0.694208
O O13 0.024655 0.000000 0.793025
O O14 0.072728 0.233328 0.888549
O O15 0.380893 0.500000 0.002285
O O16 0.096926 0.752445 0.580367
O O17 0.000000 0.758683 0.500000
O O18 0.045944 0.000000 0.592469
O O19 0.332070 0.500000 0.637239
O O20 0.341855 0.255895 0.533282
O O21 0.142851 0.000000 0.557627
#
# Coordination Sequence:
#
# PCOD8082596 Si02
#       8
#     8   8   8   8   8   8   8   8
#     4  11  24  39  57  78 107 142 178 218 265 319
#     4  10  21  36  53  75 105 138 174 214 260 316
#     4   9  16  28  47  76 109 138 171 215 264 309
#     4   9  17  27  47  76 107 142 176 215 265 317
#     4  10  19  33  54  79 108 139 176 220 266 316
#     4   9  16  27  44  71 106 138 170 210 262 317
#     4  10  18  31  53  78 107 138 173 218 264 309
#     4   9  18  30  47  73 106 139 170 213 263 311
#
# _framework density 19.388453999999999
#
# number of rings (size 3 to 8) (size 9 to 14) (size 15 to 20)
#    0.000    2.375    1.250    1.875    1.750    5.000 
#    0.000    0.000    0.000    2.250    0.000    0.000 
#    0.000    2.500    0.000    0.000    0.000    0.000 
#
# Total GULP energy -396825.941991 kJ/mol
# GULP energy per Si atom -12400.810687 kJ/mol
# Density = 1.934433 g / cm^3
# Si number density = 19.388454 Si / 1000 Ang^3
#
#
#
# Elastic Constant Matrix: (Units=GPa)
#
#
# Indices 1 2 3 4 5 6 
#
# 1 186.0881 19.9540 84.0346 0.0000 -5.1272 0.0000
# 2 19.9540 16.5408 13.7627 0.0000 -1.5069 0.0000
# 3 84.0346 13.7627 142.4759 0.0000 -0.6119 0.0000
# 4 0.0000 0.0000 0.0000 10.7689 0.0000 0.4978
# 5 -5.1272 -1.5069 -0.6119 0.0000 43.2283 0.0000
# 6 0.0000 0.0000 0.0000 0.4978 0.0000 23.8098
#
#
#
# Elastic Compliance Matrix: (Units=1/GPa)
#
#
# Indices 1 2 3 4 5 6 
#
# 1 0.007874 -0.006064 -0.004055 0.000000 0.000665 0.000000
# 2 -0.006064 0.070620 -0.003238 0.000000 0.001697 0.000000
# 3 -0.004055 -0.003238 0.009722 0.000000 -0.000456 0.000000
# 4 0.000000 0.000000 0.000000 0.092949 0.000000 -0.001943
# 5 0.000665 0.001697 -0.000456 0.000000 0.023265 0.000000
# 6 0.000000 0.000000 0.000000 -0.001943 0.000000 0.042040
#
#
# Mechanical properties :
#
#
# Convention : Reuss Voigt Hill
#
# Bulk Modulus (GPa) = 16.25982 64.51193 40.38587
# Shear Modulus (GPa) = 17.02511 30.71831 23.87171
#
# Velocity S-wave (km/s) = 2.96650 3.98472 3.51270
# Velocity P-wave (km/s) = 4.48754 7.38351 6.10960
#
# Compressibility (1/GPa) = 0.06150131
#
# Stress axis : x y z
#
# Youngs Moduli (GPa) = 127.00527 14.16028 102.86448
#
# Poissons Ratio (x) = 0.08586 0.41716
# Poissons Ratio (y) = 0.77010 0.33308
# Poissons Ratio (z) = 0.51506 0.04585
#
# Static dielectric constant tensor:
#      x y z
#    x 3.664960 0.000000 -0.006030 
#    y 0.000000 2.924870 0.000000 
#    z -0.006030 0.000000 3.814080 
# 
# 
# High freq. dielectric constant tensor:
#      x y z
#    x 1.772370 0.000000 0.001440 
#    y 0.000000 1.689030 0.000000 
#    z 0.001440 0.000000 1.772310 
# 
# From -- ./inp_files/244116.got.cif
#   From: 2010.06.25/outbox.cif.g09.slc.cpg/sg12_123_cif.got.tgz:244116.got - 2010.06.28 00:19:55.
