data_PCOD8082994
_publ_section_title
;
Structure prediction by ZEFSAII (Michael W. Deem and Ramdas Pophale) SiO2 
 PCOD8082994
Probable space group: C 2/M
;
_chemical_formula_sum "Si O2"
_cell_formula_units_Z 40
_cell_length_a 24.457796
_cell_length_b 8.598770
_cell_length_c 21.583745
_cell_angle_alpha 90.000000
_cell_angle_beta 149.970384
_cell_angle_gamma 90.000000
_cell_volume 2271.637581
_symmetry_space_group_name_H-M "C 2/M"
_symmetry_group_IT_number 12
_symmetry_cell_setting 'monoclinic'
loop_
_space_group_symop_operation_xyz
x,y,z
-x,y,-z
-x,-y,-z
x,-y,z
1/2+x,1/2+y,z
1/2-x,1/2+y,-z
1/2-x,1/2-y,-z
1/2+x,1/2-y,z
loop_
_atom_site_type_symbol
_atom_site_label
_atom_site_fract_x
_atom_site_fract_y
_atom_site_fract_z
Si Si1 0.918502 0.683223 0.162824
Si Si2 0.736837 0.317432 0.079091
Si Si3 0.587227 0.317235 0.505127
Si Si4 0.359442 0.182338 0.318098
Si Si5 0.850869 0.685067 0.561367
O O1 0.919364 0.500000 0.163762
O O2 0.836129 0.748738 0.134415
O O3 0.039772 0.744363 0.296513
O O4 0.877579 0.742409 0.055300
O O5 0.728142 0.500000 0.061672
O O6 0.761264 0.274865 0.174596
O O7 0.564938 0.500000 0.479670
O O8 0.473316 0.225549 0.396914
O O9 0.658151 0.278684 0.636133
O O10 0.654464 0.258367 0.512163
O O11 0.361097 0.000000 0.334819
O O12 0.845861 0.500000 0.551529
O O13 0.750000 0.750000 0.500000
#
# Coordination Sequence:
#
# PCOD8082994 Si02
#       5
#     8   8   8   8   8
#     4   9  18  32  49  73 104 135 169 209 255 306
#     4   9  17  30  50  76 104 135 167 206 258 310
#     4  11  21  32  49  77 105 136 176 214 256 309
#     4  10  18  32  52  75 107 140 167 212 264 308
#     4  11  22  38  55  75 104 140 177 214 257 304
#
# _framework density 17.608442
#
# number of rings (size 3 to 8) (size 9 to 14) (size 15 to 20)
#    0.000    2.000    2.000    4.200    0.000    3.200 
#    0.000    0.000    0.000    1.200    0.000    8.400 
#    0.000    0.000    0.000    0.000    0.000    0.000 
#
# Total GULP energy -247981.653828 kJ/mol
# GULP energy per Si atom -12399.082691 kJ/mol
# Density = 1.756836 g / cm^3
# Si number density = 17.608442 Si / 1000 Ang^3
#
#
#
# Elastic Constant Matrix: (Units=GPa)
#
#
# Indices 1 2 3 4 5 6 
#
# 1 102.6368 20.5754 56.5859 0.0000 -11.1184 0.0000
# 2 20.5754 47.2352 28.7318 0.0000 -6.4671 0.0000
# 3 56.5859 28.7318 124.4523 0.0000 -15.4048 0.0000
# 4 0.0000 0.0000 0.0000 29.4023 0.0000 -4.1900
# 5 -11.1184 -6.4671 -15.4048 0.0000 24.9427 0.0000
# 6 0.0000 0.0000 0.0000 -4.1900 0.0000 27.3521
#
#
#
# Elastic Compliance Matrix: (Units=1/GPa)
#
#
# Indices 1 2 3 4 5 6 
#
# 1 0.013341 -0.002318 -0.005272 0.000000 0.002090 0.000000
# 2 -0.002318 0.025257 -0.004433 0.000000 0.002777 0.000000
# 3 -0.005272 -0.004433 0.011935 0.000000 0.003872 0.000000
# 4 0.000000 0.000000 0.000000 0.034770 0.000000 0.005326
# 5 0.002090 0.002777 0.003872 0.000000 0.044135 0.000000
# 6 0.000000 0.000000 0.000000 0.005326 0.000000 0.037376
#
#
# Mechanical properties :
#
#
# Convention : Reuss Voigt Hill
#
# Bulk Modulus (GPa) = 37.75543 54.01226 45.88384
# Shear Modulus (GPa) = 25.03890 27.56818 26.30354
#
# Velocity S-wave (km/s) = 3.77501 3.96109 3.86917
# Velocity P-wave (km/s) = 6.36311 7.18756 6.78786
#
# Compressibility (1/GPa) = 0.02648626
#
# Stress axis : x y z
#
# Youngs Moduli (GPa) = 74.95853 39.59246 83.78767
#
# Poissons Ratio (x) = 0.09179 0.44172
# Poissons Ratio (y) = 0.17378 0.37145
# Poissons Ratio (z) = 0.39517 0.17552
#
# Static dielectric constant tensor:
#      x y z
#    x 3.027580 0.000000 -0.326710 
#    y 0.000000 3.240160 0.000000 
#    z -0.326710 0.000000 3.471580 
# 
# 
# High freq. dielectric constant tensor:
#      x y z
#    x 1.647210 0.000000 -0.030780 
#    y 0.000000 1.686210 0.000000 
#    z -0.030780 0.000000 1.680640 
# 
# From -- ./inp_files/171865.got.cif
#   From: 2010.06.25/outbox.cif.g09.slc.cpg/sg12_86_cif.got.tgz:171865.got - 2010.06.28 00:19:55.
