data_PCOD8082321
_publ_section_title
;
Structure prediction by ZEFSAII (Michael W. Deem and Ramdas Pophale) SiO2 
 PCOD8082321
Probable space group: C 2/M
;
_chemical_formula_sum "Si O2"
_cell_formula_units_Z 40
_cell_length_a 28.330457
_cell_length_b 8.927085
_cell_length_c 17.476390
_cell_angle_alpha 90.000000
_cell_angle_beta 34.134775
_cell_angle_gamma 90.000000
_cell_volume 2480.203669
_symmetry_space_group_name_H-M "C 2/M"
_symmetry_group_IT_number 12
_symmetry_cell_setting 'monoclinic'
loop_
_space_group_symop_operation_xyz
x,y,z
-x,y,-z
-x,-y,-z
x,-y,z
1/2+x,1/2+y,z
1/2-x,1/2+y,-z
1/2-x,1/2-y,-z
1/2+x,1/2-y,z
loop_
_atom_site_type_symbol
_atom_site_label
_atom_site_fract_x
_atom_site_fract_y
_atom_site_fract_z
Si Si1 0.241460 0.674040 0.631145
Si Si2 0.775333 0.830624 0.189508
Si Si3 0.622008 0.325258 0.678116
Si Si4 0.208960 0.322759 0.981559
Si Si5 0.436802 0.669424 0.891877
O O1 0.227432 0.500000 0.664481
O O2 0.257213 0.753416 0.690376
O O3 0.323163 0.707870 0.470567
O O4 0.158546 0.737709 0.701565
O O5 0.740309 0.000000 0.233700
O O6 0.741772 0.739357 0.159982
O O7 0.878018 0.830507 0.047239
O O8 0.621914 0.500000 0.699186
O O9 0.528161 0.263982 0.788797
O O10 0.215829 0.500000 0.976825
O O11 0.110494 0.271039 0.108673
O O12 0.250000 0.250000 0.000000
O O13 0.446275 0.500000 0.847128
#
# Coordination Sequence:
#
# PCOD8082321 Si02
#       5
#     8   8   8   8   8
#     4  10  19  30  47  71  98 129 163 196 233 277
#     4   9  18  32  49  70  95 125 159 196 236 279
#     4   9  18  33  49  66  96 134 164 192 231 281
#     4  10  18  31  51  74  97 120 152 193 240 286
#     4   8  17  32  49  70  93 125 162 194 233 278
#
# _framework density 16.127707000000001
#
# number of rings (size 3 to 8) (size 9 to 14) (size 15 to 20)
#    1.200    1.600    0.000    2.400    0.000    2.400 
#    0.000    4.000    0.000    1.200    0.000    8.400 
#    0.000    0.000    0.000    0.000    0.000    0.000 
#
# Total GULP energy -247828.747574 kJ/mol
# GULP energy per Si atom -12391.437379 kJ/mol
# Density = 1.609100 g / cm^3
# Si number density = 16.127707 Si / 1000 Ang^3
#
#
#
# Elastic Constant Matrix: (Units=GPa)
#
#
# Indices 1 2 3 4 5 6 
#
# 1 61.0773 40.7252 21.6054 0.0002 25.8246 0.0007
# 2 40.7252 108.5021 24.1835 -0.0011 21.0758 0.0006
# 3 21.6054 24.1835 39.0947 -0.0004 16.5893 -0.0001
# 4 0.0002 -0.0011 -0.0004 24.6010 0.0001 5.6805
# 5 25.8246 21.0758 16.5893 0.0001 26.0544 0.0000
# 6 0.0007 0.0006 -0.0001 5.6805 0.0000 31.7610
#
#
#
# Elastic Compliance Matrix: (Units=1/GPa)
#
#
# Indices 1 2 3 4 5 6 
#
# 1 0.032378 -0.006627 -0.003358 0.000000 -0.024593 0.000000
# 2 -0.006627 0.012799 -0.003630 0.000001 -0.001474 0.000000
# 3 -0.003358 -0.003630 0.037025 0.000001 -0.017310 0.000000
# 4 0.000000 0.000001 0.000001 0.042400 -0.000001 -0.007583
# 5 -0.024593 -0.001474 -0.017310 -0.000001 0.074971 0.000001
# 6 0.000000 0.000000 0.000000 -0.007583 0.000001 0.032841
#
#
# Mechanical properties :
#
#
# Convention : Reuss Voigt Hill
#
# Bulk Modulus (GPa) = 18.19091 42.41136 30.30114
# Shear Modulus (GPa) = 17.98764 24.62728 21.30746
#
# Velocity S-wave (km/s) = 3.34327 3.91195 3.63873
# Velocity P-wave (km/s) = 5.11928 6.83803 6.04011
#
# Compressibility (1/GPa) = 0.05497252
#
# Stress axis : x y z
#
# Youngs Moduli (GPa) = 30.88516 78.13065 27.00864
#
# Poissons Ratio (x) = 0.51779 0.09070
# Poissons Ratio (y) = 0.20468 0.09803
# Poissons Ratio (z) = 0.10372 0.28358
#
# Static dielectric constant tensor:
#      x y z
#    x 2.899750 0.000000 -0.009870 
#    y 0.000000 3.101690 0.000000 
#    z -0.009870 0.000000 2.879030 
# 
# 
# High freq. dielectric constant tensor:
#      x y z
#    x 1.603360 0.000000 0.007010 
#    y 0.000000 1.630730 0.000000 
#    z 0.007010 0.000000 1.597680 
# 
# From -- ./inp_files/229656.got.cif
#   From: 2010.06.25/outbox.cif.g09.slc.cpg/sg12_115_cif.got.tgz:229656.got - 2010.06.28 00:19:55.
