data_PCOD8082421
_publ_section_title
;
Structure prediction by ZEFSAII (Michael W. Deem and Ramdas Pophale) SiO2 
 PCOD8082421
Probable space group: C 2/M
;
_chemical_formula_sum "Si O2"
_cell_formula_units_Z 48
_cell_length_a 18.448497
_cell_length_b 8.623524
_cell_length_c 16.569663
_cell_angle_alpha 90.000000
_cell_angle_beta 90.044370
_cell_angle_gamma 90.000000
_cell_volume 2636.084404
_symmetry_space_group_name_H-M "C 2/M"
_symmetry_group_IT_number 12
_symmetry_cell_setting 'monoclinic'
loop_
_space_group_symop_operation_xyz
x,y,z
-x,y,-z
-x,-y,-z
x,-y,z
1/2+x,1/2+y,z
1/2-x,1/2+y,-z
1/2-x,1/2-y,-z
1/2+x,1/2-y,z
loop_
_atom_site_type_symbol
_atom_site_label
_atom_site_fract_x
_atom_site_fract_y
_atom_site_fract_z
Si Si1 0.713798 0.181692 0.421397
Si Si2 0.665545 0.182999 0.670401
Si Si3 0.578992 0.817888 0.514219
Si Si4 0.207694 0.816023 0.076120
Si Si5 0.166270 0.182980 0.838178
Si Si6 0.083118 0.682728 0.989208
O O1 0.750000 0.250000 0.500000
O O2 0.750120 0.267728 0.345062
O O3 0.627828 0.215172 0.434059
O O4 0.729228 0.000000 0.413874
O O5 0.616150 0.246457 0.596281
O O6 0.636469 0.264337 0.751269
O O7 0.660918 0.000000 0.680790
O O8 0.500000 0.740959 0.500000
O O9 0.570716 0.000000 0.527302
O O10 0.251839 0.752301 0.153249
O O11 0.206884 0.000000 0.077053
O O12 0.250000 0.750000 0.000000
O O13 0.125850 0.751347 0.067392
O O14 0.111950 0.246147 0.905915
O O15 0.169702 0.000000 0.845241
O O16 0.094734 0.500000 0.985996
O O17 0.000000 0.729875 0.000000
#
# Coordination Sequence:
#
# PCOD8082421 Si02
#       6
#     8   8   8   8   8   8
#     4   9  16  28  48  71  95 125 162 202 243 295
#     4  10  19  32  51  73  99 130 167 212 258 304
#     4   8  15  29  50  74  98 128 165 203 246 299
#     4  10  18  31  52  75 100 129 166 207 248 298
#     4  11  21  34  53  75 102 134 172 216 261 307
#     4  10  20  35  55  78 105 137 172 207 250 307
#
# _framework density 18.208825000000001
#
# number of rings (size 3 to 8) (size 9 to 14) (size 15 to 20)
#    0.000    2.333    0.000    7.500    0.000    1.333 
#    0.000    1.667    0.000   26.000    0.000    0.000 
#    0.000    0.000    0.000    0.000    0.000    0.000 
#
# Total GULP energy -297407.830250 kJ/mol
# GULP energy per Si atom -12391.992927 kJ/mol
# Density = 1.816738 g / cm^3
# Si number density = 18.208825 Si / 1000 Ang^3
#
#
#
# Elastic Constant Matrix: (Units=GPa)
#
#
# Indices 1 2 3 4 5 6 
#
# 1 136.7873 48.0835 46.7416 0.0000 -3.3336 0.0000
# 2 48.0835 102.6052 28.8672 0.0000 -3.5619 0.0000
# 3 46.7416 28.8672 87.8518 0.0000 -1.4589 0.0000
# 4 0.0000 0.0000 0.0000 29.4067 0.0000 -1.8990
# 5 -3.3336 -3.5619 -1.4589 0.0000 20.5390 0.0000
# 6 0.0000 0.0000 0.0000 -1.8990 0.0000 24.5305
#
#
#
# Elastic Compliance Matrix: (Units=1/GPa)
#
#
# Indices 1 2 3 4 5 6 
#
# 1 0.009969 -0.003480 -0.004149 0.000000 0.000720 0.000000
# 2 -0.003480 0.012007 -0.002071 0.000000 0.001370 0.000000
# 3 -0.004149 -0.002071 0.014270 0.000000 -0.000019 0.000000
# 4 0.000000 0.000000 0.000000 0.034177 0.000000 0.002646
# 5 0.000720 0.001370 -0.000019 0.000000 0.049041 0.000000
# 6 0.000000 0.000000 0.000000 0.002646 0.000000 0.040970
#
#
# Mechanical properties :
#
#
# Convention : Reuss Voigt Hill
#
# Bulk Modulus (GPa) = 59.35676 63.84766 61.60221
# Shear Modulus (GPa) = 26.96154 28.46537 27.71346
#
# Velocity S-wave (km/s) = 3.85214 3.95811 3.90549
# Velocity P-wave (km/s) = 7.24251 7.48526 7.36488
#
# Compressibility (1/GPa) = 0.01684728
#
# Stress axis : x y z
#
# Youngs Moduli (GPa) = 100.31165 83.28468 70.07498
#
# Poissons Ratio (x) = 0.28979 0.29072
# Poissons Ratio (y) = 0.34904 0.14515
# Poissons Ratio (z) = 0.41616 0.17251
#
# Static dielectric constant tensor:
#      x y z
#    x 3.985520 0.000000 0.082820 
#    y 0.000000 3.380560 0.000000 
#    z 0.082820 0.000000 3.454900 
# 
# 
# High freq. dielectric constant tensor:
#      x y z
#    x 1.699400 0.000000 -0.001200 
#    y 0.000000 1.709190 0.000000 
#    z -0.001200 0.000000 1.685270 
# 
# From -- ./inp_files/273597.got.cif
#   From: 2010.06.25/outbox.cif.g09.slc.cpg/sg12_137_cif.got.tgz:273597.got - 2010.06.28 00:19:55.
