data_PCOD8082087
_publ_section_title
;
Structure prediction by ZEFSAII (Michael W. Deem and Ramdas Pophale) SiO2 
 PCOD8082087
Probable space group: C 2/M
;
_chemical_formula_sum "Si O2"
_cell_formula_units_Z 64
_cell_length_a 19.018127
_cell_length_b 8.787582
_cell_length_c 23.458171
_cell_angle_alpha 90.000000
_cell_angle_beta 60.987481
_cell_angle_gamma 90.000000
_cell_volume 3428.450844
_symmetry_space_group_name_H-M "C 2/M"
_symmetry_group_IT_number 12
_symmetry_cell_setting 'monoclinic'
loop_
_space_group_symop_operation_xyz
x,y,z
-x,y,-z
-x,-y,-z
x,-y,z
1/2+x,1/2+y,z
1/2-x,1/2+y,-z
1/2-x,1/2-y,-z
1/2+x,1/2-y,z
loop_
_atom_site_type_symbol
_atom_site_label
_atom_site_fract_x
_atom_site_fract_y
_atom_site_fract_z
Si Si1 0.703846 0.319525 0.150138
Si Si2 0.415859 0.674811 0.231129
Si Si3 0.756494 0.676613 0.322882
Si Si4 0.193965 0.321470 0.569340
Si Si5 0.638333 0.820975 0.288445
Si Si6 0.308005 0.321177 0.023651
Si Si7 0.428164 0.321782 0.886662
Si Si8 0.468566 0.325108 0.338838
O O1 0.706718 0.500000 0.151780
O O2 0.689931 0.255720 0.218177
O O3 0.789720 0.257958 0.091658
O O4 0.633843 0.255090 0.135966
O O5 0.390889 0.500000 0.229569
O O6 0.337165 0.778030 0.256907
O O7 0.481114 0.738370 0.159447
O O8 0.458098 0.691995 0.275575
O O9 0.739347 0.500000 0.319264
O O10 0.767218 0.716558 0.384888
O O11 0.681236 0.774298 0.330515
O O12 0.185164 0.500000 0.563071
O O13 0.250000 0.250000 0.500000
O O14 0.106441 0.246606 0.598314
O O15 0.547618 0.763467 0.326675
O O16 0.638761 0.000000 0.280033
O O17 0.292687 0.500000 0.034873
O O18 0.250000 0.250000 0.000000
O O19 0.398225 0.288021 0.963354
O O20 0.430187 0.500000 0.873603
O O21 0.477177 0.500000 0.353634
#
# Coordination Sequence:
#
# PCOD8082087 Si02
#       8
#     8   8   8   8   8   8   8   8
#     4  10  18  31  48  70 103 142 179 223 278 329
#     4   9  16  31  53  77 104 140 180 220 269 323
#     4  10  22  38  55  80 112 144 178 220 267 318
#     4  10  21  39  63  89 116 146 182 219 260 314
#     4  12  23  35  54  81 111 144 183 226 271 325
#     4   9  16  26  41  67 101 138 178 224 273 326
#     4   8  14  26  46  71 101 135 175 220 270 322
#     4  10  19  34  58  84 113 146 180 221 268 317
#
# _framework density 18.667324000000001
#
# number of rings (size 3 to 8) (size 9 to 14) (size 15 to 20)
#    0.000    2.250    1.250    3.750    0.000    2.000 
#    0.000    1.875    0.000    4.500    0.000    5.250 
#    0.000    0.000    0.000    0.000    0.000    0.000 
#
# Total GULP energy -396701.690622 kJ/mol
# GULP energy per Si atom -12396.927832 kJ/mol
# Density = 1.862484 g / cm^3
# Si number density = 18.667324 Si / 1000 Ang^3
#
#
#
# Elastic Constant Matrix: (Units=GPa)
#
#
# Indices 1 2 3 4 5 6 
#
# 1 76.3046 39.5062 42.5768 0.0000 -12.0835 0.0003
# 2 39.5062 106.3856 51.8281 -0.0002 -8.5409 -0.0001
# 3 42.5768 51.8281 132.7543 0.0000 -29.5887 0.0000
# 4 0.0000 -0.0002 0.0000 32.5546 0.0000 -4.5053
# 5 -12.0835 -8.5409 -29.5887 0.0000 23.0898 0.0000
# 6 0.0003 -0.0001 0.0000 -4.5053 0.0000 28.0638
#
#
#
# Elastic Compliance Matrix: (Units=1/GPa)
#
#
# Indices 1 2 3 4 5 6 
#
# 1 0.017899 -0.004884 -0.003008 0.000000 0.003706 0.000000
# 2 -0.004884 0.013015 -0.004215 0.000000 -0.003143 0.000000
# 3 -0.003008 -0.004215 0.013221 0.000000 0.013809 0.000000
# 4 0.000000 0.000000 0.000000 0.031416 0.000000 0.005043
# 5 0.003706 -0.003143 0.013809 0.000000 0.061781 0.000000
# 6 0.000000 0.000000 0.000000 0.005043 0.000000 0.036443
#
#
# Mechanical properties :
#
#
# Convention : Reuss Voigt Hill
#
# Bulk Modulus (GPa) = 50.19971 64.80742 57.50356
# Shear Modulus (GPa) = 24.43456 28.84387 26.63922
#
# Velocity S-wave (km/s) = 3.62186 3.93511 3.78173
# Velocity P-wave (km/s) = 6.66638 7.44575 7.06682
#
# Compressibility (1/GPa) = 0.01992043
#
# Stress axis : x y z
#
# Youngs Moduli (GPa) = 55.86827 76.83669 75.63874
#
# Poissons Ratio (x) = 0.37527 0.22751
# Poissons Ratio (y) = 0.27286 0.31883
# Poissons Ratio (z) = 0.16804 0.32388
#
# Static dielectric constant tensor:
#      x y z
#    x 3.254040 0.000000 -0.259960 
#    y 0.000000 3.464810 0.000000 
#    z -0.259960 0.000000 3.661840 
# 
# 
# High freq. dielectric constant tensor:
#      x y z
#    x 1.696020 0.000000 -0.020940 
#    y 0.000000 1.725540 0.000000 
#    z -0.020940 0.000000 1.725450 
# 
# From -- ./inp_files/345547.got.cif
#   From: 2010.06.25/outbox.cif.g09.slc.cpg/sg12_173_cif.got.tgz:345547.got - 2010.06.28 00:19:55.
