data_PCOD8082866
_publ_section_title
;
Structure prediction by ZEFSAII (Michael W. Deem and Ramdas Pophale) SiO2 
 PCOD8082866
Probable space group: C 2/M
;
_chemical_formula_sum "Si O2"
_cell_formula_units_Z 64
_cell_length_a 10.867153
_cell_length_b 26.307342
_cell_length_c 13.001643
_cell_angle_alpha 90.000000
_cell_angle_beta 92.049318
_cell_angle_gamma 90.000000
_cell_volume 3714.609225
_symmetry_space_group_name_H-M "C 2/M"
_symmetry_group_IT_number 12
_symmetry_cell_setting 'monoclinic'
loop_
_space_group_symop_operation_xyz
x,y,z
-x,y,-z
-x,-y,-z
x,-y,z
1/2+x,1/2+y,z
1/2-x,1/2+y,-z
1/2-x,1/2-y,-z
1/2+x,1/2-y,z
loop_
_atom_site_type_symbol
_atom_site_label
_atom_site_fract_x
_atom_site_fract_y
_atom_site_fract_z
Si Si1 0.360500 0.614151 0.467739
Si Si2 0.649486 0.439725 0.906684
Si Si3 0.991929 0.282957 0.378289
Si Si4 0.764555 0.778481 0.394962
Si Si5 0.755476 0.058658 0.661365
Si Si6 0.008992 0.602172 0.620751
Si Si7 0.875480 0.060370 0.871827
Si Si8 0.264299 0.940400 0.703580
O O1 0.500000 0.627431 0.500000
O O2 0.289326 0.662958 0.422373
O O3 0.295828 0.593435 0.567832
O O4 0.350723 0.572231 0.376121
O O5 0.641216 0.500000 0.901473
O O6 0.513701 0.418127 0.879425
O O7 0.739198 0.420588 0.819046
O O8 0.692335 0.422575 0.022938
O O9 0.880929 0.245695 0.334239
O O10 0.129841 0.272668 0.334259
O O11 0.951861 0.340325 0.351509
O O12 0.000000 0.274450 0.500000
O O13 0.750000 0.750000 0.500000
O O14 0.608965 0.063325 0.669233
O O15 0.811180 0.082023 0.768099
O O16 0.793631 0.000000 0.643997
O O17 0.880621 0.590310 0.669117
O O18 0.000000 0.592849 0.500000
O O19 0.873184 0.000000 0.865239
O O20 0.289236 0.000000 0.700905
#
# Coordination Sequence:
#
# PCOD8082866 Si02
#       8
#     8   8   8   8   8   8   8   8
#     4  12  22  31  45  72 104 131 164 212 251 303
#     4   8  15  30  50  67  90 129 171 212 254 288
#     4   9  17  31  50  66  91 128 169 210 255 298
#     4  10  18  32  49  68  91 130 164 211 260 303
#     4  11  21  31  46  68  99 139 177 205 240 295
#     4  11  20  34  47  65  99 143 175 200 237 303
#     4   8  15  30  49  68  90 125 173 216 251 285
#     4  11  21  32  47  69 102 142 174 198 240 297
#
# _framework density 17.229268999999999
#
# number of rings (size 3 to 8) (size 9 to 14) (size 15 to 20)
#    0.000    2.000    2.500    4.875    0.000    2.500 
#    0.000    0.625    0.000    3.000    0.000    0.000 
#    0.000    4.000   13.250    0.250    0.000    0.000 
#
# Total GULP energy -396475.500294 kJ/mol
# GULP energy per Si atom -12389.859384 kJ/mol
# Density = 1.719005 g / cm^3
# Si number density = 17.229269 Si / 1000 Ang^3
#
#
#
# Elastic Constant Matrix: (Units=GPa)
#
#
# Indices 1 2 3 4 5 6 
#
# 1 106.3589 33.3567 33.7554 0.0000 -7.6861 0.0000
# 2 33.3567 55.4965 33.3252 0.0000 -2.3260 0.0000
# 3 33.7554 33.3252 99.5249 0.0000 -10.8751 0.0000
# 4 0.0000 0.0000 0.0000 1.1556 0.0000 2.6613
# 5 -7.6861 -2.3260 -10.8751 0.0000 23.3545 0.0000
# 6 0.0000 0.0000 0.0000 2.6613 0.0000 14.3498
#
#
#
# Elastic Compliance Matrix: (Units=1/GPa)
#
#
# Indices 1 2 3 4 5 6 
#
# 1 0.012054 -0.006071 -0.001779 0.000000 0.002534 0.000000
# 2 -0.006071 0.025651 -0.006816 0.000000 -0.002617 0.000000
# 3 -0.001779 -0.006816 0.013481 0.000000 0.005013 0.000000
# 4 0.000000 0.000000 0.000000 1.510376 0.000000 -0.280112
# 5 0.002534 -0.002617 0.005013 0.000000 0.045726 0.000000
# 6 0.000000 0.000000 0.000000 -0.280112 0.000000 0.121636
#
#
# Mechanical properties :
#
#
# Convention : Reuss Voigt Hill
#
# Bulk Modulus (GPa) = 45.75562 51.36167 48.55864
# Shear Modulus (GPa) = 2.83199 18.50152 10.66676
#
# Velocity S-wave (km/s) = 1.28346 3.28051 2.49089
# Velocity P-wave (km/s) = 5.36758 6.65014 6.04299
#
# Compressibility (1/GPa) = 0.02185524
#
# Stress axis : x y z
#
# Youngs Moduli (GPa) = 82.96242 38.98424 74.17791
#
# Poissons Ratio (x) = 0.23666 0.13193
# Poissons Ratio (y) = 0.50364 0.50561
# Poissons Ratio (z) = 0.14755 0.26572
#
# Static dielectric constant tensor:
#      x y z
#    x 3.778210 0.000000 0.014780 
#    y 0.000000 2.869790 0.000000 
#    z 0.014780 0.000000 3.147440 
# 
# 
# High freq. dielectric constant tensor:
#      x y z
#    x 1.675750 0.000000 -0.004670 
#    y 0.000000 1.641720 0.000000 
#    z -0.004670 0.000000 1.627430 
# 
# From -- ./inp_files/136677.got.cif
#   From: 2010.06.25/outbox.cif.g09.slc.cpg/sg12_69_cif.got.tgz:136677.got - 2010.06.28 00:19:55.
