data_PCOD8082332
_publ_section_title
;
Structure prediction by ZEFSAII (Michael W. Deem and Ramdas Pophale) SiO2 
 PCOD8082332
Probable space group: C 2/M
;
_chemical_formula_sum "Si O2"
_cell_formula_units_Z 56
_cell_length_a 16.122221
_cell_length_b 8.961626
_cell_length_c 19.621894
_cell_angle_alpha 90.000000
_cell_angle_beta 90.098237
_cell_angle_gamma 90.000000
_cell_volume 2834.992879
_symmetry_space_group_name_H-M "C 2/M"
_symmetry_group_IT_number 12
_symmetry_cell_setting 'monoclinic'
loop_
_space_group_symop_operation_xyz
x,y,z
-x,y,-z
-x,-y,-z
x,-y,z
1/2+x,1/2+y,z
1/2-x,1/2+y,-z
1/2-x,1/2-y,-z
1/2+x,1/2-y,z
loop_
_atom_site_type_symbol
_atom_site_label
_atom_site_fract_x
_atom_site_fract_y
_atom_site_fract_z
Si Si1 0.405304 0.677296 0.928019
Si Si2 0.829722 0.170248 0.211855
Si Si3 0.835086 0.823840 0.789146
Si Si4 0.091261 0.177073 0.924360
Si Si5 0.086496 0.176494 0.346431
Si Si6 0.902991 0.828410 0.353350
Si Si7 0.750653 0.178014 0.573534
O O1 0.407000 0.500000 0.922426
O O2 0.354678 0.744867 0.864092
O O3 0.498219 0.740128 0.922562
O O4 0.367755 0.723837 0.002332
O O5 0.751734 0.262877 0.237582
O O6 0.860628 0.243437 0.140594
O O7 0.898408 0.181519 0.271040
O O8 0.802781 0.000000 0.199799
O O9 0.902549 0.774903 0.732708
O O10 0.829222 0.000000 0.793299
O O11 0.088371 0.000000 0.917209
O O12 0.164450 0.237196 0.390473
O O13 0.995826 0.232033 0.372815
O O14 0.086693 0.000000 0.351354
O O15 0.832185 0.728983 0.387400
O O16 0.891072 0.000000 0.377284
O O17 0.750000 0.250000 0.500000
O O18 0.749695 0.000000 0.568946
#
# Coordination Sequence:
#
# PCOD8082332 Si02
#       7
#     8   8   8   8   8   8   8
#     4   8  14  25  45  69  96 133 180 228 266 311
#     4  10  19  30  49  76 107 137 174 226 276 316
#     4  10  18  31  51  75 103 139 183 224 266 321
#     4   8  14  26  43  69 100 132 176 228 273 309
#     4   9  19  36  59  82 109 146 187 224 265 320
#     4  10  20  37  60  84 109 146 189 226 267 320
#     4  11  23  41  62  87 117 146 176 220 270 324
#
# _framework density 19.753136999999999
#
# number of rings (size 3 to 8) (size 9 to 14) (size 15 to 20)
#    0.000    2.571    1.429    2.143    0.000    4.571 
#    0.000    5.000    0.000    2.571    0.000    2.000 
#    0.000    0.000    0.000    0.000    0.000    0.000 
#
# Total GULP energy -346913.442662 kJ/mol
# GULP energy per Si atom -12389.765809 kJ/mol
# Density = 1.970818 g / cm^3
# Si number density = 19.753137 Si / 1000 Ang^3
#
#
#
# Elastic Constant Matrix: (Units=GPa)
#
#
# Indices 1 2 3 4 5 6 
#
# 1 136.6214 23.8102 59.7380 0.0000 0.0836 0.0000
# 2 23.8102 27.8184 30.9489 0.0000 -0.4943 0.0000
# 3 59.7380 30.9489 131.6128 0.0000 -0.6270 0.0000
# 4 0.0000 0.0000 0.0000 19.7900 0.0000 -1.8541
# 5 0.0836 -0.4943 -0.6270 0.0000 29.7224 0.0000
# 6 0.0000 0.0000 0.0000 -1.8541 0.0000 22.4586
#
#
#
# Elastic Compliance Matrix: (Units=1/GPa)
#
#
# Indices 1 2 3 4 5 6 
#
# 1 0.009537 -0.004536 -0.003263 0.000000 -0.000171 0.000000
# 2 -0.004536 0.050850 -0.009896 0.000000 0.000650 0.000000
# 3 -0.003263 -0.009896 0.011406 0.000000 0.000085 0.000000
# 4 0.000000 0.000000 0.000000 0.050924 0.000000 0.004204
# 5 -0.000171 0.000650 0.000085 0.000000 0.033658 0.000000
# 6 0.000000 0.000000 0.000000 0.004204 0.000000 0.044873
#
#
# Mechanical properties :
#
#
# Convention : Reuss Voigt Hill
#
# Bulk Modulus (GPa) = 27.46871 58.33852 42.90362
# Shear Modulus (GPa) = 20.09867 26.49791 23.29829
#
# Velocity S-wave (km/s) = 3.19328 3.66656 3.43807
# Velocity P-wave (km/s) = 5.24711 6.89368 6.12597
#
# Compressibility (1/GPa) = 0.03640506
#
# Stress axis : x y z
#
# Youngs Moduli (GPa) = 104.85723 19.66555 87.66961
#
# Poissons Ratio (x) = 0.08919 0.28606
# Poissons Ratio (y) = 0.47559 0.86756
# Poissons Ratio (z) = 0.34214 0.19461
#
# Static dielectric constant tensor:
#      x y z
#    x 3.731640 0.000000 0.078920 
#    y 0.000000 3.050080 0.000000 
#    z 0.078920 0.000000 3.964800 
# 
# 
# High freq. dielectric constant tensor:
#      x y z
#    x 1.769400 0.000000 0.000670 
#    y 0.000000 1.711730 0.000000 
#    z 0.000670 0.000000 1.786060 
# 
# From -- ./inp_files/308915.got.cif
#   From: 2010.06.25/outbox.cif.g09.slc.cpg/sg12_155_cif.got.tgz:308915.got - 2010.06.28 00:19:55.
