data_PCOD8082927
_publ_section_title
;
Structure prediction by ZEFSAII (Michael W. Deem and Ramdas Pophale) SiO2 
 PCOD8082927
Probable space group: C 2/M
;
_chemical_formula_sum "Si O2"
_cell_formula_units_Z 64
_cell_length_a 15.067967
_cell_length_b 12.020193
_cell_length_c 18.763006
_cell_angle_alpha 90.000000
_cell_angle_beta 90.620345
_cell_angle_gamma 90.000000
_cell_volume 3398.154050
_symmetry_space_group_name_H-M "C 2/M"
_symmetry_group_IT_number 12
_symmetry_cell_setting 'monoclinic'
loop_
_space_group_symop_operation_xyz
x,y,z
-x,y,-z
-x,-y,-z
x,-y,z
1/2+x,1/2+y,z
1/2-x,1/2+y,-z
1/2-x,1/2-y,-z
1/2+x,1/2-y,z
loop_
_atom_site_type_symbol
_atom_site_label
_atom_site_fract_x
_atom_site_fract_y
_atom_site_fract_z
Si Si1 0.909758 0.203262 0.911809
Si Si2 0.987030 0.128761 0.416654
Si Si3 0.103257 0.873053 0.939429
Si Si4 0.622227 0.239994 0.322160
Si Si5 0.199452 0.121261 0.210255
Si Si6 0.531683 0.128992 0.197583
Si Si7 0.805957 0.125886 0.344428
Si Si8 0.358979 0.720382 0.203960
O O1 0.841316 0.126737 0.868775
O O2 0.916278 0.323759 0.872289
O O3 0.001937 0.136915 0.913696
O O4 0.876467 0.210333 0.993858
O O5 0.053808 0.218959 0.381666
O O6 0.000000 0.142810 0.500000
O O7 0.884511 0.161447 0.399343
O O8 0.006083 0.000000 0.393394
O O9 0.161662 0.837135 0.872161
O O10 0.124469 0.000000 0.961211
O O11 0.627324 0.345253 0.268883
O O12 0.587172 0.138341 0.271673
O O13 0.718220 0.203041 0.355017
O O14 0.280690 0.199622 0.222305
O O15 0.235455 0.000000 0.225902
O O16 0.446913 0.206784 0.205444
O O17 0.508233 0.000000 0.183283
O O18 0.853841 0.130487 0.267067
O O19 0.775310 0.000000 0.358507
#
# Coordination Sequence:
#
# PCOD8082927 Si02
#       8
#     8   8   8   8   8   8   8   8
#     4   9  19  32  48  72  97 134 181 226 276 330
#     4  10  21  38  61  89 119 149 183 226 277 331
#     4  10  18  32  51  71 100 135 180 232 281 326
#     4  10  20  35  58  84 111 148 188 228 274 329
#     4  10  19  32  50  74 105 136 179 228 274 327
#     4  10  19  34  53  75 106 145 184 228 279 329
#     4  10  20  36  58  85 114 148 191 233 276 329
#     4  10  20  32  50  78 105 141 185 229 276 333
#
# _framework density 18.833755
#
# number of rings (size 3 to 8) (size 9 to 14) (size 15 to 20)
#    0.000    2.125    1.250    3.000    0.000    1.000 
#    0.000    6.250    0.000    1.500    0.000    0.000 
#    0.000    0.000    0.000    0.000    0.000    0.000 
#
# Total GULP energy -396530.476272 kJ/mol
# GULP energy per Si atom -12391.577383 kJ/mol
# Density = 1.879089 g / cm^3
# Si number density = 18.833755 Si / 1000 Ang^3
#
#
#
# Elastic Constant Matrix: (Units=GPa)
#
#
# Indices 1 2 3 4 5 6 
#
# 1 73.7411 31.2354 40.0813 0.0000 10.5529 0.0000
# 2 31.2354 82.8684 27.2424 0.0000 0.7514 0.0000
# 3 40.0813 27.2424 90.8431 0.0000 11.9044 0.0000
# 4 0.0000 0.0000 0.0000 18.4411 0.0000 -1.4158
# 5 10.5529 0.7514 11.9044 0.0000 22.6797 0.0000
# 6 0.0000 0.0000 0.0000 -1.4158 0.0000 57.7717
#
#
#
# Elastic Compliance Matrix: (Units=1/GPa)
#
#
# Indices 1 2 3 4 5 6 
#
# 1 0.020249 -0.005428 -0.006545 0.000000 -0.005806 0.000000
# 2 -0.005428 0.014910 -0.002516 0.000000 0.003352 0.000000
# 3 -0.006545 -0.002516 0.015292 0.000000 -0.004898 0.000000
# 4 0.000000 0.000000 0.000000 0.054329 0.000000 0.001331
# 5 -0.005806 0.003352 -0.004898 0.000000 0.049254 0.000000
# 6 0.000000 0.000000 0.000000 0.001331 0.000000 0.017342
#
#
# Mechanical properties :
#
#
# Convention : Reuss Voigt Hill
#
# Bulk Modulus (GPa) = 46.57046 49.39677 47.98362
# Shear Modulus (GPa) = 24.09512 29.70475 26.89993
#
# Velocity S-wave (km/s) = 3.58069 3.97572 3.78336
# Velocity P-wave (km/s) = 6.47116 6.88185 6.67966
#
# Compressibility (1/GPa) = 0.02147284
#
# Stress axis : x y z
#
# Youngs Moduli (GPa) = 49.38576 67.06976 65.39306
#
# Poissons Ratio (x) = 0.36405 0.42803
# Poissons Ratio (y) = 0.26806 0.16450
# Poissons Ratio (z) = 0.32325 0.16872
#
# Static dielectric constant tensor:
#      x y z
#    x 3.615250 0.000000 -0.130970 
#    y 0.000000 5.554690 0.000000 
#    z -0.130970 0.000000 3.618860 
# 
# 
# High freq. dielectric constant tensor:
#      x y z
#    x 1.729030 0.000000 0.007890 
#    y 0.000000 1.718100 0.000000 
#    z 0.007890 0.000000 1.725080 
# 
# From -- ./inp_files/269308.got.cif
#   From: 2010.06.25/outbox.cif.g09.slc.cpg/sg12_135_cif.got.tgz:269308.got - 2010.06.28 00:19:55.
