data_PCOD8082987
_publ_section_title
;
Structure prediction by ZEFSAII (Michael W. Deem and Ramdas Pophale) SiO2 
 PCOD8082987
Probable space group: C 2/M
;
_chemical_formula_sum "Si O2"
_cell_formula_units_Z 48
_cell_length_a 25.190404
_cell_length_b 12.431389
_cell_length_c 13.712655
_cell_angle_alpha 90.000000
_cell_angle_beta 40.278521
_cell_angle_gamma 90.000000
_cell_volume 2776.178828
_symmetry_space_group_name_H-M "C 2/M"
_symmetry_group_IT_number 12
_symmetry_cell_setting 'monoclinic'
loop_
_space_group_symop_operation_xyz
x,y,z
-x,y,-z
-x,-y,-z
x,-y,z
1/2+x,1/2+y,z
1/2-x,1/2+y,-z
1/2-x,1/2-y,-z
1/2+x,1/2-y,z
loop_
_atom_site_type_symbol
_atom_site_label
_atom_site_fract_x
_atom_site_fract_y
_atom_site_fract_z
Si Si1 0.427084 0.880930 0.676162
Si Si2 0.653318 0.626850 0.593672
Si Si3 0.968716 0.716250 0.316374
Si Si4 0.199179 0.738641 0.713155
Si Si5 0.172026 0.376732 0.362884
Si Si6 0.944424 0.617294 0.985585
O O1 0.500000 0.900387 0.500000
O O2 0.452278 0.790178 0.721133
O O3 0.352670 0.837553 0.712266
O O4 0.407433 0.000000 0.750408
O O5 0.643797 0.500000 0.624437
O O6 0.576027 0.667624 0.635335
O O7 0.740465 0.650670 0.420056
O O8 0.652215 0.690743 0.697559
O O9 0.900077 0.636484 0.455951
O O10 0.999784 0.680132 0.168632
O O11 0.247787 0.814873 0.717684
O O12 0.136615 0.680995 0.872443
O O13 0.196031 0.500000 0.325249
O O14 0.919166 0.500000 0.979177
O O15 0.000000 0.600243 0.000000
#
# Coordination Sequence:
#
# PCOD8082987 Si02
#       6
#     8   8   8   8   8   8
#     4   8  14  27  50  79 100 121 161 209 246 279
#     4  10  20  34  51  71  98 133 169 204 243 291
#     4  10  18  32  52  75 101 128 165 203 250 285
#     4  10  20  34  49  73 101 131 165 201 248 295
#     4   9  17  31  55  79  99 127 166 208 245 285
#     4  11  21  33  49  73 103 131 163 201 245 296
#
# _framework density 17.289952
#
# number of rings (size 3 to 8) (size 9 to 14) (size 15 to 20)
#    0.000    2.333    1.667    3.500    0.000    0.000 
#    0.000    3.333    0.000   13.500    0.000    0.000 
#    0.000    0.000    0.000    0.000    0.000    0.000 
#
# Total GULP energy -297350.552627 kJ/mol
# GULP energy per Si atom -12389.606359 kJ/mol
# Density = 1.725060 g / cm^3
# Si number density = 17.289952 Si / 1000 Ang^3
#
#
#
# Elastic Constant Matrix: (Units=GPa)
#
#
# Indices 1 2 3 4 5 6 
#
# 1 94.0273 33.3507 25.5413 0.0000 -3.6635 0.0000
# 2 33.3507 89.6136 38.2384 0.0000 -1.1057 0.0000
# 3 25.5413 38.2384 72.6343 0.0000 -0.4731 0.0000
# 4 0.0000 0.0000 0.0000 11.6258 0.0000 3.0071
# 5 -3.6635 -1.1057 -0.4731 0.0000 17.5929 0.0000
# 6 0.0000 0.0000 0.0000 3.0071 0.0000 17.5610
#
#
#
# Elastic Compliance Matrix: (Units=1/GPa)
#
#
# Indices 1 2 3 4 5 6 
#
# 1 0.012700 -0.003609 -0.002550 0.000000 0.002349 0.000000
# 2 -0.003609 0.015426 -0.006852 0.000000 0.000034 0.000000
# 3 -0.002550 -0.006852 0.018269 0.000000 -0.000471 0.000000
# 4 0.000000 0.000000 0.000000 0.090002 0.000000 -0.015411
# 5 0.002349 0.000034 -0.000471 0.000000 0.057320 0.000000
# 6 0.000000 0.000000 0.000000 -0.015411 0.000000 0.059583
#
#
# Mechanical properties :
#
#
# Convention : Reuss Voigt Hill
#
# Bulk Modulus (GPa) = 49.08757 50.05957 49.57357
# Shear Modulus (GPa) = 17.47564 19.96559 18.72061
#
# Velocity S-wave (km/s) = 3.18266 3.40185 3.29408
# Velocity P-wave (km/s) = 6.47752 6.66678 6.57283
#
# Compressibility (1/GPa) = 0.02037175
#
# Stress axis : x y z
#
# Youngs Moduli (GPa) = 78.74246 64.82430 54.73880
#
# Poissons Ratio (x) = 0.23395 0.13961
# Poissons Ratio (y) = 0.28419 0.37506
# Poissons Ratio (z) = 0.20083 0.44417
#
# Static dielectric constant tensor:
#      x y z
#    x 3.858860 0.000000 -0.031480 
#    y 0.000000 3.086690 0.000000 
#    z -0.031480 0.000000 2.967240 
# 
# 
# High freq. dielectric constant tensor:
#      x y z
#    x 1.677510 0.000000 0.000460 
#    y 0.000000 1.648440 0.000000 
#    z 0.000460 0.000000 1.641900 
# 
# From -- ./inp_files/245829.got.cif
#   From: 2010.06.25/outbox.cif.g09.slc.cpg/sg12_123_cif.got.tgz:245829.got - 2010.06.28 00:19:55.
