data_PCOD8082566
_publ_section_title
;
Structure prediction by ZEFSAII (Michael W. Deem and Ramdas Pophale) SiO2 
 PCOD8082566
Probable space group: C 2/M
;
_chemical_formula_sum "Si O2"
_cell_formula_units_Z 40
_cell_length_a 17.790933
_cell_length_b 13.077662
_cell_length_c 10.676657
_cell_angle_alpha 90.000000
_cell_angle_beta 119.058980
_cell_angle_gamma 90.000000
_cell_volume 2171.377191
_symmetry_space_group_name_H-M "C 2/M"
_symmetry_group_IT_number 12
_symmetry_cell_setting 'monoclinic'
loop_
_space_group_symop_operation_xyz
x,y,z
-x,y,-z
-x,-y,-z
x,-y,z
1/2+x,1/2+y,z
1/2-x,1/2+y,-z
1/2-x,1/2-y,-z
1/2+x,1/2-y,z
loop_
_atom_site_type_symbol
_atom_site_label
_atom_site_fract_x
_atom_site_fract_y
_atom_site_fract_z
Si Si1 0.579260 0.884015 0.796285
Si Si2 0.115361 0.192505 0.676341
Si Si3 0.560045 0.617339 0.374623
Si Si4 0.800863 0.616952 0.873841
Si Si5 0.940641 0.729546 0.836585
O O1 0.597536 0.811742 0.692009
O O2 0.490552 0.853208 0.792241
O O3 0.571405 0.000000 0.741463
O O4 0.657389 0.871513 0.956250
O O5 0.113444 0.176073 0.525756
O O6 0.204944 0.158763 0.807644
O O7 0.041879 0.123537 0.681575
O O8 0.589317 0.500000 0.392927
O O9 0.582775 0.669616 0.261240
O O10 0.800864 0.500000 0.829516
O O11 0.852231 0.680614 0.811519
O O12 0.000000 0.764220 0.000000
#
# Coordination Sequence:
#
# PCOD8082566 Si02
#       5
#     8   8   8   8   8
#     4   9  18  33  52  74 101 130 160 199 244 289
#     4  10  19  33  51  74  99 128 167 202 239 289
#     4  10  20  35  52  70  98 133 165 201 244 289
#     4  10  18  31  53  76  99 129 163 200 242 287
#     4   9  19  34  51  73  99 128 164 202 242 291
#
# _framework density 18.421489999999999
#
# number of rings (size 3 to 8) (size 9 to 14) (size 15 to 20)
#    0.000    2.400    0.000    3.600    0.000    3.600 
#    0.000   10.000    0.000    0.000    0.000    0.000 
#    0.000    0.000    0.000    0.000    0.000    0.000 
#
# Total GULP energy -248047.041207 kJ/mol
# GULP energy per Si atom -12402.352060 kJ/mol
# Density = 1.837956 g / cm^3
# Si number density = 18.421490 Si / 1000 Ang^3
#
#
#
# Elastic Constant Matrix: (Units=GPa)
#
#
# Indices 1 2 3 4 5 6 
#
# 1 43.3850 33.2676 22.2940 0.0000 3.9978 0.0000
# 2 33.2676 152.9804 64.3821 0.0000 -20.9282 0.0000
# 3 22.2940 64.3821 55.7624 0.0000 -8.4649 0.0000
# 4 0.0000 0.0000 0.0000 29.3846 0.0000 -2.8973
# 5 3.9978 -20.9282 -8.4649 0.0000 31.3696 0.0000
# 6 0.0000 0.0000 0.0000 -2.8973 0.0000 20.9020
#
#
#
# Elastic Compliance Matrix: (Units=1/GPa)
#
#
# Indices 1 2 3 4 5 6 
#
# 1 0.032004 -0.004409 -0.009145 0.000000 -0.009488 0.000000
# 2 -0.004409 0.014028 -0.013480 0.000000 0.006283 0.000000
# 3 -0.009145 -0.013480 0.037502 0.000000 0.002292 0.000000
# 4 0.000000 0.000000 0.000000 0.034503 0.000000 0.004783
# 5 -0.009488 0.006283 0.002292 0.000000 0.037897 0.000000
# 6 0.000000 0.000000 0.000000 0.004783 0.000000 0.048505
#
#
# Mechanical properties :
#
#
# Convention : Reuss Voigt Hill
#
# Bulk Modulus (GPa) = 33.93863 54.66835 44.30349
# Shear Modulus (GPa) = 18.63379 25.14351 21.88865
#
# Velocity S-wave (km/s) = 3.18390 3.69846 3.45079
# Velocity P-wave (km/s) = 5.65506 6.92669 6.32292
#
# Compressibility (1/GPa) = 0.02946495
#
# Stress axis : x y z
#
# Youngs Moduli (GPa) = 31.24627 71.28429 26.66559
#
# Poissons Ratio (x) = 0.31428 0.24386
# Poissons Ratio (y) = 0.13776 0.35946
# Poissons Ratio (z) = 0.28575 0.96094
#
# Static dielectric constant tensor:
#      x y z
#    x 3.232700 0.000000 0.037230 
#    y 0.000000 3.418700 0.000000 
#    z 0.037230 0.000000 3.385820 
# 
# 
# High freq. dielectric constant tensor:
#      x y z
#    x 1.698500 0.000000 0.005990 
#    y 0.000000 1.715120 0.000000 
#    z 0.005990 0.000000 1.712440 
# 
# From -- ./inp_files/58933.got.cif
#   From: 2010.06.25/outbox.cif.g09.slc.cpg/sg12_30_cif.got.tgz:58933.got - 2010.06.28 00:19:55.
