data_PCOD8082281
_publ_section_title
;
Structure prediction by ZEFSAII (Michael W. Deem and Ramdas Pophale) SiO2 
 PCOD8082281
Probable space group: C 2/M
;
_chemical_formula_sum "Si O2"
_cell_formula_units_Z 56
_cell_length_a 9.694600
_cell_length_b 19.004499
_cell_length_c 26.259901
_cell_angle_alpha 90.000000
_cell_angle_beta 42.685742
_cell_angle_gamma 90.000000
_cell_volume 3280.153861
_symmetry_space_group_name_H-M "C 2/M"
_symmetry_group_IT_number 12
_symmetry_cell_setting 'monoclinic'
loop_
_space_group_symop_operation_xyz
x,y,z
-x,y,-z
-x,-y,-z
x,-y,z
1/2+x,1/2+y,z
1/2-x,1/2+y,-z
1/2-x,1/2-y,-z
1/2+x,1/2-y,z
loop_
_atom_site_type_symbol
_atom_site_label
_atom_site_fract_x
_atom_site_fract_y
_atom_site_fract_z
Si Si1 0.072264 0.703787 0.071909
Si Si2 0.856158 0.193824 0.864670
Si Si3 0.650814 0.683202 0.693206
Si Si4 0.173332 0.146739 0.490673
Si Si5 0.301655 0.920963 0.020372
Si Si6 0.956472 0.420295 0.567007
Si Si7 0.964005 0.230504 0.381533
O O1 0.050971 0.734319 0.135050
O O2 0.865690 0.714040 0.096152
O O3 0.250000 0.750000 0.000000
O O4 0.140085 0.621212 0.048005
O O5 0.852979 0.128363 0.905354
O O6 0.001476 0.168385 0.780234
O O7 0.761344 0.611578 0.647530
O O8 0.516905 0.709776 0.682403
O O9 0.820046 0.739676 0.661062
O O10 0.344859 0.087272 0.451317
O O11 0.075783 0.163105 0.572125
O O12 0.275567 0.216214 0.439187
O O13 0.000000 0.117797 0.500000
O O14 0.213568 0.000000 0.032067
O O15 0.500000 0.931381 0.000000
O O16 0.899268 0.500000 0.573236
O O17 0.000000 0.383493 0.500000
#
# Coordination Sequence:
#
# PCOD8082281 Si02
#       7
#     8   8   8   8   8   8   8
#     4   9  17  32  52  76 103 133 166 210 247 301
#     4  10  19  30  50  77 105 135 166 208 264 305
#     4  11  20  32  49  74 106 131 166 216 269 309
#     4  10  18  31  51  71  92 126 171 222 257 300
#     4   8  15  29  50  74  98 128 169 203 235 291
#     4  10  21  35  50  70  99 137 178 215 253 306
#     4  10  19  29  47  74  98 124 164 217 268 304
#
# _framework density 17.072371
#
# number of rings (size 3 to 8) (size 9 to 14) (size 15 to 20)
#    0.000    2.286    2.857    2.143    0.000    0.857 
#    0.000    0.000    0.000    6.857    0.000    4.000 
#    0.000    0.000    0.000    0.000    0.000    0.000 
#
# Total GULP energy -346982.962283 kJ/mol
# GULP energy per Si atom -12392.248653 kJ/mol
# Density = 1.703351 g / cm^3
# Si number density = 17.072371 Si / 1000 Ang^3
#
#
#
# Elastic Constant Matrix: (Units=GPa)
#
#
# Indices 1 2 3 4 5 6 
#
# 1 85.5807 31.1343 25.8178 0.0029 5.9874 0.0074
# 2 31.1343 95.9420 42.8292 -0.0016 9.5762 -0.0007
# 3 25.8178 42.8292 101.8505 -0.0116 11.4403 -0.0071
# 4 0.0029 -0.0016 -0.0116 15.3776 0.0026 8.5106
# 5 5.9874 9.5762 11.4403 0.0026 25.9109 -0.0003
# 6 0.0074 -0.0007 -0.0071 8.5106 -0.0003 21.7966
#
#
#
# Elastic Compliance Matrix: (Units=1/GPa)
#
#
# Indices 1 2 3 4 5 6 
#
# 1 0.013583 -0.003471 -0.001868 -0.000002 -0.001031 -0.000005
# 2 -0.003471 0.013872 -0.004701 -0.000001 -0.002249 0.000001
# 3 -0.001868 -0.004701 0.012652 0.000009 -0.003417 0.000001
# 4 -0.000002 -0.000001 0.000009 0.082956 -0.000012 -0.032391
# 5 -0.001031 -0.002249 -0.003417 -0.000012 0.041172 0.000004
# 6 -0.000005 0.000001 0.000001 -0.032391 0.000004 0.058526
#
#
# Mechanical properties :
#
#
# Convention : Reuss Voigt Hill
#
# Bulk Modulus (GPa) = 49.92905 53.65954 51.79430
# Shear Modulus (GPa) = 20.03858 24.85646 22.44752
#
# Velocity S-wave (km/s) = 3.42971 3.81983 3.63001
# Velocity P-wave (km/s) = 6.70767 7.13818 6.92627
#
# Compressibility (1/GPa) = 0.02002842
#
# Stress axis : x y z
#
# Youngs Moduli (GPa) = 73.61976 72.08518 79.03642
#
# Poissons Ratio (x) = 0.25023 0.14761
# Poissons Ratio (y) = 0.25555 0.37155
# Poissons Ratio (z) = 0.13750 0.33887
#
# Static dielectric constant tensor:
#      x y z
#    x 3.379380 -0.000010 0.175500 
#    y -0.000010 3.213480 -0.000010 
#    z 0.175500 -0.000010 3.266280 
# 
# 
# High freq. dielectric constant tensor:
#      x y z
#    x 1.655990 0.000000 0.001010 
#    y 0.000000 1.638090 0.000000 
#    z 0.001010 0.000000 1.650330 
# 
# From -- ./inp_files/257668.got.cif
#   From: 2010.06.25/outbox.cif.g09.slc.cpg/sg12_129_cif.got.tgz:257668.got - 2010.06.28 00:19:55.
