data_PCOD8082557
_publ_section_title
;
Structure prediction by ZEFSAII (Michael W. Deem and Ramdas Pophale) SiO2 
 PCOD8082557
Probable space group: C 2/M
;
_chemical_formula_sum "Si O2"
_cell_formula_units_Z 56
_cell_length_a 8.871830
_cell_length_b 19.132459
_cell_length_c 23.082329
_cell_angle_alpha 90.000000
_cell_angle_beta 129.873170
_cell_angle_gamma 90.000000
_cell_volume 3006.924042
_symmetry_space_group_name_H-M "C 2/M"
_symmetry_group_IT_number 12
_symmetry_cell_setting 'monoclinic'
loop_
_space_group_symop_operation_xyz
x,y,z
-x,y,-z
-x,-y,-z
x,-y,z
1/2+x,1/2+y,z
1/2-x,1/2+y,-z
1/2-x,1/2-y,-z
1/2+x,1/2-y,z
loop_
_atom_site_type_symbol
_atom_site_label
_atom_site_fract_x
_atom_site_fract_y
_atom_site_fract_z
Si Si1 0.810263 0.582926 0.993685
Si Si2 0.725430 0.307909 0.070918
Si Si3 0.946011 0.421590 0.425626
Si Si4 0.014404 0.822931 0.132074
Si Si5 0.567088 0.268125 0.383110
Si Si6 0.815194 0.144658 0.485840
Si Si7 0.188747 0.819198 0.301409
O O1 0.796857 0.500000 0.003685
O O2 0.809108 0.625382 0.055030
O O3 0.616301 0.608006 0.911461
O O4 0.000000 0.599246 0.000000
O O5 0.870699 0.244222 0.091426
O O6 0.703341 0.321531 0.134773
O O7 0.500000 0.288909 0.000000
O O8 0.887286 0.500000 0.424279
O O9 0.763645 0.392721 0.344441
O O10 0.000000 0.382789 0.500000
O O11 0.145901 0.413443 0.438474
O O12 0.101370 0.828287 0.217001
O O13 0.748005 0.214849 0.436032
O O14 0.618819 0.337376 0.432289
O O15 0.365829 0.234347 0.352767
O O16 0.528712 0.289448 0.306679
O O17 0.000000 0.110625 0.500000
#
# Coordination Sequence:
#
# PCOD8082557 Si02
#       7
#     8   8   8   8   8   8   8
#     4  10  21  38  61  85 110 146 189 227 265 322
#     4  10  20  36  58  85 115 145 184 225 268 327
#     4  10  21  36  53  73 102 143 187 223 264 321
#     4  11  21  34  56  85 116 149 178 226 283 330
#     4  10  19  30  49  79 105 131 173 225 278 317
#     4  10  18  31  53  75  98 130 178 233 270 312
#     4  11  21  34  53  81 111 142 174 225 278 323
#
# _framework density 18.623683
#
# number of rings (size 3 to 8) (size 9 to 14) (size 15 to 20)
#    0.000    1.714    2.857    3.857    0.000    3.429 
#    0.000    0.000    0.000    0.000    0.000    0.000 
#    0.000    0.000    0.000    0.000    0.000    0.000 
#
# Total GULP energy -346875.285369 kJ/mol
# GULP energy per Si atom -12388.403049 kJ/mol
# Density = 1.858130 g / cm^3
# Si number density = 18.623683 Si / 1000 Ang^3
#
#
#
# Elastic Constant Matrix: (Units=GPa)
#
#
# Indices 1 2 3 4 5 6 
#
# 1 103.6100 35.6502 21.8616 0.0000 -16.5491 0.0001
# 2 35.6502 87.2247 34.1387 0.0000 -5.3484 0.0000
# 3 21.8616 34.1387 100.2115 0.0000 -27.6722 0.0001
# 4 0.0000 0.0000 0.0000 10.7579 0.0000 -6.8131
# 5 -16.5491 -5.3484 -27.6722 0.0000 34.3181 0.0000
# 6 0.0001 0.0000 0.0001 -6.8131 0.0000 14.2343
#
#
#
# Elastic Compliance Matrix: (Units=1/GPa)
#
#
# Indices 1 2 3 4 5 6 
#
# 1 0.012071 -0.004800 0.000518 0.000000 0.005490 0.000000
# 2 -0.004800 0.015247 -0.005313 0.000000 -0.004222 0.000000
# 3 0.000518 -0.005313 0.014815 0.000000 0.011368 0.000000
# 4 0.000000 0.000000 0.000000 0.133390 0.000000 0.063846
# 5 0.005490 -0.004222 0.011368 0.000000 0.040295 0.000000
# 6 0.000000 0.000000 0.000000 0.063846 0.000000 0.100812
#
#
# Mechanical properties :
#
#
# Convention : Reuss Voigt Hill
#
# Bulk Modulus (GPa) = 43.58607 52.70526 48.14567
# Shear Modulus (GPa) = 14.55747 25.15510 19.85628
#
# Velocity S-wave (km/s) = 2.79886 3.67918 3.26879
# Velocity P-wave (km/s) = 5.82230 6.81249 6.33677
#
# Compressibility (1/GPa) = 0.02294311
#
# Stress axis : x y z
#
# Youngs Moduli (GPa) = 82.84531 65.58741 67.49945
#
# Poissons Ratio (x) = 0.31479 -0.03496
# Poissons Ratio (y) = 0.39762 0.35863
# Poissons Ratio (z) = -0.04290 0.34847
#
# Static dielectric constant tensor:
#      x y z
#    x 3.764770 0.000000 -0.170240 
#    y 0.000000 3.191110 0.000000 
#    z -0.170240 0.000000 3.381410 
# 
# 
# High freq. dielectric constant tensor:
#      x y z
#    x 1.742300 0.000000 -0.010370 
#    y 0.000000 1.700440 0.000000 
#    z -0.010370 0.000000 1.707220 
# 
# From -- ./inp_files/301776.got.cif
#   From: 2010.06.25/outbox.cif.g09.slc.cpg/sg12_151_cif.got.tgz:301776.got - 2010.06.28 00:19:55.
