data_PCOD8082510
_publ_section_title
;
Structure prediction by ZEFSAII (Michael W. Deem and Ramdas Pophale) SiO2 
 PCOD8082510
Probable space group: C 2/M
;
_chemical_formula_sum "Si O2"
_cell_formula_units_Z 56
_cell_length_a 28.447116
_cell_length_b 13.034639
_cell_length_c 11.379798
_cell_angle_alpha 90.000000
_cell_angle_beta 131.063738
_cell_angle_gamma 90.000000
_cell_volume 3181.494821
_symmetry_space_group_name_H-M "C 2/M"
_symmetry_group_IT_number 12
_symmetry_cell_setting 'monoclinic'
loop_
_space_group_symop_operation_xyz
x,y,z
-x,y,-z
-x,-y,-z
x,-y,z
1/2+x,1/2+y,z
1/2-x,1/2+y,-z
1/2-x,1/2-y,-z
1/2+x,1/2-y,z
loop_
_atom_site_type_symbol
_atom_site_label
_atom_site_fract_x
_atom_site_fract_y
_atom_site_fract_z
Si Si1 0.223018 0.618341 0.570682
Si Si2 0.342223 0.304159 0.636413
Si Si3 0.461950 0.621165 0.266130
Si Si4 0.602569 0.383488 0.502989
Si Si5 0.765326 0.617091 0.136679
Si Si6 0.655416 0.702929 0.808532
Si Si7 0.434715 0.615196 0.955801
O O1 0.202406 0.500000 0.524806
O O2 0.279092 0.641902 0.574282
O O3 0.166683 0.690686 0.433280
O O4 0.240539 0.644747 0.734608
O O5 0.375065 0.375026 0.593676
O O6 0.388164 0.301161 0.823505
O O7 0.454384 0.500000 0.283153
O O8 0.532341 0.660681 0.404226
O O9 0.416030 0.691534 0.267976
O O10 0.443531 0.645496 0.103689
O O11 0.598255 0.500000 0.533099
O O12 0.654836 0.332953 0.672066
O O13 0.785101 0.500000 0.153129
O O14 0.818369 0.681295 0.154582
O O15 0.698692 0.635581 0.965492
O O16 0.406284 0.500000 0.897514
O O17 0.500000 0.620446 0.000000
#
# Coordination Sequence:
#
# PCOD8082510 Si02
#       7
#     8   8   8   8   8   8   8
#     4  10  21  37  56  76 103 140 181 218 258 311
#     4  11  20  33  55  81 105 136 175 216 265 309
#     4  10  20  33  53  79 111 143 170 209 265 321
#     4  11  20  32  51  82 113 137 167 216 267 315
#     4  10  21  38  56  74 104 144 181 218 256 307
#     4  11  21  34  54  79 105 141 178 213 262 311
#     4  10  18  31  52  79 108 138 169 206 257 319
#
# _framework density 17.601789
#
# number of rings (size 3 to 8) (size 9 to 14) (size 15 to 20)
#    0.000    1.571    2.857    3.857    0.000    3.429 
#    0.000    0.000    0.000    3.000    0.000    0.000 
#    0.000    0.000    0.000    0.000    0.000    0.000 
#
# Total GULP energy -347104.927945 kJ/mol
# GULP energy per Si atom -12396.604569 kJ/mol
# Density = 1.756173 g / cm^3
# Si number density = 17.601789 Si / 1000 Ang^3
#
#
#
# Elastic Constant Matrix: (Units=GPa)
#
#
# Indices 1 2 3 4 5 6 
#
# 1 78.9405 27.1487 20.6154 0.0000 -2.4205 0.0000
# 2 27.1487 76.1688 52.0278 0.0000 1.0538 0.0000
# 3 20.6154 52.0278 117.1650 0.0000 3.2435 0.0000
# 4 0.0000 0.0000 0.0000 29.1064 0.0000 -1.4447
# 5 -2.4205 1.0538 3.2435 0.0000 20.5627 0.0000
# 6 0.0000 0.0000 0.0000 -1.4447 0.0000 23.1975
#
#
#
# Elastic Compliance Matrix: (Units=1/GPa)
#
#
# Indices 1 2 3 4 5 6 
#
# 1 0.014532 -0.004913 -0.000432 0.000000 0.002031 0.000000
# 2 -0.004913 0.020508 -0.008233 0.000000 -0.000331 0.000000
# 3 -0.000432 -0.008233 0.012310 0.000000 -0.001571 0.000000
# 4 0.000000 0.000000 0.000000 0.034463 0.000000 0.002146
# 5 0.002031 -0.000331 -0.001571 0.000000 0.049136 0.000000
# 6 0.000000 0.000000 0.000000 0.002146 0.000000 0.043242
#
#
# Mechanical properties :
#
#
# Convention : Reuss Voigt Hill
#
# Bulk Modulus (GPa) = 49.51620 52.42868 50.97244
# Shear Modulus (GPa) = 24.02935 26.07214 25.05074
#
# Velocity S-wave (km/s) = 3.69882 3.85284 3.77662
# Velocity P-wave (km/s) = 6.81426 7.04579 6.93099
#
# Compressibility (1/GPa) = 0.02019541
#
# Stress axis : x y z
#
# Youngs Moduli (GPa) = 68.81176 48.76099 81.23234
#
# Poissons Ratio (x) = 0.23957 0.03506
# Poissons Ratio (y) = 0.33808 0.66880
# Poissons Ratio (z) = 0.02970 0.40146
#
# Static dielectric constant tensor:
#      x y z
#    x 3.240050 0.000000 -0.041920 
#    y 0.000000 3.106590 0.000000 
#    z -0.041920 0.000000 3.493100 
# 
# 
# High freq. dielectric constant tensor:
#      x y z
#    x 1.686910 0.000000 -0.013300 
#    y 0.000000 1.646440 0.000000 
#    z -0.013300 0.000000 1.696600 
# 
# From -- ./inp_files/164832.got.cif
#   From: 2010.06.25/outbox.cif.g09.slc.cpg/sg12_83_cif.got.tgz:164832.got - 2010.06.28 00:19:55.
