data_PCOD8082309
_publ_section_title
;
Structure prediction by ZEFSAII (Michael W. Deem and Ramdas Pophale) SiO2 
 PCOD8082309
Probable space group: C 2/M
;
_chemical_formula_sum "Si O2"
_cell_formula_units_Z 64
_cell_length_a 10.436227
_cell_length_b 25.659393
_cell_length_c 17.458997
_cell_angle_alpha 90.000000
_cell_angle_beta 126.708928
_cell_angle_gamma 90.000000
_cell_volume 3748.103673
_symmetry_space_group_name_H-M "C 2/M"
_symmetry_group_IT_number 12
_symmetry_cell_setting 'monoclinic'
loop_
_space_group_symop_operation_xyz
x,y,z
-x,y,-z
-x,-y,-z
x,-y,z
1/2+x,1/2+y,z
1/2-x,1/2+y,-z
1/2-x,1/2-y,-z
1/2+x,1/2-y,z
loop_
_atom_site_type_symbol
_atom_site_label
_atom_site_fract_x
_atom_site_fract_y
_atom_site_fract_z
Si Si1 0.351433 0.056820 0.201262
Si Si2 0.351843 0.604438 0.999999
Si Si3 0.148209 0.841180 0.297103
Si Si4 0.945992 0.341180 0.297100
Si Si5 0.137952 0.308223 0.000002
Si Si6 0.085580 0.750000 0.835582
Si Si7 0.051082 0.943179 0.201261
Si Si8 0.351264 0.203625 0.500001
O O1 0.477285 0.102665 0.267817
O O2 0.219797 0.053352 0.219802
O O3 0.437267 0.000000 0.225674
O O4 0.270058 0.069293 0.091169
O O5 0.260081 0.654251 0.999998
O O6 0.412274 0.569293 0.091167
O O7 0.500000 0.623852 0.000000
O O8 0.273991 0.842410 0.273992
O O9 0.058339 0.897332 0.267812
O O10 0.231507 0.831907 0.408300
O O11 0.027490 0.795938 0.232760
O O12 0.938020 0.295945 0.232743
O O13 0.085092 0.331904 0.408295
O O14 0.234463 0.272129 0.094776
O O15 0.044925 0.272122 0.905237
O O16 0.000000 0.337605 0.000000
O O17 0.014071 0.000000 0.225672
O O18 0.500000 0.223897 0.500000
O O19 0.250000 0.250000 0.500000
#
# Coordination Sequence:
#
# PCOD8082309 Si02
#       8
#     8   8   8   8   8   8   8   8
#     4   9  17  30  50  75 100 131 174 217 255 300
#     4  10  18  31  51  74 100 136 175 214 251 301
#     4  10  19  32  51  76 103 132 169 215 258 301
#     4  10  19  32  51  76 103 132 169 215 258 301
#     4  11  23  32  46  78 109 138 171 208 258 311
#     4  11  20  33  50  68 104 147 168 205 250 316
#     4   9  17  30  50  75 100 131 174 217 255 300
#     4  10  20  34  53  79 109 135 168 211 258 306
#
# _framework density 17.075301
#
# number of rings (size 3 to 8) (size 9 to 14) (size 15 to 20)
#    0.000    2.000    3.750    1.125    0.000    3.500 
#    0.000    0.625    0.000    5.250    0.000    0.000 
#    0.000    1.000    0.000    0.000    0.000    0.000 
#
# Total GULP energy -396534.156177 kJ/mol
# GULP energy per Si atom -12391.692381 kJ/mol
# Density = 1.703644 g / cm^3
# Si number density = 17.075301 Si / 1000 Ang^3
#
#
#
# Elastic Constant Matrix: (Units=GPa)
#
#
# Indices 1 2 3 4 5 6 
#
# 1 53.6683 40.4807 29.4192 0.0000 -0.2053 0.0000
# 2 40.4807 171.7157 81.5954 0.0000 0.5996 0.0000
# 3 29.4192 81.5954 139.7931 0.0000 1.4598 0.0000
# 4 0.0000 0.0000 0.0000 17.9398 0.0000 -0.0105
# 5 -0.2053 0.5996 1.4598 0.0000 4.8229 0.0000
# 6 0.0000 0.0000 0.0000 -0.0105 0.0000 18.9493
#
#
#
# Elastic Compliance Matrix: (Units=1/GPa)
#
#
# Indices 1 2 3 4 5 6 
#
# 1 0.023227 -0.004358 -0.002368 0.000000 0.002247 0.000000
# 2 -0.004358 0.008877 -0.004264 0.000000 0.000002 0.000000
# 3 -0.002368 -0.004264 0.010168 0.000000 -0.002648 0.000000
# 4 0.000000 0.000000 0.000000 0.055742 0.000000 0.000031
# 5 0.002247 0.000002 -0.002648 0.000000 0.208239 0.000000
# 6 0.000000 0.000000 0.000000 0.000031 0.000000 0.052773
#
#
# Mechanical properties :
#
#
# Convention : Reuss Voigt Hill
#
# Bulk Modulus (GPa) = 49.28079 74.24085 61.76082
# Shear Modulus (GPa) = 12.89421 22.58786 17.74103
#
# Velocity S-wave (km/s) = 2.75096 3.64103 3.22683
# Velocity P-wave (km/s) = 6.24611 7.82618 7.08036
#
# Compressibility (1/GPa) = 0.02029188
#
# Stress axis : x y z
#
# Youngs Moduli (GPa) = 43.05368 112.64575 98.34364
#
# Poissons Ratio (x) = 0.49095 0.23284
# Poissons Ratio (y) = 0.18764 0.41938
# Poissons Ratio (z) = 0.10193 0.48037
#
# Static dielectric constant tensor:
#      x y z
#    x 2.874430 0.000000 0.007300 
#    y 0.000000 3.574320 0.000000 
#    z 0.007300 0.000000 3.380810 
# 
# 
# High freq. dielectric constant tensor:
#      x y z
#    x 1.614530 0.000000 0.000740 
#    y 0.000000 1.663310 0.000000 
#    z 0.000740 0.000000 1.666090 
# 
# From -- ./inp_files/265540.got.cif
#   From: 2010.06.25/outbox.cif.g09.slc.cpg/sg12_133_cif.got.tgz:265540.got - 2010.06.28 00:19:55.
