data_PCOD8082047
_publ_section_title
;
Structure prediction by ZEFSAII (Michael W. Deem and Ramdas Pophale) SiO2 
 PCOD8082047
Probable space group: C 2/M
;
_chemical_formula_sum "Si O2"
_cell_formula_units_Z 64
_cell_length_a 20.704587
_cell_length_b 9.134797
_cell_length_c 20.964104
_cell_angle_alpha 90.000000
_cell_angle_beta 71.868602
_cell_angle_gamma 90.000000
_cell_volume 3768.107003
_symmetry_space_group_name_H-M "C 2/M"
_symmetry_group_IT_number 12
_symmetry_cell_setting 'monoclinic'
loop_
_space_group_symop_operation_xyz
x,y,z
-x,y,-z
-x,-y,-z
x,-y,z
1/2+x,1/2+y,z
1/2-x,1/2+y,-z
1/2-x,1/2-y,-z
1/2+x,1/2-y,z
loop_
_atom_site_type_symbol
_atom_site_label
_atom_site_fract_x
_atom_site_fract_y
_atom_site_fract_z
Si Si1 0.688443 0.829027 0.830618
Si Si2 0.955972 0.671758 0.951761
Si Si3 0.947374 0.826706 0.167406
Si Si4 0.803841 0.668415 0.026098
Si Si5 0.750682 0.834979 0.299805
Si Si6 0.700145 0.334673 0.428911
Si Si7 0.849741 0.664081 0.441671
Si Si8 0.398767 0.661862 0.315619
O O1 0.615147 0.754952 0.846761
O O2 0.744375 0.754223 0.767769
O O3 0.681130 0.000000 0.815380
O O4 0.714174 0.806038 0.894474
O O5 0.960871 0.500000 0.934617
O O6 0.879509 0.725174 0.987754
O O7 0.983326 0.764699 0.883476
O O8 0.000000 0.711084 0.000000
O O9 0.949335 0.791773 0.242821
O O10 0.939546 0.000000 0.158252
O O11 0.799269 0.500000 0.009360
O O12 0.750000 0.750000 0.000000
O O13 0.698040 0.754030 0.363149
O O14 0.823805 0.838600 0.309615
O O15 0.724824 0.000000 0.294481
O O16 0.675577 0.500000 0.424015
O O17 0.775215 0.333478 0.434674
O O18 0.648513 0.259211 0.494428
O O19 0.872294 0.500000 0.451663
O O20 0.903379 0.728237 0.373890
O O21 0.416657 0.500000 0.335574
#
# Coordination Sequence:
#
# PCOD8082047 Si02
#       8
#     8   8   8   8   8   8   8   8
#     4  10  18  31  47  64  89 121 153 189 238 288
#     4  10  19  35  53  71  96 125 157 196 242 289
#     4  10  19  29  45  70  92 116 153 198 237 275
#     4  10  22  37  53  72  96 127 158 196 242 291
#     4   9  16  25  37  56  79 105 144 191 229 268
#     4   9  15  22  32  47  70 105 143 180 225 272
#     4   9  15  21  31  47  69 102 144 183 220 265
#     4   8  15  25  34  50  79 108 139 180 227 272
#
# _framework density 16.984655
#
# number of rings (size 3 to 8) (size 9 to 14) (size 15 to 20)
#    0.000    2.625    1.250    2.625    0.000    8.250 
#    0.000    0.000    0.000    0.000    0.000    0.000 
#    0.000    0.000    0.000    1.125    0.000   21.500 
#
# Total GULP energy -396728.035669 kJ/mol
# GULP energy per Si atom -12397.751115 kJ/mol
# Density = 1.694600 g / cm^3
# Si number density = 16.984655 Si / 1000 Ang^3
#
#
#
# Elastic Constant Matrix: (Units=GPa)
#
#
# Indices 1 2 3 4 5 6 
#
# 1 48.8488 30.0114 38.8206 0.0000 -1.4512 0.0000
# 2 30.0114 128.9905 82.0688 -0.0002 -11.2493 -0.0002
# 3 38.8206 82.0688 145.8447 0.0000 -23.5834 0.0000
# 4 0.0000 -0.0002 0.0000 37.2684 0.0000 -4.6261
# 5 -1.4512 -11.2493 -23.5834 0.0000 13.1846 -0.0001
# 6 0.0000 -0.0002 0.0000 -4.6261 -0.0001 16.4488
#
#
#
# Elastic Compliance Matrix: (Units=1/GPa)
#
#
# Indices 1 2 3 4 5 6 
#
# 1 0.028238 -0.002443 -0.008408 0.000000 -0.014016 0.000000
# 2 -0.002443 0.012351 -0.006527 0.000000 -0.001406 0.000000
# 3 -0.008408 -0.006527 0.016486 0.000000 0.022994 0.000000
# 4 0.000000 0.000000 0.000000 0.027803 0.000000 0.007819
# 5 -0.014016 -0.001406 0.022994 0.000000 0.114233 0.000001
# 6 0.000000 0.000000 0.000000 0.007819 0.000001 0.062994
#
#
# Mechanical properties :
#
#
# Convention : Reuss Voigt Hill
#
# Bulk Modulus (GPa) = 44.80604 69.49839 57.15222
# Shear Modulus (GPa) = 16.43118 24.89924 20.66521
#
# Velocity S-wave (km/s) = 3.11370 3.83297 3.49190
# Velocity P-wave (km/s) = 6.27411 7.78435 7.06967
#
# Compressibility (1/GPa) = 0.02231842
#
# Stress axis : x y z
#
# Youngs Moduli (GPa) = 35.41375 80.96410 60.65812
#
# Poissons Ratio (x) = 0.19776 0.51002
# Poissons Ratio (y) = 0.08650 0.39594
# Poissons Ratio (z) = 0.29776 0.52849
#
# Static dielectric constant tensor:
#      x y z
#    x 2.527510 0.000000 -0.269450 
#    y 0.000000 3.344120 0.000000 
#    z -0.269450 0.000000 3.464370 
# 
# 
# High freq. dielectric constant tensor:
#      x y z
#    x 1.570500 0.000000 -0.023910 
#    y 0.000000 1.669120 0.000000 
#    z -0.023910 0.000000 1.671560 
# 
# From -- ./inp_files/287555.got.cif
#   From: 2010.06.25/outbox.cif.g09.slc.cpg/sg12_144_cif.got.tgz:287555.got - 2010.06.28 00:19:55.
