data_PCOD8082457
_publ_section_title
;
Structure prediction by ZEFSAII (Michael W. Deem and Ramdas Pophale) SiO2 
 PCOD8082457
Probable space group: C 2/M
;
_chemical_formula_sum "Si O2"
_cell_formula_units_Z 56
_cell_length_a 23.506394
_cell_length_b 9.006349
_cell_length_c 15.636390
_cell_angle_alpha 90.000000
_cell_angle_beta 64.341601
_cell_angle_gamma 90.000000
_cell_volume 2983.903743
_symmetry_space_group_name_H-M "C 2/M"
_symmetry_group_IT_number 12
_symmetry_cell_setting 'monoclinic'
loop_
_space_group_symop_operation_xyz
x,y,z
-x,y,-z
-x,-y,-z
x,-y,z
1/2+x,1/2+y,z
1/2-x,1/2+y,-z
1/2-x,1/2-y,-z
1/2+x,1/2-y,z
loop_
_atom_site_type_symbol
_atom_site_label
_atom_site_fract_x
_atom_site_fract_y
_atom_site_fract_z
Si Si1 0.154705 0.326838 0.562978
Si Si2 0.966712 0.323109 0.263207
Si Si3 0.106902 0.326038 0.174632
Si Si4 0.724672 0.825832 0.203673
Si Si5 0.668107 0.824797 0.960111
Si Si6 0.764076 0.172860 0.623944
Si Si7 0.557428 0.824801 0.908462
O O1 0.156706 0.500000 0.537913
O O2 0.084269 0.271262 0.632914
O O3 0.175867 0.236042 0.466177
O O4 0.200285 0.293643 0.613497
O O5 0.965995 0.500000 0.261456
O O6 0.944746 0.259040 0.185722
O O7 0.036861 0.260661 0.239012
O O8 0.099430 0.500000 0.164496
O O9 0.152083 0.290618 0.225423
O O10 0.136314 0.262229 0.067510
O O11 0.767015 0.761678 0.099040
O O12 0.741835 0.749625 0.281071
O O13 0.736518 0.000000 0.203970
O O14 0.623309 0.784763 0.909470
O O15 0.681806 0.000000 0.957364
O O16 0.774324 0.000000 0.632586
O O17 0.547905 0.000000 0.910336
O O18 0.500000 0.754691 0.000000
#
# Coordination Sequence:
#
# PCOD8082457 Si02
#       7
#     8   8   8   8   8   8   8
#     4   9  18  33  57  84 104 124 158 209 264 308
#     4   9  15  27  48  77 106 130 163 209 256 297
#     4   9  18  31  48  73 104 137 173 212 248 294
#     4  11  22  34  49  72 103 139 176 210 250 295
#     4  10  18  31  52  77 102 133 174 214 256 299
#     4  10  20  36  56  79 103 129 165 207 255 308
#     4   9  14  23  45  77 105 127 159 206 251 291
#
# _framework density 18.767361999999999
#
# number of rings (size 3 to 8) (size 9 to 14) (size 15 to 20)
#    0.000    2.429    1.429    2.143    0.000    2.857 
#    0.000    1.429    0.000    7.286    0.000    0.000 
#    0.000    0.000    0.000    0.000    0.000    0.000 
#
# Total GULP energy -347134.956986 kJ/mol
# GULP energy per Si atom -12397.677035 kJ/mol
# Density = 1.872465 g / cm^3
# Si number density = 18.767362 Si / 1000 Ang^3
#
#
#
# Elastic Constant Matrix: (Units=GPa)
#
#
# Indices 1 2 3 4 5 6 
#
# 1 78.1435 29.0154 42.5542 0.0000 -20.4635 0.0000
# 2 29.0154 46.2702 31.3934 0.0000 -4.2749 -0.0001
# 3 42.5542 31.3934 105.4384 0.0000 -24.9474 0.0000
# 4 0.0000 0.0000 0.0000 25.3264 0.0000 -2.0311
# 5 -20.4635 -4.2749 -24.9474 0.0000 32.0665 0.0000
# 6 0.0000 -0.0001 0.0000 -2.0311 0.0000 13.4834
#
#
#
# Elastic Compliance Matrix: (Units=1/GPa)
#
#
# Indices 1 2 3 4 5 6 
#
# 1 0.020676 -0.009957 -0.003153 0.000000 0.009415 0.000000
# 2 -0.009957 0.032160 -0.007410 0.000000 -0.007831 0.000000
# 3 -0.003153 -0.007410 0.015017 0.000000 0.008684 0.000000
# 4 0.000000 0.000000 0.000000 0.039967 0.000000 0.006020
# 5 0.009415 -0.007831 0.008684 0.000000 0.042905 0.000000
# 6 0.000000 0.000000 0.000000 0.006020 0.000000 0.075072
#
#
# Mechanical properties :
#
#
# Convention : Reuss Voigt Hill
#
# Bulk Modulus (GPa) = 37.29278 48.41978 42.85628
# Shear Modulus (GPa) = 18.13073 22.63454 20.38264
#
# Velocity S-wave (km/s) = 3.11155 3.47660 3.29913
# Velocity P-wave (km/s) = 5.72916 6.47856 6.11535
#
# Compressibility (1/GPa) = 0.02681484
#
# Stress axis : x y z
#
# Youngs Moduli (GPa) = 48.36453 31.09465 66.58943
#
# Poissons Ratio (x) = 0.30961 0.20993
# Poissons Ratio (y) = 0.48156 0.49341
# Poissons Ratio (z) = 0.15248 0.23040
#
# Static dielectric constant tensor:
#      x y z
#    x 3.576270 0.000000 -0.181620 
#    y 0.000000 3.008280 0.000000 
#    z -0.181620 0.000000 3.547620 
# 
# 
# High freq. dielectric constant tensor:
#      x y z
#    x 1.730940 0.000000 -0.009040 
#    y 0.000000 1.679580 0.000000 
#    z -0.009040 0.000000 1.732460 
# 
# From -- ./inp_files/238276.got.cif
#   From: 2010.06.25/outbox.cif.g09.slc.cpg/sg12_120_cif.got.tgz:238276.got - 2010.06.28 00:19:55.
