data_PCOD8082143
_publ_section_title
;
Structure prediction by ZEFSAII (Michael W. Deem and Ramdas Pophale) SiO2 
 PCOD8082143
Probable space group: C 2/M
;
_chemical_formula_sum "Si O2"
_cell_formula_units_Z 40
_cell_length_a 22.372344
_cell_length_b 7.692897
_cell_length_c 21.339893
_cell_angle_alpha 90.000000
_cell_angle_beta 142.048339
_cell_angle_gamma 90.000000
_cell_volume 2258.739983
_symmetry_space_group_name_H-M "C 2/M"
_symmetry_group_IT_number 12
_symmetry_cell_setting 'monoclinic'
loop_
_space_group_symop_operation_xyz
x,y,z
-x,y,-z
-x,-y,-z
x,-y,z
1/2+x,1/2+y,z
1/2-x,1/2+y,-z
1/2-x,1/2-y,-z
1/2+x,1/2-y,z
loop_
_atom_site_type_symbol
_atom_site_label
_atom_site_fract_x
_atom_site_fract_y
_atom_site_fract_z
Si Si1 0.396544 0.500000 0.493485
Si Si2 0.618214 0.701573 0.217601
Si Si3 0.438536 0.802076 0.007208
Si Si4 0.758811 0.196784 0.799949
Si Si5 0.230977 0.296265 0.555460
Si Si6 0.619715 0.500000 0.667927
O O1 0.354946 0.676237 0.489565
O O2 0.510329 0.500000 0.602147
O O3 0.374747 0.500000 0.402234
O O4 0.603721 0.500000 0.197741
O O5 0.508573 0.781837 0.125896
O O6 0.685345 0.768182 0.215795
O O7 0.669966 0.750585 0.325444
O O8 0.410631 0.000000 0.972951
O O9 0.500000 0.724536 0.000000
O O10 0.334775 0.702139 0.921754
O O11 0.668995 0.325924 0.736690
O O12 0.719412 0.000000 0.759084
O O13 0.203573 0.500000 0.541787
O O14 0.250000 0.250000 0.500000
#
# Coordination Sequence:
#
# PCOD8082143 Si02
#       6
#     4   8   8   8   8   4
#     4  11  24  38  55  80 111 143 183 230 265 318
#     4   9  18  29  45  75 108 138 173 217 268 321
#     4   9  16  24  44  72 104 140 172 208 265 327
#     4  10  18  31  49  73 109 145 174 214 264 325
#     4  11  22  37  58  80 108 141 182 227 273 316
#     4  11  22  36  54  79 112 149 182 214 270 328
#
# _framework density 17.708987
#
# number of rings (size 3 to 8) (size 9 to 14) (size 15 to 20)
#    0.000    2.000    4.000    0.600    2.800    3.200 
#    0.000    2.000    0.000    0.000    0.000    1.400 
#    0.000    0.000    0.000    0.000    0.000    0.000 
#
# Total GULP energy -247873.177614 kJ/mol
# GULP energy per Si atom -12393.658881 kJ/mol
# Density = 1.766868 g / cm^3
# Si number density = 17.708987 Si / 1000 Ang^3
#
#
#
# Elastic Constant Matrix: (Units=GPa)
#
#
# Indices 1 2 3 4 5 6 
#
# 1 51.9476 30.7716 46.2839 0.0000 0.6213 0.0000
# 2 30.7716 110.6034 61.3967 0.0000 13.1007 0.0000
# 3 46.2839 61.3967 154.9807 0.0000 7.1929 0.0000
# 4 0.0000 0.0000 0.0000 29.7752 0.0000 -0.3631
# 5 0.6213 13.1007 7.1929 0.0000 21.7511 0.0000
# 6 0.0000 0.0000 0.0000 -0.3631 0.0000 14.9450
#
#
#
# Elastic Compliance Matrix: (Units=1/GPa)
#
#
# Indices 1 2 3 4 5 6 
#
# 1 0.027866 -0.004509 -0.006728 0.000000 0.004145 0.000000
# 2 -0.004509 0.013018 -0.003507 0.000000 -0.006553 0.000000
# 3 -0.006728 -0.003507 0.009896 0.000000 -0.000968 0.000000
# 4 0.000000 0.000000 0.000000 0.033595 0.000000 0.000816
# 5 0.004145 -0.006553 -0.000968 0.000000 0.050123 0.000000
# 6 0.000000 0.000000 0.000000 0.000816 0.000000 0.066932
#
#
# Mechanical properties :
#
#
# Convention : Reuss Voigt Hill
#
# Bulk Modulus (GPa) = 46.96380 66.04846 56.50613
# Shear Modulus (GPa) = 21.00704 25.23290 23.11997
#
# Velocity S-wave (km/s) = 3.44791 3.77883 3.61716
# Velocity P-wave (km/s) = 6.51369 7.51112 7.03012
#
# Compressibility (1/GPa) = 0.02129299
#
# Stress axis : x y z
#
# Youngs Moduli (GPa) = 35.88593 76.81393 101.05228
#
# Poissons Ratio (x) = 0.34634 0.67989
# Poissons Ratio (y) = 0.16180 0.35436
# Poissons Ratio (z) = 0.24145 0.26936
#
# Static dielectric constant tensor:
#      x y z
#    x 2.742450 0.000000 -0.059500 
#    y 0.000000 3.373640 0.000000 
#    z -0.059500 0.000000 3.635960 
# 
# 
# High freq. dielectric constant tensor:
#      x y z
#    x 1.602710 0.000000 -0.003900 
#    y 0.000000 1.701840 0.000000 
#    z -0.003900 0.000000 1.705650 
# 
# From -- ./inp_files/171554.got.cif
#   From: 2010.06.25/outbox.cif.g09.slc.cpg/sg12_86_cif.got.tgz:171554.got - 2010.06.28 00:19:55.
