data_PCOD8082459
_publ_section_title
;
Structure prediction by ZEFSAII (Michael W. Deem and Ramdas Pophale) SiO2 
 PCOD8082459
Probable space group: C 2/M
;
_chemical_formula_sum "Si O2"
_cell_formula_units_Z 64
_cell_length_a 24.320872
_cell_length_b 9.360377
_cell_length_c 19.953886
_cell_angle_alpha 90.000000
_cell_angle_beta 125.611521
_cell_angle_gamma 90.000000
_cell_volume 3693.021222
_symmetry_space_group_name_H-M "C 2/M"
_symmetry_group_IT_number 12
_symmetry_cell_setting 'monoclinic'
loop_
_space_group_symop_operation_xyz
x,y,z
-x,y,-z
-x,-y,-z
x,-y,z
1/2+x,1/2+y,z
1/2-x,1/2+y,-z
1/2-x,1/2-y,-z
1/2+x,1/2-y,z
loop_
_atom_site_type_symbol
_atom_site_label
_atom_site_fract_x
_atom_site_fract_y
_atom_site_fract_z
Si Si1 0.323944 0.167672 0.284704
Si Si2 0.189569 0.335107 0.876524
Si Si3 0.339013 0.663796 0.518871
Si Si4 0.077595 0.166122 0.550428
Si Si5 0.657598 0.666011 0.977534
Si Si6 0.176648 0.169153 0.231865
Si Si7 0.313281 0.833635 0.628278
Si Si8 0.075454 0.830058 0.044829
O O1 0.332110 0.211674 0.213031
O O2 0.381942 0.247004 0.365779
O O3 0.250462 0.214678 0.258540
O O4 0.333472 0.000000 0.301369
O O5 0.174303 0.500000 0.878596
O O6 0.145807 0.246914 0.899170
O O7 0.268662 0.301903 0.940504
O O8 0.343994 0.500000 0.546832
O O9 0.396211 0.702030 0.505429
O O10 0.350329 0.767327 0.589845
O O11 0.266813 0.692622 0.433324
O O12 0.000000 0.212843 0.500000
O O13 0.087822 0.000000 0.573810
O O14 0.646685 0.500000 0.955495
O O15 0.604426 0.724948 0.994401
O O16 0.159035 0.252207 0.287229
O O17 0.122303 0.222717 0.138885
O O18 0.172065 0.000000 0.241383
O O19 0.331727 0.000000 0.645994
O O20 0.076009 0.000000 0.044728
O O21 0.000000 0.768496 0.000000
#
# Coordination Sequence:
#
# PCOD8082459 Si02
#       8
#     8   8   8   8   8   8   8   8
#     4  10  19  32  52  76 103 134 171 210 250 301
#     4   9  17  30  48  73 102 130 163 207 252 292
#     4   9  18  33  51  74 102 132 165 205 254 302
#     4  10  21  37  55  76 104 134 166 209 257 302
#     4   9  16  29  49  74 100 128 167 208 248 294
#     4  10  18  31  52  77 103 133 170 213 254 295
#     4  10  19  31  51  78 103 130 167 212 254 297
#     4   9  17  31  52  76 102 133 170 210 250 296
#
# _framework density 17.329984
#
# number of rings (size 3 to 8) (size 9 to 14) (size 15 to 20)
#    0.000    2.500    2.500    0.375    0.000    1.750 
#    0.000    1.875    0.000    7.500    0.000    0.000 
#    0.000    0.000    0.000    0.000    0.000    0.000 
#
# Total GULP energy -396839.815497 kJ/mol
# GULP energy per Si atom -12401.244234 kJ/mol
# Density = 1.729054 g / cm^3
# Si number density = 17.329984 Si / 1000 Ang^3
#
#
#
# Elastic Constant Matrix: (Units=GPa)
#
#
# Indices 1 2 3 4 5 6 
#
# 1 136.8481 48.0676 75.8771 0.0000 -16.3774 0.0000
# 2 48.0676 54.3782 51.8589 0.0000 -13.0303 0.0000
# 3 75.8771 51.8589 121.7447 0.0000 -14.4640 0.0000
# 4 0.0000 0.0000 0.0000 27.5522 0.0000 -8.3321
# 5 -16.3774 -13.0303 -14.4640 0.0000 27.6070 0.0000
# 6 0.0000 0.0000 0.0000 -8.3321 0.0000 23.5409
#
#
#
# Elastic Compliance Matrix: (Units=1/GPa)
#
#
# Indices 1 2 3 4 5 6 
#
# 1 0.012312 -0.005574 -0.005059 0.000000 0.002023 0.000000
# 2 -0.005574 0.035348 -0.010657 0.000000 0.007794 0.000000
# 3 -0.005059 -0.010657 0.015945 0.000000 0.000323 0.000000
# 4 0.000000 0.000000 0.000000 0.040645 0.000000 0.014386
# 5 0.002023 0.007794 0.000323 0.000000 0.041270 0.000000
# 6 0.000000 0.000000 0.000000 0.014386 0.000000 0.047571
#
#
# Mechanical properties :
#
#
# Convention : Reuss Voigt Hill
#
# Bulk Modulus (GPa) = 47.56300 73.84202 60.70251
# Shear Modulus (GPa) = 20.60332 24.88453 22.74392
#
# Velocity S-wave (km/s) = 3.45176 3.79347 3.62664
# Velocity P-wave (km/s) = 6.58720 7.86696 7.25536
#
# Compressibility (1/GPa) = 0.02102474
#
# Stress axis : x y z
#
# Youngs Moduli (GPa) = 81.21922 28.29038 62.71714
#
# Poissons Ratio (x) = 0.15770 0.31728
# Poissons Ratio (y) = 0.45274 0.66836
# Poissons Ratio (z) = 0.41088 0.30148
#
# Static dielectric constant tensor:
#      x y z
#    x 3.335890 0.000000 -0.145640 
#    y 0.000000 3.070870 0.000000 
#    z -0.145640 0.000000 3.141910 
# 
# 
# High freq. dielectric constant tensor:
#      x y z
#    x 1.668250 0.000000 -0.019920 
#    y 0.000000 1.653250 0.000000 
#    z -0.019920 0.000000 1.659700 
# 
# From -- ./inp_files/324305.got.cif
#   From: 2010.06.25/outbox.cif.g09.slc.cpg/sg12_163_cif.got.tgz:324305.got - 2010.06.28 00:19:55.
