data_PCOD8082286
_publ_section_title
;
Structure prediction by ZEFSAII (Michael W. Deem and Ramdas Pophale) SiO2 
 PCOD8082286
Probable space group: C 2/M
;
_chemical_formula_sum "Si O2"
_cell_formula_units_Z 64
_cell_length_a 28.293382
_cell_length_b 9.506682
_cell_length_c 13.001404
_cell_angle_alpha 90.000000
_cell_angle_beta 95.117903
_cell_angle_gamma 90.000000
_cell_volume 3483.126083
_symmetry_space_group_name_H-M "C 2/M"
_symmetry_group_IT_number 12
_symmetry_cell_setting 'monoclinic'
loop_
_space_group_symop_operation_xyz
x,y,z
-x,y,-z
-x,-y,-z
x,-y,z
1/2+x,1/2+y,z
1/2-x,1/2+y,-z
1/2-x,1/2-y,-z
1/2+x,1/2-y,z
loop_
_atom_site_type_symbol
_atom_site_label
_atom_site_fract_x
_atom_site_fract_y
_atom_site_fract_z
Si Si1 0.332156 0.664509 0.526415
Si Si2 0.425245 0.652253 0.654829
Si Si3 0.946109 0.667462 0.016606
Si Si4 0.506697 0.834588 0.615872
Si Si5 0.789512 0.834976 0.730052
Si Si6 0.590624 0.165733 0.771460
Si Si7 0.376916 0.343497 0.862947
Si Si8 0.315644 0.165944 0.317476
O O1 0.321337 0.500000 0.503668
O O2 0.388012 0.690310 0.557640
O O3 0.302656 0.724093 0.619041
O O4 0.317807 0.754637 0.425454
O O5 0.448563 0.500000 0.635041
O O6 0.465245 0.769344 0.676255
O O7 0.397773 0.642081 0.754698
O O8 0.942222 0.500000 0.006132
O O9 0.930926 0.725072 0.126315
O O10 0.907949 0.735265 0.933459
O O11 0.000000 0.716136 0.000000
O O12 0.500000 0.775164 0.500000
O O13 0.557119 0.786768 0.670742
O O14 0.500178 0.000000 0.619212
O O15 0.823498 0.781296 0.830745
O O16 0.734843 0.799184 0.745505
O O17 0.798956 0.000000 0.725327
O O18 0.643576 0.219429 0.753990
O O19 0.590886 0.000000 0.782593
O O20 0.376221 0.500000 0.914858
O O21 0.321405 0.000000 0.340915
#
# Coordination Sequence:
#
# PCOD8082286 Si02
#       8
#     8   8   8   8   8   8   8   8
#     4   9  17  30  47  71 103 131 158 195 238 282
#     4   9  18  31  47  68  96 128 157 193 243 291
#     4  10  20  35  54  73  96 127 159 196 247 295
#     4  10  19  31  48  70  97 128 162 198 232 275
#     4   8  16  31  51  73  98 130 161 194 240 286
#     4   9  19  33  48  71 100 126 157 200 245 287
#     4   9  18  34  53  73  96 121 158 203 241 283
#     4  10  18  31  51  71  95 130 167 197 233 285
#
# _framework density 18.374299000000001
#
# number of rings (size 3 to 8) (size 9 to 14) (size 15 to 20)
#    0.000    2.750    0.000    3.375    0.000    3.500 
#    0.000    5.000    0.000    0.000    0.000    0.000 
#    0.000    0.000    0.000    0.000    0.000    0.000 
#
# Total GULP energy -396547.691958 kJ/mol
# GULP energy per Si atom -12392.115374 kJ/mol
# Density = 1.833248 g / cm^3
# Si number density = 18.374299 Si / 1000 Ang^3
#
#
#
# Elastic Constant Matrix: (Units=GPa)
#
#
# Indices 1 2 3 4 5 6 
#
# 1 162.4264 35.3073 66.3502 0.0000 7.4051 0.0000
# 2 35.3073 32.6533 25.0967 0.0000 8.4345 0.0000
# 3 66.3502 25.0967 89.1557 0.0000 14.0039 0.0000
# 4 0.0000 0.0000 0.0000 22.5338 0.0000 1.6486
# 5 7.4051 8.4345 14.0039 0.0000 27.2560 0.0000
# 6 0.0000 0.0000 0.0000 1.6486 0.0000 15.8781
#
#
#
# Elastic Compliance Matrix: (Units=1/GPa)
#
#
# Indices 1 2 3 4 5 6 
#
# 1 0.009922 -0.006874 -0.005830 0.000000 0.002427 0.000000
# 2 -0.006874 0.045113 -0.006183 0.000000 -0.008916 0.000000
# 3 -0.005830 -0.006183 0.018216 0.000000 -0.005862 0.000000
# 4 0.000000 0.000000 0.000000 0.044717 0.000000 -0.004643
# 5 0.002427 -0.008916 -0.005862 0.000000 0.041801 0.000000
# 6 0.000000 0.000000 0.000000 -0.004643 0.000000 0.063462
#
#
# Mechanical properties :
#
#
# Convention : Reuss Voigt Hill
#
# Bulk Modulus (GPa) = 28.18731 59.74932 43.96832
# Shear Modulus (GPa) = 18.32642 23.63234 20.97938
#
# Velocity S-wave (km/s) = 3.16158 3.59020 3.38269
# Velocity P-wave (km/s) = 5.35737 7.05511 6.26402
#
# Compressibility (1/GPa) = 0.03547695
#
# Stress axis : x y z
#
# Youngs Moduli (GPa) = 100.78801 22.16674 54.89615
#
# Poissons Ratio (x) = 0.15238 0.32005
# Poissons Ratio (y) = 0.69285 0.33940
# Poissons Ratio (z) = 0.58760 0.13705
#
# Static dielectric constant tensor:
#      x y z
#    x 3.755510 0.000000 0.116550 
#    y 0.000000 3.119800 0.000000 
#    z 0.116550 0.000000 3.381440 
# 
# 
# High freq. dielectric constant tensor:
#      x y z
#    x 1.724850 0.000000 0.008180 
#    y 0.000000 1.681320 0.000000 
#    z 0.008180 0.000000 1.697060 
# 
# From -- ./inp_files/187579.got.cif
#   From: 2010.06.25/outbox.cif.g09.slc.cpg/sg12_94_cif.got.tgz:187579.got - 2010.06.28 00:19:55.
