data_PCOD8082723
_publ_section_title
;
Structure prediction by ZEFSAII (Michael W. Deem and Ramdas Pophale) SiO2 
 PCOD8082723
Probable space group: C 2/M
;
_chemical_formula_sum "Si O2"
_cell_formula_units_Z 48
_cell_length_a 24.833106
_cell_length_b 8.781036
_cell_length_c 23.896108
_cell_angle_alpha 90.000000
_cell_angle_beta 150.291253
_cell_angle_gamma 90.000000
_cell_volume 2582.424428
_symmetry_space_group_name_H-M "C 2/M"
_symmetry_group_IT_number 12
_symmetry_cell_setting 'monoclinic'
loop_
_space_group_symop_operation_xyz
x,y,z
-x,y,-z
-x,-y,-z
x,-y,z
1/2+x,1/2+y,z
1/2-x,1/2+y,-z
1/2-x,1/2-y,-z
1/2+x,1/2-y,z
loop_
_atom_site_type_symbol
_atom_site_label
_atom_site_fract_x
_atom_site_fract_y
_atom_site_fract_z
Si Si1 0.668434 0.826538 0.280240
Si Si2 0.557037 0.173962 0.863659
Si Si3 0.530666 0.320813 0.722399
Si Si4 0.692191 0.821660 0.501283
Si Si5 0.761208 0.680879 0.888414
Si Si6 0.621542 0.181147 0.115029
O O1 0.543470 0.814809 0.185047
O O2 0.743569 0.717001 0.384485
O O3 0.675941 0.770531 0.222859
O O4 0.709930 0.000000 0.324635
O O5 0.536346 0.282584 0.792831
O O6 0.572573 0.000000 0.856969
O O7 0.662289 0.236165 0.991624
O O8 0.515385 0.500000 0.701843
O O9 0.429966 0.238070 0.602401
O O10 0.639133 0.261605 0.789215
O O11 0.750000 0.750000 0.500000
O O12 0.690036 0.000000 0.489429
O O13 0.766166 0.500000 0.891253
O O14 0.803938 0.747096 0.867892
O O15 0.614551 0.000000 0.105291
O O16 0.500000 0.249151 0.000000
#
# Coordination Sequence:
#
# PCOD8082723 Si02
#       6
#     8   8   8   8   8   8
#     4  10  19  32  57  88 112 138 179 226 272 320
#     4  10  18  31  54  83 115 145 178 224 275 326
#     4  11  22  35  53  80 115 150 185 224 271 326
#     4  12  24  39  58  78 107 143 185 230 275 325
#     4   9  18  32  52  83 117 148 184 225 269 322
#     4   9  15  29  55  85 113 142 179 224 268 314
#
# _framework density 18.587184000000001
#
# number of rings (size 3 to 8) (size 9 to 14) (size 15 to 20)
#    0.000    1.833    3.333    2.500    0.000    0.000 
#    0.000    1.667    0.000    8.500    0.000    0.000 
#    0.000    0.000    0.000    0.000    0.000    0.000 
#
# Total GULP energy -297637.839592 kJ/mol
# GULP energy per Si atom -12401.576650 kJ/mol
# Density = 1.854488 g / cm^3
# Si number density = 18.587184 Si / 1000 Ang^3
#
#
#
# Elastic Constant Matrix: (Units=GPa)
#
#
# Indices 1 2 3 4 5 6 
#
# 1 75.5897 16.8364 35.6026 0.0000 -0.6024 0.0000
# 2 16.8364 65.6752 35.7336 0.0000 2.7673 0.0000
# 3 35.6026 35.7336 129.4765 0.0000 6.0561 0.0000
# 4 0.0000 0.0000 0.0000 26.7389 0.0000 -2.5528
# 5 -0.6024 2.7673 6.0561 0.0000 29.9821 0.0000
# 6 0.0000 0.0000 0.0000 -2.5528 0.0000 15.2693
#
#
#
# Elastic Compliance Matrix: (Units=1/GPa)
#
#
# Indices 1 2 3 4 5 6 
#
# 1 0.015450 -0.001965 -0.003765 0.000000 0.001252 0.000000
# 2 -0.001965 0.018180 -0.004439 0.000000 -0.000821 0.000000
# 3 -0.003765 -0.004439 0.010063 0.000000 -0.001699 0.000000
# 4 0.000000 0.000000 0.000000 0.038005 0.000000 0.006354
# 5 0.001252 -0.000821 -0.001699 0.000000 0.033797 0.000000
# 6 0.000000 0.000000 0.000000 0.006354 0.000000 0.066553
#
#
# Mechanical properties :
#
#
# Convention : Reuss Voigt Hill
#
# Bulk Modulus (GPa) = 42.81521 49.67628 46.24574
# Shear Modulus (GPa) = 23.79014 26.56930 25.17972
#
# Velocity S-wave (km/s) = 3.58148 3.78490 3.68459
# Velocity P-wave (km/s) = 6.33936 6.77383 6.56019
#
# Compressibility (1/GPa) = 0.02335619
#
# Stress axis : x y z
#
# Youngs Moduli (GPa) = 64.72434 55.00586 99.37389
#
# Poissons Ratio (x) = 0.10810 0.37410
# Poissons Ratio (y) = 0.12720 0.44108
# Poissons Ratio (z) = 0.24366 0.24415
#
# Static dielectric constant tensor:
#      x y z
#    x 3.600260 0.000000 0.097480 
#    y 0.000000 3.105500 0.000000 
#    z 0.097480 0.000000 3.564440 
# 
# 
# High freq. dielectric constant tensor:
#      x y z
#    x 1.720370 0.000000 -0.000900 
#    y 0.000000 1.686710 0.000000 
#    z -0.000900 0.000000 1.728360 
# 
# From -- ./inp_files/172122.got.cif
#   From: 2010.06.25/outbox.cif.g09.slc.cpg/sg12_87_cif.got.tgz:172122.got - 2010.06.28 00:19:55.
