data_PCOD8082854
_publ_section_title
;
Structure prediction by ZEFSAII (Michael W. Deem and Ramdas Pophale) SiO2 
 PCOD8082854
Probable space group: C 2/M
;
_chemical_formula_sum "Si O2"
_cell_formula_units_Z 56
_cell_length_a 23.669298
_cell_length_b 17.606801
_cell_length_c 21.933732
_cell_angle_alpha 90.000000
_cell_angle_beta 22.075337
_cell_angle_gamma 90.000000
_cell_volume 3435.298647
_symmetry_space_group_name_H-M "C 2/M"
_symmetry_group_IT_number 12
_symmetry_cell_setting 'monoclinic'
loop_
_space_group_symop_operation_xyz
x,y,z
-x,y,-z
-x,-y,-z
x,-y,z
1/2+x,1/2+y,z
1/2-x,1/2+y,-z
1/2-x,1/2-y,-z
1/2+x,1/2-y,z
loop_
_atom_site_type_symbol
_atom_site_label
_atom_site_fract_x
_atom_site_fract_y
_atom_site_fract_z
Si Si1 0.073914 0.624578 0.277954
Si Si2 0.071470 0.000000 0.862531
Si Si3 0.419423 0.228744 0.260107
Si Si4 0.926088 0.875423 0.925782
Si Si5 0.076145 0.914678 0.209711
Si Si6 0.580607 0.728750 0.598923
Si Si7 0.571468 0.000000 0.494530
Si Si8 0.923792 0.585324 0.862066
O O1 0.034145 0.592890 0.250974
O O2 0.020834 0.711995 0.337408
O O3 0.982325 0.575462 0.417574
O O4 0.249999 0.618405 0.116135
O O5 0.250000 0.000000 0.688514
O O6 0.017675 0.924537 0.882225
O O7 0.000000 0.000000 0.000000
O O8 0.520859 0.288003 0.120899
O O9 0.427550 0.249994 0.322450
O O10 0.250018 0.231617 0.404420
O O11 0.482622 0.143352 0.189449
O O12 0.965886 0.907110 0.819237
O O13 0.982564 0.856646 0.345363
O O14 0.038116 0.000000 0.269293
O O15 0.249967 0.894812 0.044933
O O16 0.500000 0.000000 0.500000
O O17 0.961781 0.500000 0.845633
#
# Coordination Sequence:
#
# PCOD8082854 Si02
#       8
#     8   4   8   8   8   8   4   8
#     4  10  18  32  48  63  86 119 154 190 231 273
#     4  12  24  36  50  68  90 118 156 198 235 274
#     4   9  17  27  40  63  89 117 151 186 225 270
#     4  10  18  32  48  63  86 119 154 190 231 273
#     4   9  16  27  43  64  90 122 155 185 223 273
#     4   9  17  27  40  63  89 117 151 186 225 270
#     4  12  24  36  50  68  90 118 156 198 235 274
#     4   9  16  27  43  64  90 122 155 185 223 273
#
# _framework density 16.301348000000001
#
# number of rings (size 3 to 8) (size 9 to 14) (size 15 to 20)
#    0.000    2.286    1.429    3.000    0.000    5.143 
#    0.000    0.000    0.000    0.000    0.000    0.000 
#    0.000    1.143    0.000    4.286    0.000    6.571 
#
# Total GULP energy -347192.956060 kJ/mol
# GULP energy per Si atom -12399.748431 kJ/mol
# Density = 1.626425 g / cm^3
# Si number density = 16.301348 Si / 1000 Ang^3
#
#
#
# Elastic Constant Matrix: (Units=GPa)
#
#
# Indices 1 2 3 4 5 6 
#
# 1 51.3307 40.4799 35.8049 0.0008 -13.0804 -0.0008
# 2 40.4799 131.8290 52.5496 -0.0028 -7.3540 0.0006
# 3 35.8049 52.5496 95.0267 0.0097 -13.5418 -0.0065
# 4 0.0008 -0.0028 0.0097 30.6059 -0.0012 -9.9611
# 5 -13.0804 -7.3540 -13.5418 -0.0012 18.7834 -0.0004
# 6 -0.0008 0.0006 -0.0065 -9.9611 -0.0004 14.2537
#
#
#
# Elastic Compliance Matrix: (Units=1/GPa)
#
#
# Indices 1 2 3 4 5 6 
#
# 1 0.033471 -0.006756 -0.006610 0.000001 0.015898 0.000001
# 2 -0.006756 0.011094 -0.004058 0.000002 -0.003287 -0.000002
# 3 -0.006610 -0.004058 0.016022 -0.000003 0.005359 0.000005
# 4 0.000001 0.000002 -0.000003 0.042293 0.000002 0.029556
# 5 0.015898 -0.003287 0.005359 0.000002 0.066887 0.000007
# 6 0.000001 -0.000002 0.000005 0.029556 0.000007 0.090812
#
#
# Mechanical properties :
#
#
# Convention : Reuss Voigt Hill
#
# Bulk Modulus (GPa) = 38.85080 59.53947 49.19514
# Shear Modulus (GPa) = 16.44700 22.68541 19.56621
#
# Velocity S-wave (km/s) = 3.17982 3.73450 3.46827
# Velocity P-wave (km/s) = 6.11280 7.42959 6.80313
#
# Compressibility (1/GPa) = 0.02573949
#
# Stress axis : x y z
#
# Youngs Moduli (GPa) = 29.87622 90.13589 62.41583
#
# Poissons Ratio (x) = 0.60897 0.41256
# Poissons Ratio (y) = 0.20185 0.25328
# Poissons Ratio (z) = 0.19748 0.36576
#
# Static dielectric constant tensor:
#      x y z
#    x 2.715260 0.000000 -0.225770 
#    y 0.000000 3.352300 0.000010 
#    z -0.225770 0.000010 3.085810 
# 
# 
# High freq. dielectric constant tensor:
#      x y z
#    x 1.569220 0.000000 -0.033950 
#    y 0.000000 1.642960 0.000000 
#    z -0.033950 0.000000 1.624980 
# 
# From -- ./inp_files/291808.got.cif
#   From: 2010.06.25/outbox.cif.g09.slc.cpg/sg12_146_cif.got.tgz:291808.got - 2010.06.28 00:19:55.
