data_PCOD8082698
_publ_section_title
;
Structure prediction by ZEFSAII (Michael W. Deem and Ramdas Pophale) SiO2 
 PCOD8082698
Probable space group: C 2/M
;
_chemical_formula_sum "Si O2"
_cell_formula_units_Z 48
_cell_length_a 28.228125
_cell_length_b 9.048404
_cell_length_c 10.250106
_cell_angle_alpha 90.000000
_cell_angle_beta 89.830205
_cell_angle_gamma 90.000000
_cell_volume 2618.065240
_symmetry_space_group_name_H-M "C 2/M"
_symmetry_group_IT_number 12
_symmetry_cell_setting 'monoclinic'
loop_
_space_group_symop_operation_xyz
x,y,z
-x,y,-z
-x,-y,-z
x,-y,z
1/2+x,1/2+y,z
1/2-x,1/2+y,-z
1/2-x,1/2-y,-z
1/2+x,1/2-y,z
loop_
_atom_site_type_symbol
_atom_site_label
_atom_site_fract_x
_atom_site_fract_y
_atom_site_fract_z
Si Si1 0.720790 0.826348 0.387633
Si Si2 0.273558 0.326260 0.123182
Si Si3 0.125747 0.824574 0.776458
Si Si4 0.471716 0.327363 0.619517
Si Si5 0.630785 0.672492 0.477678
Si Si6 0.475806 0.676462 0.130382
O O1 0.750000 0.750000 0.500000
O O2 0.742731 0.783043 0.248799
O O3 0.667825 0.766280 0.394483
O O4 0.722267 0.000000 0.410462
O O5 0.273538 0.500000 0.098101
O O6 0.327566 0.269234 0.146316
O O7 0.250000 0.250000 0.000000
O O8 0.126841 0.768521 0.626385
O O9 0.078306 0.765813 0.849367
O O10 0.124991 0.000000 0.771854
O O11 0.500000 0.252602 0.500000
O O12 0.483560 0.500000 0.620792
O O13 0.416645 0.297342 0.602385
O O14 0.491325 0.260412 0.753848
O O15 0.644832 0.500000 0.477592
O O16 0.475453 0.500000 0.125892
O O17 0.500000 0.741260 0.000000
#
# Coordination Sequence:
#
# PCOD8082698 Si02
#       6
#     8   8   8   8   8   8
#     4  11  22  37  57  82 109 140 183 229 272 321
#     4  10  22  38  55  77 108 144 179 222 274 325
#     4   9  16  30  49  71 106 142 172 218 274 318
#     4   9  15  25  45  73 101 134 175 216 262 313
#     4  10  18  31  54  81 109 141 179 223 269 320
#     4   9  16  25  41  70 105 136 170 216 264 313
#
# _framework density 18.334150000000001
#
# number of rings (size 3 to 8) (size 9 to 14) (size 15 to 20)
#    0.000    2.333    3.333    0.500    0.000    2.667 
#    0.000    3.333    0.000    0.500    0.000    0.000 
#    0.000    4.667    0.000    0.000    0.000    0.000 
#
# Total GULP energy -297513.921441 kJ/mol
# GULP energy per Si atom -12396.413393 kJ/mol
# Density = 1.829242 g / cm^3
# Si number density = 18.334150 Si / 1000 Ang^3
#
#
#
# Elastic Constant Matrix: (Units=GPa)
#
#
# Indices 1 2 3 4 5 6 
#
# 1 152.0668 31.1133 105.3075 0.0000 -8.5452 0.0000
# 2 31.1133 28.3392 36.6937 0.0000 -4.2039 0.0000
# 3 105.3075 36.6937 172.0343 0.0000 3.3550 0.0000
# 4 0.0000 0.0000 0.0000 20.1147 0.0000 -0.2728
# 5 -8.5452 -4.2039 3.3550 0.0000 36.6552 0.0000
# 6 0.0000 0.0000 0.0000 -0.2728 0.0000 23.4451
#
#
#
# Elastic Compliance Matrix: (Units=1/GPa)
#
#
# Indices 1 2 3 4 5 6 
#
# 1 0.012209 -0.004445 -0.006583 0.000000 0.002939 0.000000
# 2 -0.004445 0.051993 -0.008480 0.000000 0.005703 0.000000
# 3 -0.006583 -0.008480 0.011721 0.000000 -0.003580 0.000000
# 4 0.000000 0.000000 0.000000 0.049723 0.000000 0.000579
# 5 0.002939 0.005703 -0.003580 0.000000 0.028948 0.000000
# 6 0.000000 0.000000 0.000000 0.000579 0.000000 0.042659
#
#
# Mechanical properties :
#
#
# Convention : Reuss Voigt Hill
#
# Bulk Modulus (GPa) = 27.09487 77.62992 52.36240
# Shear Modulus (GPa) = 20.11488 27.99806 24.05647
#
# Velocity S-wave (km/s) = 3.31588 3.91205 3.62624
# Velocity P-wave (km/s) = 5.42868 7.92711 6.79374
#
# Compressibility (1/GPa) = 0.03690735
#
# Stress axis : x y z
#
# Youngs Moduli (GPa) = 81.90365 19.23340 85.31674
#
# Poissons Ratio (x) = 0.08549 0.56164
# Poissons Ratio (y) = 0.36405 0.72349
# Poissons Ratio (z) = 0.53918 0.16310
#
# Static dielectric constant tensor:
#      x y z
#    x 9.000250 0.000000 -1.039420 
#    y 0.000000 2.719790 0.000000 
#    z -1.039420 0.000000 3.659830 
# 
# 
# High freq. dielectric constant tensor:
#      x y z
#    x 1.731150 0.000000 0.000440 
#    y 0.000000 1.648290 0.000000 
#    z 0.000440 0.000000 1.715660 
# 
# From -- ./inp_files/101999.got.cif
#   From: 2010.06.25/outbox.cif.g09.slc.cpg/sg12_51_cif.got.tgz:101999.got - 2010.06.28 00:19:55.
