data_PCOD8082010
_publ_section_title
;
Structure prediction by ZEFSAII (Michael W. Deem and Ramdas Pophale) SiO2 
 PCOD8082010
Probable space group: C 2/M
;
_chemical_formula_sum "Si O2"
_cell_formula_units_Z 52
_cell_length_a 19.198348
_cell_length_b 18.403217
_cell_length_c 13.959632
_cell_angle_alpha 90.000000
_cell_angle_beta 39.144855
_cell_angle_gamma 90.000000
_cell_volume 3113.549522
_symmetry_space_group_name_H-M "C 2/M"
_symmetry_group_IT_number 12
_symmetry_cell_setting 'monoclinic'
loop_
_space_group_symop_operation_xyz
x,y,z
-x,y,-z
-x,-y,-z
x,-y,z
1/2+x,1/2+y,z
1/2-x,1/2+y,-z
1/2-x,1/2-y,-z
1/2+x,1/2-y,z
loop_
_atom_site_type_symbol
_atom_site_label
_atom_site_fract_x
_atom_site_fract_y
_atom_site_fract_z
Si Si1 0.111659 0.856790 0.826181
Si Si2 0.377162 0.728738 0.375050
Si Si3 0.215357 0.000000 0.643107
Si Si4 0.404582 0.000000 0.302108
Si Si5 0.826018 0.000000 0.524783
Si Si6 0.168004 0.703643 0.840740
Si Si7 0.015863 0.651110 0.833789
Si Si8 0.392976 0.353467 0.549807
O O1 0.086839 0.828052 0.745671
O O2 0.189482 0.928102 0.734060
O O3 0.168043 0.791318 0.826964
O O4 0.000000 0.879759 0.000000
O O5 0.250000 0.750000 0.500000
O O6 0.450664 0.801092 0.292942
O O7 0.405773 0.699614 0.447610
O O8 0.344876 0.000000 0.471113
O O9 0.141565 0.000000 0.623554
O O10 0.307621 0.000000 0.325305
O O11 0.484766 0.931897 0.199620
O O12 0.875965 0.932830 0.526776
O O13 0.110177 0.665287 0.812216
O O14 0.290807 0.673804 0.722731
O O15 0.103214 0.677993 0.004181
O O16 0.500000 0.351150 0.500000
#
# Coordination Sequence:
#
# PCOD8082010 Si02
#       8
#     8   8   4   4   4   8   8   8
#     4  11  18  31  53  82 112 137 180 229 281 320
#     4  11  17  33  56  76 107 143 179 230 269 320
#     4  10  19  29  52  86 114 141 175 226 278 335
#     4  10  18  30  54  89 106 140 182 230 283 326
#     4  10  19  34  47  74 113 142 179 219 276 323
#     4  10  19  33  51  80 109 143 177 229 284 312
#     4  10  18  31  54  80 109 133 180 234 280 313
#     4  12  23  35  53  78 111 152 187 222 276 341
#
# _framework density 16.701197000000001
#
# number of rings (size 3 to 8) (size 9 to 14) (size 15 to 20)
#    0.462    0.923    9.231    1.385    0.000    1.846 
#    0.000    0.769    0.000    0.000    0.000    2.154 
#    0.000    0.000    0.000    0.000    0.000    0.000 
#
# Total GULP energy -322227.481559 kJ/mol
# GULP energy per Si atom -12393.364675 kJ/mol
# Density = 1.666318 g / cm^3
# Si number density = 16.701197 Si / 1000 Ang^3
#
#
#
# Elastic Constant Matrix: (Units=GPa)
#
#
# Indices 1 2 3 4 5 6 
#
# 1 53.5220 21.7659 35.0878 0.0000 -5.7604 0.0000
# 2 21.7659 153.0833 67.1094 0.0000 2.0895 0.0000
# 3 35.0878 67.1094 134.8791 0.0000 -1.7198 0.0000
# 4 0.0000 0.0000 0.0000 34.7729 0.0000 6.8464
# 5 -5.7604 2.0895 -1.7198 0.0000 17.6178 0.0000
# 6 0.0000 0.0000 0.0000 6.8464 0.0000 6.2678
#
#
#
# Elastic Compliance Matrix: (Units=1/GPa)
#
#
# Indices 1 2 3 4 5 6 
#
# 1 0.023494 -0.001024 -0.005510 0.000000 0.007265 0.000000
# 2 -0.001024 0.008434 -0.003952 0.000000 -0.001721 0.000000
# 3 -0.005510 -0.003952 0.010810 0.000000 -0.000277 0.000000
# 4 0.000000 0.000000 0.000000 0.036637 0.000000 -0.040019
# 5 0.007265 -0.001721 -0.000277 0.000000 0.059313 0.000000
# 6 0.000000 0.000000 0.000000 -0.040019 0.000000 0.203259
#
#
# Mechanical properties :
#
#
# Convention : Reuss Voigt Hill
#
# Bulk Modulus (GPa) = 45.94134 65.49007 55.71570
# Shear Modulus (GPa) = 13.50712 26.23312 19.87012
#
# Velocity S-wave (km/s) = 2.84694 3.96755 3.45301
# Velocity P-wave (km/s) = 6.19470 7.76444 7.02356
#
# Compressibility (1/GPa) = 0.02176689
#
# Stress axis : x y z
#
# Youngs Moduli (GPa) = 42.56331 118.56868 92.50687
#
# Poissons Ratio (x) = 0.12146 0.50967
# Poissons Ratio (y) = 0.04360 0.36557
# Poissons Ratio (z) = 0.23451 0.46856
#
# Static dielectric constant tensor:
#      x y z
#    x 2.408890 0.000000 0.059830 
#    y 0.000000 3.432840 0.000000 
#    z 0.059830 0.000000 3.418580 
# 
# 
# High freq. dielectric constant tensor:
#      x y z
#    x 1.568530 0.000000 0.007220 
#    y 0.000000 1.660900 0.000000 
#    z 0.007220 0.000000 1.661190 
# 
# From -- ./inp_files/234079.got.cif
#   From: 2010.06.25/outbox.cif.g09.slc.cpg/sg12_118_cif.got.tgz:234079.got - 2010.06.28 00:19:55.
