data_PCOD8082447
_publ_section_title
;
Structure prediction by ZEFSAII (Michael W. Deem and Ramdas Pophale) SiO2 
 PCOD8082447
Probable space group: C 2/M
;
_chemical_formula_sum "Si O2"
_cell_formula_units_Z 52
_cell_length_a 16.012746
_cell_length_b 12.695528
_cell_length_c 13.370875
_cell_angle_alpha 90.000000
_cell_angle_beta 88.456777
_cell_angle_gamma 90.000000
_cell_volume 2717.182826
_symmetry_space_group_name_H-M "C 2/M"
_symmetry_group_IT_number 12
_symmetry_cell_setting 'monoclinic'
loop_
_space_group_symop_operation_xyz
x,y,z
-x,y,-z
-x,-y,-z
x,-y,z
1/2+x,1/2+y,z
1/2-x,1/2+y,-z
1/2-x,1/2-y,-z
1/2+x,1/2-y,z
loop_
_atom_site_type_symbol
_atom_site_label
_atom_site_fract_x
_atom_site_fract_y
_atom_site_fract_z
Si Si1 0.229361 0.817074 0.249007
Si Si2 0.111007 0.379150 0.872214
Si Si3 0.668114 0.120234 0.571393
Si Si4 0.550763 0.619268 0.196033
Si Si5 0.664483 0.119219 0.348329
Si Si6 0.000000 0.762602 0.000000
Si Si7 0.515764 0.808804 0.688631
O O1 0.302224 0.827363 0.165476
O O2 0.255117 0.866091 0.354949
O O3 0.149807 0.879109 0.210701
O O4 0.208426 0.693575 0.265229
O O5 0.124649 0.500000 0.904170
O O6 0.044061 0.374533 0.784907
O O7 0.077428 0.312353 0.966879
O O8 0.698074 0.148063 0.458382
O O9 0.589793 0.193549 0.604901
O O10 0.636445 0.000000 0.576442
O O11 0.518017 0.500000 0.205439
O O12 0.530858 0.663295 0.087488
O O13 0.503648 0.687937 0.281564
O O14 0.564961 0.134372 0.353360
O O15 0.687407 0.000000 0.318403
#
# Coordination Sequence:
#
# PCOD8082447 Si02
#       7
#     8   8   8   8   8   4   8
#     4  10  20  34  52  74 103 136 168 200 248 306
#     4  10  19  35  56  77 102 129 163 206 253 300
#     4  10  18  31  52  76 103 136 173 211 247 282
#     4  10  20  36  54  72 101 135 166 203 252 306
#     4  10  19  31  50  77 107 136 169 209 247 285
#     4  10  22  36  56  80  96 122 166 214 254 300
#     4   9  18  31  52  77 102 135 173 207 245 290
#
# _framework density 19.137468999999999
#
# number of rings (size 3 to 8) (size 9 to 14) (size 15 to 20)
#    0.000    2.154    0.000    5.077    0.000    1.846 
#    0.000    8.462    0.000    9.231    0.000    0.000 
#    0.000    0.000    0.000    0.000    0.000    0.000 
#
# Total GULP energy -322452.112451 kJ/mol
# GULP energy per Si atom -12402.004325 kJ/mol
# Density = 1.909391 g / cm^3
# Si number density = 19.137469 Si / 1000 Ang^3
#
#
#
# Elastic Constant Matrix: (Units=GPa)
#
#
# Indices 1 2 3 4 5 6 
#
# 1 85.1824 37.7568 23.7112 0.0000 4.1470 0.0000
# 2 37.7568 134.6750 43.7421 0.0000 -14.2819 0.0000
# 3 23.7112 43.7421 49.8408 0.0000 -1.6503 0.0000
# 4 0.0000 0.0000 0.0000 27.2709 0.0000 0.1240
# 5 4.1470 -14.2819 -1.6503 0.0000 26.3467 0.0000
# 6 0.0000 0.0000 0.0000 0.1240 0.0000 20.2440
#
#
#
# Elastic Compliance Matrix: (Units=1/GPa)
#
#
# Indices 1 2 3 4 5 6 
#
# 1 0.014532 -0.003124 -0.004312 0.000000 -0.004251 0.000000
# 2 -0.003124 0.011780 -0.008643 0.000000 0.006336 0.000000
# 3 -0.004312 -0.008643 0.029629 0.000000 -0.002150 0.000000
# 4 0.000000 0.000000 0.000000 0.036670 0.000000 -0.000225
# 5 -0.004251 0.006336 -0.002150 0.000000 0.041925 0.000000
# 6 0.000000 0.000000 0.000000 -0.000225 0.000000 0.049399
#
#
# Mechanical properties :
#
#
# Convention : Reuss Voigt Hill
#
# Bulk Modulus (GPa) = 42.04660 53.34648 47.69654
# Shear Modulus (GPa) = 22.31946 25.73819 24.02883
#
# Velocity S-wave (km/s) = 3.41877 3.67128 3.54728
# Velocity P-wave (km/s) = 6.13209 6.77547 6.46179
#
# Compressibility (1/GPa) = 0.02378313
#
# Stress axis : x y z
#
# Youngs Moduli (GPa) = 68.81572 84.88811 33.75062
#
# Poissons Ratio (x) = 0.26521 0.14553
# Poissons Ratio (y) = 0.21500 0.29169
# Poissons Ratio (z) = 0.29673 0.73365
#
# Static dielectric constant tensor:
#      x y z
#    x 3.426210 0.000000 0.094880 
#    y 0.000000 3.525370 0.000000 
#    z 0.094880 0.000000 3.448650 
# 
# 
# High freq. dielectric constant tensor:
#      x y z
#    x 1.738470 0.000000 0.009300 
#    y 0.000000 1.746120 0.000000 
#    z 0.009300 0.000000 1.735670 
# 
# From -- ./inp_files/213422.got.cif
#   From: 2010.06.25/outbox.cif.g09.slc.cpg/sg12_107_cif.got.tgz:213422.got - 2010.06.28 00:19:55.
