data_PCOD8082526
_publ_section_title
;
Structure prediction by ZEFSAII (Michael W. Deem and Ramdas Pophale) SiO2 
 PCOD8082526
Probable space group: C 2/M
;
_chemical_formula_sum "Si O2"
_cell_formula_units_Z 56
_cell_length_a 22.831874
_cell_length_b 17.173510
_cell_length_c 9.515797
_cell_angle_alpha 90.000000
_cell_angle_beta 121.812405
_cell_angle_gamma 90.000000
_cell_volume 3170.673891
_symmetry_space_group_name_H-M "C 2/M"
_symmetry_group_IT_number 12
_symmetry_cell_setting 'monoclinic'
loop_
_space_group_symop_operation_xyz
x,y,z
-x,y,-z
-x,-y,-z
x,-y,z
1/2+x,1/2+y,z
1/2-x,1/2+y,-z
1/2-x,1/2-y,-z
1/2+x,1/2-y,z
loop_
_atom_site_type_symbol
_atom_site_label
_atom_site_fract_x
_atom_site_fract_y
_atom_site_fract_z
Si Si1 0.677922 0.239304 0.205827
Si Si2 0.011709 0.910424 0.179234
Si Si3 0.736471 0.086561 0.929345
Si Si4 0.325180 0.768727 0.271367
Si Si5 0.623935 0.666181 0.913885
Si Si6 0.265691 0.912889 0.738813
Si Si7 0.353670 0.678220 0.557490
O O1 0.745916 0.243042 0.192440
O O2 0.673001 0.146476 0.233614
O O3 0.685924 0.290611 0.355253
O O4 0.615436 0.271618 0.031754
O O5 0.073720 0.857624 0.310740
O O6 0.944539 0.885384 0.182369
O O7 0.028370 0.000000 0.233578
O O8 0.000000 0.897247 0.000000
O O9 0.676712 0.142707 0.788742
O O10 0.719246 0.000000 0.853118
O O11 0.811888 0.110061 0.967278
O O12 0.739224 0.088840 0.099998
O O13 0.363996 0.712280 0.213405
O O14 0.364597 0.753763 0.469161
O O15 0.193063 0.886475 0.578370
O O16 0.282945 0.000000 0.707461
#
# Coordination Sequence:
#
# PCOD8082526 Si02
#       7
#     8   8   8   8   8   8   8
#     4  10  18  34  54  76 104 144 178 219 273 323
#     4  11  24  39  53  78 112 152 188 216 257 321
#     4  10  18  31  53  82 109 136 168 221 279 316
#     4  10  19  34  54  80 105 136 184 223 267 325
#     4  11  18  36  55  75 109 146 183 216 258 327
#     4  10  18  31  52  82 110 134 171 223 273 316
#     4  11  21  36  53  76 110 147 179 218 263 319
#
# _framework density 17.661859
#
# number of rings (size 3 to 8) (size 9 to 14) (size 15 to 20)
#    0.000    1.571    5.714    3.429    0.000    0.571 
#    0.000    5.000    0.000    0.000    0.000    6.000 
#    0.000    0.000    0.000    0.000    0.000    0.000 
#
# Total GULP energy -346948.907500 kJ/mol
# GULP energy per Si atom -12391.032411 kJ/mol
# Density = 1.762166 g / cm^3
# Si number density = 17.661859 Si / 1000 Ang^3
#
#
#
# Elastic Constant Matrix: (Units=GPa)
#
#
# Indices 1 2 3 4 5 6 
#
# 1 55.0353 30.0920 14.7469 0.0000 -7.2450 0.0000
# 2 30.0920 121.2964 33.9279 0.0000 -0.9025 0.0000
# 3 14.7469 33.9279 71.2911 0.0000 -5.5179 0.0000
# 4 0.0000 0.0000 0.0000 23.7827 0.0000 0.3179
# 5 -7.2450 -0.9025 -5.5179 0.0000 23.5501 0.0000
# 6 0.0000 0.0000 0.0000 0.3179 0.0000 24.0624
#
#
#
# Elastic Compliance Matrix: (Units=1/GPa)
#
#
# Indices 1 2 3 4 5 6 
#
# 1 0.022172 -0.004967 -0.001741 0.000000 0.006223 0.000000
# 2 -0.004967 0.010635 -0.004196 0.000000 -0.002104 0.000000
# 3 -0.001741 -0.004196 0.016632 0.000000 0.003201 0.000000
# 4 0.000000 0.000000 0.000000 0.042055 0.000000 -0.000556
# 5 0.006223 -0.002104 0.003201 0.000000 0.045046 0.000000
# 6 0.000000 0.000000 0.000000 -0.000556 0.000000 0.041566
#
#
# Mechanical properties :
#
#
# Convention : Reuss Voigt Hill
#
# Bulk Modulus (GPa) = 36.19329 45.01739 40.60534
# Shear Modulus (GPa) = 23.90924 25.53613 24.72268
#
# Velocity S-wave (km/s) = 3.68329 3.80654 3.74542
# Velocity P-wave (km/s) = 6.21495 6.69802 6.46100
#
# Compressibility (1/GPa) = 0.02762943
#
# Stress axis : x y z
#
# Youngs Moduli (GPa) = 45.10235 94.03150 60.12534
#
# Poissons Ratio (x) = 0.46708 0.10466
# Poissons Ratio (y) = 0.22404 0.25231
# Poissons Ratio (z) = 0.07851 0.39460
#
# Static dielectric constant tensor:
#      x y z
#    x 2.991940 0.000000 -0.168730 
#    y 0.000000 3.825780 0.000000 
#    z -0.168730 0.000000 3.330540 
# 
# 
# High freq. dielectric constant tensor:
#      x y z
#    x 1.645410 0.000000 -0.025510 
#    y 0.000000 1.690210 0.000000 
#    z -0.025510 0.000000 1.681030 
# 
# From -- ./inp_files/88091.got.cif
#   From: 2010.06.25/outbox.cif.g09.slc.cpg/sg12_45_cif.got.tgz:88091.got - 2010.06.28 00:19:55.
