data_PCOD8082102
_publ_section_title
;
Structure prediction by ZEFSAII (Michael W. Deem and Ramdas Pophale) SiO2 
 PCOD8082102
Probable space group: C 2/M
;
_chemical_formula_sum "Si O2"
_cell_formula_units_Z 56
_cell_length_a 27.172754
_cell_length_b 8.688571
_cell_length_c 14.551985
_cell_angle_alpha 90.000000
_cell_angle_beta 103.381237
_cell_angle_gamma 90.000000
_cell_volume 3342.342105
_symmetry_space_group_name_H-M "C 2/M"
_symmetry_group_IT_number 12
_symmetry_cell_setting 'monoclinic'
loop_
_space_group_symop_operation_xyz
x,y,z
-x,y,-z
-x,-y,-z
x,-y,z
1/2+x,1/2+y,z
1/2-x,1/2+y,-z
1/2-x,1/2-y,-z
1/2+x,1/2-y,z
loop_
_atom_site_type_symbol
_atom_site_label
_atom_site_fract_x
_atom_site_fract_y
_atom_site_fract_z
Si Si1 0.540962 0.179579 0.401762
Si Si2 0.536131 0.178361 0.890884
Si Si3 0.304257 0.323601 0.027924
Si Si4 0.393315 0.679797 0.938876
Si Si5 0.385490 0.323369 0.203960
Si Si6 0.937152 0.176651 0.772731
Si Si7 0.064248 0.178017 0.593347
O O1 0.571268 0.221213 0.321997
O O2 0.488060 0.270608 0.381204
O O3 0.574554 0.225692 0.504994
O O4 0.529184 0.000000 0.399027
O O5 0.577586 0.205590 0.830256
O O6 0.488534 0.282923 0.846844
O O7 0.520385 0.000000 0.885589
O O8 0.559000 0.227142 0.999083
O O9 0.295023 0.500000 0.004235
O O10 0.341571 0.259041 0.963836
O O11 0.250000 0.250000 0.000000
O O12 0.329069 0.295076 0.139714
O O13 0.400921 0.500000 0.966154
O O14 0.392281 0.706496 0.828050
O O15 0.401898 0.500000 0.189651
O O16 0.389511 0.293035 0.315342
O O17 0.938239 0.000000 0.742054
O O18 0.059840 0.000000 0.564618
#
# Coordination Sequence:
#
# PCOD8082102 Si02
#       7
#     8   8   8   8   8   8   8
#     4  11  21  30  43  67  99 127 157 205 241 270
#     4  11  20  28  43  68  97 124 156 197 237 275
#     4   9  18  34  52  74  96 119 151 194 242 285
#     4   9  20  35  49  64  90 126 163 194 227 283
#     4   9  18  32  50  68  94 128 164 195 227 280
#     4  11  20  32  47  63  89 131 169 193 225 277
#     4  10  18  31  49  66  89 130 170 196 227 279
#
# _framework density 16.754718
#
# number of rings (size 3 to 8) (size 9 to 14) (size 15 to 20)
#    0.000    2.000    1.429    5.571    0.000    5.714 
#    0.000    0.000    0.000    0.000    0.000    1.000 
#    0.000    0.000    0.000    0.000    0.000    0.000 
#
# Total GULP energy -347066.815757 kJ/mol
# GULP energy per Si atom -12395.243420 kJ/mol
# Density = 1.671658 g / cm^3
# Si number density = 16.754718 Si / 1000 Ang^3
#
#
#
# Elastic Constant Matrix: (Units=GPa)
#
#
# Indices 1 2 3 4 5 6 
#
# 1 57.6305 11.7187 46.4592 0.0000 1.0351 0.0000
# 2 11.7187 51.7811 25.0821 0.0000 -3.3955 0.0000
# 3 46.4592 25.0821 130.9512 0.0000 -11.5989 0.0000
# 4 0.0000 0.0000 0.0000 22.2148 0.0000 0.6607
# 5 1.0351 -3.3955 -11.5989 0.0000 20.3663 0.0000
# 6 0.0000 0.0000 0.0000 0.6607 0.0000 19.6191
#
#
#
# Elastic Compliance Matrix: (Units=1/GPa)
#
#
# Indices 1 2 3 4 5 6 
#
# 1 0.025274 -0.001688 -0.009249 0.000000 -0.006833 0.000000
# 2 -0.001688 0.021432 -0.003351 0.000000 0.001750 0.000000
# 3 -0.009249 -0.003351 0.012165 0.000000 0.006840 0.000000
# 4 0.000000 0.000000 0.000000 0.045060 0.000000 -0.001517
# 5 -0.006833 0.001750 0.006840 0.000000 0.053635 0.000000
# 6 0.000000 0.000000 0.000000 -0.001517 0.000000 0.051022
#
#
# Mechanical properties :
#
#
# Convention : Reuss Voigt Hill
#
# Bulk Modulus (GPa) = 33.00788 45.20919 39.10853
# Shear Modulus (GPa) = 20.22142 22.91355 21.56748
#
# Velocity S-wave (km/s) = 3.47783 3.70210 3.59172
# Velocity P-wave (km/s) = 5.98920 6.73169 6.37127
#
# Compressibility (1/GPa) = 0.03029580
#
# Stress axis : x y z
#
# Youngs Moduli (GPa) = 39.56674 46.65893 82.20037
#
# Poissons Ratio (x) = 0.07876 0.76024
# Poissons Ratio (y) = 0.06679 0.27547
# Poissons Ratio (z) = 0.36594 0.15636
#
# Static dielectric constant tensor:
#      x y z
#    x 2.919380 0.000000 -0.152000 
#    y 0.000000 3.118910 0.000000 
#    z -0.152000 0.000000 3.400150 
# 
# 
# High freq. dielectric constant tensor:
#      x y z
#    x 1.589380 0.000000 -0.014400 
#    y 0.000000 1.651730 0.000000 
#    z -0.014400 0.000000 1.652500 
# 
# From -- ./inp_files/247930.got.cif
#   From: 2010.06.25/outbox.cif.g09.slc.cpg/sg12_124_cif.got.tgz:247930.got - 2010.06.28 00:19:55.
