data_PCOD8082300
_publ_section_title
;
Structure prediction by ZEFSAII (Michael W. Deem and Ramdas Pophale) SiO2 
 PCOD8082300
Probable space group: C 2/M
;
_chemical_formula_sum "Si O2"
_cell_formula_units_Z 56
_cell_length_a 28.701761
_cell_length_b 8.863988
_cell_length_c 17.355845
_cell_angle_alpha 90.000000
_cell_angle_beta 130.952419
_cell_angle_gamma 90.000000
_cell_volume 3334.852126
_symmetry_space_group_name_H-M "C 2/M"
_symmetry_group_IT_number 12
_symmetry_cell_setting 'monoclinic'
loop_
_space_group_symop_operation_xyz
x,y,z
-x,y,-z
-x,-y,-z
x,-y,z
1/2+x,1/2+y,z
1/2-x,1/2+y,-z
1/2-x,1/2-y,-z
1/2+x,1/2-y,z
loop_
_atom_site_type_symbol
_atom_site_label
_atom_site_fract_x
_atom_site_fract_y
_atom_site_fract_z
Si Si1 0.591330 0.671383 0.082506
Si Si2 0.655233 0.177601 0.907826
Si Si3 0.768004 0.177670 0.137668
Si Si4 0.042554 0.177061 0.863474
Si Si5 0.716446 0.821974 0.391726
Si Si6 0.924600 0.323886 0.779956
Si Si7 0.265353 0.673168 0.746203
O O1 0.573227 0.500000 0.084114
O O2 0.563970 0.777675 0.119010
O O3 0.663995 0.690249 0.153508
O O4 0.562167 0.722125 0.970809
O O5 0.676307 0.255462 0.851800
O O6 0.587386 0.238785 0.852938
O O7 0.652895 0.000000 0.892323
O O8 0.702701 0.221231 0.027560
O O9 0.773697 0.248933 0.228578
O O10 0.775976 0.000000 0.152831
O O11 0.972544 0.236086 0.776452
O O12 0.046671 0.000000 0.852275
O O13 0.750000 0.750000 0.500000
O O14 0.644472 0.776926 0.319046
O O15 0.747439 0.756328 0.348182
O O16 0.725444 0.000000 0.401318
O O17 0.936138 0.500000 0.783128
O O18 0.245039 0.500000 0.715889
#
# Coordination Sequence:
#
# PCOD8082300 Si02
#       7
#     8   8   8   8   8   8   8
#     4   9  18  30  44  65  95 131 167 200 235 283
#     4  10  20  31  46  67  97 135 173 210 246 284
#     4  10  19  31  47  69  98 132 171 210 247 288
#     4  11  20  31  46  67  97 133 170 203 240 287
#     4  10  21  37  55  76 100 126 161 206 254 301
#     4  10  21  33  47  69  96 126 162 202 245 295
#     4  10  18  31  51  73 100 132 166 204 248 295
#
# _framework density 16.792349999999999
#
# number of rings (size 3 to 8) (size 9 to 14) (size 15 to 20)
#    0.000    2.000    1.429    3.000    0.000    6.286 
#    0.000    0.000    0.000    0.000    0.000    1.000 
#    0.000    8.000    0.000    0.000    0.000    0.000 
#
# Total GULP energy -347276.984786 kJ/mol
# GULP energy per Si atom -12402.749457 kJ/mol
# Density = 1.675413 g / cm^3
# Si number density = 16.792350 Si / 1000 Ang^3
#
#
#
# Elastic Constant Matrix: (Units=GPa)
#
#
# Indices 1 2 3 4 5 6 
#
# 1 120.9370 53.8794 48.9181 0.0000 -13.9395 0.0000
# 2 53.8794 83.7845 39.5828 0.0000 -11.4734 0.0000
# 3 48.9181 39.5828 78.5055 0.0000 -17.5212 0.0000
# 4 0.0000 0.0000 0.0000 23.9639 0.0000 -5.1043
# 5 -13.9395 -11.4734 -17.5212 0.0000 15.6125 0.0000
# 6 0.0000 0.0000 0.0000 -5.1043 0.0000 34.5936
#
#
#
# Elastic Compliance Matrix: (Units=1/GPa)
#
#
# Indices 1 2 3 4 5 6 
#
# 1 0.013021 -0.005876 -0.004696 0.000000 0.002037 0.000000
# 2 -0.005876 0.018466 -0.005059 0.000000 0.002648 0.000000
# 3 -0.004696 -0.005059 0.021946 0.000000 0.016719 0.000000
# 4 0.000000 0.000000 0.000000 0.043083 0.000000 0.006357
# 5 0.002037 0.002648 0.016719 0.000000 0.086578 0.000000
# 6 0.000000 0.000000 0.000000 0.006357 0.000000 0.029845
#
#
# Mechanical properties :
#
#
# Convention : Reuss Voigt Hill
#
# Bulk Modulus (GPa) = 45.10176 63.10972 54.10574
# Shear Modulus (GPa) = 19.87344 24.22380 22.04862
#
# Velocity S-wave (km/s) = 3.44391 3.80221 3.62749
# Velocity P-wave (km/s) = 6.53688 7.54584 7.05941
#
# Compressibility (1/GPa) = 0.02217208
#
# Stress axis : x y z
#
# Youngs Moduli (GPa) = 76.79941 54.15269 45.56586
#
# Poissons Ratio (x) = 0.31818 0.21399
# Poissons Ratio (y) = 0.45125 0.23050
# Poissons Ratio (z) = 0.36068 0.27394
#
# Static dielectric constant tensor:
#      x y z
#    x 3.197610 0.000000 -0.034030 
#    y 0.000000 3.218090 0.000000 
#    z -0.034030 0.000000 2.841070 
# 
# 
# High freq. dielectric constant tensor:
#      x y z
#    x 1.649670 0.000000 -0.008850 
#    y 0.000000 1.663350 0.000000 
#    z -0.008850 0.000000 1.601430 
# 
# From -- ./inp_files/244300.got.cif
#   From: 2010.06.25/outbox.cif.g09.slc.cpg/sg12_123_cif.got.tgz:244300.got - 2010.06.28 00:19:55.
