data_PCOD8082223
_publ_section_title
;
Structure prediction by ZEFSAII (Michael W. Deem and Ramdas Pophale) SiO2 
 PCOD8082223
Probable space group: C 2/M
;
_chemical_formula_sum "Si O2"
_cell_formula_units_Z 40
_cell_length_a 25.655890
_cell_length_b 8.553200
_cell_length_c 9.733419
_cell_angle_alpha 90.000000
_cell_angle_beta 87.787010
_cell_angle_gamma 90.000000
_cell_volume 2134.308078
_symmetry_space_group_name_H-M "C 2/M"
_symmetry_group_IT_number 12
_symmetry_cell_setting 'monoclinic'
loop_
_space_group_symop_operation_xyz
x,y,z
-x,y,-z
-x,-y,-z
x,-y,z
1/2+x,1/2+y,z
1/2-x,1/2+y,-z
1/2-x,1/2-y,-z
1/2+x,1/2-y,z
loop_
_atom_site_type_symbol
_atom_site_label
_atom_site_fract_x
_atom_site_fract_y
_atom_site_fract_z
Si Si1 0.241771 0.184969 0.152357
Si Si2 0.936137 0.184871 0.372085
Si Si3 0.447294 0.314877 0.678792
Si Si4 0.637575 0.817207 0.120644
Si Si5 0.347446 0.685159 0.180692
O O1 0.186423 0.255271 0.208431
O O2 0.291639 0.243318 0.234519
O O3 0.238687 0.000000 0.154787
O O4 0.250000 0.250000 0.000000
O O5 0.927483 0.238154 0.530086
O O6 0.890756 0.254380 0.280388
O O7 0.992616 0.238286 0.310565
O O8 0.935024 0.000000 0.367831
O O9 0.440284 0.500000 0.701453
O O10 0.415497 0.220998 0.795766
O O11 0.643456 0.000000 0.094221
O O12 0.636586 0.732163 0.974295
O O13 0.343708 0.500000 0.190398
#
# Coordination Sequence:
#
# PCOD8082223 Si02
#       5
#     8   8   8   8   8
#     4  10  18  31  50  73  99 132 165 203 249 296
#     4   8  17  33  56  77  98 129 168 206 249 297
#     4   9  17  35  56  75  98 131 169 207 246 294
#     4  11  21  33  49  75 104 134 167 205 246 293
#     4  10  18  32  53  78 102 130 164 205 249 296
#
# _framework density 18.741436
#
# number of rings (size 3 to 8) (size 9 to 14) (size 15 to 20)
#    0.000    2.400    0.000    7.800    0.000    0.800 
#    0.000   11.000    0.000    0.000    0.000    0.000 
#    0.000    0.000    0.000    0.000    0.000    0.000 
#
# Total GULP energy -247915.096556 kJ/mol
# GULP energy per Si atom -12395.754828 kJ/mol
# Density = 1.869878 g / cm^3
# Si number density = 18.741436 Si / 1000 Ang^3
#
#
#
# Elastic Constant Matrix: (Units=GPa)
#
#
# Indices 1 2 3 4 5 6 
#
# 1 92.9523 14.6122 26.4712 0.0000 33.8723 0.0000
# 2 14.6122 69.4240 0.5838 0.0000 4.2415 0.0000
# 3 26.4712 0.5838 41.1541 0.0000 18.8471 0.0000
# 4 0.0000 0.0000 0.0000 11.3251 0.0000 -1.6079
# 5 33.8723 4.2415 18.8471 0.0000 31.7962 0.0000
# 6 0.0000 0.0000 0.0000 -1.6079 0.0000 30.0888
#
#
#
# Elastic Compliance Matrix: (Units=1/GPa)
#
#
# Indices 1 2 3 4 5 6 
#
# 1 0.018553 -0.002836 -0.004139 0.000000 -0.016933 0.000000
# 2 -0.002836 0.014982 0.001569 0.000000 0.000092 0.000000
# 3 -0.004139 0.001569 0.034336 0.000000 -0.016153 0.000000
# 4 0.000000 0.000000 0.000000 0.088975 0.000000 0.004755
# 5 -0.016933 0.000092 -0.016153 0.000000 0.059051 0.000000
# 6 0.000000 0.000000 0.000000 0.004755 0.000000 0.033489
#
#
# Mechanical properties :
#
#
# Convention : Reuss Voigt Hill
#
# Bulk Modulus (GPa) = 17.52507 31.87389 24.69948
# Shear Modulus (GPa) = 17.90717 25.43288 21.67003
#
# Velocity S-wave (km/s) = 3.09445 3.68780 3.40408
# Velocity P-wave (km/s) = 4.70518 5.93104 5.35332
#
# Compressibility (1/GPa) = 0.05706110
#
# Stress axis : x y z
#
# Youngs Moduli (GPa) = 53.89920 66.74563 29.12369
#
# Poissons Ratio (x) = 0.18927 0.12054
# Poissons Ratio (y) = 0.15284 -0.04570
# Poissons Ratio (z) = 0.22308 -0.10474
#
# Static dielectric constant tensor:
#      x y z
#    x 4.310710 0.000000 0.331210 
#    y 0.000000 3.236020 0.000000 
#    z 0.331210 0.000000 3.335270 
# 
# 
# High freq. dielectric constant tensor:
#      x y z
#    x 1.747950 0.000000 0.005500 
#    y 0.000000 1.716950 0.000000 
#    z 0.005500 0.000000 1.694810 
# 
# From -- ./inp_files/101102.got.cif
#   From: 2010.06.25/outbox.cif.g09.slc.cpg/sg12_51_cif.got.tgz:101102.got - 2010.06.28 00:19:55.
