data_PCOD8082002
_publ_section_title
;
Structure prediction by ZEFSAII (Michael W. Deem and Ramdas Pophale) SiO2 
 PCOD8082002
Probable space group: C 2/M
;
_chemical_formula_sum "Si O2"
_cell_formula_units_Z 48
_cell_length_a 14.976269
_cell_length_b 18.225911
_cell_length_c 15.874444
_cell_angle_alpha 90.000000
_cell_angle_beta 37.166041
_cell_angle_gamma 90.000000
_cell_volume 2617.698237
_symmetry_space_group_name_H-M "C 2/M"
_symmetry_group_IT_number 12
_symmetry_cell_setting 'monoclinic'
loop_
_space_group_symop_operation_xyz
x,y,z
-x,y,-z
-x,-y,-z
x,-y,z
1/2+x,1/2+y,z
1/2-x,1/2+y,-z
1/2-x,1/2-y,-z
1/2+x,1/2-y,z
loop_
_atom_site_type_symbol
_atom_site_label
_atom_site_fract_x
_atom_site_fract_y
_atom_site_fract_z
Si Si1 0.133440 0.273290 0.347035
Si Si2 0.929426 0.652177 0.965144
Si Si3 0.142313 0.818984 0.946274
Si Si4 0.334835 0.800707 0.329972
Si Si5 0.949902 0.820316 0.365505
Si Si6 0.647653 0.415308 0.106840
O O1 0.209375 0.327432 0.222265
O O2 0.264895 0.250302 0.310269
O O3 0.000000 0.312431 0.500000
O O4 0.065720 0.201531 0.351672
O O5 0.051599 0.643571 0.799559
O O6 0.869404 0.735464 0.012565
O O7 0.797372 0.596527 0.046308
O O8 0.000000 0.628395 0.000000
O O9 0.159487 0.872769 0.010801
O O10 0.000000 0.842571 0.000000
O O11 0.205919 0.844927 0.475728
O O12 0.426366 0.751238 0.325973
O O13 0.009534 0.887443 0.265837
O O14 0.622213 0.500000 0.106597
#
# Coordination Sequence:
#
# PCOD8082002 Si02
#       6
#     8   8   8   8   8   8
#     4  10  18  30  54  85 107 127 173 237 282 307
#     4  11  19  35  59  82 105 138 187 241 265 309
#     4  11  19  35  59  82 108 138 185 236 273 310
#     4  10  18  31  55  82 103 131 177 235 275 303
#     4  10  19  32  51  79 109 137 176 222 271 322
#     4  12  24  36  53  80 118 153 178 215 276 337
#
# _framework density 18.33672
#
# number of rings (size 3 to 8) (size 9 to 14) (size 15 to 20)
#    0.000    1.333    6.667    1.500    0.000    0.667 
#    0.000    0.833    0.000   10.000    0.000    0.000 
#    0.000    0.000    0.000    0.000    0.000    0.000 
#
# Total GULP energy -297601.537597 kJ/mol
# GULP energy per Si atom -12400.064067 kJ/mol
# Density = 1.829499 g / cm^3
# Si number density = 18.336720 Si / 1000 Ang^3
#
#
#
# Elastic Constant Matrix: (Units=GPa)
#
#
# Indices 1 2 3 4 5 6 
#
# 1 72.2370 21.0508 21.4536 0.0003 4.2117 -0.0006
# 2 21.0508 51.0091 32.1339 0.0006 3.4681 -0.0007
# 3 21.4536 32.1339 172.2951 -0.0006 4.0435 0.0003
# 4 0.0003 0.0006 -0.0006 14.1085 0.0002 -3.6690
# 5 4.2117 3.4681 4.0435 0.0002 29.2122 -0.0004
# 6 -0.0006 -0.0007 0.0003 -3.6690 -0.0004 7.9651
#
#
#
# Elastic Compliance Matrix: (Units=1/GPa)
#
#
# Indices 1 2 3 4 5 6 
#
# 1 0.015908 -0.005936 -0.000839 0.000000 -0.001473 0.000001
# 2 -0.005936 0.024555 -0.003805 -0.000001 -0.001533 0.000001
# 3 -0.000839 -0.003805 0.006626 0.000000 -0.000345 0.000000
# 4 0.000000 -0.000001 0.000000 0.080525 0.000000 0.037092
# 5 -0.001473 -0.001533 -0.000345 0.000000 0.034674 0.000002
# 6 0.000001 0.000001 0.000000 0.037092 0.000002 0.142633
#
#
# Mechanical properties :
#
#
# Convention : Reuss Voigt Hill
#
# Bulk Modulus (GPa) = 38.56609 49.42419 43.99514
# Shear Modulus (GPa) = 14.93763 24.98402 19.96082
#
# Velocity S-wave (km/s) = 2.85727 3.69523 3.30293
# Velocity P-wave (km/s) = 5.65359 6.72447 6.21215
#
# Compressibility (1/GPa) = 0.02592952
#
# Stress axis : x y z
#
# Youngs Moduli (GPa) = 62.86004 40.72464 150.91782
#
# Poissons Ratio (x) = 0.24176 0.12664
# Poissons Ratio (y) = 0.37317 0.57417
# Poissons Ratio (z) = 0.05275 0.15494
#
# Static dielectric constant tensor:
#      x y z
#    x 3.636650 -0.000010 -0.044940 
#    y -0.000010 2.716330 0.000010 
#    z -0.044940 0.000010 4.054280 
# 
# 
# High freq. dielectric constant tensor:
#      x y z
#    x 1.733260 0.000000 0.002130 
#    y 0.000000 1.626490 0.000000 
#    z 0.002130 0.000000 1.743490 
# 
# From -- ./inp_files/216226.got.cif
#   From: 2010.06.25/outbox.cif.g09.slc.cpg/sg12_109_cif.got.tgz:216226.got - 2010.06.28 00:19:55.
