data_PCOD8082053
_publ_section_title
;
Structure prediction by ZEFSAII (Michael W. Deem and Ramdas Pophale) SiO2 
 PCOD8082053
Probable space group: C 2/M
;
_chemical_formula_sum "Si O2"
_cell_formula_units_Z 64
_cell_length_a 24.497114
_cell_length_b 8.989850
_cell_length_c 21.479454
_cell_angle_alpha 90.000000
_cell_angle_beta 46.474111
_cell_angle_gamma 90.000000
_cell_volume 3429.781935
_symmetry_space_group_name_H-M "C 2/M"
_symmetry_group_IT_number 12
_symmetry_cell_setting 'monoclinic'
loop_
_space_group_symop_operation_xyz
x,y,z
-x,y,-z
-x,-y,-z
x,-y,z
1/2+x,1/2+y,z
1/2-x,1/2+y,-z
1/2-x,1/2-y,-z
1/2+x,1/2-y,z
loop_
_atom_site_type_symbol
_atom_site_label
_atom_site_fract_x
_atom_site_fract_y
_atom_site_fract_z
Si Si1 0.626362 0.827925 0.273597
Si Si2 0.278761 0.673485 0.214766
Si Si3 0.068006 0.673525 0.905258
Si Si4 0.636215 0.673561 0.516321
Si Si5 0.084986 0.159844 0.421625
Si Si6 0.071161 0.325108 0.759744
Si Si7 0.504541 0.676762 0.289104
Si Si8 0.772226 0.175712 0.362161
O O1 0.714837 0.787673 0.213444
O O2 0.590286 0.792663 0.368526
O O3 0.584522 0.730458 0.254206
O O4 0.614638 0.000000 0.266467
O O5 0.295383 0.500000 0.203344
O O6 0.354354 0.753561 0.133453
O O7 0.254011 0.724340 0.304376
O O8 0.077164 0.500000 0.909986
O O9 0.050532 0.709781 0.847233
O O10 0.000000 0.739112 0.000000
O O11 0.650618 0.500000 0.517418
O O12 0.619504 0.713100 0.458543
O O13 0.566860 0.729989 0.613040
O O14 0.713987 0.765462 0.460905
O O15 0.000000 0.122762 0.500000
O O16 0.121048 0.000000 0.370556
O O17 0.077696 0.500000 0.741919
O O18 0.004632 0.253306 0.770802
O O19 0.148603 0.246125 0.679851
O O20 0.507354 0.500000 0.281240
O O21 0.778366 0.000000 0.363823
#
# Coordination Sequence:
#
# PCOD8082053 Si02
#       8
#     8   8   8   8   8   8   8   8
#     4  11  21  33  50  76 108 142 181 225 268 310
#     4   9  19  33  51  81 114 139 169 213 265 312
#     4   9  19  37  63  91 112 131 161 205 260 321
#     4  10  20  32  48  70 100 140 187 232 272 309
#     4  10  18  31  47  68  99 139 186 233 274 308
#     4  10  21  38  57  79 106 138 173 213 265 322
#     4  11  23  38  52  72 104 147 190 225 263 312
#     4  10  19  33  52  75 104 139 180 228 272 312
#
# _framework density 18.660077999999999
#
# number of rings (size 3 to 8) (size 9 to 14) (size 15 to 20)
#    0.000    2.000    2.500    1.500    0.000    4.000 
#    0.000    0.000    0.000    0.750    0.000    0.000 
#    0.000    0.000    0.000    0.000    0.000    0.000 
#
# Total GULP energy -396604.293269 kJ/mol
# GULP energy per Si atom -12393.884165 kJ/mol
# Density = 1.861761 g / cm^3
# Si number density = 18.660078 Si / 1000 Ang^3
#
#
#
# Elastic Constant Matrix: (Units=GPa)
#
#
# Indices 1 2 3 4 5 6 
#
# 1 115.2260 49.6200 45.3203 -0.0012 -3.9599 0.0008
# 2 49.6200 67.8497 37.5259 0.0085 -4.1215 -0.0050
# 3 45.3203 37.5259 81.7413 -0.0004 -18.8989 -0.0003
# 4 -0.0012 0.0085 -0.0004 20.1773 -0.0003 -2.2005
# 5 -3.9599 -4.1215 -18.8989 -0.0003 16.9774 0.0001
# 6 0.0008 -0.0050 -0.0003 -2.2005 0.0001 34.1897
#
#
#
# Elastic Compliance Matrix: (Units=1/GPa)
#
#
# Indices 1 2 3 4 5 6 
#
# 1 0.013806 -0.007458 -0.005258 0.000004 -0.004443 -0.000001
# 2 -0.007458 0.024447 -0.008238 -0.000011 -0.004976 0.000003
# 3 -0.005258 -0.008238 0.024487 0.000004 0.024032 -0.000001
# 4 0.000004 -0.000011 0.000004 0.049911 0.000004 0.003212
# 5 -0.004443 -0.004976 0.024032 0.000004 0.083410 -0.000001
# 6 -0.000001 0.000003 -0.000001 0.003212 -0.000001 0.029455
#
#
# Mechanical properties :
#
#
# Convention : Reuss Voigt Hill
#
# Bulk Modulus (GPa) = 48.00508 58.86106 53.43307
# Shear Modulus (GPa) = 18.22366 23.09225 20.65796
#
# Velocity S-wave (km/s) = 3.12847 3.52166 3.33087
# Velocity P-wave (km/s) = 6.23151 6.93891 6.59470
#
# Compressibility (1/GPa) = 0.02083113
#
# Stress axis : x y z
#
# Youngs Moduli (GPa) = 72.43411 40.90445 40.83773
#
# Poissons Ratio (x) = 0.30508 0.21471
# Poissons Ratio (y) = 0.54025 0.33644
# Poissons Ratio (z) = 0.38083 0.33699
#
# Static dielectric constant tensor:
#      x y z
#    x 3.554780 0.000000 -0.062570 
#    y 0.000000 3.415110 0.000000 
#    z -0.062570 0.000000 3.242440 
# 
# 
# High freq. dielectric constant tensor:
#      x y z
#    x 1.732770 0.000000 -0.007080 
#    y 0.000000 1.728650 0.000000 
#    z -0.007080 0.000000 1.682160 
# 
# From -- ./inp_files/324111.got.cif
#   From: 2010.06.25/outbox.cif.g09.slc.cpg/sg12_163_cif.got.tgz:324111.got - 2010.06.28 00:19:55.
