data_PCOD8082177
_publ_section_title
;
Structure prediction by ZEFSAII (Michael W. Deem and Ramdas Pophale) SiO2 
 PCOD8082177
Probable space group: C 2/M
;
_chemical_formula_sum "Si O2"
_cell_formula_units_Z 56
_cell_length_a 25.261647
_cell_length_b 9.253426
_cell_length_c 19.086520
_cell_angle_alpha 90.000000
_cell_angle_beta 48.422922
_cell_angle_gamma 90.000000
_cell_volume 3337.563356
_symmetry_space_group_name_H-M "C 2/M"
_symmetry_group_IT_number 12
_symmetry_cell_setting 'monoclinic'
loop_
_space_group_symop_operation_xyz
x,y,z
-x,y,-z
-x,-y,-z
x,-y,z
1/2+x,1/2+y,z
1/2-x,1/2+y,-z
1/2-x,1/2-y,-z
1/2+x,1/2-y,z
loop_
_atom_site_type_symbol
_atom_site_label
_atom_site_fract_x
_atom_site_fract_y
_atom_site_fract_z
Si Si1 0.550197 0.671493 0.895087
Si Si2 0.709805 0.669401 0.774465
Si Si3 0.648165 0.335121 0.602230
Si Si4 0.251626 0.332274 0.608541
Si Si5 0.859787 0.668518 0.901042
Si Si6 0.500915 0.667155 0.211918
Si Si7 0.232452 0.833261 0.912712
O O1 0.550763 0.500000 0.898767
O O2 0.629752 0.728190 0.836857
O O3 0.521257 0.723190 0.845573
O O4 0.500000 0.736159 0.000000
O O5 0.714312 0.500000 0.754762
O O6 0.759932 0.752034 0.675381
O O7 0.738663 0.707403 0.825993
O O8 0.665224 0.500000 0.610404
O O9 0.676749 0.305210 0.498893
O O10 0.684741 0.230426 0.625630
O O11 0.564157 0.308398 0.677451
O O12 0.237902 0.500000 0.633995
O O13 0.869901 0.500000 0.905609
O O14 0.807633 0.700456 0.882110
O O15 0.934495 0.739026 0.815805
O O16 0.829354 0.738806 0.998513
O O17 0.523742 0.500000 0.189157
O O18 0.210411 0.000000 0.941855
#
# Coordination Sequence:
#
# PCOD8082177 Si02
#       7
#     8   8   8   8   8   8   8
#     4   9  16  26  44  69  93 121 160 197 227 277
#     4  10  18  32  52  71  95 129 168 201 237 293
#     4   9  18  33  50  69  96 134 171 197 232 297
#     4  10  19  30  48  74 102 126 158 206 253 289
#     4  10  20  33  50  75 102 126 162 210 250 281
#     4  10  18  31  50  70  96 131 168 197 234 293
#     4   9  19  35  54  72  94 132 173 201 235 293
#
# _framework density 16.778708000000002
#
# number of rings (size 3 to 8) (size 9 to 14) (size 15 to 20)
#    0.000    2.429    1.429    1.714    0.000    4.571 
#    0.000    0.000    0.000    2.571    0.000    6.000 
#    0.000    0.000    0.000    0.000    0.000    0.000 
#
# Total GULP energy -347241.104737 kJ/mol
# GULP energy per Si atom -12401.468026 kJ/mol
# Density = 1.674052 g / cm^3
# Si number density = 16.778708 Si / 1000 Ang^3
#
#
#
# Elastic Constant Matrix: (Units=GPa)
#
#
# Indices 1 2 3 4 5 6 
#
# 1 83.9089 43.8158 59.6173 -0.0036 -0.7602 0.0025
# 2 43.8158 72.0664 56.4937 -0.0067 0.4591 0.0077
# 3 59.6173 56.4937 133.2472 -0.0022 1.7494 0.0038
# 4 -0.0036 -0.0067 -0.0022 28.9737 0.0013 -0.5387
# 5 -0.7602 0.4591 1.7494 0.0013 25.6645 -0.0036
# 6 0.0025 0.0077 0.0038 -0.5387 -0.0036 24.7863
#
#
#
# Elastic Compliance Matrix: (Units=1/GPa)
#
#
# Indices 1 2 3 4 5 6 
#
# 1 0.019996 -0.007698 -0.005697 0.000000 0.001118 0.000001
# 2 -0.007698 0.023749 -0.006622 0.000004 -0.000202 -0.000006
# 3 -0.005697 -0.006622 0.012874 -0.000001 -0.000928 0.000001
# 4 0.000000 0.000004 -0.000001 0.034528 -0.000002 0.000750
# 5 0.001118 -0.000202 -0.000928 -0.000002 0.039064 0.000006
# 6 0.000001 -0.000006 0.000001 0.000750 0.000006 0.040361
#
#
# Mechanical properties :
#
#
# Convention : Reuss Voigt Hill
#
# Bulk Modulus (GPa) = 60.30170 67.67511 63.98841
# Shear Modulus (GPa) = 23.13379 24.50463 23.81921
#
# Velocity S-wave (km/s) = 3.71719 3.82574 3.77186
# Velocity P-wave (km/s) = 7.37840 7.74187 7.56232
#
# Compressibility (1/GPa) = 0.01658328
#
# Stress axis : x y z
#
# Youngs Moduli (GPa) = 50.01115 42.10725 77.67807
#
# Poissons Ratio (x) = 0.32415 0.44255
# Poissons Ratio (y) = 0.38499 0.51439
# Poissons Ratio (z) = 0.28492 0.27884
#
# Static dielectric constant tensor:
#      x y z
#    x 3.008160 -0.000010 0.009380 
#    y -0.000010 3.042090 0.000000 
#    z 0.009380 0.000000 3.301280 
# 
# 
# High freq. dielectric constant tensor:
#      x y z
#    x 1.625740 0.000000 -0.000330 
#    y 0.000000 1.635380 0.000000 
#    z -0.000330 0.000000 1.650640 
# 
# From -- ./inp_files/288235.got.cif
#   From: 2010.06.25/outbox.cif.g09.slc.cpg/sg12_145_cif.got.tgz:288235.got - 2010.06.28 00:19:55.
