data_PCOD8082761
_publ_section_title
;
Structure prediction by ZEFSAII (Michael W. Deem and Ramdas Pophale) SiO2 
 PCOD8082761
Probable space group: C 2/M
;
_chemical_formula_sum "Si O2"
_cell_formula_units_Z 64
_cell_length_a 33.253620
_cell_length_b 8.952305
_cell_length_c 11.674548
_cell_angle_alpha 90.000000
_cell_angle_beta 93.520252
_cell_angle_gamma 90.000000
_cell_volume 3468.914977
_symmetry_space_group_name_H-M "C 2/M"
_symmetry_group_IT_number 12
_symmetry_cell_setting 'monoclinic'
loop_
_space_group_symop_operation_xyz
x,y,z
-x,y,-z
-x,-y,-z
x,-y,z
1/2+x,1/2+y,z
1/2-x,1/2+y,-z
1/2-x,1/2-y,-z
1/2+x,1/2-y,z
loop_
_atom_site_type_symbol
_atom_site_label
_atom_site_fract_x
_atom_site_fract_y
_atom_site_fract_z
Si Si1 0.577936 0.173893 0.572010
Si Si2 0.016243 0.326480 0.762642
Si Si3 0.858665 0.173335 0.270071
Si Si4 0.439112 0.672072 0.666567
Si Si5 0.876191 0.828965 0.847710
Si Si6 0.420860 0.327605 0.081519
Si Si7 0.703652 0.825194 0.105842
Si Si8 0.284873 0.824636 0.154308
O O1 0.542007 0.207300 0.653625
O O2 0.618357 0.259585 0.616344
O O3 0.563426 0.230024 0.447166
O O4 0.588028 0.000000 0.567825
O O5 0.005749 0.500000 0.773064
O O6 0.040983 0.273480 0.878375
O O7 0.975600 0.231570 0.750163
O O8 0.884096 0.204722 0.160506
O O9 0.815738 0.252988 0.249575
O O10 0.851359 0.000000 0.291224
O O11 0.446866 0.500000 0.635764
O O12 0.397978 0.690131 0.730239
O O13 0.837002 0.725723 0.839084
O O14 0.862994 0.000000 0.867662
O O15 0.906790 0.778662 0.953130
O O16 0.434156 0.500000 0.089191
O O17 0.740830 0.741261 0.171971
O O18 0.709905 0.000000 0.124316
O O19 0.701394 0.781902 0.971694
O O20 0.283795 0.000000 0.173855
#
# Coordination Sequence:
#
# PCOD8082761 Si02
#       8
#     8   8   8   8   8   8   8   8
#     4  10  21  37  56  78 106 137 176 225 273 314
#     4  10  21  36  55  78 105 135 173 225 274 314
#     4  10  18  31  55  82 108 138 176 219 264 314
#     4  11  23  37  55  77 103 140 183 221 265 319
#     4  10  21  37  54  75 108 145 178 217 263 317
#     4   9  18  33  53  76 105 140 174 213 264 316
#     4  10  20  32  51  79 110 144 179 215 256 310
#     4  10  19  31  51  80 113 143 174 214 262 310
#
# _framework density 18.449573000000001
#
# number of rings (size 3 to 8) (size 9 to 14) (size 15 to 20)
#    0.000    2.000    1.250    2.625    0.000    6.500 
#    0.000    2.500    0.000    0.750    0.000    0.000 
#    0.000    0.000    0.000    0.000    0.000    0.000 
#
# Total GULP energy -396975.638061 kJ/mol
# GULP energy per Si atom -12405.488689 kJ/mol
# Density = 1.840758 g / cm^3
# Si number density = 18.449573 Si / 1000 Ang^3
#
#
#
# Elastic Constant Matrix: (Units=GPa)
#
#
# Indices 1 2 3 4 5 6 
#
# 1 100.6609 49.1138 12.5263 0.0000 13.5679 0.0000
# 2 49.1138 85.1336 15.7222 0.0000 4.2007 0.0000
# 3 12.5263 15.7222 25.0230 0.0000 2.3662 0.0000
# 4 0.0000 0.0000 0.0000 26.5632 0.0000 7.1072
# 5 13.5679 4.2007 2.3662 0.0000 21.9776 0.0000
# 6 0.0000 0.0000 0.0000 7.1072 0.0000 38.1039
#
#
#
# Elastic Compliance Matrix: (Units=1/GPa)
#
#
# Indices 1 2 3 4 5 6 
#
# 1 0.015082 -0.007992 -0.001811 0.000000 -0.007588 0.000000
# 2 -0.007992 0.017583 -0.007270 0.000000 0.002356 0.000000
# 3 -0.001811 -0.007270 0.045665 0.000000 -0.002409 0.000000
# 4 0.000000 0.000000 0.000000 0.039623 0.000000 -0.007391
# 5 -0.007588 0.002356 -0.002409 0.000000 0.049995 0.000000
# 6 0.000000 0.000000 0.000000 -0.007391 0.000000 0.027623
#
#
# Mechanical properties :
#
#
# Convention : Reuss Voigt Hill
#
# Bulk Modulus (GPa) = 22.63204 40.61578 31.62391
# Shear Modulus (GPa) = 20.45455 26.22596 23.34026
#
# Velocity S-wave (km/s) = 3.33329 3.77436 3.56066
# Velocity P-wave (km/s) = 5.20654 6.40755 5.83801
#
# Compressibility (1/GPa) = 0.04418515
#
# Stress axis : x y z
#
# Youngs Moduli (GPa) = 66.30478 56.87281 21.89849
#
# Poissons Ratio (x) = 0.45452 0.03966
# Poissons Ratio (y) = 0.52990 0.15920
# Poissons Ratio (z) = 0.12007 0.41345
#
# Static dielectric constant tensor:
#      x y z
#    x 3.329410 0.000000 0.139820 
#    y 0.000000 3.424050 0.000000 
#    z 0.139820 0.000000 3.160350 
# 
# 
# High freq. dielectric constant tensor:
#      x y z
#    x 1.714760 0.000000 0.016430 
#    y 0.000000 1.727170 0.000000 
#    z 0.016430 0.000000 1.689120 
# 
# From -- ./inp_files/187407.got.cif
#   From: 2010.06.25/outbox.cif.g09.slc.cpg/sg12_94_cif.got.tgz:187407.got - 2010.06.28 00:19:55.
