data_PCOD8082797
_publ_section_title
;
Structure prediction by ZEFSAII (Michael W. Deem and Ramdas Pophale) SiO2 
 PCOD8082797
Probable space group: C 2/M
;
_chemical_formula_sum "Si O2"
_cell_formula_units_Z 32
_cell_length_a 11.258904
_cell_length_b 17.521489
_cell_length_c 9.835022
_cell_angle_alpha 90.000000
_cell_angle_beta 115.603641
_cell_angle_gamma 90.000000
_cell_volume 1749.665922
_symmetry_space_group_name_H-M "C 2/M"
_symmetry_group_IT_number 12
_symmetry_cell_setting 'monoclinic'
loop_
_space_group_symop_operation_xyz
x,y,z
-x,y,-z
-x,-y,-z
x,-y,z
1/2+x,1/2+y,z
1/2-x,1/2+y,-z
1/2-x,1/2-y,-z
1/2+x,1/2-y,z
loop_
_atom_site_type_symbol
_atom_site_label
_atom_site_fract_x
_atom_site_fract_y
_atom_site_fract_z
Si Si1 0.438006 0.802942 0.598401
Si Si2 0.544650 0.414356 0.744207
Si Si3 0.826807 0.859160 0.463447
Si Si4 0.093301 0.233484 0.916891
O O1 0.500000 0.847004 0.500000
O O2 0.330199 0.860619 0.604884
O O3 0.624392 0.727387 0.499606
O O4 0.543072 0.783346 0.765936
O O5 0.572708 0.500000 0.809531
O O6 0.393528 0.408037 0.617505
O O7 0.638682 0.393583 0.665092
O O8 0.573286 0.356831 0.881850
O O9 0.250000 0.250000 0.000000
O O10 0.000000 0.255339 0.000000
#
# Coordination Sequence:
#
# PCOD8082797 Si02
#       4
#     8   8   8   8
#     4  10  18  31  56  81 109 139 182 233 280 315
#     4  10  19  34  56  79 109 148 184 226 280 338
#     4   9  16  30  54  83 105 134 184 234 269 319
#     4  11  23  36  56  86 116 144 185 236 283 328
#
# _framework density 18.289207000000001
#
# number of rings (size 3 to 8) (size 9 to 14) (size 15 to 20)
#    0.000    2.000    5.000    3.000    7.000    0.500 
#    0.000    0.000    0.000   11.250    0.000    0.000 
#    0.000    0.000    0.000    0.000    0.000    0.000 
#
# Total GULP energy -198253.260061 kJ/mol
# GULP energy per Si atom -12390.828754 kJ/mol
# Density = 1.824758 g / cm^3
# Si number density = 18.289207 Si / 1000 Ang^3
#
#
#
# Elastic Constant Matrix: (Units=GPa)
#
#
# Indices 1 2 3 4 5 6 
#
# 1 129.5934 30.0217 68.7675 0.0000 20.6153 0.0000
# 2 30.0217 59.8903 24.7576 0.0000 5.4746 0.0000
# 3 68.7675 24.7576 99.0615 0.0000 5.1077 0.0000
# 4 0.0000 0.0000 0.0000 12.2557 0.0000 -2.0245
# 5 20.6153 5.4746 5.1077 0.0000 30.0851 0.0000
# 6 0.0000 0.0000 0.0000 -2.0245 0.0000 17.2674
#
#
#
# Elastic Compliance Matrix: (Units=1/GPa)
#
#
# Indices 1 2 3 4 5 6 
#
# 1 0.014278 -0.002805 -0.008810 0.000000 -0.007778 0.000000
# 2 -0.002805 0.019379 -0.002838 0.000000 -0.001123 0.000000
# 3 -0.008810 -0.002838 0.016728 0.000000 0.003713 0.000000
# 4 0.000000 0.000000 0.000000 0.083206 0.000000 0.009756
# 5 -0.007778 -0.001123 0.003713 0.000000 0.038143 0.000000
# 6 0.000000 0.000000 0.000000 0.009756 0.000000 0.059056
#
#
# Mechanical properties :
#
#
# Convention : Reuss Voigt Hill
#
# Bulk Modulus (GPa) = 46.55505 59.51542 53.03524
# Shear Modulus (GPa) = 18.73664 22.92153 20.82909
#
# Velocity S-wave (km/s) = 3.20420 3.54401 3.37838
# Velocity P-wave (km/s) = 6.26094 7.02557 6.65425
#
# Compressibility (1/GPa) = 0.02147995
#
# Stress axis : x y z
#
# Youngs Moduli (GPa) = 70.03605 51.60205 59.77835
#
# Poissons Ratio (x) = 0.14472 0.52664
# Poissons Ratio (y) = 0.19642 0.16968
# Poissons Ratio (z) = 0.61701 0.14647
#
# Static dielectric constant tensor:
#      x y z
#    x 3.892680 0.000000 0.098980 
#    y 0.000000 3.125020 0.000000 
#    z 0.098980 0.000000 3.294410 
# 
# 
# High freq. dielectric constant tensor:
#      x y z
#    x 1.718970 0.000000 -0.002180 
#    y 0.000000 1.668680 0.000000 
#    z -0.002180 0.000000 1.698960 
# 
# From -- ./inp_files/118683.got.cif
#   From: 2010.06.25/outbox.cif.g09.slc.cpg/sg12_60_cif.got.tgz:118683.got - 2010.06.28 00:19:55.
