data_PCOD8082671
_publ_section_title
;
Structure prediction by ZEFSAII (Michael W. Deem and Ramdas Pophale) SiO2 
 PCOD8082671
Probable space group: C 2/M
;
_chemical_formula_sum "Si O2"
_cell_formula_units_Z 64
_cell_length_a 27.814024
_cell_length_b 17.277101
_cell_length_c 12.786031
_cell_angle_alpha 90.000000
_cell_angle_beta 143.373742
_cell_angle_gamma 90.000000
_cell_volume 3665.628177
_symmetry_space_group_name_H-M "C 2/M"
_symmetry_group_IT_number 12
_symmetry_cell_setting 'monoclinic'
loop_
_space_group_symop_operation_xyz
x,y,z
-x,y,-z
-x,-y,-z
x,-y,z
1/2+x,1/2+y,z
1/2-x,1/2+y,-z
1/2-x,1/2-y,-z
1/2+x,1/2-y,z
loop_
_atom_site_type_symbol
_atom_site_label
_atom_site_fract_x
_atom_site_fract_y
_atom_site_fract_z
Si Si1 0.914266 0.091731 0.312432
Si Si2 0.162149 0.412381 0.373966
Si Si3 0.075125 0.852606 0.308001
Si Si4 0.662003 0.592384 0.258551
Si Si5 0.365805 0.912337 0.917747
Si Si6 0.411988 0.412756 0.080556
Si Si7 0.692589 0.409416 0.681510
Si Si8 0.485728 0.189995 0.852553
O O1 0.893303 0.126748 0.160735
O O2 0.844041 0.114485 0.270433
O O3 0.000000 0.126243 0.500000
O O4 0.923076 0.000000 0.316582
O O5 0.148976 0.500000 0.387892
O O6 0.246947 0.380159 0.564003
O O7 0.163210 0.406083 0.251632
O O8 0.091463 0.363398 0.301776
O O9 0.103341 0.868146 0.239616
O O10 0.150675 0.858802 0.517955
O O11 0.031612 0.769346 0.237771
O O12 0.007831 0.913679 0.226615
O O13 0.652764 0.500000 0.252511
O O14 0.635395 0.626647 0.099052
O O15 0.287983 0.891322 0.852334
O O16 0.395967 0.000000 0.993479
O O17 0.437414 0.852167 0.066079
O O18 0.380674 0.500000 0.029721
O O19 0.678026 0.500000 0.630570
O O20 0.500000 0.203411 0.000000
#
# Coordination Sequence:
#
# PCOD8082671 Si02
#       8
#     8   8   8   8   8   8   8   8
#     4   9  16  28  48  73  98 123 166 213 246 281
#     4   9  17  32  51  70  95 128 168 209 246 291
#     4  12  20  30  45  72 107 136 157 193 245 305
#     4  10  19  30  46  72 102 134 164 192 242 305
#     4   9  17  33  54  73  95 126 171 216 247 284
#     4  10  19  30  46  70 101 136 164 195 239 296
#     4  10  18  31  54  79  98 128 169 208 249 287
#     4  10  21  33  45  71 101 135 169 200 249 294
#
# _framework density 17.459491
#
# number of rings (size 3 to 8) (size 9 to 14) (size 15 to 20)
#    0.000    2.125    2.500    2.625    0.000    3.000 
#    2.250    0.000    0.000    0.750    3.250    0.000 
#    0.000    6.000    0.000    0.000    0.000    0.000 
#
# Total GULP energy -396734.114241 kJ/mol
# GULP energy per Si atom -12397.941070 kJ/mol
# Density = 1.741975 g / cm^3
# Si number density = 17.459491 Si / 1000 Ang^3
#
#
#
# Elastic Constant Matrix: (Units=GPa)
#
#
# Indices 1 2 3 4 5 6 
#
# 1 128.3739 33.0598 64.8322 0.0000 3.7801 0.0000
# 2 33.0598 54.0049 34.1795 0.0000 6.5950 0.0000
# 3 64.8322 34.1795 80.9706 0.0000 2.9937 0.0000
# 4 0.0000 0.0000 0.0000 19.7380 0.0000 4.6425
# 5 3.7801 6.5950 2.9937 0.0000 33.7724 0.0000
# 6 0.0000 0.0000 0.0000 4.6425 0.0000 7.9295
#
#
#
# Elastic Compliance Matrix: (Units=1/GPa)
#
#
# Indices 1 2 3 4 5 6 
#
# 1 0.013222 -0.001868 -0.009789 0.000000 -0.000247 0.000000
# 2 -0.001868 0.026082 -0.009364 0.000000 -0.004054 0.000000
# 3 -0.009789 -0.009364 0.024111 0.000000 0.000787 0.000000
# 4 0.000000 0.000000 0.000000 0.058755 0.000000 -0.034400
# 5 -0.000247 -0.004054 0.000787 0.000000 0.030360 0.000000
# 6 0.000000 0.000000 0.000000 -0.034400 0.000000 0.146251
#
#
# Mechanical properties :
#
#
# Convention : Reuss Voigt Hill
#
# Bulk Modulus (GPa) = 46.78737 58.61027 52.69882
# Shear Modulus (GPa) = 14.37000 21.03983 17.70492
#
# Velocity S-wave (km/s) = 2.87199 3.47517 3.18788
# Velocity P-wave (km/s) = 6.15253 7.05298 6.61809
#
# Compressibility (1/GPa) = 0.02137329
#
# Stress axis : x y z
#
# Youngs Moduli (GPa) = 75.63311 38.34044 41.47412
#
# Poissons Ratio (x) = 0.07164 0.40597
# Poissons Ratio (y) = 0.14132 0.38836
# Poissons Ratio (z) = 0.74034 0.35902
#
# Static dielectric constant tensor:
#      x y z
#    x 3.281740 0.000000 0.039730 
#    y 0.000000 2.972980 0.000000 
#    z 0.039730 0.000000 3.275670 
# 
# 
# High freq. dielectric constant tensor:
#      x y z
#    x 1.665640 0.000000 0.014640 
#    y 0.000000 1.642040 0.000000 
#    z 0.014640 0.000000 1.665820 
# 
# From -- ./inp_files/183848.got.cif
#   From: 2010.06.25/outbox.cif.g09.slc.cpg/sg12_92_cif.got.tgz:183848.got - 2010.06.28 00:19:55.
