data_PCOD8082165
_publ_section_title
;
Structure prediction by ZEFSAII (Michael W. Deem and Ramdas Pophale) SiO2 
 PCOD8082165
Probable space group: C 2/M
;
_chemical_formula_sum "Si O2"
_cell_formula_units_Z 64
_cell_length_a 20.417450
_cell_length_b 9.119799
_cell_length_c 19.807926
_cell_angle_alpha 90.000000
_cell_angle_beta 100.161099
_cell_angle_gamma 90.000000
_cell_volume 3630.447376
_symmetry_space_group_name_H-M "C 2/M"
_symmetry_group_IT_number 12
_symmetry_cell_setting 'monoclinic'
loop_
_space_group_symop_operation_xyz
x,y,z
-x,y,-z
-x,-y,-z
x,-y,z
1/2+x,1/2+y,z
1/2-x,1/2+y,-z
1/2-x,1/2-y,-z
1/2+x,1/2-y,z
loop_
_atom_site_type_symbol
_atom_site_label
_atom_site_fract_x
_atom_site_fract_y
_atom_site_fract_z
Si Si1 0.182712 0.830310 0.917281
Si Si2 0.026189 0.174383 0.668632
Si Si3 0.758253 0.831122 0.571460
Si Si4 0.168134 0.329378 0.053936
Si Si5 0.638318 0.672977 0.586054
Si Si6 0.540331 0.326518 0.074194
Si Si7 0.401288 0.331388 0.568338
Si Si8 0.948683 0.827258 0.178922
O O1 0.257377 0.801929 0.902539
O O2 0.128435 0.788672 0.850726
O O3 0.174723 0.000000 0.938449
O O4 0.166584 0.729846 0.977902
O O5 0.090408 0.219790 0.637559
O O6 0.032658 0.241774 0.744972
O O7 0.962076 0.244464 0.619309
O O8 0.019809 0.000000 0.671862
O O9 0.750000 0.750000 0.500000
O O10 0.709006 0.751515 0.615276
O O11 0.836175 0.815045 0.604488
O O12 0.737905 0.000000 0.560441
O O13 0.150369 0.500000 0.049765
O O14 0.113216 0.247097 0.089114
O O15 0.650532 0.500000 0.584336
O O16 0.609444 0.733593 0.509073
O O17 0.550447 0.500000 0.078695
O O18 0.498520 0.266348 0.130580
O O19 0.500000 0.280160 0.000000
O O20 0.420172 0.500000 0.560438
O O21 0.957576 0.000000 0.183341
#
# Coordination Sequence:
#
# PCOD8082165 Si02
#       8
#     8   8   8   8   8   8   8   8
#     4   9  17  32  49  68  95 122 151 188 232 276
#     4   9  16  27  46  70  91 117 160 199 226 268
#     4   9  16  27  45  68  94 121 150 188 231 273
#     4  10  19  29  48  74  95 117 149 190 231 277
#     4   9  16  27  46  71  95 119 151 194 235 271
#     4  10  18  31  50  69  93 122 152 192 233 274
#     4   8  14  25  43  68  94 118 149 193 232 258
#     4   9  17  30  48  67  89 123 160 192 228 273
#
# _framework density 17.628682000000001
#
# number of rings (size 3 to 8) (size 9 to 14) (size 15 to 20)
#    0.000    2.875    1.250    1.875    0.000    2.250 
#    0.000    1.250    0.000    8.250    0.000    0.000 
#    0.000    0.000    0.000    0.000    0.000    0.000 
#
# Total GULP energy -396557.844918 kJ/mol
# GULP energy per Si atom -12392.432654 kJ/mol
# Density = 1.758856 g / cm^3
# Si number density = 17.628682 Si / 1000 Ang^3
#
#
#
# Elastic Constant Matrix: (Units=GPa)
#
#
# Indices 1 2 3 4 5 6 
#
# 1 143.4469 40.0544 62.0308 0.0000 -18.4718 0.0000
# 2 40.0544 39.9072 17.1250 0.0000 -3.3511 0.0000
# 3 62.0308 17.1250 99.9637 0.0000 -14.3537 0.0000
# 4 0.0000 0.0000 0.0000 9.3021 0.0000 -2.9319
# 5 -18.4718 -3.3511 -14.3537 0.0000 15.8453 0.0000
# 6 0.0000 0.0000 0.0000 -2.9319 0.0000 29.4925
#
#
#
# Elastic Compliance Matrix: (Units=1/GPa)
#
#
# Indices 1 2 3 4 5 6 
#
# 1 0.013186 -0.010291 -0.005201 0.000000 0.008484 0.000000
# 2 -0.010291 0.035119 -0.000330 0.000000 -0.004868 0.000000
# 3 -0.005201 -0.000330 0.014262 0.000000 0.006786 0.000000
# 4 0.000000 0.000000 0.000000 0.110980 0.000000 0.011033
# 5 0.008484 -0.004868 0.006786 0.000000 0.078119 0.000000
# 6 0.000000 0.000000 0.000000 0.011033 0.000000 0.035004
#
#
# Mechanical properties :
#
#
# Convention : Reuss Voigt Hill
#
# Bulk Modulus (GPa) = 32.33678 57.97092 45.15385
# Shear Modulus (GPa) = 15.21504 21.86848 18.54176
#
# Velocity S-wave (km/s) = 2.94102 3.52590 3.24666
# Velocity P-wave (km/s) = 5.46954 7.03788 6.30269
#
# Compressibility (1/GPa) = 0.03092454
#
# Stress axis : x y z
#
# Youngs Moduli (GPa) = 75.83553 28.47427 70.11518
#
# Poissons Ratio (x) = 0.29302 0.36470
# Poissons Ratio (y) = 0.78039 0.02312
# Poissons Ratio (z) = 0.39446 0.00939
#
# Static dielectric constant tensor:
#      x y z
#    x 3.427990 0.000000 0.254160 
#    y 0.000000 3.017310 0.000000 
#    z 0.254160 0.000000 3.109590 
# 
# 
# High freq. dielectric constant tensor:
#      x y z
#    x 1.702900 0.000000 0.000510 
#    y 0.000000 1.642420 0.000000 
#    z 0.000510 0.000000 1.647580 
# 
# From -- ./inp_files/319216.got.cif
#   From: 2010.06.25/outbox.cif.g09.slc.cpg/sg12_160_cif.got.tgz:319216.got - 2010.06.28 00:19:55.
