data_PCOD8082907
_publ_section_title
;
Structure prediction by ZEFSAII (Michael W. Deem and Ramdas Pophale) SiO2 
 PCOD8082907
Probable space group: C 2/M
;
_chemical_formula_sum "Si O2"
_cell_formula_units_Z 60
_cell_length_a 13.643055
_cell_length_b 12.424346
_cell_length_c 27.744032
_cell_angle_alpha 90.000000
_cell_angle_beta 47.935089
_cell_angle_gamma 90.000000
_cell_volume 3491.280021
_symmetry_space_group_name_H-M "C 2/M"
_symmetry_group_IT_number 12
_symmetry_cell_setting 'monoclinic'
loop_
_space_group_symop_operation_xyz
x,y,z
-x,y,-z
-x,-y,-z
x,-y,z
1/2+x,1/2+y,z
1/2-x,1/2+y,-z
1/2-x,1/2-y,-z
1/2+x,1/2-y,z
loop_
_atom_site_type_symbol
_atom_site_label
_atom_site_fract_x
_atom_site_fract_y
_atom_site_fract_z
Si Si1 0.500000 0.289473 0.000000
Si Si2 0.846782 0.373185 0.644531
Si Si3 0.883631 0.757487 0.889953
Si Si4 0.350295 0.622088 0.206481
Si Si5 0.652162 0.231566 0.456637
Si Si6 0.639766 0.876071 0.559731
Si Si7 0.743873 0.380493 0.867287
Si Si8 0.342952 0.877171 0.991179
O O1 0.398056 0.366318 0.060583
O O2 0.558700 0.210313 0.020151
O O3 0.854009 0.500000 0.632676
O O4 0.737877 0.341465 0.719576
O O5 0.803180 0.317838 0.608964
O O6 0.989614 0.333544 0.617656
O O7 0.839195 0.717250 0.851871
O O8 0.848748 0.650398 0.932727
O O9 0.033702 0.791862 0.837075
O O10 0.801446 0.859134 0.937898
O O11 0.403833 0.500000 0.196156
O O12 0.262620 0.629288 0.187850
O O13 0.500000 0.272513 0.500000
O O14 0.667365 0.143061 0.493876
O O15 0.753826 0.324709 0.438804
O O16 0.651371 0.000000 0.567683
O O17 0.796240 0.500000 0.863312
O O18 0.387010 0.000000 0.985711
#
# Coordination Sequence:
#
# PCOD8082907 Si02
#       8
#     4   8   8   8   8   8   8   8
#     4  10  18  32  50  72  94 126 156 200 256 306
#     4   9  18  32  51  72  97 134 172 205 241 288
#     4  10  20  33  49  72  97 126 160 206 256 305
#     4  10  20  35  52  71  97 130 169 208 249 298
#     4   9  17  30  50  78 106 136 166 202 247 284
#     4   9  17  30  50  78 107 133 168 207 242 286
#     4  10  20  33  51  73  96 124 160 204 252 304
#     4  10  19  31  48  72  97 123 159 203 257 312
#
# _framework density 17.185673999999999
#
# number of rings (size 3 to 8) (size 9 to 14) (size 15 to 20)
#    0.000    2.400    1.333    1.600    0.000    2.933 
#    0.000    0.000    0.000    0.800    0.000    0.000 
#    0.000    0.000    0.000    0.000    0.000    0.000 
#
# Total GULP energy -371787.230059 kJ/mol
# GULP energy per Si atom -12392.907669 kJ/mol
# Density = 1.714656 g / cm^3
# Si number density = 17.185674 Si / 1000 Ang^3
#
#
#
# Elastic Constant Matrix: (Units=GPa)
#
#
# Indices 1 2 3 4 5 6 
#
# 1 92.6315 34.8404 39.9167 0.0000 3.7240 0.0000
# 2 34.8404 70.2978 40.9953 0.0000 0.9982 0.0000
# 3 39.9167 40.9953 91.3731 0.0000 7.3221 0.0000
# 4 0.0000 0.0000 0.0000 15.0589 0.0000 2.4253
# 5 3.7240 0.9982 7.3221 0.0000 21.1190 0.0000
# 6 0.0000 0.0000 0.0000 2.4253 0.0000 -19.6481
#
#
#
# Elastic Compliance Matrix: (Units=1/GPa)
#
#
# Indices 1 2 3 4 5 6 
#
# 1 0.014370 -0.004727 -0.004085 0.000000 -0.000894 0.000000
# 2 -0.004727 0.020916 -0.007516 0.000000 0.002451 0.000000
# 3 -0.004085 -0.007516 0.016472 0.000000 -0.004635 0.000000
# 4 0.000000 0.000000 0.000000 0.065112 0.000000 0.008037
# 5 -0.000894 0.002451 -0.004635 0.000000 0.049000 0.000000
# 6 0.000000 0.000000 0.000000 0.008037 0.000000 -0.049903
#
#
# Mechanical properties :
#
#
# Convention : Reuss Voigt Hill
#
# Bulk Modulus (GPa) = 52.34841 53.97858 53.16349
# Shear Modulus (GPa) = 32.26063 12.54262 22.40162
#
# Velocity S-wave (km/s) = 4.33735 2.70447 3.61433
# Velocity P-wave (km/s) = 7.45721 6.42101 6.95843
#
# Compressibility (1/GPa) = 0.01910278
#
# Stress axis : x y z
#
# Youngs Moduli (GPa) = 69.59158 47.81056 60.70876
#
# Poissons Ratio (x) = 0.22599 0.24800
# Poissons Ratio (y) = 0.32894 0.45626
# Poissons Ratio (z) = 0.28428 0.35932
#
# Static dielectric constant tensor:
#      x y z
#    x 3.409990 0.000000 0.082320 
#    y 0.000000 3.046200 0.000000 
#    z 0.082320 0.000000 3.151450 
# 
# 
# High freq. dielectric constant tensor:
#      x y z
#    x 1.667810 0.000000 0.010250 
#    y 0.000000 1.650810 0.000000 
#    z 0.010250 0.000000 1.653800 
# 
# From -- ./inp_files/309486.got.cif
#   From: 2010.06.25/outbox.cif.g09.slc.cpg/sg12_155_cif.got.tgz:309486.got - 2010.06.28 00:19:55.
