data_PCOD8082110
_publ_section_title
;
Structure prediction by ZEFSAII (Michael W. Deem and Ramdas Pophale) SiO2 
 PCOD8082110
Probable space group: C 2/M
;
_chemical_formula_sum "Si O2"
_cell_formula_units_Z 56
_cell_length_a 30.627725
_cell_length_b 9.694673
_cell_length_c 11.107209
_cell_angle_alpha 90.000000
_cell_angle_beta 65.427784
_cell_angle_gamma 90.000000
_cell_volume 2999.341252
_symmetry_space_group_name_H-M "C 2/M"
_symmetry_group_IT_number 12
_symmetry_cell_setting 'monoclinic'
loop_
_space_group_symop_operation_xyz
x,y,z
-x,y,-z
-x,-y,-z
x,-y,z
1/2+x,1/2+y,z
1/2-x,1/2+y,-z
1/2-x,1/2-y,-z
1/2+x,1/2-y,z
loop_
_atom_site_type_symbol
_atom_site_label
_atom_site_fract_x
_atom_site_fract_y
_atom_site_fract_z
Si Si1 0.870958 0.160920 0.272028
Si Si2 0.022362 0.835547 0.846903
Si Si3 0.526168 0.664911 0.347017
Si Si4 0.682145 0.656980 0.898606
Si Si5 0.728947 0.342828 0.181810
Si Si6 0.213492 0.152107 0.478635
Si Si7 0.131462 0.155870 0.191020
O O1 0.923688 0.226808 0.219386
O O2 0.838142 0.222102 0.201571
O O3 0.841938 0.192569 0.428365
O O4 0.878341 0.000000 0.237344
O O5 0.997059 0.780790 0.752468
O O6 0.021196 0.000000 0.845610
O O7 0.000000 0.782743 0.000000
O O8 0.500000 0.717410 0.500000
O O9 0.526181 0.500000 0.344406
O O10 0.580883 0.724309 0.287804
O O11 0.700865 0.500000 0.860623
O O12 0.725823 0.747029 0.903734
O O13 0.636692 0.660475 0.040690
O O14 0.736705 0.500000 0.123296
O O15 0.722903 0.344177 0.329423
O O16 0.679687 0.274164 0.188928
O O17 0.250000 0.250000 0.500000
O O18 0.222421 0.000000 0.522251
O O19 0.130925 0.000000 0.241151
#
# Coordination Sequence:
#
# PCOD8082110 Si02
#       7
#     8   8   8   8   8   8   8
#     4   9  17  27  43  64  89 122 154 186 231 276
#     4   9  16  26  41  62  88 119 156 193 230 279
#     4   9  17  27  41  62  91 125 156 188 233 288
#     4  10  18  31  49  68  95 127 157 190 229 280
#     4  10  20  31  46  68  97 126 156 194 233 275
#     4  10  19  31  46  66  94 126 157 192 231 276
#     4   9  18  30  44  64  93 127 157 189 234 280
#
# _framework density 18.670766
#
# number of rings (size 3 to 8) (size 9 to 14) (size 15 to 20)
#    0.000    2.571    1.429    1.286    2.000    3.429 
#    0.000    0.000    0.000    0.000    0.000    0.000 
#    0.000   14.857    0.000    0.000    0.000    0.000 
#
# Total GULP energy -346886.523448 kJ/mol
# GULP energy per Si atom -12388.804409 kJ/mol
# Density = 1.862827 g / cm^3
# Si number density = 18.670766 Si / 1000 Ang^3
#
#
#
# Elastic Constant Matrix: (Units=GPa)
#
#
# Indices 1 2 3 4 5 6 
#
# 1 132.7423 22.5505 46.2714 0.0000 -18.0926 0.0000
# 2 22.5505 26.2769 16.9745 0.0000 -7.7120 0.0000
# 3 46.2714 16.9745 101.8413 0.0000 -18.5357 0.0000
# 4 0.0000 0.0000 0.0000 11.3592 0.0000 -1.5424
# 5 -18.0926 -7.7120 -18.5357 0.0000 37.9834 0.0000
# 6 0.0000 0.0000 0.0000 -1.5424 0.0000 15.2053
#
#
#
# Elastic Compliance Matrix: (Units=1/GPa)
#
#
# Indices 1 2 3 4 5 6 
#
# 1 0.009903 -0.005876 -0.003159 0.000000 0.001982 0.000000
# 2 -0.005876 0.047288 -0.004361 0.000000 0.004674 0.000000
# 3 -0.003159 -0.004361 0.012672 0.000000 0.003793 0.000000
# 4 0.000000 0.000000 0.000000 0.089264 0.000000 0.009055
# 5 0.001982 0.004674 0.003793 0.000000 0.030072 0.000000
# 6 0.000000 0.000000 0.000000 0.009055 0.000000 0.066685
#
#
# Mechanical properties :
#
#
# Convention : Reuss Voigt Hill
#
# Bulk Modulus (GPa) = 23.21802 48.05036 35.63419
# Shear Modulus (GPa) = 16.83309 24.58051 20.70680
#
# Velocity S-wave (km/s) = 3.00588 3.63233 3.33385
# Velocity P-wave (km/s) = 4.95072 6.58660 5.82635
#
# Compressibility (1/GPa) = 0.04306999
#
# Stress axis : x y z
#
# Youngs Moduli (GPa) = 100.97876 21.14692 78.91444
#
# Poissons Ratio (x) = 0.12426 0.24931
# Poissons Ratio (y) = 0.59336 0.34417
# Poissons Ratio (z) = 0.31902 0.09223
#
# Static dielectric constant tensor:
#      x y z
#    x 3.533520 0.000000 -0.195530 
#    y 0.000000 2.860440 0.000000 
#    z -0.195530 0.000000 3.560570 
# 
# 
# High freq. dielectric constant tensor:
#      x y z
#    x 1.734270 0.000000 -0.001160 
#    y 0.000000 1.637520 0.000000 
#    z -0.001160 0.000000 1.746320 
# 
# From -- ./inp_files/181942.got.cif
#   From: 2010.06.25/outbox.cif.g09.slc.cpg/sg12_91_cif.got.tgz:181942.got - 2010.06.28 00:19:55.
