data_PCOD8082940
_publ_section_title
;
Structure prediction by ZEFSAII (Michael W. Deem and Ramdas Pophale) SiO2 
 PCOD8082940
Probable space group: C 2/M
;
_chemical_formula_sum "Si O2"
_cell_formula_units_Z 48
_cell_length_a 33.519667
_cell_length_b 8.504673
_cell_length_c 15.416917
_cell_angle_alpha 90.000000
_cell_angle_beta 143.017951
_cell_angle_gamma 90.000000
_cell_volume 2643.852667
_symmetry_space_group_name_H-M "C 2/M"
_symmetry_group_IT_number 12
_symmetry_cell_setting 'monoclinic'
loop_
_space_group_symop_operation_xyz
x,y,z
-x,y,-z
-x,-y,-z
x,-y,z
1/2+x,1/2+y,z
1/2-x,1/2+y,-z
1/2-x,1/2-y,-z
1/2+x,1/2-y,z
loop_
_atom_site_type_symbol
_atom_site_label
_atom_site_fract_x
_atom_site_fract_y
_atom_site_fract_z
Si Si1 0.177734 0.184384 0.890770
Si Si2 0.965040 0.818590 0.657845
Si Si3 0.891933 0.686371 0.069871
Si Si4 0.432567 0.821671 0.772160
Si Si5 0.931598 0.315921 0.425059
Si Si6 0.412615 0.823020 0.920737
O O1 0.158111 0.220029 0.955844
O O2 0.128476 0.274509 0.741757
O O3 0.174716 0.000000 0.867243
O O4 0.250000 0.250000 0.000000
O O5 0.919384 0.780111 0.662967
O O6 0.922039 0.776672 0.498626
O O7 0.032101 0.716825 0.770985
O O8 0.984848 0.000000 0.693288
O O9 0.879628 0.500000 0.056000
O O10 0.877745 0.749976 0.946174
O O11 0.398297 0.745791 0.800426
O O12 0.407757 0.000000 0.713290
O O13 0.510140 0.821143 0.924791
O O14 0.931836 0.500000 0.444839
O O15 0.000000 0.260558 0.500000
O O16 0.387411 0.000000 0.867625
#
# Coordination Sequence:
#
# PCOD8082940 Si02
#       6
#     8   8   8   8   8   8
#     4  12  25  40  57  79 108 140 177 220 266 316
#     4  11  20  29  46  75 107 138 172 215 265 314
#     4  10  18  32  51  73 101 137 178 218 261 310
#     4   8  13  25  42  64  96 134 171 209 254 306
#     4  11  22  37  58  79 103 139 181 221 266 315
#     4   7  12  23  43  66  93 131 172 210 253 305
#
# _framework density 18.155322000000002
#
# number of rings (size 3 to 8) (size 9 to 14) (size 15 to 20)
#    0.000    2.167    1.667    6.000    0.000    0.667 
#    0.000    7.500    0.000    0.000    0.000    1.167 
#    0.000    0.000    0.000    0.000    0.000    0.000 
#
# Total GULP energy -297357.435166 kJ/mol
# GULP energy per Si atom -12389.893132 kJ/mol
# Density = 1.811400 g / cm^3
# Si number density = 18.155322 Si / 1000 Ang^3
#
#
#
# Elastic Constant Matrix: (Units=GPa)
#
#
# Indices 1 2 3 4 5 6 
#
# 1 135.9126 17.4154 55.1221 0.0000 -36.7559 0.0000
# 2 17.4154 55.4014 12.3348 0.0000 -10.6913 0.0000
# 3 55.1221 12.3348 64.5871 0.0000 -11.2971 0.0000
# 4 0.0000 0.0000 0.0000 15.3878 0.0000 1.8686
# 5 -36.7559 -10.6913 -11.2971 0.0000 32.0304 0.0000
# 6 0.0000 0.0000 0.0000 1.8686 0.0000 19.7433
#
#
#
# Elastic Compliance Matrix: (Units=1/GPa)
#
#
# Indices 1 2 3 4 5 6 
#
# 1 0.015529 0.000249 -0.010838 0.000000 0.014081 0.000000
# 2 0.000249 0.019758 -0.002965 0.000000 0.005834 0.000000
# 3 -0.010838 -0.002965 0.024460 0.000000 -0.004800 0.000000
# 4 0.000000 0.000000 0.000000 0.065742 0.000000 -0.006222
# 5 0.014081 0.005834 -0.004800 0.000000 0.047633 0.000000
# 6 0.000000 0.000000 0.000000 -0.006222 0.000000 0.051239
#
#
# Mechanical properties :
#
#
# Convention : Reuss Voigt Hill
#
# Bulk Modulus (GPa) = 30.63934 47.29397 38.96665
# Shear Modulus (GPa) = 19.05855 24.83424 21.94640
#
# Velocity S-wave (km/s) = 3.24350 3.70249 3.48057
# Velocity P-wave (km/s) = 5.56237 6.66214 6.13694
#
# Compressibility (1/GPa) = 0.03263778
#
# Stress axis : x y z
#
# Youngs Moduli (GPa) = 64.39366 50.61244 40.88377
#
# Poissons Ratio (x) = -0.01259 0.44311
# Poissons Ratio (y) = -0.01601 0.12122
# Poissons Ratio (z) = 0.69791 0.15007
#
# Static dielectric constant tensor:
#      x y z
#    x 3.801130 0.000000 -0.682470 
#    y 0.000000 3.221100 0.000000 
#    z -0.682470 0.000000 3.000080 
# 
# 
# High freq. dielectric constant tensor:
#      x y z
#    x 1.714690 0.000000 -0.046300 
#    y 0.000000 1.692060 0.000000 
#    z -0.046300 0.000000 1.651130 
# 
# From -- ./inp_files/249366.got.cif
#   From: 2010.06.25/outbox.cif.g09.slc.cpg/sg12_125_cif.got.tgz:249366.got - 2010.06.28 00:19:55.
