data_PCOD8082153
_publ_section_title
;
Structure prediction by ZEFSAII (Michael W. Deem and Ramdas Pophale) SiO2 
 PCOD8082153
Probable space group: C 2/M
;
_chemical_formula_sum "Si O2"
_cell_formula_units_Z 48
_cell_length_a 19.559590
_cell_length_b 11.726083
_cell_length_c 11.788130
_cell_angle_alpha 90.000000
_cell_angle_beta 93.398552
_cell_angle_gamma 90.000000
_cell_volume 2698.939646
_symmetry_space_group_name_H-M "C 2/M"
_symmetry_group_IT_number 12
_symmetry_cell_setting 'monoclinic'
loop_
_space_group_symop_operation_xyz
x,y,z
-x,y,-z
-x,-y,-z
x,-y,z
1/2+x,1/2+y,z
1/2-x,1/2+y,-z
1/2-x,1/2-y,-z
1/2+x,1/2-y,z
loop_
_atom_site_type_symbol
_atom_site_label
_atom_site_fract_x
_atom_site_fract_y
_atom_site_fract_z
Si Si1 0.606374 0.000000 0.526726
Si Si2 0.211596 0.134081 0.633583
Si Si3 0.039163 0.259066 0.247648
Si Si4 0.578028 0.625616 0.043013
Si Si5 0.655067 0.224965 0.435006
Si Si6 0.599962 0.365492 0.800013
Si Si7 0.495828 0.000000 0.693025
O O1 0.650652 0.115032 0.518090
O O2 0.572440 0.000000 0.648576
O O3 0.552985 0.000000 0.419396
O O4 0.284676 0.198265 0.649882
O O5 0.174347 0.165837 0.512070
O O6 0.164631 0.175462 0.733345
O O7 0.224123 0.000000 0.638883
O O8 0.084722 0.216155 0.145556
O O9 0.084408 0.245596 0.365226
O O10 0.969630 0.188447 0.256310
O O11 0.018285 0.391040 0.228689
O O12 0.605357 0.500000 0.083806
O O13 0.500000 0.613144 0.000000
O O14 0.616152 0.669648 0.932560
O O15 0.588600 0.500000 0.790171
#
# Coordination Sequence:
#
# PCOD8082153 Si02
#       7
#     4   8   8   8   8   8   4
#     4   9  16  32  46  64 100 129 169 190 233 293
#     4  10  20  34  50  73 100 130 165 203 246 293
#     4  10  18  31  49  76 100 127 167 200 242 292
#     4   8  15  30  51  72  97 127 157 203 254 293
#     4  10  20  32  50  72  99 134 162 202 245 291
#     4   9  18  33  54  75  97 125 163 208 251 289
#     4   9  18  26  45  72  96 134 159 197 230 282
#
# _framework density 17.784762000000001
#
# number of rings (size 3 to 8) (size 9 to 14) (size 15 to 20)
#    0.000    2.667    0.833    2.500    0.000    3.333 
#    0.000    6.250    0.000    0.000    0.000    0.000 
#    0.000    0.000    0.000    0.000    0.000    0.000 
#
# Total GULP energy -297472.252926 kJ/mol
# GULP energy per Si atom -12394.677205 kJ/mol
# Density = 1.774428 g / cm^3
# Si number density = 17.784762 Si / 1000 Ang^3
#
#
#
# Elastic Constant Matrix: (Units=GPa)
#
#
# Indices 1 2 3 4 5 6 
#
# 1 60.9051 21.7929 30.6483 0.0000 -24.9735 0.0000
# 2 21.7929 60.9211 40.3897 0.0000 -12.0818 0.0000
# 3 30.6483 40.3897 82.5024 0.0000 -29.4487 0.0000
# 4 0.0000 0.0000 0.0000 25.3075 0.0000 -3.0940
# 5 -24.9735 -12.0818 -29.4487 0.0000 32.1689 0.0000
# 6 0.0000 0.0000 0.0000 -3.0940 0.0000 22.4031
#
#
#
# Elastic Compliance Matrix: (Units=1/GPa)
#
#
# Indices 1 2 3 4 5 6 
#
# 1 0.025813 -0.005240 -0.000852 0.000000 0.017291 0.000000
# 2 -0.005240 0.025516 -0.012739 0.000000 -0.006147 0.000000
# 3 -0.000852 -0.012739 0.024850 0.000000 0.017303 0.000000
# 4 0.000000 0.000000 0.000000 0.040193 0.000000 0.005551
# 5 0.017291 -0.006147 0.017303 0.000000 0.058041 0.000000
# 6 0.000000 0.000000 0.000000 0.005551 0.000000 0.045403
#
#
# Mechanical properties :
#
#
# Convention : Reuss Voigt Hill
#
# Bulk Modulus (GPa) = 25.96238 43.33228 34.64733
# Shear Modulus (GPa) = 18.49692 23.40908 20.95300
#
# Velocity S-wave (km/s) = 3.22847 3.63194 3.43613
# Velocity P-wave (km/s) = 5.34108 6.48118 5.93856
#
# Compressibility (1/GPa) = 0.03851726
#
# Stress axis : x y z
#
# Youngs Moduli (GPa) = 38.74080 39.19134 40.24165
#
# Poissons Ratio (x) = 0.20536 0.03427
# Poissons Ratio (y) = 0.20300 0.51263
# Poissons Ratio (z) = 0.03300 0.49925
#
# Static dielectric constant tensor:
#      x y z
#    x 3.277320 0.000000 -0.440150 
#    y 0.000000 3.413760 0.000000 
#    z -0.440150 0.000000 3.529930 
# 
# 
# High freq. dielectric constant tensor:
#      x y z
#    x 1.673120 0.000000 -0.025420 
#    y 0.000000 1.688190 0.000000 
#    z -0.025420 0.000000 1.669110 
# 
# From -- ./inp_files/164212.got.cif
#   From: 2010.06.25/outbox.cif.g09.slc.cpg/sg12_83_cif.got.tgz:164212.got - 2010.06.28 00:19:55.
