data_PCOD8082926
_publ_section_title
;
Structure prediction by ZEFSAII (Michael W. Deem and Ramdas Pophale) SiO2 
 PCOD8082926
Probable space group: C 2/M
;
_chemical_formula_sum "Si O2"
_cell_formula_units_Z 64
_cell_length_a 24.793437
_cell_length_b 9.002419
_cell_length_c 17.397535
_cell_angle_alpha 90.000000
_cell_angle_beta 76.760911
_cell_angle_gamma 90.000000
_cell_volume 3779.942819
_symmetry_space_group_name_H-M "C 2/M"
_symmetry_group_IT_number 12
_symmetry_cell_setting 'monoclinic'
loop_
_space_group_symop_operation_xyz
x,y,z
-x,y,-z
-x,-y,-z
x,-y,z
1/2+x,1/2+y,z
1/2-x,1/2+y,-z
1/2-x,1/2-y,-z
1/2+x,1/2-y,z
loop_
_atom_site_type_symbol
_atom_site_label
_atom_site_fract_x
_atom_site_fract_y
_atom_site_fract_z
Si Si1 0.617674 0.829461 0.414258
Si Si2 0.740446 0.825392 0.421885
Si Si3 0.159527 0.672586 0.681215
Si Si4 0.064670 0.328967 0.595094
Si Si5 0.936484 0.167292 0.996458
Si Si6 0.545518 0.675379 0.316281
Si Si7 0.964238 0.674397 0.839349
Si Si8 0.912963 0.671122 0.150899
O O1 0.680343 0.781226 0.410320
O O2 0.580492 0.807365 0.501763
O O3 0.595463 0.723031 0.355186
O O4 0.614286 0.000000 0.387950
O O5 0.750000 0.750000 0.500000
O O6 0.785201 0.768734 0.345735
O O7 0.745724 0.000000 0.431833
O O8 0.173934 0.500000 0.665049
O O9 0.115497 0.723272 0.631439
O O10 0.135851 0.705019 0.773459
O O11 0.049531 0.500000 0.619095
O O12 0.012175 0.228424 0.629317
O O13 0.900790 0.234960 0.078082
O O14 0.916409 0.000000 0.987422
O O15 0.928249 0.263535 0.922275
O O16 0.000000 0.173426 0.000000
O O17 0.544474 0.500000 0.307739
O O18 0.557266 0.747207 0.230026
O O19 0.954256 0.500000 0.836099
O O20 0.028957 0.714541 0.828337
O O21 0.914865 0.500000 0.125728
#
# Coordination Sequence:
#
# PCOD8082926 Si02
#       8
#     8   8   8   8   8   8   8   8
#     4  10  22  39  55  70  97 139 180 212 255 314
#     4  11  22  37  56  77 100 132 174 219 265 308
#     4  10  19  34  54  78 104 136 176 214 255 304
#     4  10  19  36  55  72 100 140 176 207 254 313
#     4   9  17  28  44  71 105 134 165 208 254 295
#     4  12  24  34  49  77 107 133 172 220 262 300
#     4  10  18  32  51  70  99 140 176 202 247 311
#     4   9  17  30  49  72 101 137 174 204 244 308
#
# _framework density 16.931473
#
# number of rings (size 3 to 8) (size 9 to 14) (size 15 to 20)
#    0.000    1.875    2.500    2.625    0.000    6.000 
#    0.000    0.000    0.000    0.000    0.000    0.875 
#    0.000    0.000    0.000    0.000    0.000    0.000 
#
# Total GULP energy -396914.261340 kJ/mol
# GULP energy per Si atom -12403.570667 kJ/mol
# Density = 1.689294 g / cm^3
# Si number density = 16.931473 Si / 1000 Ang^3
#
#
#
# Elastic Constant Matrix: (Units=GPa)
#
#
# Indices 1 2 3 4 5 6 
#
# 1 72.4549 49.5163 50.9236 0.0000 5.6974 0.0000
# 2 49.5163 104.0200 61.2234 0.0000 7.2567 0.0000
# 3 50.9236 61.2234 116.9485 0.0000 4.1551 0.0000
# 4 0.0000 0.0000 0.0000 29.8669 0.0000 -1.1411
# 5 5.6974 7.2567 4.1551 0.0000 16.8310 0.0000
# 6 0.0000 0.0000 0.0000 -1.1411 0.0000 24.7325
#
#
#
# Elastic Compliance Matrix: (Units=1/GPa)
#
#
# Indices 1 2 3 4 5 6 
#
# 1 0.023417 -0.007207 -0.006308 0.000000 -0.003262 0.000000
# 2 -0.007207 0.016418 -0.005339 0.000000 -0.003321 0.000000
# 3 -0.006308 -0.005339 0.014058 0.000000 0.000967 0.000000
# 4 0.000000 0.000000 0.000000 0.033541 0.000000 0.001547
# 5 -0.003262 -0.003321 0.000967 0.000000 0.061712 0.000000
# 6 0.000000 0.000000 0.000000 0.001547 0.000000 0.040504
#
#
# Mechanical properties :
#
#
# Convention : Reuss Voigt Hill
#
# Bulk Modulus (GPa) = 61.78210 68.52780 65.15495
# Shear Modulus (GPa) = 21.48205 23.07006 22.27605
#
# Velocity S-wave (km/s) = 3.56584 3.69528 3.63114
# Velocity P-wave (km/s) = 7.31589 7.66605 7.49302
#
# Compressibility (1/GPa) = 0.01618592
#
# Stress axis : x y z
#
# Youngs Moduli (GPa) = 42.70452 60.90782 71.13367
#
# Poissons Ratio (x) = 0.43895 0.44869
# Poissons Ratio (y) = 0.30776 0.37978
# Poissons Ratio (z) = 0.26937 0.32518
#
# Static dielectric constant tensor:
#      x y z
#    x 2.968350 0.000000 -0.040370 
#    y 0.000000 3.208010 0.000000 
#    z -0.040370 0.000000 3.279830 
# 
# 
# High freq. dielectric constant tensor:
#      x y z
#    x 1.615550 0.000000 -0.002190 
#    y 0.000000 1.657570 0.000000 
#    z -0.002190 0.000000 1.661310 
# 
# From -- ./inp_files/287586.got.cif
#   From: 2010.06.25/outbox.cif.g09.slc.cpg/sg12_144_cif.got.tgz:287586.got - 2010.06.28 00:19:55.
