data_PCOD8082128
_publ_section_title
;
Structure prediction by ZEFSAII (Michael W. Deem and Ramdas Pophale) SiO2 
 PCOD8082128
Probable space group: C 2/M
;
_chemical_formula_sum "Si O2"
_cell_formula_units_Z 64
_cell_length_a 30.021539
_cell_length_b 9.128408
_cell_length_c 12.042030
_cell_angle_alpha 90.000000
_cell_angle_beta 94.318404
_cell_angle_gamma 90.000000
_cell_volume 3290.735552
_symmetry_space_group_name_H-M "C 2/M"
_symmetry_group_IT_number 12
_symmetry_cell_setting 'monoclinic'
loop_
_space_group_symop_operation_xyz
x,y,z
-x,y,-z
-x,-y,-z
x,-y,z
1/2+x,1/2+y,z
1/2-x,1/2+y,-z
1/2-x,1/2-y,-z
1/2+x,1/2-y,z
loop_
_atom_site_type_symbol
_atom_site_label
_atom_site_fract_x
_atom_site_fract_y
_atom_site_fract_z
Si Si1 0.920940 0.169911 0.255341
Si Si2 0.887931 0.171778 0.479443
Si Si3 0.002120 0.825588 0.126896
Si Si4 0.712152 0.673822 0.563973
Si Si5 0.239933 0.826845 0.810225
Si Si6 0.090267 0.828556 0.272972
Si Si7 0.839714 0.673703 0.855476
Si Si8 0.156952 0.830536 0.927406
O O1 0.914469 0.239485 0.377845
O O2 0.874927 0.195489 0.182743
O O3 0.961540 0.241698 0.192670
O O4 0.932686 0.000000 0.269617
O O5 0.837107 0.231019 0.480785
O O6 0.915679 0.205465 0.596845
O O7 0.883693 0.000000 0.455699
O O8 0.047375 0.774538 0.196085
O O9 0.998909 0.000000 0.121751
O O10 0.000000 0.763853 0.000000
O O11 0.716877 0.500000 0.550826
O O12 0.750000 0.750000 0.500000
O O13 0.719914 0.727497 0.690705
O O14 0.289360 0.763187 0.838225
O O15 0.206508 0.776472 0.901895
O O16 0.242442 0.000000 0.809852
O O17 0.133084 0.738258 0.241997
O O18 0.099160 0.000000 0.255271
O O19 0.842192 0.500000 0.852399
O O20 0.860587 0.733454 0.973886
O O21 0.156057 0.000000 0.963819
#
# Coordination Sequence:
#
# PCOD8082128 Si02
#       8
#     8   8   8   8   8   8   8   8
#     4   9  16  29  53  80 105 133 165 211 266 307
#     4   9  17  30  50  76 103 132 170 213 254 302
#     4   9  17  29  48  78 108 132 166 211 256 306
#     4  10  18  31  49  71 100 135 175 210 248 298
#     4   9  18  32  50  72  99 134 172 207 252 310
#     4  10  20  34  52  76 104 133 171 213 252 301
#     4  11  22  34  49  73 105 137 171 212 256 303
#     4  10  18  33  56  76  98 133 172 210 258 310
#
# _framework density 19.448540000000001
#
# number of rings (size 3 to 8) (size 9 to 14) (size 15 to 20)
#    0.000    2.375    1.250    2.250    0.000    2.500 
#    0.000    4.375    0.000    4.125    0.000    0.875 
#    0.000    0.000    0.000    0.000    0.000    0.000 
#
# Total GULP energy -396690.206014 kJ/mol
# GULP energy per Si atom -12396.568938 kJ/mol
# Density = 1.940427 g / cm^3
# Si number density = 19.448540 Si / 1000 Ang^3
#
#
#
# Elastic Constant Matrix: (Units=GPa)
#
#
# Indices 1 2 3 4 5 6 
#
# 1 123.5979 21.3345 64.8082 0.0000 -14.4562 0.0000
# 2 21.3345 29.3013 25.4806 0.0000 -0.8491 0.0000
# 3 64.8082 25.4806 149.0973 0.0000 -7.0440 0.0000
# 4 0.0000 0.0000 0.0000 15.3440 0.0000 -4.3946
# 5 -14.4562 -0.8491 -7.0440 0.0000 34.6923 0.0000
# 6 0.0000 0.0000 0.0000 -4.3946 0.0000 18.9205
#
#
#
# Elastic Compliance Matrix: (Units=1/GPa)
#
#
# Indices 1 2 3 4 5 6 
#
# 1 0.011451 -0.004763 -0.003981 0.000000 0.003846 0.000000
# 2 -0.004763 0.042073 -0.005215 0.000000 -0.002014 0.000000
# 3 -0.003981 -0.005215 0.009334 0.000000 0.000109 0.000000
# 4 0.000000 0.000000 0.000000 0.069816 0.000000 0.016216
# 5 0.003846 -0.002014 0.000109 0.000000 0.030400 0.000000
# 6 0.000000 0.000000 0.000000 0.016216 0.000000 0.056619
#
#
# Mechanical properties :
#
#
# Convention : Reuss Voigt Hill
#
# Bulk Modulus (GPa) = 28.62212 58.36034 43.49123
# Shear Modulus (GPa) = 19.28575 26.48291 22.88433
#
# Velocity S-wave (km/s) = 3.15243 3.69411 3.43397
# Velocity P-wave (km/s) = 5.29143 6.94752 6.17524
#
# Compressibility (1/GPa) = 0.03493801
#
# Stress axis : x y z
#
# Youngs Moduli (GPa) = 87.33243 23.76821 107.13552
#
# Poissons Ratio (x) = 0.11322 0.42655
# Poissons Ratio (y) = 0.41601 0.55870
# Poissons Ratio (z) = 0.34771 0.12395
#
# Static dielectric constant tensor:
#      x y z
#    x 3.741730 0.000000 -0.076260 
#    y 0.000000 2.943980 0.000000 
#    z -0.076260 0.000000 3.830270 
# 
# 
# High freq. dielectric constant tensor:
#      x y z
#    x 1.764100 0.000000 -0.004800 
#    y 0.000000 1.688030 0.000000 
#    z -0.004800 0.000000 1.775400 
# 
# From -- ./inp_files/187537.got.cif
#   From: 2010.06.25/outbox.cif.g09.slc.cpg/sg12_94_cif.got.tgz:187537.got - 2010.06.28 00:19:55.
