data_PCOD8082537
_publ_section_title
;
Structure prediction by ZEFSAII (Michael W. Deem and Ramdas Pophale) SiO2 
 PCOD8082537
Probable space group: C 2/M
;
_chemical_formula_sum "Si O2"
_cell_formula_units_Z 64
_cell_length_a 17.164282
_cell_length_b 15.316707
_cell_length_c 16.044761
_cell_angle_alpha 90.000000
_cell_angle_beta 54.427996
_cell_angle_gamma 90.000000
_cell_volume 3430.998371
_symmetry_space_group_name_H-M "C 2/M"
_symmetry_group_IT_number 12
_symmetry_cell_setting 'monoclinic'
loop_
_space_group_symop_operation_xyz
x,y,z
-x,y,-z
-x,-y,-z
x,-y,z
1/2+x,1/2+y,z
1/2-x,1/2+y,-z
1/2-x,1/2-y,-z
1/2+x,1/2-y,z
loop_
_atom_site_type_symbol
_atom_site_label
_atom_site_fract_x
_atom_site_fract_y
_atom_site_fract_z
Si Si1 0.418250 0.602462 0.744440
Si Si2 0.283337 0.268835 0.234100
Si Si3 0.400553 0.706759 0.589290
Si Si4 0.046736 0.399283 0.054134
Si Si5 0.636167 0.900945 0.740852
Si Si6 0.379411 0.601546 0.297053
Si Si7 0.790110 0.099591 0.521562
Si Si8 0.763810 0.701158 0.074915
O O1 0.402073 0.500000 0.748949
O O2 0.425545 0.638660 0.646716
O O3 0.514586 0.624103 0.736642
O O4 0.329467 0.645210 0.846657
O O5 0.173779 0.281756 0.334056
O O6 0.306857 0.166661 0.236932
O O7 0.354701 0.337994 0.232549
O O8 0.288223 0.273584 0.131028
O O9 0.500000 0.752670 0.500000
O O10 0.358333 0.656805 0.536172
O O11 0.062659 0.500000 0.029035
O O12 0.977424 0.381938 0.178182
O O13 0.149301 0.360372 0.003453
O O14 0.000000 0.357407 0.000000
O O15 0.677938 0.890152 0.620416
O O16 0.657872 0.000000 0.759363
O O17 0.370530 0.500000 0.276181
O O18 0.302502 0.626750 0.417235
O O19 0.825343 0.000000 0.508507
O O20 0.750000 0.750000 0.000000
#
# Coordination Sequence:
#
# PCOD8082537 Si02
#       8
#     8   8   8   8   8   8   8   8
#     4  10  21  36  56  83 114 146 184 235 285 333
#     4  10  22  37  56  81 112 149 184 233 278 331
#     4  10  18  31  52  86 119 145 177 221 288 344
#     4  10  19  34  57  82 107 140 176 224 284 339
#     4   9  18  32  55  86 113 136 174 223 278 335
#     4  10  21  38  58  81 113 154 194 227 268 327
#     4   9  17  30  51  83 117 146 178 221 274 332
#     4  11  24  38  55  79 108 144 185 234 287 336
#
# _framework density 18.653462999999999
#
# number of rings (size 3 to 8) (size 9 to 14) (size 15 to 20)
#    0.000    2.125    2.500    0.750    1.750    5.500 
#    0.000    1.250    0.000    1.875    0.000    0.000 
#    0.000    0.000    0.000    0.000    0.000    0.000 
#
# Total GULP energy -396521.087240 kJ/mol
# GULP energy per Si atom -12391.283976 kJ/mol
# Density = 1.861101 g / cm^3
# Si number density = 18.653463 Si / 1000 Ang^3
#
#
#
# Elastic Constant Matrix: (Units=GPa)
#
#
# Indices 1 2 3 4 5 6 
#
# 1 85.2979 43.3586 60.6146 0.0000 1.2117 0.0000
# 2 43.3586 53.7191 28.8778 0.0000 1.6425 0.0000
# 3 60.6146 28.8778 115.6684 0.0000 -20.7418 0.0000
# 4 0.0000 0.0000 0.0000 14.2949 0.0000 -1.8147
# 5 1.2117 1.6425 -20.7418 0.0000 35.8528 0.0000
# 6 0.0000 0.0000 0.0000 -1.8147 0.0000 24.8895
#
#
#
# Elastic Compliance Matrix: (Units=1/GPa)
#
#
# Indices 1 2 3 4 5 6 
#
# 1 0.029088 -0.016565 -0.012438 0.000000 -0.007420 0.000000
# 2 -0.016565 0.031625 0.000698 0.000000 -0.000485 0.000000
# 3 -0.012438 0.000698 0.016802 0.000000 0.010109 0.000000
# 4 0.000000 0.000000 0.000000 0.070608 0.000000 0.005148
# 5 -0.007420 -0.000485 0.010109 0.000000 0.034013 0.000000
# 6 0.000000 0.000000 0.000000 0.005148 0.000000 0.040553
#
#
# Mechanical properties :
#
#
# Convention : Reuss Voigt Hill
#
# Bulk Modulus (GPa) = 47.83520 57.82081 52.82801
# Shear Modulus (GPa) = 17.46614 23.12972 20.29793
#
# Velocity S-wave (km/s) = 3.06330 3.52514 3.30230
# Velocity P-wave (km/s) = 6.18155 6.90170 6.55153
#
# Compressibility (1/GPa) = 0.02090511
#
# Stress axis : x y z
#
# Youngs Moduli (GPa) = 34.37817 31.62060 59.51665
#
# Poissons Ratio (x) = 0.52379 0.74029
# Poissons Ratio (y) = 0.56947 -0.04155
# Poissons Ratio (z) = 0.42761 -0.02207
#
# Static dielectric constant tensor:
#      x y z
#    x 3.222780 0.000000 -0.215260 
#    y 0.000000 3.147580 0.000000 
#    z -0.215260 0.000000 3.854210 
# 
# 
# High freq. dielectric constant tensor:
#      x y z
#    x 1.701730 0.000000 -0.018810 
#    y 0.000000 1.695150 0.000000 
#    z -0.018810 0.000000 1.743660 
# 
# From -- ./inp_files/270283.got.cif
#   From: 2010.06.25/outbox.cif.g09.slc.cpg/sg12_136_cif.got.tgz:270283.got - 2010.06.28 00:19:55.
