data_PCOD8082260
_publ_section_title
;
Structure prediction by ZEFSAII (Michael W. Deem and Ramdas Pophale) SiO2 
 PCOD8082260
Probable space group: C 2/M
;
_chemical_formula_sum "Si O2"
_cell_formula_units_Z 48
_cell_length_a 24.928093
_cell_length_b 9.285639
_cell_length_c 11.098298
_cell_angle_alpha 90.000000
_cell_angle_beta 102.193256
_cell_angle_gamma 90.000000
_cell_volume 2511.005591
_symmetry_space_group_name_H-M "C 2/M"
_symmetry_group_IT_number 12
_symmetry_cell_setting 'monoclinic'
loop_
_space_group_symop_operation_xyz
x,y,z
-x,y,-z
-x,-y,-z
x,-y,z
1/2+x,1/2+y,z
1/2-x,1/2+y,-z
1/2-x,1/2-y,-z
1/2+x,1/2-y,z
loop_
_atom_site_type_symbol
_atom_site_label
_atom_site_fract_x
_atom_site_fract_y
_atom_site_fract_z
Si Si1 0.195098 0.838933 0.480868
Si Si2 0.018061 0.171659 0.642751
Si Si3 0.860782 0.170017 0.313513
Si Si4 0.842075 0.838251 0.799064
Si Si5 0.965766 0.829289 0.868329
Si Si6 0.746647 0.329688 0.875185
O O1 0.250000 0.750000 0.500000
O O2 0.155131 0.771266 0.562063
O O3 0.159086 0.841900 0.344854
O O4 0.213106 0.000000 0.527818
O O5 0.079897 0.230739 0.695590
O O6 0.000000 0.228503 0.500000
O O7 0.984515 0.230789 0.744514
O O8 0.014185 0.000000 0.639007
O O9 0.812525 0.219074 0.201895
O O10 0.865867 0.000000 0.318308
O O11 0.902698 0.785470 0.864828
O O12 0.796413 0.725206 0.817274
O O13 0.830399 0.000000 0.845092
O O14 0.972229 0.000000 0.867000
O O15 0.000000 0.768088 0.000000
O O16 0.751710 0.500000 0.891379
O O17 0.750000 0.250000 0.000000
#
# Coordination Sequence:
#
# PCOD8082260 Si02
#       6
#     8   8   8   8   8   8
#     4  10  18  31  50  77 109 137 171 214 264 318
#     4   9  16  28  47  72 103 138 174 217 269 318
#     4   9  18  31  50  76 107 138 173 218 267 319
#     4  10  20  34  55  81 110 139 174 222 271 324
#     4   9  18  30  48  76 106 136 175 223 274 319
#     4  11  23  37  54  78 109 144 181 219 266 320
#
# _framework density 19.115846999999999
#
# number of rings (size 3 to 8) (size 9 to 14) (size 15 to 20)
#    0.000    2.333    1.667    1.500    2.333    4.000 
#    0.000    0.000    0.000    0.500    0.000    0.000 
#    0.000    6.667    0.000    0.000    0.000    0.000 
#
# Total GULP energy -297370.647634 kJ/mol
# GULP energy per Si atom -12390.443651 kJ/mol
# Density = 1.907234 g / cm^3
# Si number density = 19.115847 Si / 1000 Ang^3
#
#
#
# Elastic Constant Matrix: (Units=GPa)
#
#
# Indices 1 2 3 4 5 6 
#
# 1 125.3071 26.4216 48.8693 0.0000 17.0395 0.0000
# 2 26.4216 38.8878 23.5191 0.0000 4.2360 0.0000
# 3 48.8693 23.5191 121.0664 0.0000 5.3498 0.0000
# 4 0.0000 0.0000 0.0000 17.1982 0.0000 0.0359
# 5 17.0395 4.2360 5.3498 0.0000 38.0801 0.0000
# 6 0.0000 0.0000 0.0000 0.0359 0.0000 22.6046
#
#
#
# Elastic Compliance Matrix: (Units=1/GPa)
#
#
# Indices 1 2 3 4 5 6 
#
# 1 0.010809 -0.004975 -0.003227 0.000000 -0.003830 0.000000
# 2 -0.004975 0.031659 -0.004110 0.000000 -0.000718 0.000000
# 3 -0.003227 -0.004110 0.010341 0.000000 0.000449 0.000000
# 4 0.000000 0.000000 0.000000 0.058146 0.000000 -0.000092
# 5 -0.003830 -0.000718 0.000449 0.000000 0.027991 0.000000
# 6 0.000000 0.000000 0.000000 -0.000092 0.000000 0.044239
#
#
# Mechanical properties :
#
#
# Convention : Reuss Voigt Hill
#
# Bulk Modulus (GPa) = 35.48093 53.65350 44.56722
# Shear Modulus (GPa) = 23.01969 28.00666 25.51317
#
# Velocity S-wave (km/s) = 3.47395 3.83182 3.65726
# Velocity P-wave (km/s) = 5.89003 6.90692 6.41864
#
# Compressibility (1/GPa) = 0.02818415
#
# Stress axis : x y z
#
# Youngs Moduli (GPa) = 92.51730 31.58634 96.69882
#
# Poissons Ratio (x) = 0.15714 0.31208
# Poissons Ratio (y) = 0.46025 0.39748
# Poissons Ratio (z) = 0.29859 0.12984
#
# Static dielectric constant tensor:
#      x y z
#    x 4.350840 0.000000 0.000780 
#    y 0.000000 2.903110 0.000000 
#    z 0.000780 0.000000 3.776370 
# 
# 
# High freq. dielectric constant tensor:
#      x y z
#    x 1.757320 0.000000 0.000720 
#    y 0.000000 1.674480 0.000000 
#    z 0.000720 0.000000 1.760350 
# 
# From -- ./inp_files/164288.got.cif
#   From: 2010.06.25/outbox.cif.g09.slc.cpg/sg12_83_cif.got.tgz:164288.got - 2010.06.28 00:19:55.
