data_PCOD8082752
_publ_section_title
;
Structure prediction by ZEFSAII (Michael W. Deem and Ramdas Pophale) SiO2 
 PCOD8082752
Probable space group: C 2/M
;
_chemical_formula_sum "Si O2"
_cell_formula_units_Z 32
_cell_length_a 11.259728
_cell_length_b 17.631831
_cell_length_c 22.974699
_cell_angle_alpha 90.000000
_cell_angle_beta 157.306973
_cell_angle_gamma 90.000000
_cell_volume 1759.666429
_symmetry_space_group_name_H-M "C 2/M"
_symmetry_group_IT_number 12
_symmetry_cell_setting 'monoclinic'
loop_
_space_group_symop_operation_xyz
x,y,z
-x,y,-z
-x,-y,-z
x,-y,z
1/2+x,1/2+y,z
1/2-x,1/2+y,-z
1/2-x,1/2-y,-z
1/2+x,1/2-y,z
loop_
_atom_site_type_symbol
_atom_site_label
_atom_site_fract_x
_atom_site_fract_y
_atom_site_fract_z
Si Si1 0.230832 0.359194 0.037825
Si Si2 0.410609 0.414751 0.243341
Si Si3 0.585486 0.301690 0.098260
Si Si4 0.717730 0.731525 0.416653
O O1 0.394631 0.392360 0.168513
O O2 0.488387 0.359896 0.104699
O O3 0.933753 0.408963 0.885562
O O4 0.124655 0.273305 0.999802
O O5 0.535335 0.500000 0.307576
O O6 0.643919 0.358214 0.381202
O O7 0.941925 0.281570 0.266228
O O8 0.500000 0.345218 0.000000
O O9 0.750000 0.750000 0.500000
O O10 0.000000 0.749666 0.500000
#
# Coordination Sequence:
#
# PCOD8082752 Si02
#       4
#     8   8   8   8
#     4   9  16  30  54  84 107 135 185 234 277 324
#     4  10  19  34  56  81 112 147 183 234 286 334
#     4  10  18  31  55  80 112 140 184 236 281 321
#     4  11  23  36  55  87 117 148 188 235 285 334
#
# _framework density 18.185265000000001
#
# number of rings (size 3 to 8) (size 9 to 14) (size 15 to 20)
#    0.000    2.000    5.000    3.000    7.000    0.500 
#    0.000    0.000    0.000    3.750    0.000    0.000 
#    0.000    0.000    0.000    0.000    0.000    0.000 
#
# Total GULP energy -198255.725834 kJ/mol
# GULP energy per Si atom -12390.982865 kJ/mol
# Density = 1.814387 g / cm^3
# Si number density = 18.185265 Si / 1000 Ang^3
#
#
#
# Elastic Constant Matrix: (Units=GPa)
#
#
# Indices 1 2 3 4 5 6 
#
# 1 147.1203 52.4028 72.2715 -0.0135 13.9445 0.0073
# 2 52.4028 78.1359 33.6219 0.0014 -0.0436 0.0043
# 3 72.2715 33.6219 101.8223 0.0160 -3.0444 -0.0193
# 4 -0.0135 0.0014 0.0160 14.8705 0.0276 -1.5676
# 5 13.9445 -0.0436 -3.0444 0.0276 24.5526 -0.0072
# 6 0.0073 0.0043 -0.0193 -1.5676 -0.0072 16.3310
#
#
#
# Elastic Compliance Matrix: (Units=1/GPa)
#
#
# Indices 1 2 3 4 5 6 
#
# 1 0.013588 -0.005660 -0.008036 0.000036 -0.008724 -0.000014
# 2 -0.005660 0.017284 -0.001599 -0.000011 0.003047 -0.000004
# 3 -0.008036 -0.001599 0.016250 -0.000034 0.006576 0.000023
# 4 0.000036 -0.000011 -0.000034 0.067935 -0.000099 0.006521
# 5 -0.008724 0.003047 0.006576 -0.000099 0.046504 0.000022
# 6 -0.000014 -0.000004 0.000023 0.006521 0.000022 0.061859
#
#
# Mechanical properties :
#
#
# Convention : Reuss Voigt Hill
#
# Bulk Modulus (GPa) = 60.49123 71.51898 66.00511
# Shear Modulus (GPa) = 19.26641 22.40298 20.83470
#
# Velocity S-wave (km/s) = 3.25845 3.51369 3.38848
# Velocity P-wave (km/s) = 6.89150 7.47494 7.18914
#
# Compressibility (1/GPa) = 0.01653132
#
# Stress axis : x y z
#
# Youngs Moduli (GPa) = 73.59629 57.85833 61.53993
#
# Poissons Ratio (x) = 0.32745 0.49455
# Poissons Ratio (y) = 0.41652 0.09840
# Poissons Ratio (z) = 0.59144 0.09251
#
# Static dielectric constant tensor:
#      x y z
#    x 3.927840 -0.000020 0.077660 
#    y -0.000020 3.121240 -0.000020 
#    z 0.077660 -0.000020 3.318540 
# 
# 
# High freq. dielectric constant tensor:
#      x y z
#    x 1.710300 0.000000 0.001330 
#    y 0.000000 1.665370 0.000000 
#    z 0.001330 0.000000 1.701210 
# 
# From -- ./inp_files/45992.got.cif
#   From: 2010.06.25/outbox.cif.g09.slc.cpg/sg12_23_cif.got.tgz:45992.got - 2010.06.28 00:19:55.
