data_PCOD8082632
_publ_section_title
;
Structure prediction by ZEFSAII (Michael W. Deem and Ramdas Pophale) SiO2 
 PCOD8082632
Probable space group: C 2/M
;
_chemical_formula_sum "Si O2"
_cell_formula_units_Z 64
_cell_length_a 23.976668
_cell_length_b 8.918921
_cell_length_c 20.025902
_cell_angle_alpha 90.000000
_cell_angle_beta 52.665670
_cell_angle_gamma 90.000000
_cell_volume 3405.027188
_symmetry_space_group_name_H-M "C 2/M"
_symmetry_group_IT_number 12
_symmetry_cell_setting 'monoclinic'
loop_
_space_group_symop_operation_xyz
x,y,z
-x,y,-z
-x,-y,-z
x,-y,z
1/2+x,1/2+y,z
1/2-x,1/2+y,-z
1/2-x,1/2-y,-z
1/2+x,1/2-y,z
loop_
_atom_site_type_symbol
_atom_site_label
_atom_site_fract_x
_atom_site_fract_y
_atom_site_fract_z
Si Si1 0.611201 0.674463 0.300187
Si Si2 0.760454 0.826959 0.339367
Si Si3 0.529975 0.177494 0.624546
Si Si4 0.591177 0.676025 0.707582
Si Si5 0.753259 0.173547 0.189806
Si Si6 0.020791 0.326241 0.878735
Si Si7 0.880334 0.826073 0.549760
Si Si8 0.610694 0.173346 0.940915
O O1 0.605737 0.500000 0.287639
O O2 0.548314 0.759784 0.309104
O O3 0.683958 0.737110 0.218053
O O4 0.606719 0.706663 0.382130
O O5 0.830908 0.779705 0.325866
O O6 0.771244 0.793054 0.253652
O O7 0.697324 0.727817 0.414739
O O8 0.741397 0.000000 0.365129
O O9 0.578697 0.236993 0.648332
O O10 0.561060 0.234064 0.532068
O O11 0.527957 0.000000 0.626954
O O12 0.583203 0.500000 0.701335
O O13 0.535092 0.725934 0.803784
O O14 0.819222 0.230191 0.098672
O O15 0.740149 0.000000 0.185068
O O16 0.033021 0.500000 0.852132
O O17 0.071933 0.275873 0.901317
O O18 0.940522 0.298769 0.959236
O O19 0.888381 0.000000 0.526013
O O20 0.631694 0.000000 0.920402
#
# Coordination Sequence:
#
# PCOD8082632 Si02
#       8
#     8   8   8   8   8   8   8   8
#     4  10  21  38  59  82 107 138 178 226 273 319
#     4   9  19  34  52  78 110 143 177 218 269 318
#     4  12  25  39  56  78 105 143 183 223 270 323
#     4  11  22  37  55  77 110 148 183 223 267 320
#     4  10  18  31  53  83 113 141 178 224 269 316
#     4   9  18  32  51  78 112 147 182 219 262 316
#     4  10  21  37  59  83 106 136 176 225 273 319
#     4   9  17  30  51  80 113 146 179 218 265 316
#
# _framework density 18.795739000000001
#
# number of rings (size 3 to 8) (size 9 to 14) (size 15 to 20)
#    0.000    2.000    1.250    3.750    0.000    5.500 
#    0.000    1.250    0.000    0.750    0.000    0.000 
#    0.000    0.000    0.000    0.000    0.000    0.000 
#
# Total GULP energy -396937.013261 kJ/mol
# GULP energy per Si atom -12404.281664 kJ/mol
# Density = 1.875296 g / cm^3
# Si number density = 18.795739 Si / 1000 Ang^3
#
#
#
# Elastic Constant Matrix: (Units=GPa)
#
#
# Indices 1 2 3 4 5 6 
#
# 1 77.1518 36.0329 15.0099 0.0001 -23.0462 0.0000
# 2 36.0329 96.6414 26.5051 -0.0009 -15.1058 0.0010
# 3 15.0099 26.5051 53.7506 0.0004 -22.2668 -0.0001
# 4 0.0001 -0.0009 0.0004 36.0548 -0.0001 -6.0936
# 5 -23.0462 -15.1058 -22.2668 -0.0001 28.3883 0.0001
# 6 0.0000 0.0010 -0.0001 -6.0936 0.0001 31.3676
#
#
#
# Elastic Compliance Matrix: (Units=1/GPa)
#
#
# Indices 1 2 3 4 5 6 
#
# 1 0.019755 -0.005975 0.004083 0.000000 0.016061 0.000000
# 2 -0.005975 0.013902 -0.006120 0.000000 -0.002254 0.000000
# 3 0.004083 -0.006120 0.030377 0.000000 0.023885 0.000000
# 4 0.000000 0.000000 0.000000 0.028677 0.000000 0.005571
# 5 0.016061 -0.002254 0.023885 0.000000 0.065800 0.000000
# 6 0.000000 0.000000 0.000000 0.005571 0.000000 0.032962
#
#
# Mechanical properties :
#
#
# Convention : Reuss Voigt Hill
#
# Bulk Modulus (GPa) = 20.82933 42.51552 31.67242
# Shear Modulus (GPa) = 22.37134 29.16185 25.76660
#
# Velocity S-wave (km/s) = 3.45372 3.94320 3.70655
# Velocity P-wave (km/s) = 5.19714 6.58792 5.93342
#
# Compressibility (1/GPa) = 0.04800923
#
# Stress axis : x y z
#
# Youngs Moduli (GPa) = 50.61912 71.93393 32.91995
#
# Poissons Ratio (x) = 0.42982 -0.13442
# Poissons Ratio (y) = 0.30246 0.20148
# Poissons Ratio (z) = -0.20669 0.44026
#
# Static dielectric constant tensor:
#      x y z
#    x 3.330560 0.000000 -0.209960 
#    y 0.000000 3.421250 0.000000 
#    z -0.209960 0.000000 3.361260 
# 
# 
# High freq. dielectric constant tensor:
#      x y z
#    x 1.714280 0.000000 -0.023990 
#    y 0.000000 1.736530 0.000000 
#    z -0.023990 0.000000 1.721490 
# 
# From -- ./inp_files/295797.got.cif
#   From: 2010.06.25/outbox.cif.g09.slc.cpg/sg12_148_cif.got.tgz:295797.got - 2010.06.28 00:19:55.
