data_PCOD8082711
_publ_section_title
;
Structure prediction by ZEFSAII (Michael W. Deem and Ramdas Pophale) SiO2 
 PCOD8082711
Probable space group: C 2/M
;
_chemical_formula_sum "Si O2"
_cell_formula_units_Z 64
_cell_length_a 23.799979
_cell_length_b 8.742084
_cell_length_c 16.757114
_cell_angle_alpha 90.000000
_cell_angle_beta 84.552008
_cell_angle_gamma 90.000000
_cell_volume 3470.759563
_symmetry_space_group_name_H-M "C 2/M"
_symmetry_group_IT_number 12
_symmetry_cell_setting 'monoclinic'
loop_
_space_group_symop_operation_xyz
x,y,z
-x,y,-z
-x,-y,-z
x,-y,z
1/2+x,1/2+y,z
1/2-x,1/2+y,-z
1/2-x,1/2-y,-z
1/2+x,1/2-y,z
loop_
_atom_site_type_symbol
_atom_site_label
_atom_site_fract_x
_atom_site_fract_y
_atom_site_fract_z
Si Si1 0.798306 0.178960 0.095443
Si Si2 0.037015 0.823910 0.357791
Si Si3 0.328706 0.821538 0.933697
Si Si4 0.711638 0.177905 0.330575
Si Si5 0.678620 0.179362 0.738216
Si Si6 0.370563 0.676422 0.780273
Si Si7 0.118202 0.322140 0.469331
Si Si8 0.907797 0.820757 0.363761
O O1 0.733093 0.221282 0.091069
O O2 0.818192 0.236026 0.178188
O O3 0.808829 0.000000 0.087029
O O4 0.835861 0.261256 0.022706
O O5 0.068921 0.798726 0.269541
O O6 0.064249 0.722225 0.423476
O O7 0.973037 0.771208 0.355040
O O8 0.040810 0.000000 0.385000
O O9 0.373920 0.735697 0.870787
O O10 0.341323 0.000000 0.930248
O O11 0.769635 0.271956 0.326155
O O12 0.676772 0.223970 0.257273
O O13 0.675717 0.215745 0.414277
O O14 0.726432 0.000000 0.321606
O O15 0.620808 0.227594 0.703679
O O16 0.679853 0.000000 0.752748
O O17 0.352127 0.500000 0.779704
O O18 0.113862 0.500000 0.491657
O O19 0.120590 0.222932 0.548660
O O20 0.899970 0.000000 0.349624
#
# Coordination Sequence:
#
# PCOD8082711 Si02
#       8
#     8   8   8   8   8   8   8   8
#     4  10  20  34  53  78 112 146 177 214 261 317
#     4   9  20  37  57  81 107 141 182 224 269 319
#     4  10  19  31  52  82 114 143 177 215 261 315
#     4  10  20  35  53  77 109 144 177 215 269 325
#     4  12  24  37  55  78 109 144 181 222 267 321
#     4  10  18  31  54  82 111 140 176 221 268 314
#     4  10  21  36  57  83 109 136 176 229 276 317
#     4  11  23  39  57  76 105 145 186 223 267 322
#
# _framework density 18.439767
#
# number of rings (size 3 to 8) (size 9 to 14) (size 15 to 20)
#    0.000    1.750    1.250    3.750    0.000    6.000 
#    0.000    0.000    0.000    0.750    0.000    5.250 
#    0.000    0.000    0.000    0.000    0.000    0.000 
#
# Total GULP energy -396951.632239 kJ/mol
# GULP energy per Si atom -12404.738507 kJ/mol
# Density = 1.839780 g / cm^3
# Si number density = 18.439767 Si / 1000 Ang^3
#
#
#
# Elastic Constant Matrix: (Units=GPa)
#
#
# Indices 1 2 3 4 5 6 
#
# 1 44.0850 7.4368 26.7169 0.0000 6.9746 0.0000
# 2 7.4368 38.2272 16.9275 0.0000 -3.9684 0.0000
# 3 26.7169 16.9275 104.9781 0.0000 -6.1879 0.0000
# 4 0.0000 0.0000 0.0000 37.2470 0.0000 -0.3172
# 5 6.9746 -3.9684 -6.1879 0.0000 19.5782 0.0000
# 6 0.0000 0.0000 0.0000 -0.3172 0.0000 25.9918
#
#
#
# Elastic Compliance Matrix: (Units=1/GPa)
#
#
# Indices 1 2 3 4 5 6 
#
# 1 0.030380 -0.003859 -0.007942 0.000000 -0.014115 0.000000
# 2 -0.003859 0.029030 -0.003333 0.000000 0.006205 0.000000
# 3 -0.007942 -0.003333 0.012443 0.000000 0.006086 0.000000
# 4 0.000000 0.000000 0.000000 0.026851 0.000000 0.000328
# 5 -0.014115 0.006205 0.006086 0.000000 0.059287 0.000000
# 6 0.000000 0.000000 0.000000 0.000328 0.000000 0.038478
#
#
# Mechanical properties :
#
#
# Convention : Reuss Voigt Hill
#
# Bulk Modulus (GPa) = 24.04628 32.16141 28.10384
# Shear Modulus (GPa) = 20.78152 25.64400 23.21276
#
# Velocity S-wave (km/s) = 3.36072 3.73324 3.55187
# Velocity P-wave (km/s) = 5.30358 6.00516 5.66524
#
# Compressibility (1/GPa) = 0.04158648
#
# Stress axis : x y z
#
# Youngs Moduli (GPa) = 32.91608 34.44675 80.36560
#
# Poissons Ratio (x) = 0.13293 0.63823
# Poissons Ratio (y) = 0.12702 0.26788
# Poissons Ratio (z) = 0.26140 0.11482
#
# Static dielectric constant tensor:
#      x y z
#    x 3.273870 0.000000 -0.207420 
#    y 0.000000 3.443340 0.000000 
#    z -0.207420 0.000000 3.454230 
# 
# 
# High freq. dielectric constant tensor:
#      x y z
#    x 1.687190 0.000000 -0.016990 
#    y 0.000000 1.729310 0.000000 
#    z -0.016990 0.000000 1.719010 
# 
# From -- ./inp_files/238805.got.cif
#   From: 2010.06.25/outbox.cif.g09.slc.cpg/sg12_120_cif.got.tgz:238805.got - 2010.06.28 00:19:55.
