data_PCOD8082124
_publ_section_title
;
Structure prediction by ZEFSAII (Michael W. Deem and Ramdas Pophale) SiO2 
 PCOD8082124
Probable space group: C 2/M
;
_chemical_formula_sum "Si O2"
_cell_formula_units_Z 64
_cell_length_a 29.360849
_cell_length_b 9.047995
_cell_length_c 13.835393
_cell_angle_alpha 90.000000
_cell_angle_beta 92.284926
_cell_angle_gamma 90.000000
_cell_volume 3672.544144
_symmetry_space_group_name_H-M "C 2/M"
_symmetry_group_IT_number 12
_symmetry_cell_setting 'monoclinic'
loop_
_space_group_symop_operation_xyz
x,y,z
-x,y,-z
-x,-y,-z
x,-y,z
1/2+x,1/2+y,z
1/2-x,1/2+y,-z
1/2-x,1/2-y,-z
1/2+x,1/2-y,z
loop_
_atom_site_type_symbol
_atom_site_label
_atom_site_fract_x
_atom_site_fract_y
_atom_site_fract_z
Si Si1 0.761784 0.834647 0.185075
Si Si2 0.846538 0.832072 0.333539
Si Si3 0.549545 0.672954 0.969209
Si Si4 0.687474 0.166640 0.960892
Si Si5 0.101151 0.667695 0.814546
Si Si6 0.700502 0.174805 0.495813
Si Si7 0.327975 0.827436 0.718045
Si Si8 0.632580 0.326473 0.111595
O O1 0.805258 0.830809 0.256449
O O2 0.769100 0.740719 0.088072
O O3 0.720136 0.771365 0.243391
O O4 0.751582 0.000000 0.149536
O O5 0.889866 0.755871 0.284657
O O6 0.832467 0.737886 0.425199
O O7 0.859068 0.000000 0.364454
O O8 0.551829 0.500000 0.946327
O O9 0.584948 0.715538 0.056933
O O10 0.500000 0.723398 0.000000
O O11 0.560090 0.757133 0.870302
O O12 0.645614 0.174159 0.884102
O O13 0.699944 0.000000 0.989511
O O14 0.674721 0.251515 0.058126
O O15 0.087692 0.500000 0.787770
O O16 0.750000 0.250000 0.500000
O O17 0.673125 0.210288 0.395145
O O18 0.708081 0.000000 0.509825
O O19 0.367375 0.737362 0.778732
O O20 0.336303 0.000000 0.735844
O O21 0.640496 0.500000 0.113505
#
# Coordination Sequence:
#
# PCOD8082124 Si02
#       8
#     8   8   8   8   8   8   8   8
#     4   9  17  30  45  63  89 125 166 203 240 282
#     4  10  18  31  49  70  97 131 169 211 252 289
#     4   9  18  34  55  78 104 131 158 194 243 299
#     4   9  17  29  45  65  91 125 161 199 240 281
#     4   9  17  29  47  75 103 128 161 201 243 292
#     4  11  21  34  50  70  95 129 173 217 256 290
#     4  10  21  35  47  64  94 130 165 205 249 288
#     4  10  20  33  49  70  94 125 161 198 239 291
#
# _framework density 17.42661
#
# number of rings (size 3 to 8) (size 9 to 14) (size 15 to 20)
#    0.000    2.375    1.250    1.875    0.000    6.250 
#    0.000    0.000    0.000    0.000    0.000    0.875 
#    0.000    7.000    0.000    0.000    0.000    0.000 
#
# Total GULP energy -396765.578758 kJ/mol
# GULP energy per Si atom -12398.924336 kJ/mol
# Density = 1.738695 g / cm^3
# Si number density = 17.426610 Si / 1000 Ang^3
#
#
#
# Elastic Constant Matrix: (Units=GPa)
#
#
# Indices 1 2 3 4 5 6 
#
# 1 53.5631 34.8273 43.9413 0.0000 -18.7899 0.0000
# 2 34.8273 107.2922 69.2359 0.0000 -9.3464 0.0000
# 3 43.9413 69.2359 127.7334 0.0000 -15.8975 0.0000
# 4 0.0000 0.0000 0.0000 31.6256 0.0000 -5.0347
# 5 -18.7899 -9.3464 -15.8975 0.0000 23.3923 0.0000
# 6 0.0000 0.0000 0.0000 -5.0347 0.0000 18.3092
#
#
#
# Elastic Compliance Matrix: (Units=1/GPa)
#
#
# Indices 1 2 3 4 5 6 
#
# 1 0.035011 -0.005299 -0.006483 0.000000 0.021599 0.000000
# 2 -0.005299 0.015141 -0.006730 0.000000 -0.002781 0.000000
# 3 -0.006483 -0.006730 0.013900 0.000000 0.001550 0.000000
# 4 0.000000 0.000000 0.000000 0.033068 0.000000 0.009093
# 5 0.021599 -0.002781 0.001550 0.000000 0.060041 0.000000
# 6 0.000000 0.000000 0.000000 0.009093 0.000000 0.057118
#
#
# Mechanical properties :
#
#
# Convention : Reuss Voigt Hill
#
# Bulk Modulus (GPa) = 37.00090 64.95529 50.97810
# Shear Modulus (GPa) = 19.20765 24.03770 21.62268
#
# Velocity S-wave (km/s) = 3.32354 3.71801 3.52630
# Velocity P-wave (km/s) = 6.00054 7.46901 6.77468
#
# Compressibility (1/GPa) = 0.02702637
#
# Stress axis : x y z
#
# Youngs Moduli (GPa) = 28.56243 66.04473 71.94246
#
# Poissons Ratio (x) = 0.34999 0.46644
# Poissons Ratio (y) = 0.15136 0.48418
# Poissons Ratio (z) = 0.18518 0.44449
#
# Static dielectric constant tensor:
#      x y z
#    x 2.949370 0.000000 -0.080480 
#    y 0.000000 3.385570 0.000000 
#    z -0.080480 0.000000 3.354070 
# 
# 
# High freq. dielectric constant tensor:
#      x y z
#    x 1.629540 0.000000 -0.005950 
#    y 0.000000 1.683250 0.000000 
#    z -0.005950 0.000000 1.674520 
# 
# From -- ./inp_files/248324.got.cif
#   From: 2010.06.25/outbox.cif.g09.slc.cpg/sg12_125_cif.got.tgz:248324.got - 2010.06.28 00:19:55.
