data_PCOD8082466
_publ_section_title
;
Structure prediction by ZEFSAII (Michael W. Deem and Ramdas Pophale) SiO2 
 PCOD8082466
Probable space group: C 2/M
;
_chemical_formula_sum "Si O2"
_cell_formula_units_Z 64
_cell_length_a 11.397317
_cell_length_b 21.401592
_cell_length_c 17.579889
_cell_angle_alpha 90.000000
_cell_angle_beta 131.474491
_cell_angle_gamma 90.000000
_cell_volume 3212.861233
_symmetry_space_group_name_H-M "C 2/M"
_symmetry_group_IT_number 12
_symmetry_cell_setting 'monoclinic'
loop_
_space_group_symop_operation_xyz
x,y,z
-x,y,-z
-x,-y,-z
x,-y,z
1/2+x,1/2+y,z
1/2-x,1/2+y,-z
1/2-x,1/2-y,-z
1/2+x,1/2-y,z
loop_
_atom_site_type_symbol
_atom_site_label
_atom_site_fract_x
_atom_site_fract_y
_atom_site_fract_z
Si Si1 0.871829 0.431054 0.229595
Si Si2 0.747425 0.150057 0.517856
Si Si3 0.324653 0.797463 0.934718
Si Si4 0.494144 0.748789 0.585417
Si Si5 0.762660 0.430371 0.631518
Si Si6 0.365631 0.823908 0.117792
Si Si7 0.225197 0.326973 0.248839
Si Si8 0.334848 0.930998 0.387155
O O1 0.795460 0.500000 0.184786
O O2 0.798393 0.380716 0.139965
O O3 0.849093 0.408086 0.306419
O O4 0.052618 0.436906 0.287079
O O5 0.571553 0.180328 0.430767
O O6 0.874177 0.204099 0.577158
O O7 0.788112 0.100937 0.469536
O O8 0.767786 0.117478 0.608706
O O9 0.207806 0.739803 0.884572
O O10 0.281638 0.841586 0.844460
O O11 0.500000 0.770590 0.000000
O O12 0.314845 0.837216 0.008545
O O13 0.500000 0.731910 0.500000
O O14 0.668438 0.735336 0.692487
O O15 0.687553 0.500000 0.605679
O O16 0.703070 0.387083 0.676178
O O17 0.552043 0.814336 0.207350
O O18 0.500000 0.934371 0.500000
O O19 0.258404 0.000000 0.356134
#
# Coordination Sequence:
#
# PCOD8082466 Si02
#       8
#     8   8   8   8   8   8   8   8
#     4   9  18  31  54  84 108 140 186 230 277 328
#     4  11  22  35  50  75 116 154 187 235 270 322
#     4   9  19  36  58  86 110 137 180 227 284 348
#     4  11  24  36  49  78 118 149 192 222 280 340
#     4  10  19  35  55  78 107 148 197 231 265 324
#     4   9  19  36  59  82 111 141 181 232 279 340
#     4  10  21  36  56  79 110 148 181 234 280 328
#     4  10  18  31  52  77 105 141 190 234 270 318
#
# _framework density 19.91994
#
# number of rings (size 3 to 8) (size 9 to 14) (size 15 to 20)
#    0.000    2.125    2.500    0.750    3.500    0.000 
#    0.000    2.500    0.000    4.125    0.000    0.000 
#    0.000    0.000    0.000    0.000    0.000    0.000 
#
# Total GULP energy -396593.414159 kJ/mol
# GULP energy per Si atom -12393.544192 kJ/mol
# Density = 1.987460 g / cm^3
# Si number density = 19.919940 Si / 1000 Ang^3
#
#
#
# Elastic Constant Matrix: (Units=GPa)
#
#
# Indices 1 2 3 4 5 6 
#
# 1 78.4096 48.2311 47.2238 0.0000 -29.4860 0.0000
# 2 48.2311 112.3931 53.5843 0.0000 -22.8842 0.0000
# 3 47.2238 53.5843 94.4623 0.0000 -29.8191 0.0000
# 4 0.0000 0.0000 0.0000 31.3156 0.0000 -8.9779
# 5 -29.4860 -22.8842 -29.8191 0.0000 39.1612 0.0000
# 6 0.0000 0.0000 0.0000 -8.9779 0.0000 28.0342
#
#
#
# Elastic Compliance Matrix: (Units=1/GPa)
#
#
# Indices 1 2 3 4 5 6 
#
# 1 0.023035 -0.005279 -0.005292 0.000000 0.010229 0.000000
# 2 -0.005279 0.013586 -0.005024 0.000000 0.000139 0.000000
# 3 -0.005292 -0.005024 0.018294 0.000000 0.007010 0.000000
# 4 0.000000 0.000000 0.000000 0.035161 0.000000 0.011260
# 5 0.010229 0.000139 0.007010 0.000000 0.038657 0.000000
# 6 0.000000 0.000000 0.000000 0.011260 0.000000 0.039277
#
#
# Mechanical properties :
#
#
# Convention : Reuss Voigt Hill
#
# Bulk Modulus (GPa) = 42.14827 64.81594 53.48211
# Shear Modulus (GPa) = 24.14199 28.78393 26.46296
#
# Velocity S-wave (km/s) = 3.48509 3.80541 3.64877
# Velocity P-wave (km/s) = 6.11549 7.20535 6.68268
#
# Compressibility (1/GPa) = 0.02372576
#
# Stress axis : x y z
#
# Youngs Moduli (GPa) = 43.41277 73.60395 54.66160
#
# Poissons Ratio (x) = 0.38857 0.28926
# Poissons Ratio (y) = 0.22918 0.27461
# Poissons Ratio (z) = 0.22973 0.36977
#
# Static dielectric constant tensor:
#      x y z
#    x 3.723590 0.000000 -0.268070 
#    y 0.000000 3.922390 0.000000 
#    z -0.268070 0.000000 3.551210 
# 
# 
# High freq. dielectric constant tensor:
#      x y z
#    x 1.773540 0.000000 -0.025570 
#    y 0.000000 1.769750 0.000000 
#    z -0.025570 0.000000 1.753710 
# 
# From -- ./inp_files/265080.got.cif
#   From: 2010.06.25/outbox.cif.g09.slc.cpg/sg12_133_cif.got.tgz:265080.got - 2010.06.28 00:19:55.
