data_PCOD8082242
_publ_section_title
;
Structure prediction by ZEFSAII (Michael W. Deem and Ramdas Pophale) SiO2 
 PCOD8082242
Probable space group: C 2/M
;
_chemical_formula_sum "Si O2"
_cell_formula_units_Z 64
_cell_length_a 31.017487
_cell_length_b 9.026144
_cell_length_c 26.225002
_cell_angle_alpha 90.000000
_cell_angle_beta 152.714519
_cell_angle_gamma 90.000000
_cell_volume 3365.829281
_symmetry_space_group_name_H-M "C 2/M"
_symmetry_group_IT_number 12
_symmetry_cell_setting 'monoclinic'
loop_
_space_group_symop_operation_xyz
x,y,z
-x,y,-z
-x,-y,-z
x,-y,z
1/2+x,1/2+y,z
1/2-x,1/2+y,-z
1/2-x,1/2-y,-z
1/2+x,1/2-y,z
loop_
_atom_site_type_symbol
_atom_site_label
_atom_site_fract_x
_atom_site_fract_y
_atom_site_fract_z
Si Si1 0.703466 0.173628 0.498580
Si Si2 0.507306 0.829562 0.741226
Si Si3 0.948187 0.174864 0.497285
Si Si4 0.586748 0.827577 0.718149
Si Si5 0.280932 0.324396 0.874597
Si Si6 0.151991 0.825658 0.267286
Si Si7 0.752216 0.675258 0.273868
Si Si8 0.534696 0.676581 0.875631
O O1 0.750000 0.250000 0.500000
O O2 0.594478 0.217728 0.387525
O O3 0.757574 0.230742 0.605799
O O4 0.716716 0.000000 0.505732
O O5 0.580937 0.802805 0.772863
O O6 0.536025 0.729727 0.818936
O O7 0.506909 0.000000 0.758526
O O8 0.846242 0.246638 0.391153
O O9 0.000000 0.223109 0.500000
O O10 0.006264 0.234524 0.606128
O O11 0.938117 0.000000 0.491237
O O12 0.688300 0.768731 0.806771
O O13 0.572190 0.000000 0.688874
O O14 0.285408 0.500000 0.879770
O O15 0.278638 0.266153 0.814048
O O16 0.372887 0.259702 0.999090
O O17 0.168800 0.782137 0.225860
O O18 0.055607 0.757547 0.188835
O O19 0.142926 0.000000 0.263037
O O20 0.771091 0.500000 0.293446
O O21 0.534455 0.500000 0.875020
#
# Coordination Sequence:
#
# PCOD8082242 Si02
#       8
#     8   8   8   8   8   8   8   8
#     4  10  18  31  50  75 103 135 170 211 264 319
#     4  10  21  35  54  79 108 141 183 225 266 322
#     4  11  22  35  54  84 116 141 172 218 273 325
#     4  10  20  37  58  80 108 143 183 222 264 320
#     4   9  19  34  56  82 104 138 186 229 264 313
#     4   9  18  32  54  81 108 138 175 222 268 315
#     4  10  19  35  58  81 107 144 184 217 265 323
#     4  10  20  36  55  78 110 142 181 229 272 313
#
# _framework density 19.01463
#
# number of rings (size 3 to 8) (size 9 to 14) (size 15 to 20)
#    0.000    2.125    2.500    1.125    0.000    4.000 
#    0.000    6.250    0.000    0.000    0.000    1.750 
#    0.000    0.000    0.000    0.000    0.000    0.000 
#
# Total GULP energy -396790.655236 kJ/mol
# GULP energy per Si atom -12399.707976 kJ/mol
# Density = 1.897135 g / cm^3
# Si number density = 19.014630 Si / 1000 Ang^3
#
#
#
# Elastic Constant Matrix: (Units=GPa)
#
#
# Indices 1 2 3 4 5 6 
#
# 1 152.1137 25.3388 71.3079 0.0000 -10.6590 0.0000
# 2 25.3388 27.8781 24.9896 0.0000 -0.9681 0.0000
# 3 71.3079 24.9896 153.5516 0.0000 -1.6582 0.0000
# 4 0.0000 0.0000 0.0000 17.0422 0.0000 -4.7602
# 5 -10.6590 -0.9681 -1.6582 0.0000 15.4614 0.0000
# 6 0.0000 0.0000 0.0000 -4.7602 0.0000 24.0994
#
#
#
# Elastic Compliance Matrix: (Units=1/GPa)
#
#
# Indices 1 2 3 4 5 6 
#
# 1 0.009502 -0.005309 -0.003485 0.000000 0.005844 0.000000
# 2 -0.005309 0.045019 -0.004876 0.000000 -0.001364 0.000000
# 3 -0.003485 -0.004876 0.008906 0.000000 -0.001753 0.000000
# 4 0.000000 0.000000 0.000000 0.062104 0.000000 0.012267
# 5 0.005844 -0.001364 -0.001753 0.000000 0.068433 0.000000
# 6 0.000000 0.000000 0.000000 0.012267 0.000000 0.043918
#
#
# Mechanical properties :
#
#
# Convention : Reuss Voigt Hill
#
# Bulk Modulus (GPa) = 27.71158 64.09069 45.90113
# Shear Modulus (GPa) = 18.03416 25.44772 21.74094
#
# Velocity S-wave (km/s) = 3.08301 3.66228 3.38506
# Velocity P-wave (km/s) = 5.22290 7.18764 6.28255
#
# Compressibility (1/GPa) = 0.03608600
#
# Stress axis : x y z
#
# Youngs Moduli (GPa) = 105.24270 22.21268 112.28819
#
# Poissons Ratio (x) = 0.11793 0.39137
# Poissons Ratio (y) = 0.55875 0.54750
# Poissons Ratio (z) = 0.36682 0.10831
#
# Static dielectric constant tensor:
#      x y z
#    x 3.683210 0.000000 0.108590 
#    y 0.000000 3.127150 0.000000 
#    z 0.108590 0.000000 3.723280 
# 
# 
# High freq. dielectric constant tensor:
#      x y z
#    x 1.755630 0.000000 -0.000080 
#    y 0.000000 1.700890 0.000000 
#    z -0.000080 0.000000 1.738310 
# 
# From -- ./inp_files/353552.got.cif
#   From: 2010.06.25/outbox.cif.g09.slc.cpg/sg12_177_cif.got.tgz:353552.got - 2010.06.28 00:19:55.
