data_PCOD8082129
_publ_section_title
;
Structure prediction by ZEFSAII (Michael W. Deem and Ramdas Pophale) SiO2 
 PCOD8082129
Probable space group: C 2/M
;
_chemical_formula_sum "Si O2"
_cell_formula_units_Z 64
_cell_length_a 19.000338
_cell_length_b 8.888017
_cell_length_c 28.994892
_cell_angle_alpha 90.000000
_cell_angle_beta 135.726277
_cell_angle_gamma 90.000000
_cell_volume 3418.198171
_symmetry_space_group_name_H-M "C 2/M"
_symmetry_group_IT_number 12
_symmetry_cell_setting 'monoclinic'
loop_
_space_group_symop_operation_xyz
x,y,z
-x,y,-z
-x,-y,-z
x,-y,z
1/2+x,1/2+y,z
1/2-x,1/2+y,-z
1/2-x,1/2-y,-z
1/2+x,1/2-y,z
loop_
_atom_site_type_symbol
_atom_site_label
_atom_site_fract_x
_atom_site_fract_y
_atom_site_fract_z
Si Si1 0.554286 0.669787 0.476534
Si Si2 0.946016 0.827600 0.730404
Si Si3 0.123709 0.676744 0.650189
Si Si4 0.756318 0.677796 0.789417
Si Si5 0.050421 0.824966 0.161036
Si Si6 0.342193 0.824278 0.069153
Si Si7 0.773993 0.325689 0.397149
Si Si8 0.351104 0.173899 0.180683
O O1 0.500000 0.679633 0.500000
O O2 0.560846 0.500000 0.461136
O O3 0.491566 0.768524 0.410489
O O4 0.667314 0.734130 0.535640
O O5 0.922588 0.798033 0.772999
O O6 0.844733 0.790413 0.654339
O O7 0.034189 0.720662 0.753368
O O8 0.979522 0.000000 0.738791
O O9 0.126006 0.500000 0.660902
O O10 0.169894 0.760904 0.715345
O O11 0.189118 0.721982 0.636337
O O12 0.762462 0.500000 0.788181
O O13 0.864801 0.746573 0.829632
O O14 0.727472 0.726547 0.827574
O O15 0.943862 0.751574 0.098150
O O16 0.046890 0.000000 0.146862
O O17 0.328844 0.792791 0.116983
O O18 0.346737 0.000000 0.060266
O O19 0.250000 0.750000 0.000000
O O20 0.797988 0.500000 0.416185
O O21 0.337365 0.000000 0.187066
#
# Coordination Sequence:
#
# PCOD8082129 Si02
#       8
#     8   8   8   8   8   8   8   8
#     4   9  17  27  40  67 102 136 176 226 275 321
#     4   9  17  32  53  78 106 139 181 225 273 322
#     4  10  18  31  49  71 102 142 181 222 275 329
#     4  12  23  35  54  81 113 146 182 227 274 322
#     4  10  19  35  58  84 113 146 182 224 268 318
#     4  10  21  39  63  90 116 147 182 220 263 315
#     4   9  16  28  47  72 101 137 179 223 272 326
#     4  10  22  38  56  81 112 145 182 220 266 321
#
# _framework density 18.723313000000001
#
# number of rings (size 3 to 8) (size 9 to 14) (size 15 to 20)
#    0.000    2.125    1.250    3.000    0.000    4.500 
#    0.000    0.625    0.000    4.500    0.000    0.000 
#    0.000    0.000    0.000    0.000    0.000    0.000 
#
# Total GULP energy -396885.026883 kJ/mol
# GULP energy per Si atom -12402.657090 kJ/mol
# Density = 1.868070 g / cm^3
# Si number density = 18.723313 Si / 1000 Ang^3
#
#
#
# Elastic Constant Matrix: (Units=GPa)
#
#
# Indices 1 2 3 4 5 6 
#
# 1 83.9452 53.9412 45.9432 0.0000 13.8172 0.0000
# 2 53.9412 125.7007 61.0883 0.0000 10.9647 -0.0001
# 3 45.9432 61.0883 126.9819 0.0000 25.8825 0.0000
# 4 0.0000 0.0000 0.0000 36.3651 0.0000 5.6200
# 5 13.8172 10.9647 25.8825 0.0000 18.7983 0.0000
# 6 0.0000 -0.0001 0.0000 5.6200 0.0000 28.7281
#
#
#
# Elastic Compliance Matrix: (Units=1/GPa)
#
#
# Indices 1 2 3 4 5 6 
#
# 1 0.018186 -0.006115 -0.002281 0.000000 -0.006661 0.000000
# 2 -0.006115 0.012457 -0.004470 0.000000 0.003383 0.000000
# 3 -0.002281 -0.004470 0.013870 0.000000 -0.014813 0.000000
# 4 0.000000 0.000000 0.000000 0.028356 0.000000 -0.005547
# 5 -0.006661 0.003383 -0.014813 0.000000 0.076515 0.000000
# 6 0.000000 0.000000 0.000000 -0.005547 0.000000 0.035894
#
#
# Mechanical properties :
#
#
# Convention : Reuss Voigt Hill
#
# Bulk Modulus (GPa) = 53.24125 73.17479 63.20802
# Shear Modulus (GPa) = 23.01293 28.48865 25.75079
#
# Velocity S-wave (km/s) = 3.50966 3.90495 3.71257
# Velocity P-wave (km/s) = 6.70233 7.71353 7.22564
#
# Compressibility (1/GPa) = 0.01878243
#
# Stress axis : x y z
#
# Youngs Moduli (GPa) = 54.98645 80.27902 72.09820
#
# Poissons Ratio (x) = 0.49089 0.16443
# Poissons Ratio (y) = 0.33623 0.32226
# Poissons Ratio (z) = 0.12540 0.35883
#
# Static dielectric constant tensor:
#      x y z
#    x 3.216260 0.000000 0.159660 
#    y 0.000000 3.524200 0.000000 
#    z 0.159660 0.000000 3.456970 
# 
# 
# High freq. dielectric constant tensor:
#      x y z
#    x 1.698410 0.000000 0.016280 
#    y 0.000000 1.737550 0.000000 
#    z 0.016280 0.000000 1.724990 
# 
# From -- ./inp_files/378502.got.cif
#   From: 2010.06.25/outbox.cif.g09.slc.cpg/sg12_190_cif.got.tgz:378502.got - 2010.06.28 00:19:55.
