data_PCOD8082701
_publ_section_title
;
Structure prediction by ZEFSAII (Michael W. Deem and Ramdas Pophale) SiO2 
 PCOD8082701
Probable space group: C 2/M
;
_chemical_formula_sum "Si O2"
_cell_formula_units_Z 56
_cell_length_a 17.281957
_cell_length_b 17.826425
_cell_length_c 28.024244
_cell_angle_alpha 90.000000
_cell_angle_beta 20.533480
_cell_angle_gamma 90.000000
_cell_volume 3028.269504
_symmetry_space_group_name_H-M "C 2/M"
_symmetry_group_IT_number 12
_symmetry_cell_setting 'monoclinic'
loop_
_space_group_symop_operation_xyz
x,y,z
-x,y,-z
-x,-y,-z
x,-y,z
1/2+x,1/2+y,z
1/2-x,1/2+y,-z
1/2-x,1/2-y,-z
1/2+x,1/2-y,z
loop_
_atom_site_type_symbol
_atom_site_label
_atom_site_fract_x
_atom_site_fract_y
_atom_site_fract_z
Si Si1 0.887411 0.084724 0.364453
Si Si2 0.425754 0.680207 0.658545
Si Si3 0.529777 0.224357 0.078018
Si Si4 0.837320 0.287817 0.549507
Si Si5 0.722043 0.413260 0.342818
Si Si6 0.159963 0.583503 0.950398
Si Si7 0.037935 0.290946 0.182759
O O1 0.682430 0.125910 0.456468
O O2 0.937891 0.134642 0.381555
O O3 0.091267 0.081986 0.211172
O O4 0.817464 0.000000 0.419496
O O5 0.585902 0.735983 0.538384
O O6 0.309551 0.618830 0.691699
O O7 0.218517 0.727590 0.800752
O O8 0.506957 0.241357 0.147319
O O9 0.635392 0.141734 0.007972
O O10 0.698659 0.286102 0.957349
O O11 0.592346 0.262203 0.705526
O O12 0.000000 0.279989 0.500000
O O13 0.500000 0.395175 0.500000
O O14 0.776822 0.500000 0.308988
O O15 0.932007 0.374061 0.247386
O O16 0.092092 0.500000 0.007481
O O17 0.000000 0.609229 0.000000
#
# Coordination Sequence:
#
# PCOD8082701 Si02
#       7
#     8   8   8   8   8   8   8
#     4  11  24  37  56  83 117 153 187 230 286 340
#     4  11  20  36  57  87 111 143 187 243 284 325
#     4  10  19  31  55  77 107 146 180 227 281 329
#     4  12  21  39  59  80 115 151 192 234 276 339
#     4  10  18  31  54  81 112 147 182 231 291 328
#     4  10  19  32  51  79 111 139 170 222 283 335
#     4  10  19  34  51  79 109 147 183 227 279 334
#
# _framework density 18.492408999999999
#
# number of rings (size 3 to 8) (size 9 to 14) (size 15 to 20)
#    0.000    1.429    7.143    0.857    0.000    2.571 
#    0.000    0.000    0.000    0.857    0.000    0.000 
#    0.000    2.857    0.000    0.000    0.000    0.000 
#
# Total GULP energy -347060.209671 kJ/mol
# GULP energy per Si atom -12395.007488 kJ/mol
# Density = 1.845032 g / cm^3
# Si number density = 18.492409 Si / 1000 Ang^3
#
#
#
# Elastic Constant Matrix: (Units=GPa)
#
#
# Indices 1 2 3 4 5 6 
#
# 1 38.2794 28.5243 17.3023 0.0872 4.0729 0.0772
# 2 28.5243 107.5497 56.9170 -0.1824 -2.4733 0.1983
# 3 17.3023 56.9170 102.1524 0.0060 9.8699 -0.0413
# 4 0.0872 -0.1824 0.0060 22.9583 0.1069 -2.9352
# 5 4.0729 -2.4733 9.8699 0.1069 14.3238 0.0445
# 6 0.0772 0.1983 -0.0413 -2.9352 0.0445 26.0740
#
#
#
# Elastic Compliance Matrix: (Units=1/GPa)
#
#
# Indices 1 2 3 4 5 6 
#
# 1 0.034352 -0.009818 0.000814 -0.000156 -0.012022 -0.000023
# 2 -0.009818 0.016875 -0.008882 0.000103 0.011825 -0.000122
# 3 0.000814 -0.008882 0.015824 -0.000005 -0.012669 0.000111
# 4 -0.000156 0.000103 -0.000005 0.044196 -0.000280 0.004975
# 5 -0.012022 0.011825 -0.012669 -0.000280 0.084007 -0.000249
# 6 -0.000023 -0.000122 0.000111 0.004975 -0.000249 0.038914
#
#
# Mechanical properties :
#
#
# Convention : Reuss Voigt Hill
#
# Bulk Modulus (GPa) = 31.97121 50.38540 41.17831
# Shear Modulus (GPa) = 17.83384 22.35376 20.09380
#
# Velocity S-wave (km/s) = 3.10883 3.48056 3.29993
# Velocity P-wave (km/s) = 5.49661 6.59228 6.06922
#
# Compressibility (1/GPa) = 0.03127814
#
# Stress axis : x y z
#
# Youngs Moduli (GPa) = 29.11078 59.26031 63.19355
#
# Poissons Ratio (x) = 0.58181 -0.05141
# Poissons Ratio (y) = 0.28581 0.56128
# Poissons Ratio (z) = -0.02368 0.52634
#
# Static dielectric constant tensor:
#      x y z
#    x 3.190810 0.000110 0.040700 
#    y 0.000110 3.502270 0.000590 
#    z 0.040700 0.000590 3.743830 
# 
# 
# High freq. dielectric constant tensor:
#      x y z
#    x 1.690750 0.000010 0.014400 
#    y 0.000010 1.704300 0.000040 
#    z 0.014400 0.000040 1.728430 
# 
# From -- ./inp_files/379633.got.cif
#   From: 2010.06.25/outbox.cif.g09.slc.cpg/sg12_190_cif.got.tgz:379633.got - 2010.06.28 00:19:55.
