data_PCOD8082996
_publ_section_title
;
Structure prediction by ZEFSAII (Michael W. Deem and Ramdas Pophale) SiO2 
 PCOD8082996
Probable space group: C 2/M
;
_chemical_formula_sum "Si O2"
_cell_formula_units_Z 56
_cell_length_a 24.989056
_cell_length_b 14.035873
_cell_length_c 25.942600
_cell_angle_alpha 90.000000
_cell_angle_beta 17.878389
_cell_angle_gamma 90.000000
_cell_volume 2793.430431
_symmetry_space_group_name_H-M "C 2/M"
_symmetry_group_IT_number 12
_symmetry_cell_setting 'monoclinic'
loop_
_space_group_symop_operation_xyz
x,y,z
-x,y,-z
-x,-y,-z
x,-y,z
1/2+x,1/2+y,z
1/2-x,1/2+y,-z
1/2-x,1/2-y,-z
1/2+x,1/2-y,z
loop_
_atom_site_type_symbol
_atom_site_label
_atom_site_fract_x
_atom_site_fract_y
_atom_site_fract_z
Si Si1 0.518227 0.237280 0.857135
Si Si2 0.388852 0.889675 0.401318
Si Si3 0.979403 0.110638 0.230268
Si Si4 0.640031 0.887155 0.082309
Si Si5 0.475405 0.893683 0.434122
Si Si6 0.326377 0.267908 0.640680
Si Si7 0.657620 0.669001 0.885412
O O1 0.568119 0.327581 0.776082
O O2 0.412567 0.156519 0.924035
O O3 0.695604 0.187795 0.717700
O O4 0.397691 0.279040 0.011881
O O5 0.180477 0.875110 0.582291
O O6 0.505893 0.844169 0.248315
O O7 0.435891 0.846919 0.414274
O O8 0.440104 0.000000 0.355516
O O9 0.991354 0.000000 0.202472
O O10 0.162772 0.145420 0.085791
O O11 0.626597 0.000000 0.089794
O O12 0.395142 0.831742 0.553523
O O13 0.684661 0.902153 0.247645
O O14 0.395684 0.000000 0.511132
O O15 0.500000 0.327694 0.500000
O O16 0.216479 0.252692 0.792854
O O17 0.500000 0.614223 0.000000
#
# Coordination Sequence:
#
# PCOD8082996 Si02
#       7
#     8   8   8   8   8   8   8
#     4  11  20  36  57  79 106 149 188 224 277 338
#     4   9  18  34  53  77 113 146 175 219 271 326
#     4  10  20  35  54  81 118 149 178 220 269 330
#     4  10  22  38  56  83 115 143 184 237 278 326
#     4  10  18  32  52  75 110 151 184 215 268 335
#     4   9  19  35  51  74 105 142 180 233 278 314
#     4   9  20  33  48  71 105 139 183 235 276 311
#
# _framework density 20.047035999999999
#
# number of rings (size 3 to 8) (size 9 to 14) (size 15 to 20)
#    0.000    2.286    1.429    1.286    0.000    5.143 
#    5.143    4.286    0.000    4.286    0.000    0.000 
#    0.000    0.000    0.000    0.000    0.000    0.000 
#
# Total GULP energy -346910.992147 kJ/mol
# GULP energy per Si atom -12389.678291 kJ/mol
# Density = 2.000141 g / cm^3
# Si number density = 20.047036 Si / 1000 Ang^3
#
#
#
# Elastic Constant Matrix: (Units=GPa)
#
#
# Indices 1 2 3 4 5 6 
#
# 1 118.2275 18.5864 49.4218 -0.0172 -13.3944 0.0121
# 2 18.5864 15.4993 14.8383 -0.0920 1.7973 -0.0072
# 3 49.4218 14.8383 118.8643 -0.1579 -12.1978 0.0131
# 4 -0.0172 -0.0920 -0.1579 10.8117 -0.0263 -5.1631
# 5 -13.3944 1.7973 -12.1978 -0.0263 43.8701 0.0082
# 6 0.0121 -0.0072 0.0131 -5.1631 0.0082 14.3852
#
#
#
# Elastic Compliance Matrix: (Units=1/GPa)
#
#
# Indices 1 2 3 4 5 6 
#
# 1 0.012005 -0.011716 -0.003195 -0.000153 0.003257 -0.000070
# 2 -0.011716 0.086129 -0.006803 0.000752 -0.008997 0.000335
# 3 -0.003195 -0.006803 0.010828 0.000115 0.002314 0.000029
# 4 -0.000153 0.000752 0.000115 0.111634 0.000014 0.040068
# 5 0.003257 -0.008997 0.002314 0.000014 0.024801 -0.000018
# 6 -0.000070 0.000335 0.000029 0.040068 -0.000018 0.083897
#
#
# Mechanical properties :
#
#
# Convention : Reuss Voigt Hill
#
# Bulk Modulus (GPa) = 15.25905 46.47601 30.86753
# Shear Modulus (GPa) = 12.67216 25.12972 18.90094
#
# Velocity S-wave (km/s) = 2.51693 3.54437 3.07388
# Velocity P-wave (km/s) = 4.00933 6.32328 5.29427
#
# Compressibility (1/GPa) = 0.06553489
#
# Stress axis : x y z
#
# Youngs Moduli (GPa) = 83.30202 11.61051 92.35206
#
# Poissons Ratio (x) = 0.13602 0.29504
# Poissons Ratio (y) = 0.97594 0.62827
# Poissons Ratio (z) = 0.26613 0.07899
#
# Static dielectric constant tensor:
#      x y z
#    x 3.902270 -0.000060 -0.253850 
#    y -0.000060 3.014200 0.000140 
#    z -0.253850 0.000140 4.058300 
# 
# 
# High freq. dielectric constant tensor:
#      x y z
#    x 1.792140 -0.000010 -0.013460 
#    y -0.000010 1.716560 0.000020 
#    z -0.013460 0.000020 1.805410 
# 
# From -- ./inp_files/97821.got.cif
#   From: 2010.06.25/outbox.cif.g09.slc.cpg/sg12_49_cif.got.tgz:97821.got - 2010.06.28 00:19:55.
