data_PCOD8082239
_publ_section_title
;
Structure prediction by ZEFSAII (Michael W. Deem and Ramdas Pophale) SiO2 
 PCOD8082239
Probable space group: C 2/M
;
_chemical_formula_sum "Si O2"
_cell_formula_units_Z 56
_cell_length_a 22.987544
_cell_length_b 18.925407
_cell_length_c 9.891234
_cell_angle_alpha 90.000000
_cell_angle_beta 44.947392
_cell_angle_gamma 90.000000
_cell_volume 3040.003977
_symmetry_space_group_name_H-M "C 2/M"
_symmetry_group_IT_number 12
_symmetry_cell_setting 'monoclinic'
loop_
_space_group_symop_operation_xyz
x,y,z
-x,y,-z
-x,-y,-z
x,-y,z
1/2+x,1/2+y,z
1/2-x,1/2+y,-z
1/2-x,1/2-y,-z
1/2+x,1/2-y,z
loop_
_atom_site_type_symbol
_atom_site_label
_atom_site_fract_x
_atom_site_fract_y
_atom_site_fract_z
Si Si1 0.996102 0.776923 0.663164
Si Si2 0.784847 0.661855 0.068731
Si Si3 0.251628 0.345513 0.380365
Si Si4 0.329331 0.697252 0.517063
Si Si5 0.550229 0.861510 0.104088
Si Si6 0.673898 0.327046 0.013552
Si Si7 0.896007 0.420548 0.258155
O O1 0.979991 0.715266 0.798508
O O2 0.000000 0.749821 0.500000
O O3 0.080461 0.814382 0.569085
O O4 0.923209 0.835221 0.794669
O O5 0.734121 0.651166 0.290038
O O6 0.807341 0.744000 0.018440
O O7 0.870539 0.617155 0.933730
O O8 0.729686 0.635216 0.035387
O O9 0.321302 0.329685 0.377322
O O10 0.192929 0.279728 0.442150
O O11 0.303105 0.366432 0.163173
O O12 0.191001 0.407939 0.526190
O O13 0.471564 0.913506 0.242500
O O14 0.585808 0.863324 0.890598
O O15 0.896246 0.500000 0.199091
#
# Coordination Sequence:
#
# PCOD8082239 Si02
#       7
#     8   8   8   8   8   8   8
#     4  11  20  30  51  82 113 144 173 208 267 331
#     4   9  16  30  47  71 106 141 169 204 258 325
#     4  10  20  33  50  76 104 140 176 222 265 311
#     4  10  18  31  50  74 111 136 174 207 265 331
#     4  10  20  31  51  73 101 142 180 215 255 303
#     4   9  19  29  48  76 107 139 169 208 266 321
#     4  11  22  37  53  73 103 142 192 230 262 303
#
# _framework density 18.421028
#
# number of rings (size 3 to 8) (size 9 to 14) (size 15 to 20)
#    0.000    2.000    4.286    0.857    4.000    0.571 
#    0.000    0.000    0.000    7.714    0.000    2.000 
#    0.000    2.286    0.000    0.000    0.000    0.000 
#
# Total GULP energy -346935.013402 kJ/mol
# GULP energy per Si atom -12390.536193 kJ/mol
# Density = 1.837910 g / cm^3
# Si number density = 18.421028 Si / 1000 Ang^3
#
#
#
# Elastic Constant Matrix: (Units=GPa)
#
#
# Indices 1 2 3 4 5 6 
#
# 1 143.5266 18.0465 45.9582 0.0000 -13.5711 0.0000
# 2 18.0465 28.8529 21.8257 0.0000 -0.6087 0.0000
# 3 45.9582 21.8257 93.7883 0.0000 0.2708 0.0000
# 4 0.0000 0.0000 0.0000 10.8645 0.0000 -1.7720
# 5 -13.5711 -0.6087 0.2708 0.0000 36.5480 0.0000
# 6 0.0000 0.0000 0.0000 -1.7720 0.0000 9.8426
#
#
#
# Elastic Compliance Matrix: (Units=1/GPa)
#
#
# Indices 1 2 3 4 5 6 
#
# 1 0.008791 -0.002627 -0.003706 0.000000 0.003248 0.000000
# 2 -0.002627 0.042870 -0.008689 0.000000 -0.000197 0.000000
# 3 -0.003706 -0.008689 0.014505 0.000000 -0.001628 0.000000
# 4 0.000000 0.000000 0.000000 0.094827 0.000000 0.017072
# 5 0.003248 -0.000197 -0.001628 0.000000 0.028576 0.000000
# 6 0.000000 0.000000 0.000000 0.017072 0.000000 0.104673
#
#
# Mechanical properties :
#
#
# Convention : Reuss Voigt Hill
#
# Bulk Modulus (GPa) = 27.68287 48.64762 38.16525
# Shear Modulus (GPa) = 14.86650 23.47352 19.17001
#
# Velocity S-wave (km/s) = 2.84393 3.57358 3.22942
# Velocity P-wave (km/s) = 5.08374 6.59495 5.88803
#
# Compressibility (1/GPa) = 0.03612342
#
# Stress axis : x y z
#
# Youngs Moduli (GPa) = 113.74648 23.32639 68.94167
#
# Poissons Ratio (x) = 0.06127 0.25550
# Poissons Ratio (y) = 0.29879 0.59901
# Poissons Ratio (z) = 0.42156 0.20267
#
# Static dielectric constant tensor:
#      x y z
#    x 3.782600 0.000000 -0.120650 
#    y 0.000000 2.656240 0.000000 
#    z -0.120650 0.000000 3.587720 
# 
# 
# High freq. dielectric constant tensor:
#      x y z
#    x 1.735740 0.000000 -0.008280 
#    y 0.000000 1.623810 0.000000 
#    z -0.008280 0.000000 1.721990 
# 
# From -- ./inp_files/89487.got.cif
#   From: 2010.06.25/outbox.cif.g09.slc.cpg/sg12_45_cif.got.tgz:89487.got - 2010.06.28 00:19:55.
