data_PCOD8082344
_publ_section_title
;
Structure prediction by ZEFSAII (Michael W. Deem and Ramdas Pophale) SiO2 
 PCOD8082344
Probable space group: C 2/M
;
_chemical_formula_sum "Si O2"
_cell_formula_units_Z 48
_cell_length_a 23.520058
_cell_length_b 8.967819
_cell_length_c 12.398988
_cell_angle_alpha 90.000000
_cell_angle_beta 109.860422
_cell_angle_gamma 90.000000
_cell_volume 2459.692939
_symmetry_space_group_name_H-M "C 2/M"
_symmetry_group_IT_number 12
_symmetry_cell_setting 'monoclinic'
loop_
_space_group_symop_operation_xyz
x,y,z
-x,y,-z
-x,-y,-z
x,-y,z
1/2+x,1/2+y,z
1/2-x,1/2+y,-z
1/2-x,1/2-y,-z
1/2+x,1/2-y,z
loop_
_atom_site_type_symbol
_atom_site_label
_atom_site_fract_x
_atom_site_fract_y
_atom_site_fract_z
Si Si1 0.922519 0.327579 0.743790
Si Si2 0.237627 0.176102 0.105013
Si Si3 0.553126 0.821961 0.787474
Si Si4 0.150594 0.676167 0.684302
Si Si5 0.115670 0.327593 0.046977
Si Si6 0.815450 0.677266 0.529344
O O1 0.921021 0.500000 0.711407
O O2 0.926162 0.305874 0.875018
O O3 0.861483 0.260316 0.650834
O O4 0.984627 0.257983 0.735394
O O5 0.288719 0.233651 0.219623
O O6 0.174187 0.229887 0.110183
O O7 0.238687 0.000000 0.092584
O O8 0.250000 0.250000 0.000000
O O9 0.591902 0.760327 0.710827
O O10 0.551322 0.000000 0.788710
O O11 0.582691 0.766686 0.918905
O O12 0.147259 0.500000 0.689502
O O13 0.153060 0.728566 0.562352
O O14 0.134500 0.500000 0.044225
O O15 0.805999 0.500000 0.527588
O O16 0.750000 0.750000 0.500000
#
# Coordination Sequence:
#
# PCOD8082344 Si02
#       6
#     8   8   8   8   8   8
#     4   9  18  30  50  78 102 131 172 209 243 292
#     4  11  20  32  50  75 102 132 167 205 252 300
#     4   9  16  29  49  75 104 132 165 209 253 291
#     4   9  18  31  49  74 103 131 162 206 255 294
#     4  10  18  31  51  76 105 134 166 206 251 296
#     4  10  20  35  53  75 101 130 168 208 249 298
#
# _framework density 19.514631000000001
#
# number of rings (size 3 to 8) (size 9 to 14) (size 15 to 20)
#    0.000    2.333    1.667    2.000    0.000    2.667 
#    0.000    4.167    0.000    3.000    0.000    1.167 
#    0.000    0.000    0.000    0.000    0.000    0.000 
#
# Total GULP energy -297476.465293 kJ/mol
# GULP energy per Si atom -12394.852721 kJ/mol
# Density = 1.947022 g / cm^3
# Si number density = 19.514631 Si / 1000 Ang^3
#
#
#
# Elastic Constant Matrix: (Units=GPa)
#
#
# Indices 1 2 3 4 5 6 
#
# 1 167.7205 18.7450 60.9085 0.0000 4.9734 0.0000
# 2 18.7450 25.8264 11.7038 0.0000 -0.6374 0.0000
# 3 60.9085 11.7038 116.9548 0.0000 -6.0549 0.0000
# 4 0.0000 0.0000 0.0000 15.9213 0.0000 2.3638
# 5 4.9734 -0.6374 -6.0549 0.0000 33.0317 0.0000
# 6 0.0000 0.0000 0.0000 2.3638 0.0000 22.5495
#
#
#
# Elastic Compliance Matrix: (Units=1/GPa)
#
#
# Indices 1 2 3 4 5 6 
#
# 1 0.007844 -0.004027 -0.003783 0.000000 -0.001952 0.000000
# 2 -0.004027 0.042627 -0.002115 0.000000 0.001041 0.000000
# 3 -0.003783 -0.002115 0.010863 0.000000 0.002520 0.000000
# 4 0.000000 0.000000 0.000000 0.063802 0.000000 -0.006688
# 5 -0.001952 0.001041 0.002520 0.000000 0.031050 0.000000
# 6 0.000000 0.000000 0.000000 -0.006688 0.000000 0.045048
#
#
# Mechanical properties :
#
#
# Convention : Reuss Voigt Hill
#
# Bulk Modulus (GPa) = 24.10566 54.80181 39.45373
# Shear Modulus (GPa) = 21.28465 28.91015 25.09740
#
# Velocity S-wave (km/s) = 3.30616 3.85315 3.59009
# Velocity P-wave (km/s) = 5.19169 6.92380 6.11934
#
# Compressibility (1/GPa) = 0.04148404
#
# Stress axis : x y z
#
# Youngs Moduli (GPa) = 127.48334 23.45933 92.05873
#
# Poissons Ratio (x) = 0.09447 0.34828
# Poissons Ratio (y) = 0.51339 0.19466
# Poissons Ratio (z) = 0.48230 0.04961
#
# Static dielectric constant tensor:
#      x y z
#    x 4.253110 0.000000 -0.014700 
#    y 0.000000 3.197140 0.000000 
#    z -0.014700 0.000000 3.927840 
# 
# 
# High freq. dielectric constant tensor:
#      x y z
#    x 1.777570 0.000000 -0.002690 
#    y 0.000000 1.693880 0.000000 
#    z -0.002690 0.000000 1.767130 
# 
# From -- ./inp_files/164031.got.cif
#   From: 2010.06.25/outbox.cif.g09.slc.cpg/sg12_83_cif.got.tgz:164031.got - 2010.06.28 00:19:55.
