data_PCOD8082147
_publ_section_title
;
Structure prediction by ZEFSAII (Michael W. Deem and Ramdas Pophale) SiO2 
 PCOD8082147
Probable space group: C 2/M
;
_chemical_formula_sum "Si O2"
_cell_formula_units_Z 64
_cell_length_a 28.931955
_cell_length_b 13.584957
_cell_length_c 16.986920
_cell_angle_alpha 90.000000
_cell_angle_beta 147.544335
_cell_angle_gamma 90.000000
_cell_volume 3582.937772
_symmetry_space_group_name_H-M "C 2/M"
_symmetry_group_IT_number 12
_symmetry_cell_setting 'monoclinic'
loop_
_space_group_symop_operation_xyz
x,y,z
-x,y,-z
-x,-y,-z
x,-y,z
1/2+x,1/2+y,z
1/2-x,1/2+y,-z
1/2-x,1/2-y,-z
1/2+x,1/2-y,z
loop_
_atom_site_type_symbol
_atom_site_label
_atom_site_fract_x
_atom_site_fract_y
_atom_site_fract_z
Si Si1 0.311075 0.887745 0.295104
Si Si2 0.041399 0.612264 0.379416
Si Si3 0.855473 0.227814 0.909755
Si Si4 0.340407 0.251278 0.714463
Si Si5 0.314720 0.113091 0.541340
Si Si6 0.485238 0.607906 0.886705
Si Si7 0.257249 0.610764 0.969819
Si Si8 0.864959 0.706641 0.089330
O O1 0.402992 0.855912 0.463795
O O2 0.237109 0.822512 0.226975
O O3 0.310396 0.875733 0.199675
O O4 0.293315 0.000000 0.295828
O O5 0.008451 0.500000 0.340781
O O6 0.097219 0.623086 0.380578
O O7 0.959747 0.683980 0.257697
O O8 0.872281 0.277407 0.848427
O O9 0.860640 0.306934 0.988211
O O10 0.928558 0.146206 0.031953
O O11 0.327643 0.149457 0.649662
O O12 0.254972 0.316961 0.600005
O O13 0.408249 0.315605 0.761550
O O14 0.282858 0.000000 0.496981
O O15 0.462530 0.500000 0.818914
O O16 0.500000 0.597722 0.000000
O O17 0.293183 0.500000 0.024957
O O18 0.205854 0.633749 0.975657
O O19 0.339637 0.681457 0.076623
#
# Coordination Sequence:
#
# PCOD8082147 Si02
#       8
#     8   8   8   8   8   8   8   8
#     4   9  17  30  52  78 103 130 165 213 265 308
#     4  10  19  32  52  79 107 134 165 207 259 310
#     4  10  18  31  49  74 105 137 176 211 254 301
#     4  10  19  32  50  71 100 139 177 214 255 301
#     4  10  20  33  49  71 103 136 170 213 259 302
#     4   9  17  27  46  74 103 132 168 214 256 294
#     4   9  19  36  55  78 104 131 165 208 259 309
#     4  10  20  33  52  78 106 133 165 207 259 308
#
# _framework density 17.862437
#
# number of rings (size 3 to 8) (size 9 to 14) (size 15 to 20)
#    0.000    2.375    1.250    1.875    0.000    2.000 
#    0.000    3.125    0.000    5.625    0.000   12.250 
#    0.000    0.000    0.000    0.000    0.000    0.000 
#
# Total GULP energy -396693.899576 kJ/mol
# GULP energy per Si atom -12396.684362 kJ/mol
# Density = 1.782178 g / cm^3
# Si number density = 17.862437 Si / 1000 Ang^3
#
#
#
# Elastic Constant Matrix: (Units=GPa)
#
#
# Indices 1 2 3 4 5 6 
#
# 1 83.6720 38.5227 37.9373 0.0000 -8.5545 0.0000
# 2 38.5227 78.0580 43.0008 0.0000 -0.1723 0.0000
# 3 37.9373 43.0008 101.5612 0.0000 6.4508 0.0000
# 4 0.0000 0.0000 0.0000 25.0582 0.0000 5.3072
# 5 -8.5545 -0.1723 6.4508 0.0000 26.0728 0.0000
# 6 0.0000 0.0000 0.0000 5.3072 0.0000 17.4078
#
#
#
# Elastic Compliance Matrix: (Units=1/GPa)
#
#
# Indices 1 2 3 4 5 6 
#
# 1 0.017467 -0.006227 -0.004317 0.000000 0.006758 0.000000
# 2 -0.006227 0.019020 -0.005695 0.000000 -0.000508 0.000000
# 3 -0.004317 -0.005695 0.014185 0.000000 -0.004964 0.000000
# 4 0.000000 0.000000 0.000000 0.042662 0.000000 -0.013007
# 5 0.006758 -0.000508 -0.004964 0.000000 0.041796 0.000000
# 6 0.000000 0.000000 0.000000 -0.013007 0.000000 0.061411
#
#
# Mechanical properties :
#
#
# Convention : Reuss Voigt Hill
#
# Bulk Modulus (GPa) = 54.96230 55.80143 55.38187
# Shear Modulus (GPa) = 21.26901 23.29644 22.28272
#
# Velocity S-wave (km/s) = 3.45441 3.61531 3.53578
# Velocity P-wave (km/s) = 6.83719 6.98102 6.90948
#
# Compressibility (1/GPa) = 0.01819429
#
# Stress axis : x y z
#
# Youngs Moduli (GPa) = 57.25192 52.57622 70.49489
#
# Poissons Ratio (x) = 0.32738 0.30435
# Poissons Ratio (y) = 0.35649 0.40145
# Poissons Ratio (z) = 0.24718 0.29941
#
# Static dielectric constant tensor:
#      x y z
#    x 3.365080 0.000000 -0.046750 
#    y 0.000000 3.211130 0.000000 
#    z -0.046750 0.000000 3.261030 
# 
# 
# High freq. dielectric constant tensor:
#      x y z
#    x 1.695240 0.000000 0.004270 
#    y 0.000000 1.668470 0.000000 
#    z 0.004270 0.000000 1.680970 
# 
# From -- ./inp_files/296708.got.cif
#   From: 2010.06.25/outbox.cif.g09.slc.cpg/sg12_149_cif.got.tgz:296708.got - 2010.06.28 00:19:55.
