data_PCOD8082083
_publ_section_title
;
Structure prediction by ZEFSAII (Michael W. Deem and Ramdas Pophale) SiO2 
 PCOD8082083
Probable space group: C 2/M
;
_chemical_formula_sum "Si O2"
_cell_formula_units_Z 56
_cell_length_a 24.101126
_cell_length_b 20.726319
_cell_length_c 8.428472
_cell_angle_alpha 90.000000
_cell_angle_beta 134.396313
_cell_angle_gamma 90.000000
_cell_volume 3008.301445
_symmetry_space_group_name_H-M "C 2/M"
_symmetry_group_IT_number 12
_symmetry_cell_setting 'monoclinic'
loop_
_space_group_symop_operation_xyz
x,y,z
-x,y,-z
-x,-y,-z
x,-y,z
1/2+x,1/2+y,z
1/2-x,1/2+y,-z
1/2-x,1/2-y,-z
1/2+x,1/2-y,z
loop_
_atom_site_type_symbol
_atom_site_label
_atom_site_fract_x
_atom_site_fract_y
_atom_site_fract_z
Si Si1 0.664728 0.426734 0.229630
Si Si2 0.072571 0.804613 0.543641
Si Si3 0.218424 0.351413 0.357579
Si Si4 0.293762 0.344387 0.962293
Si Si5 0.595348 0.570702 0.414618
Si Si6 0.325100 0.762039 0.474996
Si Si7 0.767794 0.572030 0.898214
O O1 0.666479 0.500000 0.174862
O O2 0.750143 0.408831 0.467671
O O3 0.649452 0.382355 0.045520
O O4 0.597976 0.416528 0.229764
O O5 0.049384 0.873172 0.415556
O O6 0.093656 0.750678 0.453273
O O7 0.000000 0.779724 0.500000
O O8 0.150132 0.808297 0.803856
O O9 0.293615 0.307492 0.466473
O O10 0.157723 0.307668 0.337032
O O11 0.181683 0.383362 0.124185
O O12 0.241184 0.292554 0.768308
O O13 0.236546 0.394250 0.939027
O O14 0.556507 0.500000 0.369138
O O15 0.683066 0.568370 0.651796
O O16 0.803470 0.500000 0.987046
#
# Coordination Sequence:
#
# PCOD8082083 Si02
#       7
#     8   8   8   8   8   8   8
#     4   9  15  27  47  69  93 121 158 198 231 260
#     4  11  21  33  46  65  94 127 163 196 232 276
#     4   9  16  27  49  67  90 123 155 191 233 278
#     4  10  19  29  47  71  95 125 152 197 237 271
#     4   8  15  29  45  60  88 128 165 188 219 265
#     4  10  18  31  48  69  90 123 161 188 236 280
#     4   9  15  26  44  71  97 117 147 192 235 267
#
# _framework density 18.615155999999999
#
# number of rings (size 3 to 8) (size 9 to 14) (size 15 to 20)
#    0.000    2.571    4.286    2.143    0.000    0.857 
#    0.000    0.714    0.000    1.714    0.000    0.000 
#    0.000   21.714    0.000    0.000    0.000    0.000 
#
# Total GULP energy -346954.029135 kJ/mol
# GULP energy per Si atom -12391.215326 kJ/mol
# Density = 1.857279 g / cm^3
# Si number density = 18.615156 Si / 1000 Ang^3
#
#
#
# Elastic Constant Matrix: (Units=GPa)
#
#
# Indices 1 2 3 4 5 6 
#
# 1 112.9184 39.4655 17.6963 0.0000 -12.7958 0.0000
# 2 39.4655 69.4407 12.6973 0.0000 -0.1261 0.0000
# 3 17.6963 12.6973 20.0247 0.0000 -14.5403 0.0000
# 4 0.0000 0.0000 0.0000 12.9837 0.0000 -12.7557
# 5 -12.7958 -0.1261 -14.5403 0.0000 21.0819 0.0000
# 6 0.0000 0.0000 0.0000 -12.7557 0.0000 33.3427
#
#
#
# Elastic Compliance Matrix: (Units=1/GPa)
#
#
# Indices 1 2 3 4 5 6 
#
# 1 0.012132 -0.006391 -0.002705 0.000000 0.005460 0.000000
# 2 -0.006391 0.022047 -0.022141 0.000000 -0.019018 0.000000
# 3 -0.002705 -0.022141 0.130370 0.000000 0.088143 0.000000
# 4 0.000000 0.000000 0.000000 0.123398 0.000000 0.047207
# 5 0.005460 -0.019018 0.088143 0.000000 0.111427 0.000000
# 6 0.000000 0.000000 0.000000 0.047207 0.000000 0.048051
#
#
# Mechanical properties :
#
#
# Convention : Reuss Voigt Hill
#
# Bulk Modulus (GPa) = 9.79663 38.01132 23.90398
# Shear Modulus (GPa) = 9.19249 22.31665 15.75457
#
# Velocity S-wave (km/s) = 2.22461 3.46619 2.91233
# Velocity P-wave (km/s) = 3.44567 6.04013 4.91710
#
# Compressibility (1/GPa) = 0.10207587
#
# Stress axis : x y z
#
# Youngs Moduli (GPa) = 82.42604 45.35802 7.67050
#
# Poissons Ratio (x) = 0.28987 0.02074
# Poissons Ratio (y) = 0.52675 0.16983
# Poissons Ratio (z) = 0.22292 1.00428
#
# Static dielectric constant tensor:
#      x y z
#    x 3.482870 0.000000 -0.650420 
#    y 0.000000 3.698500 0.000000 
#    z -0.650420 0.000000 2.989710 
# 
# 
# High freq. dielectric constant tensor:
#      x y z
#    x 1.702900 0.000000 -0.062940 
#    y 0.000000 1.731480 0.000000 
#    z -0.062940 0.000000 1.665760 
# 
# From -- ./inp_files/76874.got.cif
#   From: 2010.06.25/outbox.cif.g09.slc.cpg/sg12_39_cif.got.tgz:76874.got - 2010.06.28 00:19:55.
