data_PCOD8082865
_publ_section_title
;
Structure prediction by ZEFSAII (Michael W. Deem and Ramdas Pophale) SiO2 
 PCOD8082865
Probable space group: C 2/M
;
_chemical_formula_sum "Si O2"
_cell_formula_units_Z 64
_cell_length_a 18.609372
_cell_length_b 13.084626
_cell_length_c 31.904013
_cell_angle_alpha 90.000000
_cell_angle_beta 27.626670
_cell_angle_gamma 90.000000
_cell_volume 3602.329182
_symmetry_space_group_name_H-M "C 2/M"
_symmetry_group_IT_number 12
_symmetry_cell_setting 'monoclinic'
loop_
_space_group_symop_operation_xyz
x,y,z
-x,y,-z
-x,-y,-z
x,-y,z
1/2+x,1/2+y,z
1/2-x,1/2+y,-z
1/2-x,1/2-y,-z
1/2+x,1/2-y,z
loop_
_atom_site_type_symbol
_atom_site_label
_atom_site_fract_x
_atom_site_fract_y
_atom_site_fract_z
Si Si1 0.805921 0.193994 0.202594
Si Si2 0.354957 0.116556 0.227222
Si Si3 0.309240 0.120806 0.819796
Si Si4 0.850864 0.885406 0.453069
Si Si5 0.670050 0.811553 0.099001
Si Si6 0.547384 0.379892 0.430989
Si Si7 0.471471 0.187296 0.358716
Si Si8 0.900936 0.114545 0.910780
O O1 0.856593 0.311914 0.184906
O O2 0.820302 0.165720 0.145622
O O3 0.624883 0.176991 0.309079
O O4 0.916037 0.121675 0.173409
O O5 0.515396 0.124527 0.169198
O O6 0.217751 0.156706 0.328459
O O7 0.327526 0.000000 0.226754
O O8 0.285153 0.177188 0.875936
O O9 0.480874 0.147962 0.712455
O O10 0.289388 0.000000 0.835359
O O11 0.664646 0.881587 0.551782
O O12 0.916080 0.806052 0.384954
O O13 0.918744 0.851003 0.462957
O O14 0.902988 0.000000 0.413720
O O15 0.646370 0.691360 0.101893
O O16 0.810043 0.856912 0.999866
O O17 0.500000 0.328330 0.500000
O O18 0.554011 0.500000 0.433727
O O19 0.861378 0.000000 0.916446
#
# Coordination Sequence:
#
# PCOD8082865 Si02
#       8
#     8   8   8   8   8   8   8   8
#     4   9  20  33  51  77 103 137 176 211 258 319
#     4  10  18  33  51  72 105 140 174 215 262 307
#     4  10  19  34  53  79 107 131 167 222 270 300
#     4  10  18  32  49  68 102 139 171 213 258 305
#     4  10  22  35  55  83 104 134 177 214 259 316
#     4   9  17  25  41  69  95 126 163 203 255 301
#     4   9  20  32  47  75 101 133 177 211 257 316
#     4  10  20  38  57  76 106 141 174 209 255 315
#
# _framework density 17.766283999999999
#
# number of rings (size 3 to 8) (size 9 to 14) (size 15 to 20)
#    0.750    1.625    1.250    1.875    1.750    0.500 
#    0.000    2.500    0.000    0.000    0.000    5.250 
#    0.000   10.000    0.000    0.000    0.000    0.000 
#
# Total GULP energy -396551.033169 kJ/mol
# GULP energy per Si atom -12392.219787 kJ/mol
# Density = 1.772585 g / cm^3
# Si number density = 17.766284 Si / 1000 Ang^3
#
#
#
# Elastic Constant Matrix: (Units=GPa)
#
#
# Indices 1 2 3 4 5 6 
#
# 1 67.5953 41.6315 13.7095 0.0025 9.7443 -0.0003
# 2 41.6315 117.8578 27.1118 0.0003 14.8231 -0.0003
# 3 13.7095 27.1118 58.3969 -0.0044 -4.4428 -0.0031
# 4 0.0025 0.0003 -0.0044 18.5297 0.0015 -0.0218
# 5 9.7443 14.8231 -4.4428 0.0015 32.8463 0.0007
# 6 -0.0003 -0.0003 -0.0031 -0.0218 0.0007 19.1455
#
#
#
# Elastic Compliance Matrix: (Units=1/GPa)
#
#
# Indices 1 2 3 4 5 6 
#
# 1 0.019350 -0.005948 -0.002035 -0.000003 -0.003331 0.000000
# 2 -0.005948 0.012191 -0.004595 0.000000 -0.004359 0.000000
# 3 -0.002035 -0.004595 0.020146 0.000005 0.005402 0.000003
# 4 -0.000003 0.000000 0.000005 0.053967 -0.000001 0.000061
# 5 -0.003331 -0.004359 0.005402 -0.000001 0.034131 0.000000
# 6 0.000000 0.000000 0.000003 0.000061 0.000000 0.052232
#
#
# Mechanical properties :
#
#
# Convention : Reuss Voigt Hill
#
# Bulk Modulus (GPa) = 37.69073 45.41731 41.55402
# Shear Modulus (GPa) = 22.12220 24.86413 23.49316
#
# Velocity S-wave (km/s) = 3.53254 3.74506 3.64035
# Velocity P-wave (km/s) = 6.15624 6.65732 6.41168
#
# Compressibility (1/GPa) = 0.02653172
#
# Stress axis : x y z
#
# Youngs Moduli (GPa) = 51.67893 82.02676 49.63706
#
# Poissons Ratio (x) = 0.48791 0.10099
# Poissons Ratio (y) = 0.30739 0.22809
# Poissons Ratio (z) = 0.10515 0.37693
#
# Static dielectric constant tensor:
#      x y z
#    x 3.145340 0.000000 -0.112190 
#    y 0.000000 3.245900 0.000010 
#    z -0.112190 0.000010 3.363100 
# 
# 
# High freq. dielectric constant tensor:
#      x y z
#    x 1.665440 0.000000 -0.022750 
#    y 0.000000 1.680370 0.000000 
#    z -0.022750 0.000000 1.684930 
# 
# From -- ./inp_files/379347.got.cif
#   From: 2010.06.25/outbox.cif.g09.slc.cpg/sg12_190_cif.got.tgz:379347.got - 2010.06.28 00:19:55.
