data_PCOD8082657
_publ_section_title
;
Structure prediction by ZEFSAII (Michael W. Deem and Ramdas Pophale) SiO2 
 PCOD8082657
Probable space group: C 2/M
;
_chemical_formula_sum "Si O2"
_cell_formula_units_Z 64
_cell_length_a 20.428328
_cell_length_b 9.225205
_cell_length_c 18.562040
_cell_angle_alpha 90.000000
_cell_angle_beta 97.426808
_cell_angle_gamma 90.000000
_cell_volume 3468.772336
_symmetry_space_group_name_H-M "C 2/M"
_symmetry_group_IT_number 12
_symmetry_cell_setting 'monoclinic'
loop_
_space_group_symop_operation_xyz
x,y,z
-x,y,-z
-x,-y,-z
x,-y,z
1/2+x,1/2+y,z
1/2-x,1/2+y,-z
1/2-x,1/2-y,-z
1/2+x,1/2-y,z
loop_
_atom_site_type_symbol
_atom_site_label
_atom_site_fract_x
_atom_site_fract_y
_atom_site_fract_z
Si Si1 0.980009 0.333169 0.810595
Si Si2 0.137917 0.328382 0.596644
Si Si3 0.989903 0.328705 0.342523
Si Si4 0.938699 0.665992 0.040625
Si Si5 0.188865 0.168874 0.025683
Si Si6 0.626144 0.171075 0.432707
Si Si7 0.780590 0.170583 0.665235
Si Si8 0.650664 0.667183 0.179018
O O1 0.959496 0.500000 0.798571
O O2 0.916933 0.254338 0.834352
O O3 0.000345 0.264984 0.736489
O O4 0.041531 0.315995 0.873082
O O5 0.130085 0.500000 0.592752
O O6 0.075922 0.260775 0.631212
O O7 0.138277 0.270211 0.514935
O O8 0.204615 0.281038 0.646465
O O9 0.981746 0.500000 0.335945
O O10 0.052002 0.285578 0.400312
O O11 0.918463 0.500000 0.020526
O O12 0.878283 0.771254 0.017539
O O13 0.000000 0.713375 0.000000
O O14 0.191118 0.195770 0.111761
O O15 0.193738 0.000000 0.007693
O O16 0.250000 0.250000 0.000000
O O17 0.677297 0.248671 0.388349
O O18 0.637570 0.000000 0.427581
O O19 0.804184 0.218338 0.747874
O O20 0.788564 0.000000 0.653723
O O21 0.631472 0.500000 0.184416
#
# Coordination Sequence:
#
# PCOD8082657 Si02
#       8
#     8   8   8   8   8   8   8   8
#     4  10  19  33  57  84 107 140 182 227 270 318
#     4   9  18  31  49  76 108 138 175 223 269 315
#     4   9  17  30  51  79 105 136 179 224 266 310
#     4  10  20  35  58  86 114 144 182 228 277 328
#     4  11  24  40  59  84 114 149 186 227 277 331
#     4  10  18  31  54  79 103 136 179 225 267 315
#     4  10  20  34  53  77 106 142 177 215 267 323
#     4  10  21  36  55  78 107 144 180 220 270 328
#
# _framework density 18.450330999999998
#
# number of rings (size 3 to 8) (size 9 to 14) (size 15 to 20)
#    0.000    2.125    2.500    1.125    0.000    3.750 
#    0.000    3.750    0.000    3.750    0.000    0.000 
#    0.000    0.000    0.000    0.000    0.000    0.000 
#
# Total GULP energy -396853.474295 kJ/mol
# GULP energy per Si atom -12401.671072 kJ/mol
# Density = 1.840834 g / cm^3
# Si number density = 18.450331 Si / 1000 Ang^3
#
#
#
# Elastic Constant Matrix: (Units=GPa)
#
#
# Indices 1 2 3 4 5 6 
#
# 1 131.2572 46.6165 51.0689 0.0000 -10.1612 0.0000
# 2 46.6165 47.1088 36.3012 0.0000 -6.9457 0.0000
# 3 51.0689 36.3012 117.1536 0.0000 -3.3589 0.0000
# 4 0.0000 0.0000 0.0000 19.8141 0.0000 -3.4125
# 5 -10.1612 -6.9457 -3.3589 0.0000 31.0038 0.0000
# 6 0.0000 0.0000 0.0000 -3.4125 0.0000 27.5793
#
#
#
# Elastic Compliance Matrix: (Units=1/GPa)
#
#
# Indices 1 2 3 4 5 6 
#
# 1 0.012178 -0.010214 -0.002101 0.000000 0.001475 0.000000
# 2 -0.010214 0.037358 -0.007001 0.000000 0.004263 0.000000
# 3 -0.002101 -0.007001 0.011593 0.000000 -0.001001 0.000000
# 4 0.000000 0.000000 0.000000 0.051568 0.000000 0.006381
# 5 0.001475 0.004263 -0.001001 0.000000 0.033584 0.000000
# 6 0.000000 0.000000 0.000000 0.006381 0.000000 0.037049
#
#
# Mechanical properties :
#
#
# Convention : Reuss Voigt Hill
#
# Bulk Modulus (GPa) = 44.45288 62.61031 53.53159
# Shear Modulus (GPa) = 21.79021 26.44831 24.11926
#
# Velocity S-wave (km/s) = 3.44033 3.79025 3.61952
# Velocity P-wave (km/s) = 6.31876 7.29129 6.82237
#
# Compressibility (1/GPa) = 0.02249573
#
# Stress axis : x y z
#
# Youngs Moduli (GPa) = 82.11577 26.76792 86.26267
#
# Poissons Ratio (x) = 0.27340 0.18127
# Poissons Ratio (y) = 0.83872 0.60394
# Poissons Ratio (z) = 0.17256 0.18741
#
# Static dielectric constant tensor:
#      x y z
#    x 3.605950 0.000000 0.040670 
#    y 0.000000 3.145550 0.000000 
#    z 0.040670 0.000000 3.720930 
# 
# 
# High freq. dielectric constant tensor:
#      x y z
#    x 1.718210 0.000000 0.002880 
#    y 0.000000 1.682850 0.000000 
#    z 0.002880 0.000000 1.733710 
# 
# From -- ./inp_files/281357.got.cif
#   From: 2010.06.25/outbox.cif.g09.slc.cpg/sg12_141_cif.got.tgz:281357.got - 2010.06.28 00:19:55.
