data_PCOD8082301
_publ_section_title
;
Structure prediction by ZEFSAII (Michael W. Deem and Ramdas Pophale) SiO2 
 PCOD8082301
Probable space group: C 2/M
;
_chemical_formula_sum "Si O2"
_cell_formula_units_Z 56
_cell_length_a 22.466662
_cell_length_b 13.255323
_cell_length_c 14.479706
_cell_angle_alpha 90.000000
_cell_angle_beta 44.965378
_cell_angle_gamma 90.000000
_cell_volume 3047.270615
_symmetry_space_group_name_H-M "C 2/M"
_symmetry_group_IT_number 12
_symmetry_cell_setting 'monoclinic'
loop_
_space_group_symop_operation_xyz
x,y,z
-x,y,-z
-x,-y,-z
x,-y,z
1/2+x,1/2+y,z
1/2-x,1/2+y,-z
1/2-x,1/2-y,-z
1/2+x,1/2-y,z
loop_
_atom_site_type_symbol
_atom_site_label
_atom_site_fract_x
_atom_site_fract_y
_atom_site_fract_z
Si Si1 0.840132 0.205444 0.013433
Si Si2 0.902896 0.882030 0.605392
Si Si3 0.773102 0.115443 0.905782
Si Si4 0.144498 0.813707 0.534208
Si Si5 0.337564 0.612674 0.207343
Si Si6 0.018012 0.883887 0.814392
Si Si7 0.207191 0.612042 0.513368
O O1 0.809570 0.319450 0.028531
O O2 0.812648 0.179913 0.147554
O O3 0.796764 0.131892 0.986591
O O4 0.940587 0.193280 0.896276
O O5 0.854285 0.854694 0.753743
O O6 0.859160 0.819622 0.571744
O O7 0.000000 0.847662 0.500000
O O8 0.895741 0.000000 0.591474
O O9 0.747594 0.000000 0.917783
O O10 0.135839 0.697446 0.579427
O O11 0.234528 0.860915 0.463335
O O12 0.068803 0.876821 0.662626
O O13 0.353387 0.500000 0.153594
O O14 0.422696 0.649384 0.165263
O O15 0.261373 0.616331 0.361348
O O16 0.987573 0.000000 0.858155
O O17 0.167871 0.500000 0.570145
#
# Coordination Sequence:
#
# PCOD8082301 Si02
#       7
#     8   8   8   8   8   8   8
#     4  11  20  33  52  70  97 132 161 199 246 284
#     4  10  19  32  52  75  98 125 159 201 244 284
#     4  10  22  35  48  71  99 130 167 199 233 287
#     4  10  18  31  51  73 101 130 158 201 248 287
#     4   9  17  30  51  76  98 121 155 204 252 287
#     4  10  19  31  51  78  99 120 160 208 248 287
#     4   9  18  31  49  75 101 127 161 198 243 298
#
# _framework density 18.377099999999999
#
# number of rings (size 3 to 8) (size 9 to 14) (size 15 to 20)
#    0.000    2.143    0.000    5.571    0.000    2.286 
#    0.000    0.714    0.000    2.143    0.000    0.000 
#    0.000    0.000    0.000    0.000    0.000    0.000 
#
# Total GULP energy -347143.023180 kJ/mol
# GULP energy per Si atom -12397.965114 kJ/mol
# Density = 1.833527 g / cm^3
# Si number density = 18.377100 Si / 1000 Ang^3
#
#
#
# Elastic Constant Matrix: (Units=GPa)
#
#
# Indices 1 2 3 4 5 6 
#
# 1 105.8076 42.1983 31.5715 0.0000 13.2841 0.0000
# 2 42.1983 90.7991 25.2079 0.0000 0.0189 0.0000
# 3 31.5715 25.2079 53.1769 0.0000 -2.9407 0.0000
# 4 0.0000 0.0000 0.0000 25.1395 0.0000 -3.6878
# 5 13.2841 0.0189 -2.9407 0.0000 25.5400 0.0000
# 6 0.0000 0.0000 0.0000 -3.6878 0.0000 23.5416
#
#
#
# Elastic Compliance Matrix: (Units=1/GPa)
#
#
# Indices 1 2 3 4 5 6 
#
# 1 0.014427 -0.004834 -0.006731 0.000000 -0.008275 0.000000
# 2 -0.004834 0.014315 -0.003801 0.000000 0.002066 0.000000
# 3 -0.006731 -0.003801 0.024956 0.000000 0.006377 0.000000
# 4 0.000000 0.000000 0.000000 0.040714 0.000000 0.006378
# 5 -0.008275 0.002066 0.006377 0.000000 0.044191 0.000000
# 6 0.000000 0.000000 0.000000 0.006378 0.000000 0.043477
#
#
# Mechanical properties :
#
#
# Convention : Reuss Voigt Hill
#
# Bulk Modulus (GPa) = 43.54639 49.74878 46.64758
# Shear Modulus (GPa) = 22.67904 24.89795 23.78850
#
# Velocity S-wave (km/s) = 3.51678 3.68480 3.60177
# Velocity P-wave (km/s) = 6.34332 6.72559 6.53725
#
# Compressibility (1/GPa) = 0.02296402
#
# Stress axis : x y z
#
# Youngs Moduli (GPa) = 69.31679 69.85711 40.07018
#
# Poissons Ratio (x) = 0.33770 0.26972
# Poissons Ratio (y) = 0.33509 0.15233
# Poissons Ratio (z) = 0.46658 0.26556
#
# Static dielectric constant tensor:
#      x y z
#    x 3.378690 0.000000 0.136710 
#    y 0.000000 3.442180 0.000000 
#    z 0.136710 0.000000 3.285840 
# 
# 
# High freq. dielectric constant tensor:
#      x y z
#    x 1.714100 0.000000 0.018940 
#    y 0.000000 1.698050 0.000000 
#    z 0.018940 0.000000 1.699840 
# 
# From -- ./inp_files/233655.got.cif
#   From: 2010.06.25/outbox.cif.g09.slc.cpg/sg12_117_cif.got.tgz:233655.got - 2010.06.28 00:19:55.
