data_PCOD8082473
_publ_section_title
;
Structure prediction by ZEFSAII (Michael W. Deem and Ramdas Pophale) SiO2 
 PCOD8082473
Probable space group: C 2/M
;
_chemical_formula_sum "Si O2"
_cell_formula_units_Z 64
_cell_length_a 20.367476
_cell_length_b 8.892267
_cell_length_c 23.806961
_cell_angle_alpha 90.000000
_cell_angle_beta 126.262605
_cell_angle_gamma 90.000000
_cell_volume 3476.627303
_symmetry_space_group_name_H-M "C 2/M"
_symmetry_group_IT_number 12
_symmetry_cell_setting 'monoclinic'
loop_
_space_group_symop_operation_xyz
x,y,z
-x,y,-z
-x,-y,-z
x,-y,z
1/2+x,1/2+y,z
1/2-x,1/2+y,-z
1/2-x,1/2-y,-z
1/2+x,1/2-y,z
loop_
_atom_site_type_symbol
_atom_site_label
_atom_site_fract_x
_atom_site_fract_y
_atom_site_fract_z
Si Si1 0.071957 0.177217 0.995278
Si Si2 0.330962 0.822686 0.769943
Si Si3 0.784279 0.678581 0.868693
Si Si4 0.514377 0.826102 0.854906
Si Si5 0.388260 0.174441 0.209082
Si Si6 0.430075 0.169026 0.510838
Si Si7 0.959342 0.173496 0.350921
Si Si8 0.821251 0.826364 0.373053
O O1 0.156061 0.255641 0.054288
O O2 0.083645 0.000000 0.004974
O O3 0.052333 0.223459 0.922125
O O4 0.000000 0.233165 0.000000
O O5 0.311699 0.757115 0.821945
O O6 0.421173 0.775672 0.796987
O O7 0.266057 0.761370 0.691450
O O8 0.318808 0.000000 0.766824
O O9 0.788003 0.500000 0.872978
O O10 0.693534 0.730235 0.836039
O O11 0.563316 0.797110 0.823375
O O12 0.517467 0.000000 0.875582
O O13 0.445309 0.230249 0.288172
O O14 0.367252 0.000000 0.207279
O O15 0.500000 0.173805 0.500000
O O16 0.457903 0.268208 0.577969
O O17 0.348117 0.235758 0.441997
O O18 0.412844 0.000000 0.522593
O O19 0.882863 0.197578 0.352840
O O20 0.970460 0.000000 0.340424
O O21 0.817305 0.000000 0.388528
#
# Coordination Sequence:
#
# PCOD8082473 Si02
#       8
#     8   8   8   8   8   8   8   8
#     4  11  23  38  58  87 116 141 176 232 287 325
#     4   9  17  33  57  82 105 138 188 228 264 322
#     4  11  21  37  62  84 107 147 189 226 270 330
#     4  10  22  40  60  81 109 150 188 222 272 337
#     4  11  23  37  55  83 117 146 181 231 280 325
#     4   9  17  28  44  74 111 144 176 220 277 325
#     4  10  18  31  52  77 107 147 186 221 271 330
#     4   9  16  29  50  78 106 136 180 229 268 318
#
# _framework density 18.408646000000001
#
# number of rings (size 3 to 8) (size 9 to 14) (size 15 to 20)
#    0.000    2.000    2.500    1.875    0.000    4.000 
#    0.000    0.625    0.000    0.750    0.000    0.000 
#    0.000    0.000    0.000    0.000    0.000    0.000 
#
# Total GULP energy -396874.420018 kJ/mol
# GULP energy per Si atom -12402.325626 kJ/mol
# Density = 1.836675 g / cm^3
# Si number density = 18.408646 Si / 1000 Ang^3
#
#
#
# Elastic Constant Matrix: (Units=GPa)
#
#
# Indices 1 2 3 4 5 6 
#
# 1 72.7684 27.4750 38.3112 0.0000 5.7838 0.0000
# 2 27.4750 69.6588 42.1705 0.0000 -1.3837 0.0000
# 3 38.3112 42.1705 145.2315 0.0000 15.3978 0.0000
# 4 0.0000 0.0000 0.0000 34.0613 0.0000 -2.1723
# 5 5.7838 -1.3837 15.3978 0.0000 22.4635 0.0000
# 6 0.0000 0.0000 0.0000 -2.1723 0.0000 17.9998
#
#
#
# Elastic Compliance Matrix: (Units=1/GPa)
#
#
# Indices 1 2 3 4 5 6 
#
# 1 0.017410 -0.005256 -0.002757 0.000000 -0.002916 0.000000
# 2 -0.005256 0.019518 -0.004909 0.000000 0.005920 0.000000
# 3 -0.002757 -0.004909 0.009700 0.000000 -0.006241 0.000000
# 4 0.000000 0.000000 0.000000 0.029587 0.000000 0.003571
# 5 -0.002916 0.005920 -0.006241 0.000000 0.049910 0.000000
# 6 0.000000 0.000000 0.000000 0.003571 0.000000 0.055987
#
#
# Mechanical properties :
#
#
# Convention : Reuss Voigt Hill
#
# Bulk Modulus (GPa) = 48.11238 55.95244 52.03241
# Shear Modulus (GPa) = 23.26844 26.88505 25.07675
#
# Velocity S-wave (km/s) = 3.55913 3.82574 3.69484
# Velocity P-wave (km/s) = 6.56371 7.06935 6.82122
#
# Compressibility (1/GPa) = 0.02078467
#
# Stress axis : x y z
#
# Youngs Moduli (GPa) = 57.43796 51.23531 103.09301
#
# Poissons Ratio (x) = 0.26927 0.28427
# Poissons Ratio (y) = 0.30187 0.50604
# Poissons Ratio (z) = 0.15838 0.25149
#
# Static dielectric constant tensor:
#      x y z
#    x 3.149710 0.000000 0.133120 
#    y 0.000000 3.351870 0.000000 
#    z 0.133120 0.000000 3.614710 
# 
# 
# High freq. dielectric constant tensor:
#      x y z
#    x 1.680430 0.000000 0.010110 
#    y 0.000000 1.710330 0.000000 
#    z 0.010110 0.000000 1.731490 
# 
# From -- ./inp_files/346182.got.cif
#   From: 2010.06.25/outbox.cif.g09.slc.cpg/sg12_174_cif.got.tgz:346182.got - 2010.06.28 00:19:55.
