data_PCOD8082660
_publ_section_title
;
Structure prediction by ZEFSAII (Michael W. Deem and Ramdas Pophale) SiO2 
 PCOD8082660
Probable space group: C 2/M
;
_chemical_formula_sum "Si O2"
_cell_formula_units_Z 56
_cell_length_a 15.379970
_cell_length_b 8.926222
_cell_length_c 24.263125
_cell_angle_alpha 90.000000
_cell_angle_beta 62.517837
_cell_angle_gamma 90.000000
_cell_volume 2955.079620
_symmetry_space_group_name_H-M "C 2/M"
_symmetry_group_IT_number 12
_symmetry_cell_setting 'monoclinic'
loop_
_space_group_symop_operation_xyz
x,y,z
-x,y,-z
-x,-y,-z
x,-y,z
1/2+x,1/2+y,z
1/2-x,1/2+y,-z
1/2-x,1/2-y,-z
1/2+x,1/2-y,z
loop_
_atom_site_type_symbol
_atom_site_label
_atom_site_fract_x
_atom_site_fract_y
_atom_site_fract_z
Si Si1 0.804495 0.676872 0.638623
Si Si2 0.022563 0.322971 0.148390
Si Si3 0.600070 0.823107 0.709498
Si Si4 0.577151 0.177153 0.933664
Si Si5 0.338698 0.823251 0.505076
Si Si6 0.504370 0.822712 0.626321
Si Si7 0.272747 0.678106 0.934758
O O1 0.787837 0.500000 0.644483
O O2 0.706815 0.755562 0.687862
O O3 0.837513 0.731195 0.568339
O O4 0.891443 0.728101 0.654335
O O5 0.042497 0.500000 0.138971
O O6 0.968343 0.275898 0.219989
O O7 0.953960 0.267396 0.117996
O O8 0.125561 0.238360 0.118499
O O9 0.552661 0.754792 0.667531
O O10 0.611597 0.000000 0.702411
O O11 0.687216 0.228154 0.917041
O O12 0.570870 0.000000 0.937966
O O13 0.500000 0.246035 0.000000
O O14 0.250000 0.750000 0.500000
O O15 0.437718 0.769868 0.445385
O O16 0.327485 0.000000 0.504784
O O17 0.509042 0.000000 0.629085
O O18 0.276585 0.500000 0.940378
O O19 0.250000 0.750000 0.000000
#
# Coordination Sequence:
#
# PCOD8082660 Si02
#       7
#     8   8   8   8   8   8   8
#     4  10  20  34  55  79 105 141 182 221 263 319
#     4  10  21  38  57  79 108 143 181 215 261 322
#     4  10  21  37  56  77 107 145 178 218 266 316
#     4   9  17  33  56  78 105 140 170 205 262 321
#     4  10  18  31  54  79 104 137 179 224 268 316
#     4   9  18  34  54  77 108 143 177 216 272 324
#     4  11  21  35  58  84 109 139 175 218 266 314
#
# _framework density 18.950420000000001
#
# number of rings (size 3 to 8) (size 9 to 14) (size 15 to 20)
#    0.000    2.143    2.857    0.857    0.000    3.429 
#    0.000    3.571    0.000    1.714    0.000    0.000 
#    0.000    0.000    0.000    0.000    0.000    0.000 
#
# Total GULP energy -347153.471904 kJ/mol
# GULP energy per Si atom -12398.338282 kJ/mol
# Density = 1.890729 g / cm^3
# Si number density = 18.950420 Si / 1000 Ang^3
#
#
#
# Elastic Constant Matrix: (Units=GPa)
#
#
# Indices 1 2 3 4 5 6 
#
# 1 162.1441 29.3968 63.0031 0.0000 -23.3431 0.0000
# 2 29.3968 27.1678 34.0400 0.0000 -7.6002 0.0000
# 3 63.0031 34.0400 119.7468 0.0000 -22.0384 0.0000
# 4 0.0000 0.0000 0.0000 19.1634 0.0000 -6.1042
# 5 -23.3431 -7.6002 -22.0384 0.0000 29.5635 0.0000
# 6 0.0000 0.0000 0.0000 -6.1042 0.0000 29.1364
#
#
#
# Elastic Compliance Matrix: (Units=1/GPa)
#
#
# Indices 1 2 3 4 5 6 
#
# 1 0.008562 -0.005343 -0.002312 0.000000 0.003663 0.000000
# 2 -0.005343 0.060735 -0.014321 0.000000 0.000719 0.000000
# 3 -0.002312 -0.014321 0.014632 0.000000 0.005401 0.000000
# 4 0.000000 0.000000 0.000000 0.055914 0.000000 0.011714
# 5 0.003663 0.000719 0.005401 0.000000 0.040929 0.000000
# 6 0.000000 0.000000 0.000000 0.011714 0.000000 0.036776
#
#
# Mechanical properties :
#
#
# Convention : Reuss Voigt Hill
#
# Bulk Modulus (GPa) = 25.01456 62.43760 43.72608
# Shear Modulus (GPa) = 18.19342 27.74724 22.97033
#
# Velocity S-wave (km/s) = 3.10183 3.83064 3.48534
# Velocity P-wave (km/s) = 5.10462 7.25152 6.27063
#
# Compressibility (1/GPa) = 0.03997672
#
# Stress axis : x y z
#
# Youngs Moduli (GPa) = 116.80038 16.46507 68.34252
#
# Poissons Ratio (x) = 0.08797 0.15797
# Poissons Ratio (y) = 0.62406 0.97876
# Poissons Ratio (z) = 0.26999 0.23580
#
# Static dielectric constant tensor:
#      x y z
#    x 3.792300 0.000000 0.133340 
#    y 0.000000 3.164800 0.000000 
#    z 0.133340 0.000000 3.786580 
# 
# 
# High freq. dielectric constant tensor:
#      x y z
#    x 1.753950 0.000000 -0.001110 
#    y 0.000000 1.699210 0.000000 
#    z -0.001110 0.000000 1.738430 
# 
# From -- ./inp_files/338442.got.cif
#   From: 2010.06.25/outbox.cif.g09.slc.cpg/sg12_170_cif.got.tgz:338442.got - 2010.06.28 00:19:55.
