data_PCOD8082904
_publ_section_title
;
Structure prediction by ZEFSAII (Michael W. Deem and Ramdas Pophale) SiO2 
 PCOD8082904
Probable space group: C 2/M
;
_chemical_formula_sum "Si O2"
_cell_formula_units_Z 56
_cell_length_a 14.426075
_cell_length_b 17.233971
_cell_length_c 14.919560
_cell_angle_alpha 90.000000
_cell_angle_beta 53.876376
_cell_angle_gamma 90.000000
_cell_volume 2996.158939
_symmetry_space_group_name_H-M "C 2/M"
_symmetry_group_IT_number 12
_symmetry_cell_setting 'monoclinic'
loop_
_space_group_symop_operation_xyz
x,y,z
-x,y,-z
-x,-y,-z
x,-y,z
1/2+x,1/2+y,z
1/2-x,1/2+y,-z
1/2-x,1/2-y,-z
1/2+x,1/2-y,z
loop_
_atom_site_type_symbol
_atom_site_label
_atom_site_fract_x
_atom_site_fract_y
_atom_site_fract_z
Si Si1 0.169584 0.321976 0.273222
Si Si2 0.416394 0.304281 0.318059
Si Si3 0.673966 0.087290 0.768526
Si Si4 0.097891 0.750913 0.873621
Si Si5 0.566309 0.137281 0.652206
Si Si6 0.586059 0.662866 0.371141
Si Si7 0.787469 0.586732 0.583972
O O1 0.285918 0.293558 0.157451
O O2 0.131405 0.250610 0.359668
O O3 0.190091 0.394863 0.325381
O O4 0.071735 0.348919 0.258866
O O5 0.440120 0.289795 0.198878
O O6 0.376556 0.222228 0.381379
O O7 0.527455 0.339285 0.305757
O O8 0.313577 0.361647 0.398331
O O9 0.616229 0.157321 0.858123
O O10 0.615210 0.085580 0.704445
O O11 0.810209 0.101786 0.684129
O O12 0.655003 0.000000 0.820310
O O13 0.000000 0.769631 0.000000
O O14 0.597044 0.097035 0.540583
O O15 0.500000 0.640966 0.500000
O O16 0.742773 0.500000 0.603873
#
# Coordination Sequence:
#
# PCOD8082904 Si02
#       7
#     8   8   8   8   8   8   8
#     4   9  19  33  50  75  99 129 175 215 250 302
#     4   9  19  34  52  76 101 135 182 217 242 290
#     4  10  21  33  48  77 110 136 168 208 252 306
#     4   9  19  38  60  75  93 128 175 226 266 295
#     4  10  18  32  50  72 106 142 170 200 244 306
#     4  10  18  32  53  75 106 144 174 202 240 295
#     4  11  20  29  48  78 110 138 163 202 259 313
#
# _framework density 18.690597
#
# number of rings (size 3 to 8) (size 9 to 14) (size 15 to 20)
#    0.000    2.286    0.000    4.714    0.000    2.857 
#    0.000   11.429    0.000    6.857    0.000    0.000 
#    0.000    0.000    0.000    0.000    0.000    0.000 
#
# Total GULP energy -347030.714086 kJ/mol
# GULP energy per Si atom -12393.954075 kJ/mol
# Density = 1.864806 g / cm^3
# Si number density = 18.690597 Si / 1000 Ang^3
#
#
#
# Elastic Constant Matrix: (Units=GPa)
#
#
# Indices 1 2 3 4 5 6 
#
# 1 112.2726 42.3276 38.0632 0.0000 -12.3930 0.0000
# 2 42.3276 87.9423 27.3905 0.0000 -6.9078 0.0000
# 3 38.0632 27.3905 95.6792 0.0000 -17.3227 0.0000
# 4 0.0000 0.0000 0.0000 11.2277 0.0000 2.8527
# 5 -12.3930 -6.9078 -17.3227 0.0000 20.0907 0.0000
# 6 0.0000 0.0000 0.0000 2.8527 0.0000 -2.0453
#
#
#
# Elastic Compliance Matrix: (Units=1/GPa)
#
#
# Indices 1 2 3 4 5 6 
#
# 1 0.011980 -0.004619 -0.002836 0.000000 0.003357 0.000000
# 2 -0.004619 0.014300 -0.002230 0.000000 0.000145 0.000000
# 3 -0.002836 -0.002230 0.013938 0.000000 0.009502 0.000000
# 4 0.000000 0.000000 0.000000 0.065761 0.000000 0.091722
# 5 0.003357 0.000145 0.009502 0.000000 0.060088 0.000000
# 6 0.000000 0.000000 0.000000 0.091722 0.000000 -0.360996
#
#
# Mechanical properties :
#
#
# Convention : Reuss Voigt Hill
#
# Bulk Modulus (GPa) = 47.96441 56.82852 52.39646
# Shear Modulus (GPa) = -29.65441 18.39548 -5.62947
#
# Velocity S-wave (km/s) = -3.98753 3.14062 -1.73737
# Velocity P-wave (km/s) = 2.12544 6.60471 4.90610
#
# Compressibility (1/GPa) = 0.02084879
#
# Stress axis : x y z
#
# Youngs Moduli (GPa) = 83.46977 69.92844 71.74379
#
# Poissons Ratio (x) = 0.32302 0.20346
# Poissons Ratio (y) = 0.38558 0.15998
# Poissons Ratio (z) = 0.23671 0.15594
#
# Static dielectric constant tensor:
#      x y z
#    x 3.646280 0.000000 -0.119860 
#    y 0.000000 3.349100 0.000000 
#    z -0.119860 0.000000 2.962830 
# 
# 
# High freq. dielectric constant tensor:
#      x y z
#    x 1.739310 0.000000 -0.009740 
#    y 0.000000 1.719270 0.000000 
#    z -0.009740 0.000000 1.678210 
# 
# From -- ./inp_files/145483.got.cif
#   From: 2010.06.25/outbox.cif.g09.slc.cpg/sg12_73_cif.got.tgz:145483.got - 2010.06.28 00:19:55.
