data_PCOD8082530
_publ_section_title
;
Structure prediction by ZEFSAII (Michael W. Deem and Ramdas Pophale) SiO2 
 PCOD8082530
Probable space group: C 2/M
;
_chemical_formula_sum "Si O2"
_cell_formula_units_Z 56
_cell_length_a 24.759495
_cell_length_b 9.236155
_cell_length_c 12.241112
_cell_angle_alpha 90.000000
_cell_angle_beta 105.281530
_cell_angle_gamma 90.000000
_cell_volume 2700.351055
_symmetry_space_group_name_H-M "C 2/M"
_symmetry_group_IT_number 12
_symmetry_cell_setting 'monoclinic'
loop_
_space_group_symop_operation_xyz
x,y,z
-x,y,-z
-x,-y,-z
x,-y,z
1/2+x,1/2+y,z
1/2-x,1/2+y,-z
1/2-x,1/2-y,-z
1/2+x,1/2-y,z
loop_
_atom_site_type_symbol
_atom_site_label
_atom_site_fract_x
_atom_site_fract_y
_atom_site_fract_z
Si Si1 0.767748 0.669697 0.816305
Si Si2 0.054081 0.327552 0.247696
Si Si3 0.640935 0.330266 0.722484
Si Si4 0.944036 0.834979 0.134090
Si Si5 0.628547 0.667342 0.116155
Si Si6 0.209890 0.343683 0.409936
Si Si7 0.899397 0.659273 0.508495
O O1 0.771784 0.500000 0.848926
O O2 0.703587 0.726470 0.786035
O O3 0.814058 0.762780 0.908062
O O4 0.792991 0.716071 0.712975
O O5 0.059660 0.500000 0.233986
O O6 0.104995 0.250817 0.210273
O O7 0.053129 0.288336 0.379156
O O8 0.995749 0.272778 0.168604
O O9 0.644571 0.500000 0.703461
O O10 0.601946 0.287245 0.801727
O O11 0.614671 0.265032 0.597855
O O12 0.963727 0.000000 0.166730
O O13 0.918773 0.820548 0.000926
O O14 0.640255 0.500000 0.152177
O O15 0.239059 0.500000 0.416987
O O16 0.250000 0.250000 0.500000
O O17 0.150555 0.354396 0.432952
O O18 0.913354 0.500000 0.466836
#
# Coordination Sequence:
#
# PCOD8082530 Si02
#       7
#     8   8   8   8   8   8   8
#     4  10  20  36  58  87 120 154 193 238 290 347
#     4  11  23  41  64  90 117 150 195 247 298 346
#     4  10  22  40  61  85 120 162 197 233 285 352
#     4  10  24  44  60  83 119 157 199 245 291 342
#     4  11  23  39  62  89 118 152 194 247 298 344
#     4  10  18  31  52  82 118 150 185 236 291 345
#     4  10  21  36  56  86 121 149 187 243 295 347
#
# _framework density 20.738043999999999
#
# number of rings (size 3 to 8) (size 9 to 14) (size 15 to 20)
#    0.000    1.714    2.857    1.286    0.000    6.857 
#    0.000    2.857    0.000    0.000    0.000    0.000 
#    0.000    0.000    0.000    0.000    0.000    0.000 
#
# Total GULP energy -346931.624565 kJ/mol
# GULP energy per Si atom -12390.415163 kJ/mol
# Density = 2.069084 g / cm^3
# Si number density = 20.738044 Si / 1000 Ang^3
#
#
#
# Elastic Constant Matrix: (Units=GPa)
#
#
# Indices 1 2 3 4 5 6 
#
# 1 82.5807 34.2199 28.3521 0.0000 6.9682 0.0000
# 2 34.2199 70.6491 35.3722 0.0000 5.5026 0.0000
# 3 28.3521 35.3722 51.8868 0.0000 11.6827 0.0000
# 4 0.0000 0.0000 0.0000 31.2842 0.0000 9.7812
# 5 6.9682 5.5026 11.6827 0.0000 33.2530 0.0000
# 6 0.0000 0.0000 0.0000 9.7812 0.0000 29.6296
#
#
#
# Elastic Compliance Matrix: (Units=1/GPa)
#
#
# Indices 1 2 3 4 5 6 
#
# 1 0.016061 -0.005178 -0.005084 0.000000 -0.000723 0.000000
# 2 -0.005178 0.023250 -0.013464 0.000000 0.001968 0.000000
# 3 -0.005084 -0.013464 0.033106 0.000000 -0.008338 0.000000
# 4 0.000000 0.000000 0.000000 0.035644 0.000000 -0.011767
# 5 -0.000723 0.001968 -0.008338 0.000000 0.032828 0.000000
# 6 0.000000 0.000000 0.000000 -0.011767 0.000000 0.037634
#
#
# Mechanical properties :
#
#
# Convention : Reuss Voigt Hill
#
# Bulk Modulus (GPa) = 40.05263 44.55611 42.30437
# Shear Modulus (GPa) = 21.34042 25.97819 23.65931
#
# Velocity S-wave (km/s) = 3.21136 3.54317 3.38133
# Velocity P-wave (km/s) = 5.75378 6.18632 5.97396
#
# Compressibility (1/GPa) = 0.02496715
#
# Stress axis : x y z
#
# Youngs Moduli (GPa) = 62.26125 43.01029 30.20561
#
# Poissons Ratio (x) = 0.22271 0.15355
# Poissons Ratio (y) = 0.32239 0.40668
# Poissons Ratio (z) = 0.31651 0.57908
#
# Static dielectric constant tensor:
#      x y z
#    x 3.750280 0.000000 0.137960 
#    y 0.000000 3.726810 0.000000 
#    z 0.137960 0.000000 3.848360 
# 
# 
# High freq. dielectric constant tensor:
#      x y z
#    x 1.816390 0.000000 0.012210 
#    y 0.000000 1.803470 0.000000 
#    z 0.012210 0.000000 1.814880 
# 
# From -- ./inp_files/181088.got.cif
#   From: 2010.06.25/outbox.cif.g09.slc.cpg/sg12_91_cif.got.tgz:181088.got - 2010.06.28 00:19:55.
