data_PCOD8082215
_publ_section_title
;
Structure prediction by ZEFSAII (Michael W. Deem and Ramdas Pophale) SiO2 
 PCOD8082215
Probable space group: C 2/M
;
_chemical_formula_sum "Si O2"
_cell_formula_units_Z 64
_cell_length_a 26.714017
_cell_length_b 13.770929
_cell_length_c 14.017152
_cell_angle_alpha 90.000000
_cell_angle_beta 42.132794
_cell_angle_gamma 90.000000
_cell_volume 3459.301488
_symmetry_space_group_name_H-M "C 2/M"
_symmetry_group_IT_number 12
_symmetry_cell_setting 'monoclinic'
loop_
_space_group_symop_operation_xyz
x,y,z
-x,y,-z
-x,-y,-z
x,-y,z
1/2+x,1/2+y,z
1/2-x,1/2+y,-z
1/2-x,1/2-y,-z
1/2+x,1/2-y,z
loop_
_atom_site_type_symbol
_atom_site_label
_atom_site_fract_x
_atom_site_fract_y
_atom_site_fract_z
Si Si1 0.424139 0.282237 0.667508
Si Si2 0.280029 0.614120 0.800833
Si Si3 0.363665 0.111189 0.879699
Si Si4 0.257827 0.113697 0.355115
Si Si5 0.116427 0.893484 0.667419
Si Si6 0.449826 0.199331 0.922742
Si Si7 0.042076 0.108257 0.191711
Si Si8 0.600315 0.211297 0.794853
O O1 0.500000 0.263703 0.500000
O O2 0.356596 0.325773 0.701052
O O3 0.394719 0.180425 0.752656
O O4 0.441335 0.361391 0.723830
O O5 0.299510 0.500000 0.769999
O O6 0.240556 0.647230 0.757793
O O7 0.221855 0.637107 0.969152
O O8 0.415589 0.120781 0.899864
O O9 0.368080 0.000000 0.837703
O O10 0.180808 0.148902 0.509500
O O11 0.321054 0.160292 0.332973
O O12 0.268354 0.000000 0.346553
O O13 0.045985 0.896485 0.697435
O O14 0.106932 0.827731 0.774822
O O15 0.135127 0.000000 0.681045
O O16 0.426080 0.308756 0.923993
O O17 0.539394 0.180567 0.800684
O O18 0.422041 0.181884 0.067851
O O19 0.076749 0.000000 0.123334
#
# Coordination Sequence:
#
# PCOD8082215 Si02
#       8
#     8   8   8   8   8   8   8   8
#     4  11  22  35  56  83 107 135 172 215 265 317
#     4  10  20  35  57  81 105 137 175 217 263 309
#     4  10  21  39  57  76 106 140 176 215 259 312
#     4  10  19  31  49  74 101 133 170 207 253 301
#     4   9  18  31  48  72 104 137 166 201 251 308
#     4   9  19  32  51  77  98 131 175 210 252 298
#     4   9  18  33  51  75 105 131 162 209 257 305
#     4  10  18  31  50  73 102 132 170 211 250 295
#
# _framework density 18.500845999999999
#
# number of rings (size 3 to 8) (size 9 to 14) (size 15 to 20)
#    0.000    2.250    1.250    1.875    0.000    3.250 
#    0.000    3.750    0.000    0.750    0.000    0.000 
#    0.000    0.000    0.000    0.000    0.000    0.000 
#
# Total GULP energy -396569.848711 kJ/mol
# GULP energy per Si atom -12392.807772 kJ/mol
# Density = 1.845874 g / cm^3
# Si number density = 18.500846 Si / 1000 Ang^3
#
#
#
# Elastic Constant Matrix: (Units=GPa)
#
#
# Indices 1 2 3 4 5 6 
#
# 1 77.5586 30.1135 15.5996 0.0000 -10.6787 0.0000
# 2 30.1135 63.3600 23.7466 0.0000 -11.9577 0.0000
# 3 15.5996 23.7466 59.5732 0.0000 -16.9135 0.0000
# 4 0.0000 0.0000 0.0000 23.0063 0.0000 -2.9839
# 5 -10.6787 -11.9577 -16.9135 0.0000 23.2052 0.0000
# 6 0.0000 0.0000 0.0000 -2.9839 0.0000 25.2846
#
#
#
# Elastic Compliance Matrix: (Units=1/GPa)
#
#
# Indices 1 2 3 4 5 6 
#
# 1 0.016126 -0.006806 -0.000502 0.000000 0.003547 0.000000
# 2 -0.006806 0.021951 -0.005858 0.000000 0.003910 0.000000
# 3 -0.000502 -0.005858 0.023113 0.000000 0.013597 0.000000
# 4 0.000000 0.000000 0.000000 0.044142 0.000000 0.005209
# 5 0.003547 0.003910 0.013597 0.000000 0.056651 0.000000
# 6 0.000000 0.000000 0.000000 0.005209 0.000000 0.040164
#
#
# Mechanical properties :
#
#
# Convention : Reuss Voigt Hill
#
# Bulk Modulus (GPa) = 28.68893 37.71236 33.20064
# Shear Modulus (GPa) = 20.82480 23.03471 21.92975
#
# Velocity S-wave (km/s) = 3.35866 3.53237 3.44661
# Velocity P-wave (km/s) = 5.53003 6.08812 5.81578
#
# Compressibility (1/GPa) = 0.03485665
#
# Stress axis : x y z
#
# Youngs Moduli (GPa) = 62.01308 45.55609 43.26617
#
# Poissons Ratio (x) = 0.31007 0.02174
# Poissons Ratio (y) = 0.42208 0.25344
# Poissons Ratio (z) = 0.03115 0.26685
#
# Static dielectric constant tensor:
#      x y z
#    x 3.485580 0.000000 -0.172940 
#    y 0.000000 3.400940 0.000000 
#    z -0.172940 0.000000 3.430340 
# 
# 
# High freq. dielectric constant tensor:
#      x y z
#    x 1.717980 0.000000 -0.014600 
#    y 0.000000 1.710710 0.000000 
#    z -0.014600 0.000000 1.707370 
# 
# From -- ./inp_files/245917.got.cif
#   From: 2010.06.25/outbox.cif.g09.slc.cpg/sg12_123_cif.got.tgz:245917.got - 2010.06.28 00:19:55.
