data_PCOD8082963
_publ_section_title
;
Structure prediction by ZEFSAII (Michael W. Deem and Ramdas Pophale) SiO2 
 PCOD8082963
Probable space group: C 2/M
;
_chemical_formula_sum "Si O2"
_cell_formula_units_Z 64
_cell_length_a 26.833251
_cell_length_b 23.631496
_cell_length_c 12.227930
_cell_angle_alpha 90.000000
_cell_angle_beta 150.526210
_cell_angle_gamma 90.000000
_cell_volume 3815.091371
_symmetry_space_group_name_H-M "C 2/M"
_symmetry_group_IT_number 12
_symmetry_cell_setting 'monoclinic'
loop_
_space_group_symop_operation_xyz
x,y,z
-x,y,-z
-x,-y,-z
x,-y,z
1/2+x,1/2+y,z
1/2-x,1/2+y,-z
1/2-x,1/2-y,-z
1/2+x,1/2-y,z
loop_
_atom_site_type_symbol
_atom_site_label
_atom_site_fract_x
_atom_site_fract_y
_atom_site_fract_z
Si Si1 0.874506 0.223698 0.951189
Si Si2 0.104891 0.234363 0.426328
Si Si3 0.716772 0.215402 0.834154
Si Si4 0.390099 0.937026 0.532741
Si Si5 0.122635 0.435550 0.964655
Si Si6 0.385352 0.103174 0.290654
Si Si7 0.287104 0.839709 0.721850
Si Si8 0.792080 0.338351 0.481022
O O1 0.815073 0.207920 0.947223
O O2 0.864093 0.289886 0.902497
O O3 0.823264 0.184041 0.759860
O O4 0.992063 0.211637 0.193464
O O5 0.126423 0.254588 0.592306
O O6 0.173213 0.180736 0.525990
O O7 0.130553 0.287029 0.396060
O O8 0.685118 0.156023 0.821989
O O9 0.750000 0.250000 0.000000
O O10 0.507173 0.920627 0.776474
O O11 0.371917 0.938911 0.367415
O O12 0.317975 0.891941 0.454367
O O13 0.366467 0.000000 0.532796
O O14 0.147760 0.500000 0.043982
O O15 0.145878 0.427952 0.880482
O O16 0.194943 0.395040 0.171772
O O17 0.500000 0.125223 0.500000
O O18 0.303533 0.856846 0.627603
#
# Coordination Sequence:
#
# PCOD8082963 Si02
#       8
#     8   8   8   8   8   8   8   8
#     4  10  20  34  52  75 106 138 175 210 256 313
#     4  10  20  34  52  77 104 140 172 212 256 311
#     4  10  20  30  48  79 110 136 171 207 258 306
#     4  10  19  33  52  77 104 135 173 212 259 314
#     4  10  21  34  52  77 104 138 174 210 263 316
#     4  10  18  32  52  72 105 135 166 210 254 308
#     4  10  21  34  52  75 107 135 173 216 260 305
#     4  10  20  35  50  78 106 136 172 216 259 307
#
# _framework density 16.775483000000001
#
# number of rings (size 3 to 8) (size 9 to 14) (size 15 to 20)
#    0.000    2.250    2.500    4.125    3.500    5.500 
#    0.000    1.250    0.000    0.750    0.000    2.625 
#    0.000    0.000    0.000    0.000    0.000    0.000 
#
# Total GULP energy -396700.158883 kJ/mol
# GULP energy per Si atom -12396.879965 kJ/mol
# Density = 1.673730 g / cm^3
# Si number density = 16.775483 Si / 1000 Ang^3
#
#
#
# Elastic Constant Matrix: (Units=GPa)
#
#
# Indices 1 2 3 4 5 6 
#
# 1 60.3116 41.9275 43.8347 0.0000 -9.1858 0.0000
# 2 41.9275 108.0572 44.7381 0.0000 0.5542 0.0000
# 3 43.8347 44.7381 87.5855 0.0000 10.5646 0.0000
# 4 0.0000 0.0000 0.0000 18.9620 0.0000 1.4531
# 5 -9.1858 0.5542 10.5646 0.0000 25.8338 0.0000
# 6 0.0000 0.0000 0.0000 1.4531 0.0000 15.1310
#
#
#
# Elastic Compliance Matrix: (Units=1/GPa)
#
#
# Indices 1 2 3 4 5 6 
#
# 1 0.037679 -0.007461 -0.017547 0.000000 0.020733 0.000000
# 2 -0.007461 0.013347 -0.002870 0.000000 -0.001766 0.000000
# 3 -0.017547 -0.002870 0.023574 0.000000 -0.015818 0.000000
# 4 0.000000 0.000000 0.000000 0.053128 0.000000 -0.005102
# 5 0.020733 -0.001766 -0.015818 0.000000 0.052588 0.000000
# 6 0.000000 0.000000 0.000000 -0.005102 0.000000 0.066580
#
#
# Mechanical properties :
#
#
# Convention : Reuss Voigt Hill
#
# Bulk Modulus (GPa) = 53.07393 57.43945 55.25669
# Shear Modulus (GPa) = 16.18476 20.34893 18.26684
#
# Velocity S-wave (km/s) = 3.10947 3.48662 3.30343
# Velocity P-wave (km/s) = 6.67819 7.10796 6.89642
#
# Compressibility (1/GPa) = 0.01884164
#
# Stress axis : x y z
#
# Youngs Moduli (GPa) = 26.54027 74.92412 42.42047
#
# Poissons Ratio (x) = 0.55902 0.74436
# Poissons Ratio (y) = 0.19802 0.12176
# Poissons Ratio (z) = 0.46570 0.21506
#
# Static dielectric constant tensor:
#      x y z
#    x 3.173130 0.000000 -0.142180 
#    y 0.000000 2.903670 0.000000 
#    z -0.142180 0.000000 3.116830 
# 
# 
# High freq. dielectric constant tensor:
#      x y z
#    x 1.648470 0.000000 -0.016300 
#    y 0.000000 1.635580 0.000000 
#    z -0.016300 0.000000 1.633350 
# 
# From -- ./inp_files/184991.got.cif
#   From: 2010.06.25/outbox.cif.g09.slc.cpg/sg12_93_cif.got.tgz:184991.got - 2010.06.28 00:19:55.
