data_PCOD8082046
_publ_section_title
;
Structure prediction by ZEFSAII (Michael W. Deem and Ramdas Pophale) SiO2 
 PCOD8082046
Probable space group: C 2/M
;
_chemical_formula_sum "Si O2"
_cell_formula_units_Z 56
_cell_length_a 24.148116
_cell_length_b 8.780953
_cell_length_c 23.120884
_cell_angle_alpha 90.000000
_cell_angle_beta 135.676258
_cell_angle_gamma 90.000000
_cell_volume 3425.527144
_symmetry_space_group_name_H-M "C 2/M"
_symmetry_group_IT_number 12
_symmetry_cell_setting 'monoclinic'
loop_
_space_group_symop_operation_xyz
x,y,z
-x,y,-z
-x,-y,-z
x,-y,z
1/2+x,1/2+y,z
1/2-x,1/2+y,-z
1/2-x,1/2-y,-z
1/2+x,1/2-y,z
loop_
_atom_site_type_symbol
_atom_site_label
_atom_site_fract_x
_atom_site_fract_y
_atom_site_fract_z
Si Si1 0.908173 0.824274 0.366297
Si Si2 0.523244 0.829207 0.106019
Si Si3 0.733374 0.820714 0.549215
Si Si4 0.253614 0.177458 0.227952
Si Si5 0.172304 0.682307 0.277255
Si Si6 0.375978 0.827421 0.934855
Si Si7 0.913891 0.176166 0.505114
O O1 0.845321 0.720298 0.284699
O O2 0.904579 0.782968 0.431112
O O3 0.996060 0.789975 0.407683
O O4 0.886513 0.000000 0.340324
O O5 0.580912 0.757827 0.198448
O O6 0.575766 0.829083 0.088091
O O7 0.502578 0.000000 0.108750
O O8 0.436330 0.753627 0.028622
O O9 0.750000 0.750000 0.500000
O O10 0.797810 0.752682 0.641142
O O11 0.644151 0.781293 0.501332
O O12 0.744080 0.000000 0.554608
O O13 0.228294 0.266924 0.266573
O O14 0.202377 0.225837 0.133117
O O15 0.243077 0.000000 0.230918
O O16 0.175140 0.500000 0.282246
O O17 0.350949 0.000000 0.932551
O O18 0.891945 0.000000 0.499307
#
# Coordination Sequence:
#
# PCOD8082046 Si02
#       7
#     8   8   8   8   8   8   8
#     4   9  17  30  49  68  90 121 153 187 229 276
#     4   7  12  23  41  59  77 110 152 186 219 264
#     4  12  24  36  50  69  92 121 155 193 233 273
#     4  11  19  25  38  65  95 122 152 185 223 270
#     4  10  18  31  47  62  85 117 154 193 230 271
#     4   8  13  24  39  56  81 116 152 182 217 264
#     4   9  18  33  51  69  88 116 154 192 232 274
#
# _framework density 16.347849
#
# number of rings (size 3 to 8) (size 9 to 14) (size 15 to 20)
#    0.000    2.571    1.429    5.571    0.000    0.571 
#    0.000    7.857    0.000    0.000    0.000    0.000 
#    0.000    1.143    0.000    3.429    0.000    4.857 
#
# Total GULP energy -346884.030103 kJ/mol
# GULP energy per Si atom -12388.715361 kJ/mol
# Density = 1.631064 g / cm^3
# Si number density = 16.347849 Si / 1000 Ang^3
#
#
#
# Elastic Constant Matrix: (Units=GPa)
#
#
# Indices 1 2 3 4 5 6 
#
# 1 45.4627 26.6586 42.3564 0.0000 2.9369 0.0000
# 2 26.6586 87.2378 52.1676 0.0000 6.4214 0.0000
# 3 42.3564 52.1676 158.7794 0.0000 22.8096 0.0000
# 4 0.0000 0.0000 0.0000 14.5803 0.0000 0.1279
# 5 2.9369 6.4214 22.8096 0.0000 17.3758 0.0000
# 6 0.0000 0.0000 0.0000 0.1279 0.0000 17.4379
#
#
#
# Elastic Compliance Matrix: (Units=1/GPa)
#
#
# Indices 1 2 3 4 5 6 
#
# 1 0.032022 -0.005718 -0.007628 0.000000 0.006714 0.000000
# 2 -0.005718 0.015303 -0.003486 0.000000 -0.000112 0.000000
# 3 -0.007628 -0.003486 0.011225 0.000000 -0.012157 0.000000
# 4 0.000000 0.000000 0.000000 0.068590 0.000000 -0.000503
# 5 0.006714 -0.000112 -0.012157 0.000000 0.072417 0.000000
# 6 0.000000 0.000000 0.000000 -0.000503 0.000000 0.057350
#
#
# Mechanical properties :
#
#
# Convention : Reuss Voigt Hill
#
# Bulk Modulus (GPa) = 40.18485 59.31612 49.75049
# Shear Modulus (GPa) = 16.72976 21.23197 18.98087
#
# Velocity S-wave (km/s) = 3.20247 3.60774 3.41113
# Velocity P-wave (km/s) = 6.18942 7.32918 6.78328
#
# Compressibility (1/GPa) = 0.02488500
#
# Stress axis : x y z
#
# Youngs Moduli (GPa) = 31.22819 65.34464 89.08727
#
# Poissons Ratio (x) = 0.37365 0.67958
# Poissons Ratio (y) = 0.17857 0.31060
# Poissons Ratio (z) = 0.23821 0.22782
#
# Static dielectric constant tensor:
#      x y z
#    x 2.612750 0.000000 0.285720 
#    y 0.000000 2.954780 0.000000 
#    z 0.285720 0.000000 3.785250 
# 
# 
# High freq. dielectric constant tensor:
#      x y z
#    x 1.558970 0.000000 0.029440 
#    y 0.000000 1.616630 0.000000 
#    z 0.029440 0.000000 1.650680 
# 
# From -- ./inp_files/348628.got.cif
#   From: 2010.06.25/outbox.cif.g09.slc.cpg/sg12_175_cif.got.tgz:348628.got - 2010.06.28 00:19:55.
