data_PCOD8082717
_publ_section_title
;
Structure prediction by ZEFSAII (Michael W. Deem and Ramdas Pophale) SiO2 
 PCOD8082717
Probable space group: C 2/M
;
_chemical_formula_sum "Si O2"
_cell_formula_units_Z 56
_cell_length_a 26.693283
_cell_length_b 12.151265
_cell_length_c 10.062768
_cell_angle_alpha 90.000000
_cell_angle_beta 110.975394
_cell_angle_gamma 90.000000
_cell_volume 3047.643961
_symmetry_space_group_name_H-M "C 2/M"
_symmetry_group_IT_number 12
_symmetry_cell_setting 'monoclinic'
loop_
_space_group_symop_operation_xyz
x,y,z
-x,y,-z
-x,-y,-z
x,-y,z
1/2+x,1/2+y,z
1/2-x,1/2+y,-z
1/2-x,1/2-y,-z
1/2+x,1/2-y,z
loop_
_atom_site_type_symbol
_atom_site_label
_atom_site_fract_x
_atom_site_fract_y
_atom_site_fract_z
Si Si1 0.272636 0.874610 0.784641
Si Si2 0.059694 0.375250 0.953229
Si Si3 0.549304 0.799788 0.225947
Si Si4 0.338240 0.124736 0.599421
Si Si5 0.336554 0.274405 0.353275
Si Si6 0.831920 0.372530 0.092524
Si Si7 0.448847 0.370151 0.543437
O O1 0.308829 0.823170 0.700811
O O2 0.209239 0.867346 0.698473
O O3 0.291127 0.000000 0.808585
O O4 0.289543 0.824949 0.943897
O O5 0.060911 0.500000 0.012378
O O6 0.109319 0.352290 0.908083
O O7 0.007609 0.360356 0.810002
O O8 0.058976 0.288128 0.075467
O O9 0.597336 0.873855 0.328105
O O10 0.547175 0.685186 0.306500
O O11 0.320563 0.200709 0.462520
O O12 0.319297 0.000000 0.554462
O O13 0.328563 0.197836 0.220163
O O14 0.395114 0.329306 0.417146
O O15 0.821450 0.500000 0.118527
O O16 0.500000 0.339181 0.500000
O O17 0.445633 0.500000 0.564282
#
# Coordination Sequence:
#
# PCOD8082717 Si02
#       7
#     8   8   8   8   8   8   8
#     4  10  20  35  53  74 103 142 180 213 260 314
#     4  10  18  31  54  83 112 139 168 206 263 323
#     4  10  18  31  55  80 102 137 176 207 254 316
#     4  10  19  33  52  79 110 137 171 215 264 317
#     4  11  21  34  55  79 102 139 180 220 261 306
#     4  10  20  34  53  80 111 138 170 215 263 315
#     4  10  22  39  55  73 102 139 180 221 262 306
#
# _framework density 18.374851
#
# number of rings (size 3 to 8) (size 9 to 14) (size 15 to 20)
#    0.000    1.857    1.429    4.286    0.000    0.000 
#    0.000    1.429    0.000   11.571    0.000    0.000 
#    0.000    0.000    0.000    0.000    0.000    0.000 
#
# Total GULP energy -347018.149312 kJ/mol
# GULP energy per Si atom -12393.505333 kJ/mol
# Density = 1.833303 g / cm^3
# Si number density = 18.374851 Si / 1000 Ang^3
#
#
#
# Elastic Constant Matrix: (Units=GPa)
#
#
# Indices 1 2 3 4 5 6 
#
# 1 93.9161 31.1522 50.8200 0.0000 11.4688 0.0000
# 2 31.1522 65.3926 42.3276 0.0000 -11.2391 0.0000
# 3 50.8200 42.3276 124.5949 0.0000 -4.0846 0.0000
# 4 0.0000 0.0000 0.0000 27.9938 0.0000 -1.4620
# 5 11.4688 -11.2391 -4.0846 0.0000 33.8231 0.0000
# 6 0.0000 0.0000 0.0000 -1.4620 0.0000 27.1040
#
#
#
# Elastic Compliance Matrix: (Units=1/GPa)
#
#
# Indices 1 2 3 4 5 6 
#
# 1 0.016250 -0.005985 -0.004860 0.000000 -0.008086 0.000000
# 2 -0.005985 0.022981 -0.005069 0.000000 0.009054 0.000000
# 3 -0.004860 -0.005069 0.011776 0.000000 0.001386 0.000000
# 4 0.000000 0.000000 0.000000 0.035823 0.000000 0.001932
# 5 -0.008086 0.009054 0.001386 0.000000 0.035483 0.000000
# 6 0.000000 0.000000 0.000000 0.001932 0.000000 0.036999
#
#
# Mechanical properties :
#
#
# Convention : Reuss Voigt Hill
#
# Bulk Modulus (GPa) = 52.14229 59.16702 55.65466
# Shear Modulus (GPa) = 25.31212 28.42444 26.86828
#
# Velocity S-wave (km/s) = 3.71555 3.93736 3.82806
# Velocity P-wave (km/s) = 6.84439 7.27601 7.06350
#
# Compressibility (1/GPa) = 0.01917829
#
# Stress axis : x y z
#
# Youngs Moduli (GPa) = 61.53672 43.51469 84.92046
#
# Poissons Ratio (x) = 0.26046 0.41271
# Poissons Ratio (y) = 0.36833 0.43045
# Poissons Ratio (z) = 0.29906 0.22057
#
# Static dielectric constant tensor:
#      x y z
#    x 3.522160 0.000000 0.093550 
#    y 0.000000 3.141330 0.000000 
#    z 0.093550 0.000000 3.547630 
# 
# 
# High freq. dielectric constant tensor:
#      x y z
#    x 1.725900 0.000000 0.007360 
#    y 0.000000 1.683310 0.000000 
#    z 0.007360 0.000000 1.721590 
# 
# From -- ./inp_files/103156.got.cif
#   From: 2010.06.25/outbox.cif.g09.slc.cpg/sg12_52_cif.got.tgz:103156.got - 2010.06.28 00:19:55.
