data_PCOD8082802
_publ_section_title
;
Structure prediction by ZEFSAII (Michael W. Deem and Ramdas Pophale) SiO2 
 PCOD8082802
Probable space group: C 2/M
;
_chemical_formula_sum "Si O2"
_cell_formula_units_Z 64
_cell_length_a 15.513186
_cell_length_b 8.895565
_cell_length_c 25.299630
_cell_angle_alpha 90.000000
_cell_angle_beta 108.772996
_cell_angle_gamma 90.000000
_cell_volume 3305.578186
_symmetry_space_group_name_H-M "C 2/M"
_symmetry_group_IT_number 12
_symmetry_cell_setting 'monoclinic'
loop_
_space_group_symop_operation_xyz
x,y,z
-x,y,-z
-x,-y,-z
x,-y,z
1/2+x,1/2+y,z
1/2-x,1/2+y,-z
1/2-x,1/2-y,-z
1/2+x,1/2-y,z
loop_
_atom_site_type_symbol
_atom_site_label
_atom_site_fract_x
_atom_site_fract_y
_atom_site_fract_z
Si Si1 0.973145 0.177039 0.250984
Si Si2 0.162034 0.172349 0.125008
Si Si3 0.596505 0.320632 0.370162
Si Si4 0.284105 0.176044 0.364287
Si Si5 0.720233 0.322284 0.939808
Si Si6 0.207622 0.329050 0.753632
Si Si7 0.476112 0.678346 0.134763
Si Si8 0.480129 0.177433 0.436099
O O1 0.869745 0.215906 0.243641
O O2 0.995628 0.244059 0.197342
O O3 0.039416 0.243759 0.308926
O O4 0.984710 0.000000 0.252323
O O5 0.209238 0.278562 0.091924
O O6 0.206381 0.189670 0.191381
O O7 0.057111 0.224985 0.110898
O O8 0.168215 0.000000 0.106485
O O9 0.590533 0.500000 0.371454
O O10 0.700688 0.263581 0.383636
O O11 0.558042 0.252812 0.416352
O O12 0.261106 0.214853 0.299069
O O13 0.381157 0.245755 0.400882
O O14 0.291101 0.000000 0.374526
O O15 0.719614 0.500000 0.945896
O O16 0.619916 0.258993 0.905767
O O17 0.750000 0.250000 0.000000
O O18 0.170096 0.500000 0.747545
O O19 0.470587 0.500000 0.137843
O O20 0.500000 0.221642 0.500000
O O21 0.484295 0.000000 0.427505
#
# Coordination Sequence:
#
# PCOD8082802 Si02
#       8
#     8   8   8   8   8   8   8   8
#     4  10  18  32  55  82 110 139 175 216 266 321
#     4  10  20  36  59  85 108 139 183 221 262 321
#     4  10  20  34  56  81 106 140 180 224 265 315
#     4   9  18  34  54  78 109 143 178 215 268 325
#     4  11  23  40  59  80 109 145 182 224 269 311
#     4  10  18  31  56  83 109 141 174 215 267 323
#     4   9  19  36  58  81 110 145 177 214 265 325
#     4  10  21  37  55  75 105 144 182 223 271 321
#
# _framework density 19.361211999999998
#
# number of rings (size 3 to 8) (size 9 to 14) (size 15 to 20)
#    0.000    2.125    2.500    1.125    0.000    4.250 
#    0.000    5.625    0.000    3.000    0.000    0.000 
#    0.000    0.000    0.000    0.000    0.000    0.000 
#
# Total GULP energy -396766.847792 kJ/mol
# GULP energy per Si atom -12398.963993 kJ/mol
# Density = 1.931715 g / cm^3
# Si number density = 19.361212 Si / 1000 Ang^3
#
#
#
# Elastic Constant Matrix: (Units=GPa)
#
#
# Indices 1 2 3 4 5 6 
#
# 1 153.9900 20.0583 57.8067 0.0000 -12.6295 0.0000
# 2 20.0583 25.1250 27.3404 0.0000 -4.2894 0.0000
# 3 57.8067 27.3404 126.2269 0.0000 -13.9212 0.0000
# 4 0.0000 0.0000 0.0000 21.7347 0.0000 -4.3620
# 5 -12.6295 -4.2894 -13.9212 0.0000 19.2063 0.0000
# 6 0.0000 0.0000 0.0000 -4.3620 0.0000 27.2947
#
#
#
# Elastic Compliance Matrix: (Units=1/GPa)
#
#
# Indices 1 2 3 4 5 6 
#
# 1 0.008152 -0.003023 -0.002784 0.000000 0.002667 0.000000
# 2 -0.003023 0.053446 -0.009885 0.000000 0.002784 0.000000
# 3 -0.002784 -0.009885 0.011839 0.000000 0.004543 0.000000
# 4 0.000000 0.000000 0.000000 0.047534 0.000000 0.007596
# 5 0.002667 0.002784 0.004543 0.000000 0.057735 0.000000
# 6 0.000000 0.000000 0.000000 0.007596 0.000000 0.037851
#
#
# Mechanical properties :
#
#
# Convention : Reuss Voigt Hill
#
# Bulk Modulus (GPa) = 23.77939 57.30583 40.54261
# Shear Modulus (GPa) = 19.08701 26.98957 23.03829
#
# Velocity S-wave (km/s) = 3.14321 3.73768 3.45326
# Velocity P-wave (km/s) = 5.04794 6.94907 6.07335
#
# Compressibility (1/GPa) = 0.04205322
#
# Stress axis : x y z
#
# Youngs Moduli (GPa) = 122.67565 18.71047 84.46382
#
# Poissons Ratio (x) = 0.05656 0.23517
# Poissons Ratio (y) = 0.37081 0.83492
# Poissons Ratio (z) = 0.34156 0.18495
#
# Static dielectric constant tensor:
#      x y z
#    x 3.798430 0.000000 0.098720 
#    y 0.000000 3.194140 0.000000 
#    z 0.098720 0.000000 3.681440 
# 
# 
# High freq. dielectric constant tensor:
#      x y z
#    x 1.766280 0.000000 -0.000220 
#    y 0.000000 1.713900 0.000000 
#    z -0.000220 0.000000 1.758180 
# 
# From -- ./inp_files/359957.got.cif
#   From: 2010.06.25/outbox.cif.g09.slc.cpg/sg12_180_cif.got.tgz:359957.got - 2010.06.28 00:19:55.
