data_PCOD8082209
_publ_section_title
;
Structure prediction by ZEFSAII (Michael W. Deem and Ramdas Pophale) SiO2 
 PCOD8082209
Probable space group: C 2/M
;
_chemical_formula_sum "Si O2"
_cell_formula_units_Z 64
_cell_length_a 18.282535
_cell_length_b 10.251611
_cell_length_c 28.321678
_cell_angle_alpha 90.000000
_cell_angle_beta 139.689189
_cell_angle_gamma 90.000000
_cell_volume 3434.055187
_symmetry_space_group_name_H-M "C 2/M"
_symmetry_group_IT_number 12
_symmetry_cell_setting 'monoclinic'
loop_
_space_group_symop_operation_xyz
x,y,z
-x,y,-z
-x,-y,-z
x,-y,z
1/2+x,1/2+y,z
1/2-x,1/2+y,-z
1/2-x,1/2-y,-z
1/2+x,1/2-y,z
loop_
_atom_site_type_symbol
_atom_site_label
_atom_site_fract_x
_atom_site_fract_y
_atom_site_fract_z
Si Si1 0.255069 0.853569 0.068709
Si Si2 0.602290 0.852720 0.952306
Si Si3 0.484779 0.235581 0.545211
Si Si4 0.277835 0.649236 0.331039
Si Si5 0.662703 0.152048 0.180706
Si Si6 0.475566 0.145224 0.641361
Si Si7 0.194544 0.650878 0.801349
Si Si8 0.242646 0.345375 0.415731
O O1 0.346937 0.823976 0.074024
O O2 0.321852 0.840250 0.150636
O O3 0.204479 0.000000 0.038587
O O4 0.153010 0.749432 0.014969
O O5 0.470229 0.831863 0.882130
O O6 0.630150 0.000000 0.983149
O O7 0.500000 0.170826 0.500000
O O8 0.586113 0.338264 0.602093
O O9 0.491781 0.136419 0.592613
O O10 0.365094 0.303716 0.494438
O O11 0.244384 0.500000 0.313276
O O12 0.218452 0.711177 0.256114
O O13 0.227149 0.709717 0.354595
O O14 0.704129 0.249779 0.160457
O O15 0.696781 0.000000 0.187979
O O16 0.583472 0.209271 0.720347
O O17 0.357848 0.213262 0.600665
O O18 0.470104 0.000000 0.658750
O O19 0.220477 0.500000 0.798823
O O20 0.242623 0.500000 0.416292
#
# Coordination Sequence:
#
# PCOD8082209 Si02
#       8
#     8   8   8   8   8   8   8   8
#     4   9  19  36  57  81 106 140 178 214 258 309
#     4   9  19  35  57  83 109 136 173 219 262 309
#     4  10  18  31  50  72  99 132 168 210 262 314
#     4   9  17  30  49  74 101 128 165 213 263 308
#     4  10  20  34  54  80 107 138 174 215 264 313
#     4  10  20  33  48  71 101 136 176 215 257 306
#     4  10  21  36  54  76 107 143 179 216 257 311
#     4   9  18  30  50  75  97 127 169 221 264 304
#
# _framework density 18.636859000000001
#
# number of rings (size 3 to 8) (size 9 to 14) (size 15 to 20)
#    0.000    2.500    1.250    0.750    1.750    3.250 
#    0.000    2.500    0.000    0.000    0.000    0.000 
#    0.000    0.000    0.000    0.000    0.000    0.000 
#
# Total GULP energy -396489.144989 kJ/mol
# GULP energy per Si atom -12390.285781 kJ/mol
# Density = 1.859444 g / cm^3
# Si number density = 18.636859 Si / 1000 Ang^3
#
#
#
# Elastic Constant Matrix: (Units=GPa)
#
#
# Indices 1 2 3 4 5 6 
#
# 1 98.6319 36.5430 52.9563 0.0000 -1.0757 0.0000
# 2 36.5430 61.0557 39.1101 0.0000 4.0254 0.0000
# 3 52.9563 39.1101 109.3170 0.0000 0.7870 0.0000
# 4 0.0000 0.0000 0.0000 21.1626 0.0000 -3.1705
# 5 -1.0757 4.0254 0.7870 0.0000 31.7457 0.0000
# 6 0.0000 0.0000 0.0000 -3.1705 0.0000 20.0336
#
#
#
# Elastic Compliance Matrix: (Units=1/GPa)
#
#
# Indices 1 2 3 4 5 6 
#
# 1 0.015120 -0.005762 -0.005273 0.000000 0.001374 0.000000
# 2 -0.005762 0.023645 -0.005646 0.000000 -0.003054 0.000000
# 3 -0.005273 -0.005646 0.013720 0.000000 0.000197 0.000000
# 4 0.000000 0.000000 0.000000 0.048401 0.000000 0.007660
# 5 0.001374 -0.003054 0.000197 0.000000 0.031929 0.000000
# 6 0.000000 0.000000 0.000000 0.007660 0.000000 0.051128
#
#
# Mechanical properties :
#
#
# Convention : Reuss Voigt Hill
#
# Bulk Modulus (GPa) = 52.29264 58.46927 55.38095
# Shear Modulus (GPa) = 22.35330 23.94807 23.15069
#
# Velocity S-wave (km/s) = 3.46701 3.58856 3.52831
# Velocity P-wave (km/s) = 6.64429 6.97218 6.81021
#
# Compressibility (1/GPa) = 0.01912315
#
# Stress axis : x y z
#
# Youngs Moduli (GPa) = 66.13925 42.29140 72.88372
#
# Poissons Ratio (x) = 0.24370 0.38429
# Poissons Ratio (y) = 0.38113 0.41151
# Poissons Ratio (z) = 0.34873 0.23878
#
# Static dielectric constant tensor:
#      x y z
#    x 3.620880 0.000000 -0.056760 
#    y 0.000000 3.212390 0.000000 
#    z -0.056760 0.000000 3.497940 
# 
# 
# High freq. dielectric constant tensor:
#      x y z
#    x 1.728220 0.000000 -0.004560 
#    y 0.000000 1.690060 0.000000 
#    z -0.004560 0.000000 1.729170 
# 
# From -- ./inp_files/276573.got.cif
#   From: 2010.06.25/outbox.cif.g09.slc.cpg/sg12_139_cif.got.tgz:276573.got - 2010.06.28 00:19:55.
