data_PCOD8082134
_publ_section_title
;
Structure prediction by ZEFSAII (Michael W. Deem and Ramdas Pophale) SiO2 
 PCOD8082134
Probable space group: C 2/M
;
_chemical_formula_sum "Si O2"
_cell_formula_units_Z 44
_cell_length_a 13.029394
_cell_length_b 29.466586
_cell_length_c 10.478216
_cell_angle_alpha 90.000000
_cell_angle_beta 35.943815
_cell_angle_gamma 90.000000
_cell_volume 2361.420337
_symmetry_space_group_name_H-M "C 2/M"
_symmetry_group_IT_number 12
_symmetry_cell_setting 'monoclinic'
loop_
_space_group_symop_operation_xyz
x,y,z
-x,y,-z
-x,-y,-z
x,-y,z
1/2+x,1/2+y,z
1/2-x,1/2+y,-z
1/2-x,1/2-y,-z
1/2+x,1/2-y,z
loop_
_atom_site_type_symbol
_atom_site_label
_atom_site_fract_x
_atom_site_fract_y
_atom_site_fract_z
Si Si1 0.703533 0.885157 0.141793
Si Si2 0.782346 0.786924 0.361965
Si Si3 0.864831 0.205714 0.891125
Si Si4 0.493050 0.449304 0.158827
Si Si5 0.187970 0.384690 0.456749
Si Si6 0.000000 0.237663 0.500000
O O1 0.725828 0.877601 0.269287
O O2 0.506217 0.901602 0.312670
O O3 0.745107 0.838512 0.026790
O O4 0.833756 0.924501 0.962450
O O5 0.750000 0.750000 0.500000
O O6 0.714645 0.834739 0.487320
O O7 0.670421 0.771081 0.350073
O O8 0.994101 0.791565 0.133663
O O9 0.967274 0.204508 0.652583
O O10 0.750000 0.250000 0.000000
O O11 0.484182 0.500000 0.225543
O O12 0.323049 0.421421 0.377103
O O13 0.500000 0.451926 0.000000
#
# Coordination Sequence:
#
# PCOD8082134 Si02
#       6
#     8   8   8   8   8   4
#     4  10  19  31  50  72 101 138 171 207 261 316
#     4  10  19  33  49  71 104 137 175 212 250 307
#     4  11  21  33  51  74 104 143 178 215 260 311
#     4   9  18  31  48  73 102 134 173 214 259 311
#     4  10  18  31  49  72 102 136 171 208 257 312
#     4  10  22  34  48  74 104 140 180 218 258 304
#
# _framework density 18.632854999999999
#
# number of rings (size 3 to 8) (size 9 to 14) (size 15 to 20)
#    0.000    2.000    1.818    4.364    0.000    2.909 
#    0.000    3.636    0.000    0.000    0.000    0.636 
#    0.000    1.455    0.000    0.000    0.000    0.000 
#
# Total GULP energy -272669.391655 kJ/mol
# GULP energy per Si atom -12394.063257 kJ/mol
# Density = 1.859045 g / cm^3
# Si number density = 18.632855 Si / 1000 Ang^3
#
#
#
# Elastic Constant Matrix: (Units=GPa)
#
#
# Indices 1 2 3 4 5 6 
#
# 1 69.2687 35.0011 40.6489 0.0000 -28.5159 0.0000
# 2 35.0011 161.5467 56.1205 0.0000 -24.6357 0.0000
# 3 40.6489 56.1205 98.2164 0.0000 -37.5247 0.0000
# 4 0.0000 0.0000 0.0000 26.1970 0.0000 -6.9201
# 5 -28.5159 -24.6357 -37.5247 0.0000 38.6827 0.0000
# 6 0.0000 0.0000 0.0000 -6.9201 0.0000 22.3539
#
#
#
# Elastic Compliance Matrix: (Units=1/GPa)
#
#
# Indices 1 2 3 4 5 6 
#
# 1 0.022355 -0.001744 -0.003787 0.000000 0.011695 0.000000
# 2 -0.001744 0.007884 -0.003743 0.000000 0.000104 0.000000
# 3 -0.003787 -0.003743 0.018924 0.000000 0.013182 0.000000
# 4 0.000000 0.000000 0.000000 0.041572 0.000000 0.012869
# 5 0.011695 0.000104 0.013182 0.000000 0.047326 0.000000
# 6 0.000000 0.000000 0.000000 0.012869 0.000000 0.048719
#
#
# Mechanical properties :
#
#
# Convention : Reuss Voigt Hill
#
# Bulk Modulus (GPa) = 32.66539 65.84142 49.25341
# Shear Modulus (GPa) = 23.19815 30.59746 26.89780
#
# Velocity S-wave (km/s) = 3.53230 4.05671 3.80355
# Velocity P-wave (km/s) = 5.84853 7.57334 6.76612
#
# Compressibility (1/GPa) = 0.03061344
#
# Stress axis : x y z
#
# Youngs Moduli (GPa) = 44.73329 126.83253 52.84227
#
# Poissons Ratio (x) = 0.22124 0.20012
# Poissons Ratio (y) = 0.07803 0.19781
# Poissons Ratio (z) = 0.16941 0.47479
#
# Static dielectric constant tensor:
#      x y z
#    x 3.888900 0.000000 -0.803270 
#    y 0.000000 3.507900 0.000000 
#    z -0.803270 0.000000 4.007460 
# 
# 
# High freq. dielectric constant tensor:
#      x y z
#    x 1.691310 0.000000 -0.041610 
#    y 0.000000 1.715280 0.000000 
#    z -0.041610 0.000000 1.719120 
# 
# From -- ./inp_files/150077.got.cif
#   From: 2010.06.25/outbox.cif.g09.slc.cpg/sg12_76_cif.got.tgz:150077.got - 2010.06.28 00:19:55.
