data_PCOD8082097
_publ_section_title
;
Structure prediction by ZEFSAII (Michael W. Deem and Ramdas Pophale) SiO2 
 PCOD8082097
Probable space group: C 2/M
;
_chemical_formula_sum "Si O2"
_cell_formula_units_Z 48
_cell_length_a 18.690006
_cell_length_b 18.778763
_cell_length_c 11.937950
_cell_angle_alpha 90.000000
_cell_angle_beta 43.349407
_cell_angle_gamma 90.000000
_cell_volume 2876.155386
_symmetry_space_group_name_H-M "C 2/M"
_symmetry_group_IT_number 12
_symmetry_cell_setting 'monoclinic'
loop_
_space_group_symop_operation_xyz
x,y,z
-x,y,-z
-x,-y,-z
x,-y,z
1/2+x,1/2+y,z
1/2-x,1/2+y,-z
1/2-x,1/2-y,-z
1/2+x,1/2-y,z
loop_
_atom_site_type_symbol
_atom_site_label
_atom_site_fract_x
_atom_site_fract_y
_atom_site_fract_z
Si Si1 0.631041 0.916683 0.031108
Si Si2 0.110860 0.266423 0.419140
Si Si3 0.255541 0.823835 0.926339
Si Si4 0.300849 0.172287 0.239007
Si Si5 0.439583 0.706665 0.967289
Si Si6 0.934394 0.679668 0.293031
O O1 0.711994 0.887885 0.030979
O O2 0.518455 0.881916 0.178068
O O3 0.618230 0.000000 0.060138
O O4 0.679101 0.900019 0.853632
O O5 0.161316 0.316442 0.267418
O O6 0.180907 0.197223 0.367899
O O7 0.100928 0.317307 0.538405
O O8 0.000000 0.238481 0.500000
O O9 0.140993 0.843833 0.007216
O O10 0.250000 0.750000 0.000000
O O11 0.374158 0.230519 0.098579
O O12 0.333949 0.161748 0.330431
O O13 0.500000 0.665675 0.000000
O O14 0.519666 0.742285 0.789072
#
# Coordination Sequence:
#
# PCOD8082097 Si02
#       6
#     8   8   8   8   8   8
#     4  11  21  34  54  78 106 142 176 210 257 320
#     4  11  18  29  52  78 104 132 167 220 267 296
#     4  11  17  33  51  73 105 137 177 216 256 306
#     4   9  19  31  49  74 106 136 174 211 251 309
#     4   8  15  28  49  72  98 129 171 220 254 293
#     4  10  18  31  48  79 104 132 170 213 266 306
#
# _framework density 16.688946999999999
#
# number of rings (size 3 to 8) (size 9 to 14) (size 15 to 20)
#    0.000    2.000    6.667    2.000    0.000    1.333 
#    0.000    1.667    0.000    1.000    0.000    0.000 
#    0.000    0.000    0.000    0.000    0.000    0.000 
#
# Total GULP energy -297512.316299 kJ/mol
# GULP energy per Si atom -12396.346512 kJ/mol
# Density = 1.665096 g / cm^3
# Si number density = 16.688947 Si / 1000 Ang^3
#
#
#
# Elastic Constant Matrix: (Units=GPa)
#
#
# Indices 1 2 3 4 5 6 
#
# 1 155.0952 34.9595 49.0442 0.0000 0.6630 0.0000
# 2 34.9595 62.5135 29.4541 0.0000 1.8657 0.0000
# 3 49.0442 29.4541 90.4752 0.0000 11.5970 0.0000
# 4 0.0000 0.0000 0.0000 11.8695 0.0000 0.9551
# 5 0.6630 1.8657 11.5970 0.0000 29.2730 0.0000
# 6 0.0000 0.0000 0.0000 0.9551 0.0000 14.8943
#
#
#
# Elastic Compliance Matrix: (Units=1/GPa)
#
#
# Indices 1 2 3 4 5 6 
#
# 1 0.008277 -0.002917 -0.003726 0.000000 0.001475 0.000000
# 2 -0.002917 0.019970 -0.005020 0.000000 0.000782 0.000000
# 3 -0.003726 -0.005020 0.015439 0.000000 -0.005712 0.000000
# 4 0.000000 0.000000 0.000000 0.084686 0.000000 -0.005431
# 5 0.001475 0.000782 -0.005712 0.000000 0.036341 0.000000
# 6 0.000000 0.000000 0.000000 -0.005431 0.000000 0.067488
#
#
# Mechanical properties :
#
#
# Convention : Reuss Voigt Hill
#
# Bulk Modulus (GPa) = 49.11782 59.44438 54.28110
# Shear Modulus (GPa) = 19.06106 24.18243 21.62174
#
# Velocity S-wave (km/s) = 3.38322 3.81071 3.60331
# Velocity P-wave (km/s) = 6.69005 7.42013 7.06453
#
# Compressibility (1/GPa) = 0.02035921
#
# Stress axis : x y z
#
# Youngs Moduli (GPa) = 120.81374 50.07537 64.77084
#
# Poissons Ratio (x) = 0.14608 0.24135
# Poissons Ratio (y) = 0.35244 0.32515
# Poissons Ratio (z) = 0.45017 0.25138
#
# Static dielectric constant tensor:
#      x y z
#    x 4.138800 0.000000 0.059420 
#    y 0.000000 2.552990 0.000000 
#    z 0.059420 0.000000 3.202540 
# 
# 
# High freq. dielectric constant tensor:
#      x y z
#    x 1.675390 0.000000 0.007460 
#    y 0.000000 1.567520 0.000000 
#    z 0.007460 0.000000 1.641220 
# 
# From -- ./inp_files/146532.got.cif
#   From: 2010.06.25/outbox.cif.g09.slc.cpg/sg12_74_cif.got.tgz:146532.got - 2010.06.28 00:19:55.
