data_PCOD8082710
_publ_section_title
;
Structure prediction by ZEFSAII (Michael W. Deem and Ramdas Pophale) SiO2 
 PCOD8082710
Probable space group: C 2/M
;
_chemical_formula_sum "Si O2"
_cell_formula_units_Z 56
_cell_length_a 24.847597
_cell_length_b 8.746961
_cell_length_c 15.157169
_cell_angle_alpha 90.000000
_cell_angle_beta 105.361811
_cell_angle_gamma 90.000000
_cell_volume 3176.576504
_symmetry_space_group_name_H-M "C 2/M"
_symmetry_group_IT_number 12
_symmetry_cell_setting 'monoclinic'
loop_
_space_group_symop_operation_xyz
x,y,z
-x,y,-z
-x,-y,-z
x,-y,z
1/2+x,1/2+y,z
1/2-x,1/2+y,-z
1/2-x,1/2-y,-z
1/2+x,1/2-y,z
loop_
_atom_site_type_symbol
_atom_site_label
_atom_site_fract_x
_atom_site_fract_y
_atom_site_fract_z
Si Si1 0.077064 0.681420 0.599074
Si Si2 0.430640 0.823563 0.099709
Si Si3 0.443815 0.178747 0.789475
Si Si4 0.239410 0.320450 0.090399
Si Si5 0.623394 0.678227 0.086846
Si Si6 0.957056 0.318933 0.601048
Si Si7 0.344309 0.820483 0.216291
O O1 0.075013 0.500000 0.607083
O O2 0.082963 0.730615 0.498394
O O3 0.128833 0.740432 0.680199
O O4 0.019092 0.748834 0.612343
O O5 0.491993 0.786806 0.160953
O O6 0.386439 0.780613 0.155641
O O7 0.424842 0.000000 0.069505
O O8 0.419486 0.721645 0.009175
O O9 0.403768 0.279882 0.831818
O O10 0.432429 0.235165 0.684023
O O11 0.430176 0.000000 0.796934
O O12 0.240211 0.500000 0.079468
O O13 0.180301 0.270650 0.102515
O O14 0.286861 0.269047 0.179268
O O15 0.250000 0.250000 0.000000
O O16 0.636755 0.500000 0.088911
O O17 0.962953 0.500000 0.606199
O O18 0.331503 0.000000 0.213493
#
# Coordination Sequence:
#
# PCOD8082710 Si02
#       7
#     8   8   8   8   8   8   8
#     4   8  13  24  47  81 112 137 169 210 254 305
#     4  10  19  32  52  78 109 144 176 210 258 314
#     4  10  19  33  53  79 110 146 179 213 258 312
#     4  12  24  39  57  77 101 135 176 222 265 312
#     4  12  25  38  52  73 103 143 183 223 263 309
#     4   8  13  24  47  79 111 139 171 209 252 304
#     4  10  18  31  54  82 111 140 171 212 259 308
#
# _framework density 17.629041999999998
#
# number of rings (size 3 to 8) (size 9 to 14) (size 15 to 20)
#    0.000    2.000    2.857    3.857    0.000    2.286 
#    0.000    0.000    0.000    1.714    0.000    2.000 
#    0.000    0.000    0.000    0.000    0.000    0.000 
#
# Total GULP energy -347144.445288 kJ/mol
# GULP energy per Si atom -12398.015903 kJ/mol
# Density = 1.758892 g / cm^3
# Si number density = 17.629042 Si / 1000 Ang^3
#
#
#
# Elastic Constant Matrix: (Units=GPa)
#
#
# Indices 1 2 3 4 5 6 
#
# 1 64.4844 22.5409 45.9023 0.0000 -1.8782 0.0000
# 2 22.5409 62.8804 38.0966 0.0000 -0.0253 0.0000
# 3 45.9023 38.0966 157.0279 0.0000 0.6266 0.0000
# 4 0.0000 0.0000 0.0000 11.6055 0.0000 2.3760
# 5 -1.8782 -0.0253 0.6266 0.0000 25.5960 0.0000
# 6 0.0000 0.0000 0.0000 2.3760 0.0000 23.5229
#
#
#
# Elastic Compliance Matrix: (Units=1/GPa)
#
#
# Indices 1 2 3 4 5 6 
#
# 1 0.020626 -0.004380 -0.004973 0.000000 0.001631 0.000000
# 2 -0.004380 0.019574 -0.003468 0.000000 -0.000217 0.000000
# 3 -0.004973 -0.003468 0.008666 0.000000 -0.000581 0.000000
# 4 0.000000 0.000000 0.000000 0.087986 0.000000 -0.008887
# 5 0.001631 -0.000217 -0.000581 0.000000 0.039202 0.000000
# 6 0.000000 0.000000 0.000000 -0.008887 0.000000 0.043409
#
#
# Mechanical properties :
#
#
# Convention : Reuss Voigt Hill
#
# Bulk Modulus (GPa) = 43.05889 55.27470 49.16679
# Shear Modulus (GPa) = 19.77476 24.00175 21.88825
#
# Velocity S-wave (km/s) = 3.35283 3.69384 3.52746
# Velocity P-wave (km/s) = 6.28225 7.04379 6.67389
#
# Compressibility (1/GPa) = 0.02322401
#
# Stress axis : x y z
#
# Youngs Moduli (GPa) = 48.48140 51.08768 115.39759
#
# Poissons Ratio (x) = 0.22378 0.57391
# Poissons Ratio (y) = 0.21236 0.40015
# Poissons Ratio (z) = 0.24111 0.17715
#
# Static dielectric constant tensor:
#      x y z
#    x 3.281220 0.000000 0.039430 
#    y 0.000000 2.989950 0.000000 
#    z 0.039430 0.000000 3.675760 
# 
# 
# High freq. dielectric constant tensor:
#      x y z
#    x 1.662970 0.000000 0.002680 
#    y 0.000000 1.651080 0.000000 
#    z 0.002680 0.000000 1.692510 
# 
# From -- ./inp_files/243230.got.cif
#   From: 2010.06.25/outbox.cif.g09.slc.cpg/sg12_122_cif.got.tgz:243230.got - 2010.06.28 00:19:55.
