data_PCOD8082386
_publ_section_title
;
Structure prediction by ZEFSAII (Michael W. Deem and Ramdas Pophale) SiO2 
 PCOD8082386
Probable space group: C 2/M
;
_chemical_formula_sum "Si O2"
_cell_formula_units_Z 64
_cell_length_a 24.895670
_cell_length_b 9.106301
_cell_length_c 19.222032
_cell_angle_alpha 90.000000
_cell_angle_beta 64.004950
_cell_angle_gamma 90.000000
_cell_volume 3916.910072
_symmetry_space_group_name_H-M "C 2/M"
_symmetry_group_IT_number 12
_symmetry_cell_setting 'monoclinic'
loop_
_space_group_symop_operation_xyz
x,y,z
-x,y,-z
-x,-y,-z
x,-y,z
1/2+x,1/2+y,z
1/2-x,1/2+y,-z
1/2-x,1/2-y,-z
1/2+x,1/2-y,z
loop_
_atom_site_type_symbol
_atom_site_label
_atom_site_fract_x
_atom_site_fract_y
_atom_site_fract_z
Si Si1 0.199595 0.672929 0.073019
Si Si2 0.754490 0.826122 0.182035
Si Si3 0.690855 0.827616 0.506589
Si Si4 0.038911 0.170007 0.820220
Si Si5 0.423275 0.173456 0.926408
Si Si6 0.388394 0.327828 0.083176
Si Si7 0.864638 0.171772 0.346291
Si Si8 0.745961 0.171821 0.338485
O O1 0.208472 0.500000 0.059358
O O2 0.207680 0.722056 0.149062
O O3 0.134776 0.723789 0.084077
O O4 0.250000 0.750000 0.000000
O O5 0.820614 0.768261 0.125144
O O6 0.733689 0.759704 0.268746
O O7 0.757896 0.000000 0.185051
O O8 0.750000 0.750000 0.500000
O O9 0.634597 0.755992 0.579267
O O10 0.690459 0.797559 0.422986
O O11 0.693417 0.000000 0.520726
O O12 0.080109 0.210195 0.862294
O O13 0.074762 0.206141 0.729301
O O14 0.980257 0.269426 0.851799
O O15 0.020255 0.000000 0.833682
O O16 0.426756 0.000000 0.932184
O O17 0.423291 0.243967 0.002695
O O18 0.391082 0.500000 0.065086
O O19 0.808463 0.233267 0.333606
O O20 0.857403 0.000000 0.365463
O O21 0.755789 0.000000 0.323317
#
# Coordination Sequence:
#
# PCOD8082386 Si02
#       8
#     8   8   8   8   8   8   8   8
#     4  10  20  33  50  68  88 118 156 194 237 276
#     4   9  15  27  49  70  87 115 154 195 228 258
#     4   9  16  25  41  65  94 124 149 178 221 274
#     4  10  20  33  50  70  90 122 166 197 220 269
#     4  11  23  34  44  66  98 125 151 192 242 283
#     4  10  18  31  52  70  86 119 165 197 222 268
#     4   9  16  28  45  66  92 118 149 187 225 270
#     4   8  13  24  43  67  91 113 145 187 223 260
#
# _framework density 16.339409
#
# number of rings (size 3 to 8) (size 9 to 14) (size 15 to 20)
#    0.000    2.500    2.500    1.875    0.000    3.000 
#    0.000    0.000    0.000    3.750    0.000    0.875 
#    0.000    7.000    0.000    0.000    0.000    0.000 
#
# Total GULP energy -396608.829712 kJ/mol
# GULP energy per Si atom -12394.025928 kJ/mol
# Density = 1.630222 g / cm^3
# Si number density = 16.339409 Si / 1000 Ang^3
#
#
#
# Elastic Constant Matrix: (Units=GPa)
#
#
# Indices 1 2 3 4 5 6 
#
# 1 64.0909 27.9388 40.2168 0.0000 -5.7013 0.0001
# 2 27.9388 45.7271 43.6648 -0.0001 -3.8296 -0.0004
# 3 40.2168 43.6648 142.0103 0.0000 1.3512 0.0000
# 4 0.0000 -0.0001 0.0000 26.4715 0.0000 -3.5838
# 5 -5.7013 -3.8296 1.3512 0.0000 18.7043 0.0000
# 6 0.0001 -0.0004 0.0000 -3.5838 0.0000 16.6287
#
#
#
# Elastic Compliance Matrix: (Units=1/GPa)
#
#
# Indices 1 2 3 4 5 6 
#
# 1 0.022576 -0.010224 -0.003298 0.000000 0.005026 0.000000
# 2 -0.010224 0.036541 -0.008387 0.000000 0.004971 0.000001
# 3 -0.003298 -0.008387 0.010588 0.000000 -0.003487 0.000000
# 4 0.000000 0.000000 0.000000 0.038912 0.000000 0.008386
# 5 0.005026 0.004971 -0.003487 0.000000 0.056266 0.000000
# 6 0.000000 0.000001 0.000000 0.008386 0.000000 0.061944
#
#
# Mechanical properties :
#
#
# Convention : Reuss Voigt Hill
#
# Bulk Modulus (GPa) = 38.62957 52.82990 45.72973
# Shear Modulus (GPa) = 17.90360 21.69476 19.79918
#
# Velocity S-wave (km/s) = 3.31377 3.64779 3.48479
# Velocity P-wave (km/s) = 6.19151 7.08130 6.65130
#
# Compressibility (1/GPa) = 0.02588691
#
# Stress axis : x y z
#
# Youngs Moduli (GPa) = 44.29469 27.36655 94.44867
#
# Poissons Ratio (x) = 0.27979 0.31146
# Poissons Ratio (y) = 0.45286 0.79218
# Poissons Ratio (z) = 0.14607 0.22954
#
# Static dielectric constant tensor:
#      x y z
#    x 3.033770 0.000000 0.178100 
#    y 0.000000 2.924150 0.000000 
#    z 0.178100 0.000000 3.620130 
# 
# 
# High freq. dielectric constant tensor:
#      x y z
#    x 1.590650 0.000000 0.005710 
#    y 0.000000 1.607970 0.000000 
#    z 0.005710 0.000000 1.642110 
# 
# From -- ./inp_files/323685.got.cif
#   From: 2010.06.25/outbox.cif.g09.slc.cpg/sg12_162_cif.got.tgz:323685.got - 2010.06.28 00:19:55.
