data_PCOD8082861
_publ_section_title
;
Structure prediction by ZEFSAII (Michael W. Deem and Ramdas Pophale) SiO2 
 PCOD8082861
Probable space group: C 2/M
;
_chemical_formula_sum "Si O2"
_cell_formula_units_Z 56
_cell_length_a 28.202860
_cell_length_b 9.775308
_cell_length_c 18.703711
_cell_angle_alpha 90.000000
_cell_angle_beta 143.385950
_cell_angle_gamma 90.000000
_cell_volume 3075.422858
_symmetry_space_group_name_H-M "C 2/M"
_symmetry_group_IT_number 12
_symmetry_cell_setting 'monoclinic'
loop_
_space_group_symop_operation_xyz
x,y,z
-x,y,-z
-x,-y,-z
x,-y,z
1/2+x,1/2+y,z
1/2-x,1/2+y,-z
1/2-x,1/2-y,-z
1/2+x,1/2-y,z
loop_
_atom_site_type_symbol
_atom_site_label
_atom_site_fract_x
_atom_site_fract_y
_atom_site_fract_z
Si Si1 0.739144 0.217180 0.069969
Si Si2 0.014905 0.339335 0.362455
Si Si3 0.449507 0.344901 0.005143
Si Si4 0.092159 0.146327 0.680708
Si Si5 0.438587 0.850903 0.119521
Si Si6 0.268092 0.350398 0.795196
Si Si7 0.138806 0.157285 0.581449
O O1 0.814977 0.129260 0.186032
O O2 0.735537 0.343617 0.122057
O O3 0.750000 0.250000 0.000000
O O4 0.655454 0.140850 0.977812
O O5 0.027566 0.500000 0.396070
O O6 0.094915 0.250167 0.469085
O O7 0.945816 0.278703 0.329232
O O8 0.987368 0.315244 0.249062
O O9 0.475682 0.500000 0.053519
O O10 0.357061 0.335833 0.873789
O O11 0.500000 0.285962 0.000000
O O12 0.467461 0.257946 0.097049
O O13 0.083222 0.161763 0.584463
O O14 0.052323 0.000000 0.655799
O O15 0.463206 0.000000 0.120791
O O16 0.233614 0.500000 0.732710
O O17 0.222320 0.228330 0.700442
O O18 0.152791 0.000000 0.572857
#
# Coordination Sequence:
#
# PCOD8082861 Si02
#       7
#     8   8   8   8   8   8   8
#     4  10  18  32  48  74 107 143 174 216 257 309
#     4  11  22  34  49  71 102 139 179 224 260 301
#     4   9  19  37  60  85 110 135 166 208 261 322
#     4  10  20  32  48  69  97 139 184 222 260 302
#     4  10  21  35  51  79 110 139 176 217 265 314
#     4   9  19  33  54  80 103 134 174 212 256 309
#     4  10  21  36  51  70 100 139 181 222 260 303
#
# _framework density 18.208877999999999
#
# number of rings (size 3 to 8) (size 9 to 14) (size 15 to 20)
#    0.000    2.143    1.429    1.714    0.000   10.571 
#    0.000    0.000    0.000    0.857    0.000    0.000 
#    0.000    0.000    0.000    0.000    0.000    0.000 
#
# Total GULP energy -346973.709122 kJ/mol
# GULP energy per Si atom -12391.918183 kJ/mol
# Density = 1.816743 g / cm^3
# Si number density = 18.208878 Si / 1000 Ang^3
#
#
#
# Elastic Constant Matrix: (Units=GPa)
#
#
# Indices 1 2 3 4 5 6 
#
# 1 83.3799 41.2272 23.9170 0.0000 -0.3030 0.0000
# 2 41.2272 142.5200 56.1815 0.0000 -6.2235 0.0000
# 3 23.9170 56.1815 91.2163 0.0000 -7.4026 0.0000
# 4 0.0000 0.0000 0.0000 25.2751 0.0000 -3.8106
# 5 -0.3030 -6.2235 -7.4026 0.0000 15.8977 0.0000
# 6 0.0000 0.0000 0.0000 -3.8106 0.0000 18.5154
#
#
#
# Elastic Compliance Matrix: (Units=1/GPa)
#
#
# Indices 1 2 3 4 5 6 
#
# 1 0.014219 -0.003520 -0.001715 0.000000 -0.001905 0.000000
# 2 -0.003520 0.010154 -0.005210 0.000000 0.001482 0.000000
# 3 -0.001715 -0.005210 0.015021 0.000000 0.004922 0.000000
# 4 0.000000 0.000000 0.000000 0.040832 0.000000 0.008403
# 5 -0.001905 0.001482 0.004922 0.000000 0.065738 0.000000
# 6 0.000000 0.000000 0.000000 0.008403 0.000000 0.055739
#
#
# Mechanical properties :
#
#
# Convention : Reuss Voigt Hill
#
# Bulk Modulus (GPa) = 54.04614 62.19641 58.12127
# Shear Modulus (GPa) = 21.85695 24.99032 23.42363
#
# Velocity S-wave (km/s) = 3.46836 3.70864 3.59051
# Velocity P-wave (km/s) = 6.76646 7.25052 7.01267
#
# Compressibility (1/GPa) = 0.01850271
#
# Stress axis : x y z
#
# Youngs Moduli (GPa) = 70.32907 98.48721 66.57285
#
# Poissons Ratio (x) = 0.34672 0.11414
# Poissons Ratio (y) = 0.24759 0.34687
# Poissons Ratio (z) = 0.12058 0.51316
#
# Static dielectric constant tensor:
#      x y z
#    x 3.039790 0.000000 0.008090 
#    y 0.000000 3.474200 0.000000 
#    z 0.008090 0.000000 3.470850 
# 
# 
# High freq. dielectric constant tensor:
#      x y z
#    x 1.662310 0.000000 0.003880 
#    y 0.000000 1.716640 0.000000 
#    z 0.003880 0.000000 1.713910 
# 
# From -- ./inp_files/292540.got.cif
#   From: 2010.06.25/outbox.cif.g09.slc.cpg/sg12_147_cif.got.tgz:292540.got - 2010.06.28 00:19:55.
