data_PCOD8082118
_publ_section_title
;
Structure prediction by ZEFSAII (Michael W. Deem and Ramdas Pophale) SiO2 
 PCOD8082118
Probable space group: C 2/M
;
_chemical_formula_sum "Si O2"
_cell_formula_units_Z 64
_cell_length_a 32.921195
_cell_length_b 9.247025
_cell_length_c 29.963671
_cell_angle_alpha 90.000000
_cell_angle_beta 154.090743
_cell_angle_gamma 90.000000
_cell_volume 3985.671708
_symmetry_space_group_name_H-M "C 2/M"
_symmetry_group_IT_number 12
_symmetry_cell_setting 'monoclinic'
loop_
_space_group_symop_operation_xyz
x,y,z
-x,y,-z
-x,-y,-z
x,-y,z
1/2+x,1/2+y,z
1/2-x,1/2+y,-z
1/2-x,1/2-y,-z
1/2+x,1/2-y,z
loop_
_atom_site_type_symbol
_atom_site_label
_atom_site_fract_x
_atom_site_fract_y
_atom_site_fract_z
Si Si1 0.411256 0.832250 0.791187
Si Si2 0.544838 0.168632 0.998993
Si Si3 0.948780 0.168959 0.403769
Si Si4 0.760612 0.163963 0.689954
Si Si5 0.931672 0.334103 0.545883
Si Si6 0.145784 0.831546 0.446812
Si Si7 0.741611 0.833515 0.223071
Si Si8 0.139745 0.664927 0.354156
O O1 0.495313 0.770551 0.905102
O O2 0.317698 0.745964 0.708696
O O3 0.429920 0.810079 0.756704
O O4 0.391674 0.000000 0.781686
O O5 0.524128 0.000000 0.980125
O O6 0.500000 0.237433 0.000000
O O7 0.655530 0.198319 0.104490
O O8 0.839391 0.205556 0.297409
O O9 0.000000 0.218630 0.500000
O O10 0.983175 0.257912 0.395120
O O11 0.968024 0.000000 0.414600
O O12 0.652961 0.175555 0.572013
O O13 0.779158 0.236506 0.755245
O O14 0.795065 0.000000 0.726312
O O15 0.956990 0.500000 0.581974
O O16 0.909353 0.252141 0.569398
O O17 0.108776 0.771992 0.362790
O O18 0.255498 0.801056 0.558765
O O19 0.121798 0.000000 0.426852
O O20 0.741728 0.000000 0.238892
O O21 0.134302 0.500000 0.366242
#
# Coordination Sequence:
#
# PCOD8082118 Si02
#       8
#     8   8   8   8   8   8   8   8
#     4  10  18  31  49  69  94 130 166 193 226 278
#     4   9  16  27  49  73  93 123 163 199 230 271
#     4  10  20  32  49  70  93 124 164 201 235 280
#     4  11  21  29  43  68  97 128 160 198 236 274
#     4  11  22  33  47  68  97 129 162 197 237 284
#     4  10  19  31  49  70  95 124 157 194 235 284
#     4  10  19  33  49  67  94 127 163 202 235 273
#     4   9  18  30  46  69  97 126 156 191 233 281
#
# _framework density 16.057518999999999
#
# number of rings (size 3 to 8) (size 9 to 14) (size 15 to 20)
#    0.000    2.000    3.750    1.125    0.000    2.750 
#    0.000    1.250    0.000    0.000    0.000    0.875 
#    0.000    0.000    0.000    0.000    0.000    0.000 
#
# Total GULP energy -396716.950427 kJ/mol
# GULP energy per Si atom -12397.404701 kJ/mol
# Density = 1.602097 g / cm^3
# Si number density = 16.057519 Si / 1000 Ang^3
#
#
#
# Elastic Constant Matrix: (Units=GPa)
#
#
# Indices 1 2 3 4 5 6 
#
# 1 97.7724 47.1678 39.5672 0.0000 -7.9865 0.0000
# 2 47.1678 70.7033 23.6579 0.0000 -2.1127 0.0000
# 3 39.5672 23.6579 83.4516 0.0000 -6.1625 0.0000
# 4 0.0000 0.0000 0.0000 9.6642 0.0000 -0.9807
# 5 -7.9865 -2.1127 -6.1625 0.0000 26.2040 0.0000
# 6 0.0000 0.0000 0.0000 -0.9807 0.0000 27.1313
#
#
#
# Elastic Compliance Matrix: (Units=1/GPa)
#
#
# Indices 1 2 3 4 5 6 
#
# 1 0.017271 -0.009684 -0.005203 0.000000 0.003260 0.000000
# 2 -0.009684 0.021057 -0.001497 0.000000 -0.001606 0.000000
# 3 -0.005203 -0.001497 0.015009 0.000000 0.001823 0.000000
# 4 0.000000 0.000000 0.000000 0.103856 0.000000 0.003754
# 5 0.003260 -0.001606 0.001823 0.000000 0.039455 0.000000
# 6 0.000000 0.000000 0.000000 0.003754 0.000000 0.036994
#
#
# Mechanical properties :
#
#
# Convention : Reuss Voigt Hill
#
# Bulk Modulus (GPa) = 48.61396 52.52368 50.56882
# Shear Modulus (GPa) = 18.29729 22.03552 20.16640
#
# Velocity S-wave (km/s) = 3.37929 3.70846 3.54769
# Velocity P-wave (km/s) = 6.75031 7.14966 6.95285
#
# Compressibility (1/GPa) = 0.02057022
#
# Stress axis : x y z
#
# Youngs Moduli (GPa) = 57.89936 47.49086 66.62769
#
# Poissons Ratio (x) = 0.45989 0.34666
# Poissons Ratio (y) = 0.56068 0.09971
# Poissons Ratio (z) = 0.30125 0.07107
#
# Static dielectric constant tensor:
#      x y z
#    x 2.951230 0.000000 -0.113480 
#    y 0.000000 3.020030 0.000000 
#    z -0.113480 0.000000 3.065230 
# 
# 
# High freq. dielectric constant tensor:
#      x y z
#    x 1.603160 0.000000 -0.010960 
#    y 0.000000 1.612240 0.000000 
#    z -0.010960 0.000000 1.596290 
# 
# From -- ./inp_files/249230.got.cif
#   From: 2010.06.25/outbox.cif.g09.slc.cpg/sg12_125_cif.got.tgz:249230.got - 2010.06.28 00:19:55.
