data_PCOD8082401
_publ_section_title
;
Structure prediction by ZEFSAII (Michael W. Deem and Ramdas Pophale) SiO2 
 PCOD8082401
Probable space group: C 2/M
;
_chemical_formula_sum "Si O2"
_cell_formula_units_Z 64
_cell_length_a 26.530571
_cell_length_b 8.786437
_cell_length_c 15.090151
_cell_angle_alpha 90.000000
_cell_angle_beta 108.175852
_cell_angle_gamma 90.000000
_cell_volume 3342.134687
_symmetry_space_group_name_H-M "C 2/M"
_symmetry_group_IT_number 12
_symmetry_cell_setting 'monoclinic'
loop_
_space_group_symop_operation_xyz
x,y,z
-x,y,-z
-x,-y,-z
x,-y,z
1/2+x,1/2+y,z
1/2-x,1/2+y,-z
1/2-x,1/2-y,-z
1/2+x,1/2-y,z
loop_
_atom_site_type_symbol
_atom_site_label
_atom_site_fract_x
_atom_site_fract_y
_atom_site_fract_z
Si Si1 0.047474 0.177496 0.964067
Si Si2 0.760906 0.175506 0.713544
Si Si3 0.685081 0.171877 0.421484
Si Si4 0.166757 0.179049 0.591672
Si Si5 0.973515 0.176853 0.239375
Si Si6 0.551220 0.318252 0.582717
Si Si7 0.421434 0.831357 0.724335
Si Si8 0.866567 0.175064 0.852941
O O1 0.047565 0.250997 0.864902
O O2 0.034750 0.000000 0.946224
O O3 0.106154 0.205410 0.036769
O O4 0.000000 0.246670 0.000000
O O5 0.790811 0.221438 0.640165
O O6 0.706163 0.271872 0.694357
O O7 0.802795 0.206817 0.817455
O O8 0.744787 0.000000 0.700740
O O9 0.695783 0.245755 0.522896
O O10 0.621823 0.168565 0.376655
O O11 0.708547 0.000000 0.428960
O O12 0.106786 0.239925 0.571771
O O13 0.165923 0.000000 0.580959
O O14 0.948700 0.246073 0.316032
O O15 0.036094 0.205524 0.279355
O O16 0.961099 0.000000 0.232354
O O17 0.500000 0.255022 0.500000
O O18 0.548759 0.500000 0.581773
O O19 0.395142 0.789601 0.802865
O O20 0.446821 0.000000 0.747240
O O21 0.876740 0.000000 0.828902
#
# Coordination Sequence:
#
# PCOD8082401 Si02
#       8
#     8   8   8   8   8   8   8   8
#     4   9  15  26  49  79 102 124 163 210 249 292
#     4  10  20  33  51  73  99 132 167 202 249 302
#     4  10  20  33  49  72 102 133 167 205 249 298
#     4  11  21  34  52  72  97 127 166 213 253 293
#     4  10  18  31  52  72  98 134 170 209 249 292
#     4   9  19  34  52  75  98 127 170 210 245 289
#     4  10  19  29  44  71 105 134 161 198 245 300
#     4   9  17  31  49  71  99 132 165 198 241 297
#
# _framework density 19.149436000000001
#
# number of rings (size 3 to 8) (size 9 to 14) (size 15 to 20)
#    0.000    2.250    1.250    2.625    0.000    3.000 
#    0.000    2.500    0.000    4.125    0.000    0.000 
#    0.000    0.000    0.000    0.000    0.000    0.500 
#
# Total GULP energy -396503.540212 kJ/mol
# GULP energy per Si atom -12390.735632 kJ/mol
# Density = 1.910585 g / cm^3
# Si number density = 19.149436 Si / 1000 Ang^3
#
#
#
# Elastic Constant Matrix: (Units=GPa)
#
#
# Indices 1 2 3 4 5 6 
#
# 1 87.5233 5.5883 36.7474 0.0000 24.5067 0.0000
# 2 5.5883 27.5170 15.1130 0.0000 5.9202 0.0000
# 3 36.7474 15.1130 107.6948 0.0000 14.1919 0.0000
# 4 0.0000 0.0000 0.0000 13.1998 0.0000 7.5583
# 5 24.5067 5.9202 14.1919 0.0000 31.2424 0.0000
# 6 0.0000 0.0000 0.0000 7.5583 0.0000 20.6475
#
#
#
# Elastic Compliance Matrix: (Units=1/GPa)
#
#
# Indices 1 2 3 4 5 6 
#
# 1 0.016227 0.001435 -0.004281 0.000000 -0.011056 0.000000
# 2 0.001435 0.040335 -0.005312 0.000000 -0.006355 0.000000
# 3 -0.004281 -0.005312 0.011612 0.000000 -0.000910 0.000000
# 4 0.000000 0.000000 0.000000 0.095850 0.000000 -0.035087
# 5 -0.011056 -0.006355 -0.000910 0.000000 0.042297 0.000000
# 6 0.000000 0.000000 0.000000 -0.035087 0.000000 0.061276
#
#
# Mechanical properties :
#
#
# Convention : Reuss Voigt Hill
#
# Bulk Modulus (GPa) = 19.28440 37.51472 28.39956
# Shear Modulus (GPa) = 16.60026 24.03704 20.31865
#
# Velocity S-wave (km/s) = 2.94748 3.54677 3.26092
# Velocity P-wave (km/s) = 4.65573 6.03372 5.38895
#
# Compressibility (1/GPa) = 0.05185538
#
# Stress axis : x y z
#
# Youngs Moduli (GPa) = 61.62538 24.79256 86.11978
#
# Poissons Ratio (x) = -0.03557 0.36871
# Poissons Ratio (y) = -0.08840 0.45749
# Poissons Ratio (z) = 0.26384 0.13170
#
# Static dielectric constant tensor:
#      x y z
#    x 3.609590 0.000000 0.344850 
#    y 0.000000 3.248700 0.000000 
#    z 0.344850 0.000000 3.763360 
# 
# 
# High freq. dielectric constant tensor:
#      x y z
#    x 1.729310 0.000000 0.033800 
#    y 0.000000 1.718250 0.000000 
#    z 0.033800 0.000000 1.734490 
# 
# From -- ./inp_files/244125.got.cif
#   From: 2010.06.25/outbox.cif.g09.slc.cpg/sg12_123_cif.got.tgz:244125.got - 2010.06.28 00:19:55.
