data_PCOD8082174
_publ_section_title
;
Structure prediction by ZEFSAII (Michael W. Deem and Ramdas Pophale) SiO2 
 PCOD8082174
Probable space group: C 2/M
;
_chemical_formula_sum "Si O2"
_cell_formula_units_Z 64
_cell_length_a 23.070842
_cell_length_b 14.993454
_cell_length_c 10.859490
_cell_angle_alpha 90.000000
_cell_angle_beta 111.658905
_cell_angle_gamma 90.000000
_cell_volume 3491.210866
_symmetry_space_group_name_H-M "C 2/M"
_symmetry_group_IT_number 12
_symmetry_cell_setting 'monoclinic'
loop_
_space_group_symop_operation_xyz
x,y,z
-x,y,-z
-x,-y,-z
x,-y,z
1/2+x,1/2+y,z
1/2-x,1/2+y,-z
1/2-x,1/2-y,-z
1/2+x,1/2-y,z
loop_
_atom_site_type_symbol
_atom_site_label
_atom_site_fract_x
_atom_site_fract_y
_atom_site_fract_z
Si Si1 0.431382 0.262717 0.933280
Si Si2 0.124510 0.902585 0.291448
Si Si3 0.716004 0.398068 0.574780
Si Si4 0.932408 0.275837 0.201509
Si Si5 0.030516 0.845216 0.405162
Si Si6 0.538723 0.898624 0.214794
Si Si7 0.337372 0.099446 0.541409
Si Si8 0.860949 0.252354 0.381833
O O1 0.386828 0.326251 0.818340
O O2 0.440717 0.165420 0.880359
O O3 0.500000 0.307490 0.000000
O O4 0.401937 0.249245 0.045573
O O5 0.186653 0.878577 0.416335
O O6 0.069268 0.911071 0.349299
O O7 0.130011 0.000000 0.231926
O O8 0.703172 0.500000 0.606394
O O9 0.789773 0.378636 0.616919
O O10 0.685114 0.333586 0.652833
O O11 0.876137 0.283537 0.254719
O O12 0.978329 0.196906 0.277589
O O13 0.973093 0.366555 0.222542
O O14 0.075236 0.767899 0.494823
O O15 0.000000 0.895376 0.500000
O O16 0.591843 0.893359 0.359195
O O17 0.531167 0.000000 0.160490
O O18 0.325763 0.166341 0.419928
O O19 0.322575 0.000000 0.481429
#
# Coordination Sequence:
#
# PCOD8082174 Si02
#       8
#     8   8   8   8   8   8   8   8
#     4  10  19  33  47  67 103 135 173 207 233 288
#     4  10  18  31  50  70  94 131 167 207 252 285
#     4   9  19  34  54  77 100 127 168 211 250 300
#     4  10  19  32  47  71 106 135 159 204 242 296
#     4   9  16  29  45  67 100 129 152 195 245 295
#     4  10  19  32  53  75  99 133 167 203 252 296
#     4  10  19  32  53  81 101 124 166 211 252 301
#     4  10  18  31  52  72 104 134 159 198 263 298
#
# _framework density 18.331748999999999
#
# number of rings (size 3 to 8) (size 9 to 14) (size 15 to 20)
#    0.000    2.250    3.750    1.125    0.000    3.250 
#    0.000    3.750    0.000    3.000    0.000    5.250 
#    0.000    0.000    0.000    0.000    0.000    0.000 
#
# Total GULP energy -396597.107924 kJ/mol
# GULP energy per Si atom -12393.659623 kJ/mol
# Density = 1.829002 g / cm^3
# Si number density = 18.331749 Si / 1000 Ang^3
#
#
#
# Elastic Constant Matrix: (Units=GPa)
#
#
# Indices 1 2 3 4 5 6 
#
# 1 83.1178 39.6994 26.2103 0.0000 -22.8796 0.0000
# 2 39.6994 96.7132 40.1498 0.0000 -17.2914 0.0000
# 3 26.2103 40.1498 59.4302 0.0000 -23.1578 0.0000
# 4 0.0000 0.0000 0.0000 12.3971 0.0000 1.8056
# 5 -22.8796 -17.2914 -23.1578 0.0000 27.7975 0.0000
# 6 0.0000 0.0000 0.0000 1.8056 0.0000 21.9718
#
#
#
# Elastic Compliance Matrix: (Units=1/GPa)
#
#
# Indices 1 2 3 4 5 6 
#
# 1 0.017626 -0.005300 0.000260 0.000000 0.011427 0.000000
# 2 -0.005300 0.015994 -0.009314 0.000000 -0.002173 0.000000
# 3 0.000260 -0.009314 0.030842 0.000000 0.020114 0.000000
# 4 0.000000 0.000000 0.000000 0.081641 0.000000 -0.006709
# 5 0.011427 -0.002173 0.020114 0.000000 0.060785 0.000000
# 6 0.000000 0.000000 0.000000 -0.006709 0.000000 0.046064
#
#
# Mechanical properties :
#
#
# Convention : Reuss Voigt Hill
#
# Bulk Modulus (GPa) = 27.96974 50.15335 39.06155
# Shear Modulus (GPa) = 17.03115 21.31340 19.17228
#
# Velocity S-wave (km/s) = 3.05134 3.41346 3.23747
# Velocity P-wave (km/s) = 5.26355 6.55391 5.94385
#
# Compressibility (1/GPa) = 0.03575292
#
# Stress axis : x y z
#
# Youngs Moduli (GPa) = 56.73366 62.52466 32.42311
#
# Poissons Ratio (x) = 0.33138 -0.00842
# Poissons Ratio (y) = 0.30069 0.30200
# Poissons Ratio (z) = -0.01474 0.58238
#
# Static dielectric constant tensor:
#      x y z
#    x 3.418480 0.000000 -0.038300 
#    y 0.000000 3.333030 0.000000 
#    z -0.038300 0.000000 3.284870 
# 
# 
# High freq. dielectric constant tensor:
#      x y z
#    x 1.696510 0.000000 -0.002590 
#    y 0.000000 1.707490 0.000000 
#    z -0.002590 0.000000 1.681850 
# 
# From -- ./inp_files/176152.got.cif
#   From: 2010.06.25/outbox.cif.g09.slc.cpg/sg12_89_cif.got.tgz:176152.got - 2010.06.28 00:19:55.
