data_PCOD8082159
_publ_section_title
;
Structure prediction by ZEFSAII (Michael W. Deem and Ramdas Pophale) SiO2 
 PCOD8082159
Probable space group: C 2/M
;
_chemical_formula_sum "Si O2"
_cell_formula_units_Z 56
_cell_length_a 19.212644
_cell_length_b 8.959893
_cell_length_c 24.829338
_cell_angle_alpha 90.000000
_cell_angle_beta 48.316171
_cell_angle_gamma 90.000000
_cell_volume 3192.085191
_symmetry_space_group_name_H-M "C 2/M"
_symmetry_group_IT_number 12
_symmetry_cell_setting 'monoclinic'
loop_
_space_group_symop_operation_xyz
x,y,z
-x,y,-z
-x,-y,-z
x,-y,z
1/2+x,1/2+y,z
1/2-x,1/2+y,-z
1/2-x,1/2-y,-z
1/2+x,1/2-y,z
loop_
_atom_site_type_symbol
_atom_site_label
_atom_site_fract_x
_atom_site_fract_y
_atom_site_fract_z
Si Si1 0.848176 0.674162 0.440344
Si Si2 0.700489 0.829469 0.955367
Si Si3 0.918775 0.671742 0.078681
Si Si4 0.419894 0.177949 0.197696
Si Si5 0.893746 0.174792 0.901793
Si Si6 0.414502 0.322592 0.505859
Si Si7 0.210847 0.326382 0.643189
O O1 0.844456 0.500000 0.456501
O O2 0.750000 0.750000 0.500000
O O3 0.924862 0.752162 0.440088
O O4 0.862235 0.700014 0.368843
O O5 0.678196 0.810594 0.903613
O O6 0.806651 0.779868 0.909040
O O7 0.686074 0.000000 0.981909
O O8 0.628213 0.729845 0.026458
O O9 0.946537 0.500000 0.073923
O O10 0.905728 0.743629 0.144432
O O11 0.000000 0.745904 0.000000
O O12 0.518122 0.240218 0.168489
O O13 0.337429 0.241491 0.278399
O O14 0.420784 0.000000 0.199663
O O15 0.913588 0.000000 0.892264
O O16 0.500000 0.269647 0.500000
O O17 0.415347 0.500000 0.499109
O O18 0.315578 0.260767 0.580568
O O19 0.227059 0.500000 0.643364
#
# Coordination Sequence:
#
# PCOD8082159 Si02
#       7
#     8   8   8   8   8   8   8
#     4   9  16  29  49  72  97 125 163 199 233 283
#     4   9  17  31  47  64  87 115 152 194 234 280
#     4   9  15  26  47  69  83 110 160 201 224 265
#     4  10  18  31  50  66  89 124 160 196 236 282
#     4  10  19  29  44  67  92 116 147 193 242 285
#     4   9  17  31  51  76 103 127 157 197 240 289
#     4   8  16  30  48  70  93 124 161 193 230 284
#
# _framework density 17.543392000000001
#
# number of rings (size 3 to 8) (size 9 to 14) (size 15 to 20)
#    0.000    2.857    1.429    1.714    0.000    0.857 
#    0.000    6.429    0.000    3.429    0.000    0.000 
#    0.000    0.000    0.000    0.000    0.000    0.000 
#
# Total GULP energy -346892.281841 kJ/mol
# GULP energy per Si atom -12389.010066 kJ/mol
# Density = 1.750346 g / cm^3
# Si number density = 17.543392 Si / 1000 Ang^3
#
#
#
# Elastic Constant Matrix: (Units=GPa)
#
#
# Indices 1 2 3 4 5 6 
#
# 1 123.7153 22.1164 59.6003 0.0000 9.0598 0.0000
# 2 22.1164 29.9260 18.9752 0.0000 3.3816 -0.0001
# 3 59.6003 18.9752 112.5340 0.0000 8.1677 0.0000
# 4 0.0000 0.0000 0.0000 15.6085 0.0000 -0.3062
# 5 9.0598 3.3816 8.1677 0.0000 24.4448 0.0000
# 6 0.0000 -0.0001 0.0000 -0.3062 0.0000 25.3036
#
#
#
# Elastic Compliance Matrix: (Units=1/GPa)
#
#
# Indices 1 2 3 4 5 6 
#
# 1 0.011617 -0.005104 -0.005156 0.000000 -0.001877 0.000000
# 2 -0.005104 0.039896 -0.003854 0.000000 -0.002340 0.000000
# 3 -0.005156 -0.003854 0.012390 0.000000 -0.001696 0.000000
# 4 0.000000 0.000000 0.000000 0.064083 0.000000 0.000775
# 5 -0.001877 -0.002340 -0.001696 0.000000 0.042494 0.000000
# 6 0.000000 0.000000 0.000000 0.000775 0.000000 0.039530
#
#
# Mechanical properties :
#
#
# Convention : Reuss Voigt Hill
#
# Bulk Modulus (GPa) = 28.03103 51.95100 39.99102
# Shear Modulus (GPa) = 19.98975 24.10360 22.04668
#
# Velocity S-wave (km/s) = 3.37923 3.71069 3.54883
# Velocity P-wave (km/s) = 5.58913 6.93081 6.29581
#
# Compressibility (1/GPa) = 0.03567474
#
# Stress axis : x y z
#
# Youngs Moduli (GPa) = 86.08319 25.06518 80.71255
#
# Poissons Ratio (x) = 0.12793 0.41612
# Poissons Ratio (y) = 0.43938 0.31108
# Poissons Ratio (z) = 0.44381 0.09660
#
# Static dielectric constant tensor:
#      x y z
#    x 3.553310 0.000000 0.214830 
#    y 0.000000 3.041740 0.000000 
#    z 0.214830 0.000000 3.413430 
# 
# 
# High freq. dielectric constant tensor:
#      x y z
#    x 1.684290 0.000000 0.012180 
#    y 0.000000 1.648850 0.000000 
#    z 0.012180 0.000000 1.652610 
# 
# From -- ./inp_files/345496.got.cif
#   From: 2010.06.25/outbox.cif.g09.slc.cpg/sg12_173_cif.got.tgz:345496.got - 2010.06.28 00:19:55.
