data_PCOD8082249
_publ_section_title
;
Structure prediction by ZEFSAII (Michael W. Deem and Ramdas Pophale) SiO2 
 PCOD8082249
Probable space group: C 2/M
;
_chemical_formula_sum "Si O2"
_cell_formula_units_Z 64
_cell_length_a 19.228695
_cell_length_b 20.460631
_cell_length_c 12.014008
_cell_angle_alpha 90.000000
_cell_angle_beta 122.882527
_cell_angle_gamma 90.000000
_cell_volume 3969.402221
_symmetry_space_group_name_H-M "C 2/M"
_symmetry_group_IT_number 12
_symmetry_cell_setting 'monoclinic'
loop_
_space_group_symop_operation_xyz
x,y,z
-x,y,-z
-x,-y,-z
x,-y,z
1/2+x,1/2+y,z
1/2-x,1/2+y,-z
1/2-x,1/2-y,-z
1/2+x,1/2-y,z
loop_
_atom_site_type_symbol
_atom_site_label
_atom_site_fract_x
_atom_site_fract_y
_atom_site_fract_z
Si Si1 0.908643 0.827725 0.879108
Si Si2 0.990572 0.669495 0.621591
Si Si3 0.619788 0.273943 0.379122
Si Si4 0.738356 0.422841 0.223612
Si Si5 0.261724 0.834673 0.619298
Si Si6 0.209224 0.278442 0.125860
Si Si7 0.674498 0.829685 0.856938
Si Si8 0.656247 0.923839 0.467376
O O1 0.917284 0.813196 0.756291
O O2 0.852435 0.891712 0.845780
O O3 0.870233 0.766225 0.913081
O O4 0.000000 0.843881 0.000000
O O5 0.954058 0.740604 0.616960
O O6 0.931993 0.611626 0.614069
O O7 0.000000 0.660845 0.500000
O O8 0.077077 0.663626 0.758958
O O9 0.683230 0.219859 0.391928
O O10 0.666155 0.323328 0.503144
O O11 0.728657 0.500000 0.204455
O O12 0.783167 0.395687 0.152006
O O13 0.792724 0.402294 0.378391
O O14 0.271768 0.830560 0.760691
O O15 0.291146 0.904622 0.596954
O O16 0.289386 0.232062 0.180313
O O17 0.193135 0.321527 0.003256
O O18 0.638696 0.000000 0.450942
#
# Coordination Sequence:
#
# PCOD8082249 Si02
#       8
#     8   8   8   8   8   8   8   8
#     4  10  18  31  50  75  99 122 155 201 254 289
#     4  11  19  28  47  74 101 126 159 197 238 290
#     4   9  17  27  47  72  97 120 156 198 242 284
#     4  10  20  34  50  68  97 132 166 200 237 284
#     4   9  16  31  50  69  91 127 164 200 235 278
#     4   9  19  32  52  71 101 131 156 195 248 297
#     4  10  19  33  47  74 103 131 158 192 243 295
#     4  10  20  33  49  71  97 130 168 204 238 277
#
# _framework density 16.123334
#
# number of rings (size 3 to 8) (size 9 to 14) (size 15 to 20)
#    0.000    2.250    2.500    1.500    3.500    1.000 
#    0.000    0.625    0.000    0.750    0.000    0.000 
#    0.000    3.000    0.000    0.000    0.000    0.000 
#
# Total GULP energy -396807.745170 kJ/mol
# GULP energy per Si atom -12400.242037 kJ/mol
# Density = 1.608664 g / cm^3
# Si number density = 16.123334 Si / 1000 Ang^3
#
#
#
# Elastic Constant Matrix: (Units=GPa)
#
#
# Indices 1 2 3 4 5 6 
#
# 1 79.0780 45.2790 49.3945 0.0000 8.3966 0.0000
# 2 45.2790 73.7971 47.4422 0.0000 1.7019 0.0000
# 3 49.3945 47.4422 100.2774 0.0000 6.1076 0.0000
# 4 0.0000 0.0000 0.0000 26.3510 0.0000 -3.3617
# 5 8.3966 1.7019 6.1076 0.0000 38.3411 0.0000
# 6 0.0000 0.0000 0.0000 -3.3617 0.0000 18.0572
#
#
#
# Elastic Compliance Matrix: (Units=1/GPa)
#
#
# Indices 1 2 3 4 5 6 
#
# 1 0.022480 -0.009672 -0.006285 0.000000 -0.003493 0.000000
# 2 -0.009672 0.023649 -0.006553 0.000000 0.002112 0.000000
# 3 -0.006285 -0.006553 0.016224 0.000000 -0.000917 0.000000
# 4 0.000000 0.000000 0.000000 0.038873 0.000000 0.007237
# 5 -0.003493 0.002112 -0.000917 0.000000 0.026899 0.000000
# 6 0.000000 0.000000 0.000000 0.007237 0.000000 0.056727
#
#
# Mechanical properties :
#
#
# Convention : Reuss Voigt Hill
#
# Bulk Modulus (GPa) = 57.68998 59.70934 58.69966
# Shear Modulus (GPa) = 21.21793 23.95231 22.58512
#
# Velocity S-wave (km/s) = 3.63158 3.85849 3.74675
# Velocity P-wave (km/s) = 7.31044 7.54744 7.42989
#
# Compressibility (1/GPa) = 0.01733403
#
# Stress axis : x y z
#
# Youngs Moduli (GPa) = 44.48321 42.28461 61.63670
#
# Poissons Ratio (x) = 0.40899 0.38736
# Poissons Ratio (y) = 0.43026 0.40390
# Poissons Ratio (z) = 0.27956 0.27709
#
# Static dielectric constant tensor:
#      x y z
#    x 3.139880 0.000000 -0.004670 
#    y 0.000000 2.862600 0.000000 
#    z -0.004670 0.000000 3.172030 
# 
# 
# High freq. dielectric constant tensor:
#      x y z
#    x 1.620230 0.000000 0.001300 
#    y 0.000000 1.593690 0.000000 
#    z 0.001300 0.000000 1.623870 
# 
# From -- ./inp_files/169431.got.cif
#   From: 2010.06.25/outbox.cif.g09.slc.cpg/sg12_85_cif.got.tgz:169431.got - 2010.06.28 00:19:55.
