data_PCOD8082694
_publ_section_title
;
Structure prediction by ZEFSAII (Michael W. Deem and Ramdas Pophale) SiO2 
 PCOD8082694
Probable space group: C 2/M
;
_chemical_formula_sum "Si O2"
_cell_formula_units_Z 56
_cell_length_a 15.379278
_cell_length_b 8.959257
_cell_length_c 24.638945
_cell_angle_alpha 90.000000
_cell_angle_beta 119.332465
_cell_angle_gamma 90.000000
_cell_volume 2959.666991
_symmetry_space_group_name_H-M "C 2/M"
_symmetry_group_IT_number 12
_symmetry_cell_setting 'monoclinic'
loop_
_space_group_symop_operation_xyz
x,y,z
-x,y,-z
-x,-y,-z
x,-y,z
1/2+x,1/2+y,z
1/2-x,1/2+y,-z
1/2-x,1/2-y,-z
1/2+x,1/2-y,z
loop_
_atom_site_type_symbol
_atom_site_label
_atom_site_fract_x
_atom_site_fract_y
_atom_site_fract_z
Si Si1 0.984689 0.823614 0.360820
Si Si2 0.082598 0.675442 0.291101
Si Si3 0.695811 0.323375 0.626270
Si Si4 0.846410 0.175948 0.505573
Si Si5 0.223559 0.177496 0.934781
Si Si6 0.081052 0.676493 0.066476
Si Si7 0.485015 0.824410 0.147952
O O1 0.007361 0.747418 0.310823
O O2 0.059177 0.769287 0.431038
O O3 0.874402 0.771318 0.345599
O O4 0.991285 0.000000 0.355005
O O5 0.082533 0.500000 0.301124
O O6 0.193363 0.744482 0.333125
O O7 0.046724 0.716592 0.220192
O O8 0.704756 0.500000 0.630254
O O9 0.644226 0.272702 0.554159
O O10 0.750000 0.250000 0.500000
O O11 0.834219 0.000000 0.505789
O O12 0.307888 0.227253 0.916851
O O13 0.118494 0.236469 0.881232
O O14 0.220411 0.000000 0.940701
O O15 0.250000 0.250000 0.000000
O O16 0.074792 0.500000 0.062196
O O17 0.052778 0.731354 0.118234
O O18 0.000000 0.745094 0.000000
O O19 0.461526 0.000000 0.136390
#
# Coordination Sequence:
#
# PCOD8082694 Si02
#       7
#     8   8   8   8   8   8   8
#     4  10  20  34  56  82 108 140 182 231 273 318
#     4  10  21  37  56  77 107 147 182 221 270 326
#     4   9  18  34  55  78 107 144 185 222 269 329
#     4  10  18  31  54  81 107 138 179 229 278 321
#     4  11  21  35  59  87 112 140 176 221 271 320
#     4   9  17  33  57  81 106 139 176 214 259 319
#     4  10  21  38  57  79 109 144 184 223 266 320
#
# _framework density 18.921046
#
# number of rings (size 3 to 8) (size 9 to 14) (size 15 to 20)
#    0.000    2.143    2.857    0.857    0.000    3.429 
#    0.000    6.429    0.000    1.714    0.000    0.000 
#    0.000    0.000    0.000    0.000    0.000    0.000 
#
# Total GULP energy -347151.578092 kJ/mol
# GULP energy per Si atom -12398.270646 kJ/mol
# Density = 1.887798 g / cm^3
# Si number density = 18.921046 Si / 1000 Ang^3
#
#
#
# Elastic Constant Matrix: (Units=GPa)
#
#
# Indices 1 2 3 4 5 6 
#
# 1 165.4873 28.6748 58.8092 0.0000 -22.1144 0.0000
# 2 28.6748 28.5040 29.9410 0.0000 -2.4246 0.0000
# 3 58.8092 29.9410 104.2299 0.0000 -23.4743 0.0000
# 4 0.0000 0.0000 0.0000 24.3291 0.0000 0.0096
# 5 -22.1144 -2.4246 -23.4743 0.0000 30.7298 0.0000
# 6 0.0000 0.0000 0.0000 0.0096 0.0000 29.2540
#
#
#
# Elastic Compliance Matrix: (Units=1/GPa)
#
#
# Indices 1 2 3 4 5 6 
#
# 1 0.008333 -0.005776 -0.002168 0.000000 0.003885 0.000000
# 2 -0.005776 0.056168 -0.015477 0.000000 -0.011547 0.000000
# 3 -0.002168 -0.015477 0.017678 0.000000 0.010723 0.000000
# 4 0.000000 0.000000 0.000000 0.041103 0.000000 -0.000013
# 5 0.003885 -0.011547 0.010723 0.000000 0.042618 0.000000
# 6 0.000000 0.000000 0.000000 -0.000013 0.000000 0.034183
#
#
# Mechanical properties :
#
#
# Convention : Reuss Voigt Hill
#
# Bulk Modulus (GPa) = 28.29719 59.23012 43.76366
# Shear Modulus (GPa) = 19.32725 28.91566 24.12146
#
# Velocity S-wave (km/s) = 3.19951 3.91350 3.57437
# Velocity P-wave (km/s) = 5.35136 7.19669 6.34151
#
# Compressibility (1/GPa) = 0.03533919
#
# Stress axis : x y z
#
# Youngs Moduli (GPa) = 120.00458 17.80385 56.56757
#
# Poissons Ratio (x) = 0.10283 0.12261
# Poissons Ratio (y) = 0.69310 0.87547
# Poissons Ratio (z) = 0.26012 0.27554
#
# Static dielectric constant tensor:
#      x y z
#    x 3.832240 0.000000 0.110770 
#    y 0.000000 3.183860 0.000000 
#    z 0.110770 0.000000 3.772150 
# 
# 
# High freq. dielectric constant tensor:
#      x y z
#    x 1.752710 0.000000 -0.002870 
#    y 0.000000 1.697480 0.000000 
#    z -0.002870 0.000000 1.736950 
# 
# From -- ./inp_files/338525.got.cif
#   From: 2010.06.25/outbox.cif.g09.slc.cpg/sg12_170_cif.got.tgz:338525.got - 2010.06.28 00:19:55.
