data_PCOD8082534
_publ_section_title
;
Structure prediction by ZEFSAII (Michael W. Deem and Ramdas Pophale) SiO2 
 PCOD8082534
Probable space group: C 2/M
;
_chemical_formula_sum "Si O2"
_cell_formula_units_Z 48
_cell_length_a 10.772533
_cell_length_b 19.357168
_cell_length_c 10.770557
_cell_angle_alpha 90.000000
_cell_angle_beta 96.494217
_cell_angle_gamma 90.000000
_cell_volume 2231.526707
_symmetry_space_group_name_H-M "C 2/M"
_symmetry_group_IT_number 12
_symmetry_cell_setting 'monoclinic'
loop_
_space_group_symop_operation_xyz
x,y,z
-x,y,-z
-x,-y,-z
x,-y,z
1/2+x,1/2+y,z
1/2-x,1/2+y,-z
1/2-x,1/2-y,-z
1/2+x,1/2-y,z
loop_
_atom_site_type_symbol
_atom_site_label
_atom_site_fract_x
_atom_site_fract_y
_atom_site_fract_z
Si Si1 0.996142 0.423000 0.146416
Si Si2 0.412185 0.216530 0.234428
Si Si3 0.226358 0.922695 0.827184
Si Si4 0.132005 0.180760 0.992971
Si Si5 0.012160 0.079943 0.356744
Si Si6 0.344334 0.295217 0.725797
O O1 0.942093 0.500000 0.168138
O O2 0.137144 0.417663 0.217956
O O3 0.915796 0.365470 0.207716
O O4 0.000000 0.410200 0.000000
O O5 0.390740 0.255634 0.102231
O O6 0.545435 0.243337 0.306079
O O7 0.299349 0.227229 0.324972
O O8 0.227688 0.874745 0.948978
O O9 0.119716 0.897256 0.719369
O O10 0.197178 0.000000 0.868152
O O11 0.179692 0.209476 0.128490
O O12 0.000000 0.141885 0.000000
O O13 0.122664 0.127375 0.314385
O O14 0.000000 0.094304 0.500000
O O15 0.044827 0.000000 0.333406
#
# Coordination Sequence:
#
# PCOD8082534 Si02
#       6
#     8   8   8   8   8   8
#     4  10  20  33  53  81 118 159 189 228 287 351
#     4  11  21  34  56  84 122 154 189 235 290 355
#     4  10  19  34  56  83 116 154 192 236 292 350
#     4  10  18  31  52  85 116 153 187 231 288 349
#     4  10  22  41  62  83 113 154 202 250 292 339
#     4  11  22  36  58  87 115 158 191 238 297 348
#
# _framework density 21.509937000000001
#
# number of rings (size 3 to 8) (size 9 to 14) (size 15 to 20)
#    0.000    1.667    3.333    4.000    0.000    1.667 
#    0.000    0.833    0.000    0.000    0.000    4.667 
#    0.000    0.000    0.000    0.000    0.000    0.000 
#
# Total GULP energy -297388.929421 kJ/mol
# GULP energy per Si atom -12391.205393 kJ/mol
# Density = 2.146098 g / cm^3
# Si number density = 21.509937 Si / 1000 Ang^3
#
#
#
# Elastic Constant Matrix: (Units=GPa)
#
#
# Indices 1 2 3 4 5 6 
#
# 1 146.3614 55.2756 24.4800 0.0000 -7.2661 0.0000
# 2 55.2756 116.3255 13.4827 0.0000 -9.9287 0.0000
# 3 24.4800 13.4827 25.9504 0.0000 1.6659 0.0000
# 4 0.0000 0.0000 0.0000 7.1970 0.0000 -1.9869
# 5 -7.2661 -9.9287 1.6659 0.0000 11.5719 0.0000
# 6 0.0000 0.0000 0.0000 -1.9869 0.0000 38.0657
#
#
#
# Elastic Compliance Matrix: (Units=1/GPa)
#
#
# Indices 1 2 3 4 5 6 
#
# 1 0.009557 -0.003300 -0.007575 0.000000 0.004260 0.000000
# 2 -0.003300 0.011224 -0.003234 0.000000 0.008024 0.000000
# 3 -0.007575 -0.003234 0.048290 0.000000 -0.014483 0.000000
# 4 0.000000 0.000000 0.000000 0.140978 0.000000 0.007359
# 5 0.004260 0.008024 -0.014483 0.000000 0.098061 0.000000
# 6 0.000000 0.000000 0.000000 0.007359 0.000000 0.026654
#
#
# Mechanical properties :
#
#
# Convention : Reuss Voigt Hill
#
# Bulk Modulus (GPa) = 24.47679 52.79043 38.63361
# Shear Modulus (GPa) = 13.27669 24.39352 18.83510
#
# Velocity S-wave (km/s) = 2.48712 3.37123 2.96234
# Velocity P-wave (km/s) = 4.43302 6.30470 5.44981
#
# Compressibility (1/GPa) = 0.04085504
#
# Stress axis : x y z
#
# Youngs Moduli (GPa) = 104.63533 89.09284 20.70810
#
# Poissons Ratio (x) = 0.29398 0.15685
# Poissons Ratio (y) = 0.34527 0.06697
# Poissons Ratio (z) = 0.79256 0.28812
#
# Static dielectric constant tensor:
#      x y z
#    x 4.408290 0.000000 0.219400 
#    y 0.000000 3.929320 0.000000 
#    z 0.219400 0.000000 3.390180 
# 
# 
# High freq. dielectric constant tensor:
#      x y z
#    x 1.863350 0.000000 0.014240 
#    y 0.000000 1.853660 0.000000 
#    z 0.014240 0.000000 1.779740 
# 
# From -- ./inp_files/132615.got.cif
#   From: 2010.06.25/outbox.cif.g09.slc.cpg/sg12_67_cif.got.tgz:132615.got - 2010.06.28 00:19:55.
