data_PCOD8082235
_publ_section_title
;
Structure prediction by ZEFSAII (Michael W. Deem and Ramdas Pophale) SiO2 
 PCOD8082235
Probable space group: C 2/M
;
_chemical_formula_sum "Si O2"
_cell_formula_units_Z 56
_cell_length_a 11.969341
_cell_length_b 21.827383
_cell_length_c 12.486579
_cell_angle_alpha 90.000000
_cell_angle_beta 60.578169
_cell_angle_gamma 90.000000
_cell_volume 2841.494679
_symmetry_space_group_name_H-M "C 2/M"
_symmetry_group_IT_number 12
_symmetry_cell_setting 'monoclinic'
loop_
_space_group_symop_operation_xyz
x,y,z
-x,y,-z
-x,-y,-z
x,-y,z
1/2+x,1/2+y,z
1/2-x,1/2+y,-z
1/2-x,1/2-y,-z
1/2+x,1/2-y,z
loop_
_atom_site_type_symbol
_atom_site_label
_atom_site_fract_x
_atom_site_fract_y
_atom_site_fract_z
Si Si1 0.096338 0.070645 0.704392
Si Si2 0.417586 0.628039 0.939916
Si Si3 0.273705 0.071750 0.824808
Si Si4 0.985668 0.661690 0.687107
Si Si5 0.275104 0.338393 0.500602
Si Si6 0.711089 0.756920 0.341818
Si Si7 0.529454 0.239031 0.874019
O O1 0.194325 0.086035 0.754318
O O2 0.140756 0.102937 0.573030
O O3 0.956904 0.094186 0.810665
O O4 0.088050 0.000000 0.680275
O O5 0.440796 0.700123 0.913078
O O6 0.500000 0.600967 0.000000
O O7 0.275097 0.609219 0.046514
O O8 0.414791 0.097031 0.733124
O O9 0.278300 0.000000 0.848993
O O10 0.914471 0.707421 0.637710
O O11 0.990447 0.694953 0.797826
O O12 0.125056 0.644482 0.577848
O O13 0.326734 0.309519 0.588890
O O14 0.292845 0.289677 0.397029
O O15 0.817130 0.752750 0.197968
O O16 0.500000 0.205216 0.000000
#
# Coordination Sequence:
#
# PCOD8082235 Si02
#       7
#     8   8   8   8   8   8   8
#     4  10  18  31  50  74 104 141 180 218 259 305
#     4   9  16  31  49  72 103 135 170 217 271 311
#     4  10  20  31  47  74 107 140 176 216 263 314
#     4  11  21  34  54  78 107 142 172 214 268 313
#     4  10  20  33  50  75 107 142 177 211 256 310
#     4  10  19  34  50  73 111 138 172 214 260 312
#     4  10  20  33  55  81 107 131 171 224 267 314
#
# _framework density 19.707937000000001
#
# number of rings (size 3 to 8) (size 9 to 14) (size 15 to 20)
#    0.000    2.000    2.857    2.571    0.000    4.571 
#    0.000    1.429    0.000    0.429    0.000    7.000 
#    0.000    0.000    0.000    0.000    0.000    0.000 
#
# Total GULP energy -347038.223199 kJ/mol
# GULP energy per Si atom -12394.222257 kJ/mol
# Density = 1.966308 g / cm^3
# Si number density = 19.707937 Si / 1000 Ang^3
#
#
#
# Elastic Constant Matrix: (Units=GPa)
#
#
# Indices 1 2 3 4 5 6 
#
# 1 23.7870 2.1003 10.9563 0.0000 -2.4157 0.0000
# 2 2.1003 70.8428 36.9613 0.0000 2.5530 0.0000
# 3 10.9563 36.9613 122.7925 0.0000 -8.7857 0.0000
# 4 0.0000 0.0000 0.0000 35.4605 0.0000 1.1925
# 5 -2.4157 2.5530 -8.7857 0.0000 21.1061 0.0000
# 6 0.0000 0.0000 0.0000 1.1925 0.0000 14.9464
#
#
#
# Elastic Compliance Matrix: (Units=1/GPa)
#
#
# Indices 1 2 3 4 5 6 
#
# 1 0.044113 0.000592 -0.003873 0.000000 0.003365 0.000000
# 2 0.000592 0.017132 -0.005517 0.000000 -0.004301 0.000000
# 3 -0.003873 -0.005517 0.010478 0.000000 0.004586 0.000000
# 4 0.000000 0.000000 0.000000 0.028276 0.000000 -0.002256
# 5 0.003365 -0.004301 0.004586 0.000000 0.050194 0.000000
# 6 0.000000 0.000000 0.000000 -0.002256 0.000000 0.067086
#
#
# Mechanical properties :
#
#
# Convention : Reuss Voigt Hill
#
# Bulk Modulus (GPa) = 18.47556 35.27312 26.87434
# Shear Modulus (GPa) = 19.76917 25.46291 22.61604
#
# Velocity S-wave (km/s) = 3.17062 3.59836 3.39124
# Velocity P-wave (km/s) = 4.77481 5.93304 5.38516
#
# Compressibility (1/GPa) = 0.05412554
#
# Stress axis : x y z
#
# Youngs Moduli (GPa) = 22.66884 58.37097 95.43554
#
# Poissons Ratio (x) = -0.03454 0.36966
# Poissons Ratio (y) = -0.01341 0.52655
# Poissons Ratio (z) = 0.08781 0.32205
#
# Static dielectric constant tensor:
#      x y z
#    x 3.175400 0.000000 -0.138420 
#    y 0.000000 3.388180 0.000000 
#    z -0.138420 0.000000 4.042590 
# 
# 
# High freq. dielectric constant tensor:
#      x y z
#    x 1.715830 0.000000 -0.020540 
#    y 0.000000 1.747300 0.000000 
#    z -0.020540 0.000000 1.793000 
# 
# From -- ./inp_files/135289.got.cif
#   From: 2010.06.25/outbox.cif.g09.slc.cpg/sg12_68_cif.got.tgz:135289.got - 2010.06.28 00:19:55.
