data_PCOD8082849
_publ_section_title
;
Structure prediction by ZEFSAII (Michael W. Deem and Ramdas Pophale) SiO2 
 PCOD8082849
Probable space group: C 2/M
;
_chemical_formula_sum "Si O2"
_cell_formula_units_Z 56
_cell_length_a 23.172374
_cell_length_b 26.313232
_cell_length_c 13.726881
_cell_angle_alpha 90.000000
_cell_angle_beta 156.972810
_cell_angle_gamma 90.000000
_cell_volume 3274.008615
_symmetry_space_group_name_H-M "C 2/M"
_symmetry_group_IT_number 12
_symmetry_cell_setting 'monoclinic'
loop_
_space_group_symop_operation_xyz
x,y,z
-x,y,-z
-x,-y,-z
x,-y,z
1/2+x,1/2+y,z
1/2-x,1/2+y,-z
1/2-x,1/2-y,-z
1/2+x,1/2-y,z
loop_
_atom_site_type_symbol
_atom_site_label
_atom_site_fract_x
_atom_site_fract_y
_atom_site_fract_z
Si Si1 0.603164 0.846140 0.073089
Si Si2 0.630532 0.943623 0.625784
Si Si3 0.078217 0.812306 0.418350
Si Si4 0.545647 0.271322 0.965191
Si Si5 0.736644 0.641251 0.051664
Si Si6 0.047758 0.374755 0.777990
Si Si7 0.861482 0.290506 0.397430
O O1 0.778584 0.848487 0.367043
O O2 0.500000 0.867748 0.000000
O O3 0.556058 0.788977 0.977666
O O4 0.576616 0.880599 0.937054
O O5 0.500000 0.945540 0.500000
O O6 0.757030 0.906265 0.863291
O O7 0.561261 0.920832 0.419422
O O8 0.695277 0.000000 0.706774
O O9 0.097744 0.769232 0.533090
O O10 0.068618 0.787171 0.296504
O O11 0.933370 0.843475 0.223250
O O12 0.500000 0.291103 0.000000
O O13 0.698757 0.299458 0.186153
O O14 0.797509 0.624073 0.040999
O O15 0.845707 0.686946 0.261990
O O16 0.974553 0.320766 0.640034
#
# Coordination Sequence:
#
# PCOD8082849 Si02
#       7
#     8   8   8   8   8   8   8
#     4  10  21  31  45  65  94 133 169 198 232 276
#     4   8  15  31  57  78  93 116 153 205 250 278
#     4  10  19  32  43  66 101 135 163 196 236 278
#     4   9  18  29  44  61  88 133 176 211 225 256
#     4   9  19  32  46  72 102 123 160 200 237 288
#     4  10  18  32  47  71  99 123 159 201 233 289
#     4   9  17  29  43  66  95 130 162 193 236 273
#
# _framework density 17.104413999999998
#
# number of rings (size 3 to 8) (size 9 to 14) (size 15 to 20)
#    0.000    2.714    1.429    1.286    2.000    2.857 
#    5.143    0.000    0.000    1.286    0.000    5.000 
#    0.000    0.000    0.000    0.000    0.000    0.000 
#
# Total GULP energy -347030.984646 kJ/mol
# GULP energy per Si atom -12393.963737 kJ/mol
# Density = 1.706548 g / cm^3
# Si number density = 17.104414 Si / 1000 Ang^3
#
#
#
# Elastic Constant Matrix: (Units=GPa)
#
#
# Indices 1 2 3 4 5 6 
#
# 1 92.7399 27.5694 41.4244 0.0000 -18.2251 0.0000
# 2 27.5694 70.3671 33.6862 0.0000 0.9530 0.0000
# 3 41.4244 33.6862 103.0548 0.0000 0.5439 0.0000
# 4 0.0000 0.0000 0.0000 12.9375 0.0000 -4.8279
# 5 -18.2251 0.9530 0.5439 0.0000 22.4748 0.0000
# 6 0.0000 0.0000 0.0000 -4.8279 0.0000 9.5168
#
#
#
# Elastic Compliance Matrix: (Units=1/GPa)
#
#
# Indices 1 2 3 4 5 6 
#
# 1 0.017444 -0.004312 -0.005679 0.000000 0.014466 0.000000
# 2 -0.004312 0.017921 -0.004103 0.000000 -0.004157 0.000000
# 3 -0.005679 -0.004103 0.013352 0.000000 -0.004754 0.000000
# 4 0.000000 0.000000 0.000000 0.095344 0.000000 0.048368
# 5 0.014466 -0.004157 -0.004754 0.000000 0.056516 0.000000
# 6 0.000000 0.000000 0.000000 0.048368 0.000000 0.129614
#
#
# Mechanical properties :
#
#
# Convention : Reuss Voigt Hill
#
# Bulk Modulus (GPa) = 48.70786 52.39133 50.54959
# Shear Modulus (GPa) = 13.69032 19.88461 16.78747
#
# Velocity S-wave (km/s) = 2.83220 3.41331 3.13624
# Velocity P-wave (km/s) = 6.26368 6.79934 6.53700
#
# Compressibility (1/GPa) = 0.02053057
#
# Stress axis : x y z
#
# Youngs Moduli (GPa) = 57.32624 55.80074 74.89254
#
# Poissons Ratio (x) = 0.24060 0.42530
# Poissons Ratio (y) = 0.24718 0.30727
# Poissons Ratio (z) = 0.32555 0.22894
#
# Static dielectric constant tensor:
#      x y z
#    x 3.264410 0.000000 -0.031690 
#    y 0.000000 3.085800 0.000000 
#    z -0.031690 0.000000 3.181490 
# 
# 
# High freq. dielectric constant tensor:
#      x y z
#    x 1.651740 0.000000 -0.002740 
#    y 0.000000 1.611900 0.000000 
#    z -0.002740 0.000000 1.661650 
# 
# From -- ./inp_files/136351.got.cif
#   From: 2010.06.25/outbox.cif.g09.slc.cpg/sg12_69_cif.got.tgz:136351.got - 2010.06.28 00:19:55.
