data_PCOD8082818
_publ_section_title
;
Structure prediction by ZEFSAII (Michael W. Deem and Ramdas Pophale) SiO2 
 PCOD8082818
Probable space group: C 2/M
;
_chemical_formula_sum "Si O2"
_cell_formula_units_Z 64
_cell_length_a 12.755086
_cell_length_b 13.724153
_cell_length_c 21.205194
_cell_angle_alpha 90.000000
_cell_angle_beta 66.989046
_cell_angle_gamma 90.000000
_cell_volume 3416.662031
_symmetry_space_group_name_H-M "C 2/M"
_symmetry_group_IT_number 12
_symmetry_cell_setting 'monoclinic'
loop_
_space_group_symop_operation_xyz
x,y,z
-x,y,-z
-x,-y,-z
x,-y,z
1/2+x,1/2+y,z
1/2-x,1/2+y,-z
1/2-x,1/2-y,-z
1/2+x,1/2-y,z
loop_
_atom_site_type_symbol
_atom_site_label
_atom_site_fract_x
_atom_site_fract_y
_atom_site_fract_z
Si Si1 0.878008 0.393028 0.498888
Si Si2 0.800600 0.741665 0.719160
Si Si3 0.964895 0.887774 0.906895
Si Si4 0.180165 0.112120 0.936009
Si Si5 0.803771 0.887493 0.352718
Si Si6 0.391000 0.780642 0.838163
Si Si7 0.102506 0.385798 0.741090
Si Si8 0.547298 0.224849 0.632452
O O1 0.843229 0.500000 0.479152
O O2 0.792973 0.362632 0.573943
O O3 0.881367 0.308777 0.445357
O O4 0.000000 0.403783 0.500000
O O5 0.731259 0.648085 0.709161
O O6 0.834547 0.729846 0.783297
O O7 0.724406 0.837778 0.728333
O O8 0.914528 0.744200 0.649306
O O9 0.930467 0.824128 0.854673
O O10 0.088516 0.855504 0.904408
O O11 0.967268 0.000000 0.884703
O O12 0.871752 0.871888 0.982983
O O13 0.295689 0.173817 0.905811
O O14 0.211578 0.000000 0.917553
O O15 0.912923 0.827903 0.349439
O O16 0.836060 0.000000 0.341221
O O17 0.502837 0.848623 0.811172
O O18 0.117510 0.500000 0.746193
O O19 0.064341 0.361132 0.679135
#
# Coordination Sequence:
#
# PCOD8082818 Si02
#       8
#     8   8   8   8   8   8   8   8
#     4  10  18  31  57  84 105 137 176 221 271 315
#     4  10  22  36  51  75 106 140 176 217 264 310
#     4   9  19  35  55  81 111 139 172 215 264 315
#     4   9  18  34  56  81 108 139 175 218 262 309
#     4  10  21  36  55  80 107 137 178 220 265 317
#     4  11  20  34  55  80 105 141 180 217 261 312
#     4  10  22  37  52  74 105 139 177 220 264 313
#     4  10  20  36  56  78 105 139 178 221 265 316
#
# _framework density 18.731732999999998
#
# number of rings (size 3 to 8) (size 9 to 14) (size 15 to 20)
#    0.000    2.125    1.250    3.000    0.000    3.500 
#    0.000    7.500    0.000    0.375    0.000    7.875 
#    0.000    0.000    0.000    0.000    0.000    0.000 
#
# Total GULP energy -396709.199940 kJ/mol
# GULP energy per Si atom -12397.162498 kJ/mol
# Density = 1.868910 g / cm^3
# Si number density = 18.731733 Si / 1000 Ang^3
#
#
#
# Elastic Constant Matrix: (Units=GPa)
#
#
# Indices 1 2 3 4 5 6 
#
# 1 72.0878 45.8087 12.8755 0.0000 2.3253 0.0000
# 2 45.8087 130.8999 36.7942 0.0000 8.7134 0.0000
# 3 12.8755 36.7942 53.5629 0.0000 6.5024 0.0000
# 4 0.0000 0.0000 0.0000 31.4938 0.0000 -1.5324
# 5 2.3253 8.7134 6.5024 0.0000 27.3937 0.0000
# 6 0.0000 0.0000 0.0000 -1.5324 0.0000 20.5908
#
#
#
# Elastic Compliance Matrix: (Units=1/GPa)
#
#
# Indices 1 2 3 4 5 6 
#
# 1 0.017845 -0.006265 -0.000046 0.000000 0.000489 0.000000
# 2 -0.006265 0.011728 -0.006345 0.000000 -0.001693 0.000000
# 3 -0.000046 -0.006345 0.023470 0.000000 -0.003549 0.000000
# 4 0.000000 0.000000 0.000000 0.031868 0.000000 0.002372
# 5 0.000489 -0.001693 -0.003549 0.000000 0.037844 0.000000
# 6 0.000000 0.000000 0.000000 0.002372 0.000000 0.048742
#
#
# Mechanical properties :
#
#
# Convention : Reuss Voigt Hill
#
# Bulk Modulus (GPa) = 36.05839 49.72306 42.89072
# Shear Modulus (GPa) = 24.26578 26.63380 25.44979
#
# Velocity S-wave (km/s) = 3.60312 3.77484 3.68998
# Velocity P-wave (km/s) = 6.04993 6.75290 6.41106
#
# Compressibility (1/GPa) = 0.02773280
#
# Stress axis : x y z
#
# Youngs Moduli (GPa) = 56.03712 85.26663 42.60764
#
# Poissons Ratio (x) = 0.53417 0.00194
# Poissons Ratio (y) = 0.35106 0.27034
# Poissons Ratio (z) = 0.00255 0.54101
#
# Static dielectric constant tensor:
#      x y z
#    x 3.436520 0.000000 -0.087270 
#    y 0.000000 3.352290 0.000000 
#    z -0.087270 0.000000 3.184100 
# 
# 
# High freq. dielectric constant tensor:
#      x y z
#    x 1.727360 0.000000 -0.012230 
#    y 0.000000 1.720360 0.000000 
#    z -0.012230 0.000000 1.728830 
# 
# From -- ./inp_files/305408.got.cif
#   From: 2010.06.25/outbox.cif.g09.slc.cpg/sg12_153_cif.got.tgz:305408.got - 2010.06.28 00:19:55.
