data_PCOD8082302
_publ_section_title
;
Structure prediction by ZEFSAII (Michael W. Deem and Ramdas Pophale) SiO2 
 PCOD8082302
Probable space group: C 2/M
;
_chemical_formula_sum "Si O2"
_cell_formula_units_Z 32
_cell_length_a 5.266311
_cell_length_b 26.560951
_cell_length_c 15.044736
_cell_angle_alpha 90.000000
_cell_angle_beta 56.432623
_cell_angle_gamma 90.000000
_cell_volume 1753.488095
_symmetry_space_group_name_H-M "C 2/M"
_symmetry_group_IT_number 12
_symmetry_cell_setting 'monoclinic'
loop_
_space_group_symop_operation_xyz
x,y,z
-x,y,-z
-x,-y,-z
x,-y,z
1/2+x,1/2+y,z
1/2-x,1/2+y,-z
1/2-x,1/2-y,-z
1/2+x,1/2-y,z
loop_
_atom_site_type_symbol
_atom_site_label
_atom_site_fract_x
_atom_site_fract_y
_atom_site_fract_z
Si Si1 0.195042 0.891477 0.197624
Si Si2 0.197908 0.280939 0.875665
Si Si3 0.282605 0.943398 0.819932
Si Si4 0.381163 0.443218 0.615848
O O1 0.203841 0.831551 0.192770
O O2 0.538834 0.914788 0.134167
O O3 0.009331 0.908465 0.322609
O O4 0.023310 0.913260 0.144560
O O5 0.503134 0.251818 0.844321
O O6 0.000000 0.295081 0.000000
O O7 0.511009 0.944615 0.690389
O O8 0.197416 0.000000 0.866487
O O9 0.500000 0.420088 0.500000
O O10 0.511615 0.500000 0.602952
#
# Coordination Sequence:
#
# PCOD8082302 Si02
#       4
#     8   8   8   8
#     4  10  18  31  51  73 101 132 162 206 253 289
#     4  10  21  37  57  77  94 121 169 220 258 294
#     4   9  17  29  48  74 104 135 163 195 237 292
#     4   8  16  29  48  75 104 134 167 197 231 287
#
# _framework density 18.249341000000001
#
# number of rings (size 3 to 8) (size 9 to 14) (size 15 to 20)
#    1.500    1.250    0.000    3.000    0.000    1.000 
#    0.000    3.750    0.000    9.750    0.000    0.000 
#    0.000    0.000    0.000    0.000    0.000    0.000 
#
# Total GULP energy -198219.819845 kJ/mol
# GULP energy per Si atom -12388.738740 kJ/mol
# Density = 1.820780 g / cm^3
# Si number density = 18.249341 Si / 1000 Ang^3
#
#
#
# Elastic Constant Matrix: (Units=GPa)
#
#
# Indices 1 2 3 4 5 6 
#
# 1 154.9105 68.3590 11.6650 0.0000 -1.7433 0.0000
# 2 68.3590 150.4348 28.2022 0.0000 7.3132 0.0000
# 3 11.6650 28.2022 33.6853 0.0000 5.0239 0.0000
# 4 0.0000 0.0000 0.0000 24.6385 0.0000 3.5826
# 5 -1.7433 7.3132 5.0239 0.0000 3.4593 0.0000
# 6 0.0000 0.0000 0.0000 3.5826 0.0000 34.5763
#
#
#
# Elastic Compliance Matrix: (Units=1/GPa)
#
#
# Indices 1 2 3 4 5 6 
#
# 1 0.008725 -0.004430 -0.001742 0.000000 0.016292 0.000000
# 2 -0.004430 0.010362 -0.004520 0.000000 -0.017574 0.000000
# 3 -0.001742 -0.004520 0.041843 0.000000 -0.052090 0.000000
# 4 0.000000 0.000000 0.000000 0.041208 0.000000 -0.004270
# 5 0.016292 -0.017574 -0.052090 0.000000 0.410088 0.000000
# 6 0.000000 0.000000 0.000000 -0.004270 0.000000 0.029364
#
#
# Mechanical properties :
#
#
# Convention : Reuss Voigt Hill
#
# Bulk Modulus (GPa) = 25.28770 61.72033 43.50402
# Shear Modulus (GPa) = 8.67819 27.92177 18.29998
#
# Velocity S-wave (km/s) = 2.18304 3.91578 3.17010
# Velocity P-wave (km/s) = 4.49901 7.37146 6.10654
#
# Compressibility (1/GPa) = 0.03954492
#
# Stress axis : x y z
#
# Youngs Moduli (GPa) = 114.61631 96.50443 23.89863
#
# Poissons Ratio (x) = 0.42752 0.04164
# Poissons Ratio (y) = 0.50775 0.10803
# Poissons Ratio (z) = 0.19969 0.43624
#
# Static dielectric constant tensor:
#      x y z
#    x 3.350130 0.000000 -0.008620 
#    y 0.000000 3.164000 0.000000 
#    z -0.008620 0.000000 2.962020 
# 
# 
# High freq. dielectric constant tensor:
#      x y z
#    x 1.711800 0.000000 -0.000050 
#    y 0.000000 1.697820 0.000000 
#    z -0.000050 0.000000 1.665130 
# 
# From -- ./inp_files/114771.got.cif
#   From: 2010.06.25/outbox.cif.g09.slc.cpg/sg12_58_cif.got.tgz:114771.got - 2010.06.28 00:19:55.
