data_PCOD8082647
_publ_section_title
;
Structure prediction by ZEFSAII (Michael W. Deem and Ramdas Pophale) SiO2 
 PCOD8082647
Probable space group: C 2/M
;
_chemical_formula_sum "Si O2"
_cell_formula_units_Z 64
_cell_length_a 18.093020
_cell_length_b 21.204626
_cell_length_c 11.332312
_cell_angle_alpha 90.000000
_cell_angle_beta 57.164725
_cell_angle_gamma 90.000000
_cell_volume 3653.086057
_symmetry_space_group_name_H-M "C 2/M"
_symmetry_group_IT_number 12
_symmetry_cell_setting 'monoclinic'
loop_
_space_group_symop_operation_xyz
x,y,z
-x,y,-z
-x,-y,-z
x,-y,z
1/2+x,1/2+y,z
1/2-x,1/2+y,-z
1/2-x,1/2-y,-z
1/2+x,1/2-y,z
loop_
_atom_site_type_symbol
_atom_site_label
_atom_site_fract_x
_atom_site_fract_y
_atom_site_fract_z
Si Si1 0.775249 0.760556 0.844955
Si Si2 0.870904 0.568916 0.456129
Si Si3 0.234288 0.931954 0.369174
Si Si4 0.997193 0.358779 0.197237
Si Si5 0.645739 0.684564 0.544042
Si Si6 0.361309 0.137252 0.113742
Si Si7 0.280451 0.814588 0.626106
Si Si8 0.473976 0.742728 0.655937
O O1 0.707531 0.808158 0.847332
O O2 0.763072 0.695909 0.780130
O O3 0.875500 0.785319 0.745817
O O4 0.750000 0.750000 0.000000
O O5 0.882478 0.500000 0.508524
O O6 0.788187 0.565553 0.442514
O O7 0.848670 0.626600 0.563443
O O8 0.960912 0.583506 0.307108
O O9 0.166755 0.873468 0.437182
O O10 0.304122 0.923111 0.202137
O O11 0.186558 0.000000 0.391288
O O12 0.022309 0.301881 0.260211
O O13 0.922192 0.337919 0.168757
O O14 0.083159 0.380946 0.050318
O O15 0.675039 0.751684 0.465156
O O16 0.690527 0.672473 0.632350
O O17 0.540047 0.688536 0.647429
O O18 0.500000 0.762520 0.500000
#
# Coordination Sequence:
#
# PCOD8082647 Si02
#       8
#     8   8   8   8   8   8   8   8
#     4  12  22  33  50  77 108 137 174 214 261 309
#     4   9  17  30  51  79 105 132 171 214 255 306
#     4   9  17  30  51  78 105 132 168 215 262 308
#     4  10  19  31  50  74 104 138 173 209 256 310
#     4  10  18  31  54  77  99 130 171 214 261 300
#     4  10  19  33  49  72 106 139 171 210 260 312
#     4  10  18  33  53  75 101 133 168 214 260 301
#     4  12  20  31  50  77 106 132 172 218 258 303
#
# _framework density 17.519435000000001
#
# number of rings (size 3 to 8) (size 9 to 14) (size 15 to 20)
#    0.000    1.750    5.000    0.750    0.000    0.500 
#    0.000    2.500    0.000    7.500    0.000    0.000 
#    0.000    4.000    0.000    0.000    0.000    0.000 
#
# Total GULP energy -396483.931223 kJ/mol
# GULP energy per Si atom -12390.122851 kJ/mol
# Density = 1.747956 g / cm^3
# Si number density = 17.519435 Si / 1000 Ang^3
#
#
#
# Elastic Constant Matrix: (Units=GPa)
#
#
# Indices 1 2 3 4 5 6 
#
# 1 71.2597 26.1185 40.1805 0.0000 -10.5154 0.0000
# 2 26.1185 119.3131 46.9565 0.0000 -6.4263 0.0000
# 3 40.1805 46.9565 108.9338 0.0000 3.9056 0.0000
# 4 0.0000 0.0000 0.0000 16.4674 0.0000 -1.1150
# 5 -10.5154 -6.4263 3.9056 0.0000 28.3441 0.0000
# 6 0.0000 0.0000 0.0000 -1.1150 0.0000 4.4911
#
#
#
# Elastic Compliance Matrix: (Units=1/GPa)
#
#
# Indices 1 2 3 4 5 6 
#
# 1 0.019580 -0.001085 -0.007041 0.000000 0.007988 0.000000
# 2 -0.001085 0.010397 -0.004172 0.000000 0.002530 0.000000
# 3 -0.007041 -0.004172 0.013771 0.000000 -0.005456 0.000000
# 4 0.000000 0.000000 0.000000 0.061764 0.000000 0.015334
# 5 0.007988 0.002530 -0.005456 0.000000 0.039570 0.000000
# 6 0.000000 0.000000 0.000000 0.015334 0.000000 0.226471
#
#
# Mechanical properties :
#
#
# Convention : Reuss Voigt Hill
#
# Bulk Modulus (GPa) = 52.21434 58.44638 55.33036
# Shear Modulus (GPa) = 12.42138 22.27726 17.34932
#
# Velocity S-wave (km/s) = 2.66560 3.56978 3.15030
# Velocity P-wave (km/s) = 6.27234 7.10102 6.69950
#
# Compressibility (1/GPa) = 0.01915183
#
# Stress axis : x y z
#
# Youngs Moduli (GPa) = 51.07371 96.18094 72.61684
#
# Poissons Ratio (x) = 0.10435 0.51127
# Poissons Ratio (y) = 0.05541 0.30297
# Poissons Ratio (z) = 0.35959 0.40129
#
# Static dielectric constant tensor:
#      x y z
#    x -0.684250 0.000000 -6.295920 
#    y 0.000000 4.195800 0.000000 
#    z -6.295920 0.000000 -6.041660 
# 
# 
# High freq. dielectric constant tensor:
#      x y z
#    x 1.673000 0.000000 -0.001970 
#    y 0.000000 1.651420 0.000000 
#    z -0.001970 0.000000 1.668500 
# 
# From -- ./inp_files/159513.got.cif
#   From: 2010.06.25/outbox.cif.g09.slc.cpg/sg12_80_cif.got.tgz:159513.got - 2010.06.28 00:19:55.
