data_PCOD8082266
_publ_section_title
;
Structure prediction by ZEFSAII (Michael W. Deem and Ramdas Pophale) SiO2 
 PCOD8082266
Probable space group: C 2/M
;
_chemical_formula_sum "Si O2"
_cell_formula_units_Z 48
_cell_length_a 14.353984
_cell_length_b 26.260192
_cell_length_c 12.119588
_cell_angle_alpha 90.000000
_cell_angle_beta 30.373581
_cell_angle_gamma 90.000000
_cell_volume 2309.916090
_symmetry_space_group_name_H-M "C 2/M"
_symmetry_group_IT_number 12
_symmetry_cell_setting 'monoclinic'
loop_
_space_group_symop_operation_xyz
x,y,z
-x,y,-z
-x,-y,-z
x,-y,z
1/2+x,1/2+y,z
1/2-x,1/2+y,-z
1/2-x,1/2-y,-z
1/2+x,1/2-y,z
loop_
_atom_site_type_symbol
_atom_site_label
_atom_site_fract_x
_atom_site_fract_y
_atom_site_fract_z
Si Si1 0.707995 0.943238 0.892471
Si Si2 0.479616 0.664610 0.859498
Si Si3 0.505757 0.442418 0.763958
Si Si4 0.169167 0.405299 0.693558
Si Si5 0.609543 0.311043 0.493026
Si Si6 0.796429 0.301164 0.681131
O O1 0.901510 0.934396 0.754419
O O2 0.729067 0.935415 0.741484
O O3 0.637314 0.000000 0.987017
O O4 0.548890 0.907254 0.106511
O O5 0.432232 0.603623 0.916755
O O6 0.479782 0.686924 0.734738
O O7 0.685677 0.668680 0.700292
O O8 0.326937 0.696947 0.081561
O O9 0.477607 0.500000 0.841669
O O10 0.720335 0.431508 0.519877
O O11 0.214430 0.345819 0.661304
O O12 0.500000 0.333851 0.500000
O O13 0.680689 0.255515 0.388904
O O14 0.000000 0.324128 0.500000
#
# Coordination Sequence:
#
# PCOD8082266 Si02
#       6
#     8   8   8   8   8   8
#     4  10  19  29  47  78 113 153 192 227 284 351
#     4  10  22  40  61  88 116 150 199 239 287 350
#     4  10  20  35  55  79 112 149 189 241 289 335
#     4  10  18  31  50  78 116 150 187 231 281 349
#     4  10  21  37  60  90 119 153 192 233 291 351
#     4  10  23  42  62  83 115 155 196 245 291 334
#
# _framework density 20.779975
#
# number of rings (size 3 to 8) (size 9 to 14) (size 15 to 20)
#    0.000    2.000    0.000    5.000    0.000    9.333 
#    0.000    1.667    0.000    1.000    0.000    0.000 
#    0.000    0.000    0.000    0.000    0.000    0.000 
#
# Total GULP energy -297393.919452 kJ/mol
# GULP energy per Si atom -12391.413310 kJ/mol
# Density = 2.073268 g / cm^3
# Si number density = 20.779975 Si / 1000 Ang^3
#
#
#
# Elastic Constant Matrix: (Units=GPa)
#
#
# Indices 1 2 3 4 5 6 
#
# 1 71.6057 19.2571 31.8631 0.0005 6.6188 0.0000
# 2 19.2571 130.2495 34.6428 0.0005 8.8064 0.0001
# 3 31.8631 34.6428 104.5388 0.0029 5.7775 0.0015
# 4 0.0005 0.0005 0.0029 22.0845 -0.0004 -5.9114
# 5 6.6188 8.8064 5.7775 -0.0004 34.3679 0.0000
# 6 0.0000 0.0001 0.0015 -5.9114 0.0000 27.5918
#
#
#
# Elastic Compliance Matrix: (Units=1/GPa)
#
#
# Indices 1 2 3 4 5 6 
#
# 1 0.016476 -0.001083 -0.004545 0.000000 -0.002132 0.000000
# 2 -0.001083 0.008591 -0.002429 0.000000 -0.001584 0.000000
# 3 -0.004545 -0.002429 0.011783 -0.000002 -0.000483 -0.000001
# 4 0.000000 0.000000 -0.000002 0.048035 0.000001 0.010291
# 5 -0.002132 -0.001584 -0.000483 0.000001 0.029995 0.000000
# 6 0.000000 0.000000 -0.000001 0.010291 0.000000 0.038447
#
#
# Mechanical properties :
#
#
# Convention : Reuss Voigt Hill
#
# Bulk Modulus (GPa) = 48.22728 53.10221 50.66475
# Shear Modulus (GPa) = 28.35208 31.51758 29.93483
#
# Velocity S-wave (km/s) = 3.69778 3.89874 3.79959
# Velocity P-wave (km/s) = 6.44130 6.77325 6.60936
#
# Compressibility (1/GPa) = 0.02073515
#
# Stress axis : x y z
#
# Youngs Moduli (GPa) = 60.69374 116.40185 84.86869
#
# Poissons Ratio (x) = 0.12606 0.38574
# Poissons Ratio (y) = 0.06573 0.20617
# Poissons Ratio (z) = 0.27587 0.28277
#
# Static dielectric constant tensor:
#      x y z
#    x 3.829790 0.000000 -0.100700 
#    y 0.000000 3.849700 0.000000 
#    z -0.100700 0.000000 3.692570 
# 
# 
# High freq. dielectric constant tensor:
#      x y z
#    x 1.797450 0.000000 -0.010920 
#    y 0.000000 1.815750 0.000000 
#    z -0.010920 0.000000 1.802960 
# 
# From -- ./inp_files/149614.got.cif
#   From: 2010.06.25/outbox.cif.g09.slc.cpg/sg12_75_cif.got.tgz:149614.got - 2010.06.28 00:19:55.
