data_PCOD8082186
_publ_section_title
;
Structure prediction by ZEFSAII (Michael W. Deem and Ramdas Pophale) SiO2 
 PCOD8082186
Probable space group: C 2/M
;
_chemical_formula_sum "Si O2"
_cell_formula_units_Z 56
_cell_length_a 25.264206
_cell_length_b 9.059782
_cell_length_c 16.805003
_cell_angle_alpha 90.000000
_cell_angle_beta 60.141606
_cell_angle_gamma 90.000000
_cell_volume 3335.881097
_symmetry_space_group_name_H-M "C 2/M"
_symmetry_group_IT_number 12
_symmetry_cell_setting 'monoclinic'
loop_
_space_group_symop_operation_xyz
x,y,z
-x,y,-z
-x,-y,-z
x,-y,z
1/2+x,1/2+y,z
1/2-x,1/2+y,-z
1/2-x,1/2-y,-z
1/2+x,1/2-y,z
loop_
_atom_site_type_symbol
_atom_site_label
_atom_site_fract_x
_atom_site_fract_y
_atom_site_fract_z
Si Si1 0.620241 0.824512 0.392932
Si Si2 0.341356 0.173641 0.906894
Si Si3 0.740447 0.326723 0.717111
Si Si4 0.699617 0.175442 0.593109
Si Si5 0.420509 0.174943 0.406785
Si Si6 0.945036 0.675999 0.715060
Si Si7 0.218537 0.828541 0.911945
O O1 0.689928 0.772004 0.334769
O O2 0.591605 0.761237 0.495805
O O3 0.582121 0.760620 0.347251
O O4 0.618007 0.000000 0.393192
O O5 0.403788 0.232145 0.819625
O O6 0.285511 0.221389 0.891482
O O7 0.343408 0.000000 0.916847
O O8 0.333984 0.244999 0.999449
O O9 0.736325 0.500000 0.699734
O O10 0.703671 0.233303 0.679835
O O11 0.711033 0.290850 0.824711
O O12 0.750000 0.250000 0.500000
O O13 0.633028 0.225128 0.612216
O O14 0.708266 0.000000 0.582928
O O15 0.485723 0.234446 0.326122
O O16 0.422342 0.000000 0.411145
O O17 0.942681 0.500000 0.713799
O O18 0.209753 0.000000 0.934437
#
# Coordination Sequence:
#
# PCOD8082186 Si02
#       7
#     8   8   8   8   8   8   8
#     4   9  14  24  43  69  97 122 150 187 233 280
#     4   9  16  27  46  71  97 121 151 191 236 286
#     4  10  18  31  50  71  97 125 157 195 234 277
#     4  11  21  33  49  70  96 127 162 198 233 273
#     4   9  17  27  43  68  96 124 157 195 231 275
#     4   9  15  25  44  71  98 123 152 192 239 280
#     4   9  17  29  46  69  97 125 152 189 236 283
#
# _framework density 16.787168999999999
#
# number of rings (size 3 to 8) (size 9 to 14) (size 15 to 20)
#    0.000    2.571    2.857    0.857    0.000    2.286 
#    0.000    0.000    0.000    2.571    0.000    7.000 
#    0.000    0.000    0.000    0.000    0.000    0.000 
#
# Total GULP energy -347115.813922 kJ/mol
# GULP energy per Si atom -12396.993354 kJ/mol
# Density = 1.674896 g / cm^3
# Si number density = 16.787169 Si / 1000 Ang^3
#
#
#
# Elastic Constant Matrix: (Units=GPa)
#
#
# Indices 1 2 3 4 5 6 
#
# 1 124.6345 28.7160 81.0598 0.0000 -6.0713 0.0000
# 2 28.7160 27.0888 34.7503 0.0000 2.4357 0.0002
# 3 81.0598 34.7503 158.1436 0.0000 -4.4184 0.0000
# 4 0.0000 0.0000 0.0000 24.4779 0.0000 4.6100
# 5 -6.0713 2.4357 -4.4184 0.0000 26.2772 0.0000
# 6 0.0000 0.0002 0.0000 4.6100 0.0000 18.9326
#
#
#
# Elastic Compliance Matrix: (Units=1/GPa)
#
#
# Indices 1 2 3 4 5 6 
#
# 1 0.013211 -0.007923 -0.004948 0.000000 0.002955 0.000000
# 2 -0.007923 0.057358 -0.008784 0.000000 -0.008624 -0.000001
# 3 -0.004948 -0.008784 0.010831 0.000000 0.001492 0.000000
# 4 0.000000 0.000000 0.000000 0.042817 0.000000 -0.010426
# 5 0.002955 -0.008624 0.001492 0.000000 0.039789 0.000000
# 6 0.000000 -0.000001 0.000000 -0.010426 0.000000 0.055357
#
#
# Mechanical properties :
#
#
# Convention : Reuss Voigt Hill
#
# Bulk Modulus (GPa) = 26.25290 66.54657 46.39974
# Shear Modulus (GPa) = 18.15748 24.96027 21.55888
#
# Velocity S-wave (km/s) = 3.29238 3.86017 3.58753
# Velocity P-wave (km/s) = 5.48868 7.71980 6.69780
#
# Compressibility (1/GPa) = 0.03809102
#
# Stress axis : x y z
#
# Youngs Moduli (GPa) = 75.69511 17.43450 92.32405
#
# Poissons Ratio (x) = 0.13813 0.45682
# Poissons Ratio (y) = 0.59970 0.81095
# Poissons Ratio (z) = 0.37454 0.15314
#
# Static dielectric constant tensor:
#      x y z
#    x 3.215390 0.000000 -0.030950 
#    y 0.000000 2.748710 0.000000 
#    z -0.030950 0.000000 3.356960 
# 
# 
# High freq. dielectric constant tensor:
#      x y z
#    x 1.631630 0.000000 0.002940 
#    y 0.000000 1.602560 0.000000 
#    z 0.002940 0.000000 1.654790 
# 
# From -- ./inp_files/291822.got.cif
#   From: 2010.06.25/outbox.cif.g09.slc.cpg/sg12_146_cif.got.tgz:291822.got - 2010.06.28 00:19:55.
