data_PCOD8082664
_publ_section_title
;
Structure prediction by ZEFSAII (Michael W. Deem and Ramdas Pophale) SiO2 
 PCOD8082664
Probable space group: C 2/M
;
_chemical_formula_sum "Si O2"
_cell_formula_units_Z 64
_cell_length_a 20.179352
_cell_length_b 8.918956
_cell_length_c 25.487524
_cell_angle_alpha 90.000000
_cell_angle_beta 133.802872
_cell_angle_gamma 90.000000
_cell_volume 3310.708586
_symmetry_space_group_name_H-M "C 2/M"
_symmetry_group_IT_number 12
_symmetry_cell_setting 'monoclinic'
loop_
_space_group_symop_operation_xyz
x,y,z
-x,y,-z
-x,-y,-z
x,-y,z
1/2+x,1/2+y,z
1/2-x,1/2+y,-z
1/2-x,1/2-y,-z
1/2+x,1/2-y,z
loop_
_atom_site_type_symbol
_atom_site_label
_atom_site_fract_x
_atom_site_fract_y
_atom_site_fract_z
Si Si1 0.794630 0.321412 0.281723
Si Si2 0.908705 0.822596 0.809257
Si Si3 0.542246 0.322185 0.970414
Si Si4 0.755723 0.177203 0.946464
Si Si5 0.373464 0.175262 0.216489
Si Si6 0.393282 0.823041 0.441224
Si Si7 0.743020 0.676926 0.552713
Si Si8 0.570533 0.173091 0.287078
O O1 0.797354 0.500000 0.281574
O O2 0.691524 0.258832 0.230975
O O3 0.836146 0.253811 0.250460
O O4 0.852542 0.265212 0.363609
O O5 0.939530 0.773865 0.769144
O O6 0.983951 0.755710 0.890189
O O7 0.905737 0.000000 0.809886
O O8 0.532798 0.500000 0.965380
O O9 0.500000 0.253036 0.000000
O O10 0.647482 0.273619 0.025018
O O11 0.678202 0.239806 0.863666
O O12 0.747592 0.000000 0.949552
O O13 0.750000 0.250000 0.000000
O O14 0.481965 0.208076 0.274354
O O15 0.351640 0.000000 0.205594
O O16 0.500000 0.778870 0.500000
O O17 0.342245 0.742460 0.461385
O O18 0.379140 0.000000 0.440827
O O19 0.730157 0.500000 0.539964
O O20 0.750000 0.750000 0.500000
O O21 0.838030 0.719805 0.632698
O O22 0.572700 0.000000 0.271413
#
# Coordination Sequence:
#
# PCOD8082664 Si02
#       8
#     8   8   8   8   8   8   8   8
#     4   9  17  31  53  79 105 135 176 222 262 312
#     4  10  18  31  54  79 105 137 176 224 271 319
#     4   9  17  29  49  78 106 135 177 225 268 312
#     4  10  19  32  51  75 105 140 178 222 270 320
#     4   9  18  32  52  77 104 140 184 222 261 315
#     4  10  21  37  61  88 113 144 182 225 275 336
#     4  11  24  40  60  84 115 149 185 230 277 332
#     4  10  21  36  55  78 106 141 179 220 265 320
#
# _framework density 19.331208
#
# number of rings (size 3 to 8) (size 9 to 14) (size 15 to 20)
#    0.000    2.250    1.250    1.875    1.750    3.750 
#    0.000    0.000    0.000    5.250    0.000    0.000 
#    0.000    0.000    0.000    0.000    0.000    0.000 
#
# Total GULP energy -396779.618692 kJ/mol
# GULP energy per Si atom -12399.363084 kJ/mol
# Density = 1.928721 g / cm^3
# Si number density = 19.331208 Si / 1000 Ang^3
#
#
#
# Elastic Constant Matrix: (Units=GPa)
#
#
# Indices 1 2 3 4 5 6 
#
# 1 134.2610 28.5209 57.6250 0.0000 -8.5106 0.0000
# 2 28.5209 24.2116 28.1492 0.0000 -0.9901 0.0000
# 3 57.6250 28.1492 130.4279 0.0000 -3.8998 0.0000
# 4 0.0000 0.0000 0.0000 19.1823 0.0000 -7.0249
# 5 -8.5106 -0.9901 -3.8998 0.0000 44.3947 0.0000
# 6 0.0000 0.0000 0.0000 -7.0249 0.0000 21.6914
#
#
#
# Elastic Compliance Matrix: (Units=1/GPa)
#
#
# Indices 1 2 3 4 5 6 
#
# 1 0.010691 -0.009468 -0.002632 0.000000 0.001607 0.000000
# 2 -0.009468 0.063524 -0.009564 0.000000 -0.001239 0.000000
# 3 -0.002632 -0.009564 0.010901 0.000000 0.000240 0.000000
# 4 0.000000 0.000000 0.000000 0.059146 0.000000 0.019155
# 5 0.001607 -0.001239 0.000240 0.000000 0.022827 0.000000
# 6 0.000000 0.000000 0.000000 0.019155 0.000000 0.052305
#
#
# Mechanical properties :
#
#
# Convention : Reuss Voigt Hill
#
# Bulk Modulus (GPa) = 23.92992 57.49894 40.71443
# Shear Modulus (GPa) = 18.07330 28.69405 23.38367
#
# Velocity S-wave (km/s) = 3.06098 3.85689 3.48175
# Velocity P-wave (km/s) = 4.98984 7.04577 6.10497
#
# Compressibility (1/GPa) = 0.04178869
#
# Stress axis : x y z
#
# Youngs Moduli (GPa) = 93.53675 15.74203 91.73334
#
# Poissons Ratio (x) = 0.14905 0.24144
# Poissons Ratio (y) = 0.88561 0.87732
# Poissons Ratio (z) = 0.24619 0.15055
#
# Static dielectric constant tensor:
#      x y z
#    x 3.345780 0.000000 0.159260 
#    y 0.000000 3.088390 0.000000 
#    z 0.159260 0.000000 3.854060 
# 
# 
# High freq. dielectric constant tensor:
#      x y z
#    x 1.769070 0.000000 0.001810 
#    y 0.000000 1.701110 0.000000 
#    z 0.001810 0.000000 1.769250 
# 
# From -- ./inp_files/346248.got.cif
#   From: 2010.06.25/outbox.cif.g09.slc.cpg/sg12_174_cif.got.tgz:346248.got - 2010.06.28 00:19:55.
