data_PCOD8082503
_publ_section_title
;
Structure prediction by ZEFSAII (Michael W. Deem and Ramdas Pophale) SiO2 
 PCOD8082503
Probable space group: C 2/M
;
_chemical_formula_sum "Si O2"
_cell_formula_units_Z 64
_cell_length_a 20.274125
_cell_length_b 9.081048
_cell_length_c 23.771942
_cell_angle_alpha 90.000000
_cell_angle_beta 53.227542
_cell_angle_gamma 90.000000
_cell_volume 3505.788357
_symmetry_space_group_name_H-M "C 2/M"
_symmetry_group_IT_number 12
_symmetry_cell_setting 'monoclinic'
loop_
_space_group_symop_operation_xyz
x,y,z
-x,y,-z
-x,-y,-z
x,-y,z
1/2+x,1/2+y,z
1/2-x,1/2+y,-z
1/2-x,1/2-y,-z
1/2+x,1/2-y,z
loop_
_atom_site_type_symbol
_atom_site_label
_atom_site_fract_x
_atom_site_fract_y
_atom_site_fract_z
Si Si1 0.548891 0.330581 0.854940
Si Si2 0.668517 0.829260 0.265067
Si Si3 0.431713 0.837433 0.986828
Si Si4 0.183462 0.325831 0.859711
Si Si5 0.398672 0.667402 0.295155
Si Si6 0.791200 0.670948 0.629907
Si Si7 0.979204 0.328881 0.355032
Si Si8 0.928726 0.825716 0.493931
O O1 0.559967 0.500000 0.866309
O O2 0.625123 0.242682 0.841917
O O3 0.548576 0.309333 0.788253
O O4 0.460649 0.273289 0.923130
O O5 0.724838 0.736803 0.193564
O O6 0.683867 0.774863 0.320748
O O7 0.575101 0.796877 0.295828
O O8 0.692198 0.000000 0.247341
O O9 0.348092 0.785014 0.060991
O O10 0.420242 0.000000 0.966109
O O11 0.500000 0.843562 0.000000
O O12 0.182613 0.500000 0.851412
O O13 0.408676 0.500000 0.311936
O O14 0.304151 0.703011 0.330834
O O15 0.430463 0.781461 0.324667
O O16 0.813498 0.500000 0.610805
O O17 0.841460 0.764273 0.558906
O O18 0.963317 0.500000 0.375463
O O19 0.946266 0.236051 0.423710
O O20 0.000000 0.772376 0.500000
O O21 0.923790 0.000000 0.492994
#
# Coordination Sequence:
#
# PCOD8082503 Si02
#       8
#     8   8   8   8   8   8   8   8
#     4  10  18  31  52  78 109 148 186 225 274 323
#     4  10  20  36  57  82 110 141 185 230 273 325
#     4   8  16  29  44  73 112 145 179 224 276 324
#     4  10  19  30  50  80 113 145 181 228 277 323
#     4  10  22  39  57  81 114 147 182 227 275 326
#     4  10  20  38  61  82 110 146 182 228 276 323
#     4  11  24  40  60  83 110 147 183 224 277 331
#     4  11  23  38  59  87 114 142 181 228 274 326
#
# _framework density 18.255521999999999
#
# number of rings (size 3 to 8) (size 9 to 14) (size 15 to 20)
#    0.000    2.000    2.500    2.250    0.000    6.750 
#    0.000    0.000    0.000    0.750    0.000    0.000 
#    0.000    0.000    0.000    0.000    0.000    0.000 
#
# Total GULP energy -396859.478373 kJ/mol
# GULP energy per Si atom -12401.858699 kJ/mol
# Density = 1.821397 g / cm^3
# Si number density = 18.255522 Si / 1000 Ang^3
#
#
#
# Elastic Constant Matrix: (Units=GPa)
#
#
# Indices 1 2 3 4 5 6 
#
# 1 61.5952 29.3697 22.5835 -0.0001 3.5673 -0.0001
# 2 29.3697 79.8002 57.5184 -0.0003 -3.5617 -0.0007
# 3 22.5835 57.5184 122.3229 0.0000 -7.8019 0.0000
# 4 -0.0001 -0.0003 0.0000 28.0603 0.0000 -1.5113
# 5 3.5673 -3.5617 -7.8019 0.0000 19.0429 0.0000
# 6 -0.0001 -0.0007 0.0000 -1.5113 0.0000 23.8378
#
#
#
# Elastic Compliance Matrix: (Units=1/GPa)
#
#
# Indices 1 2 3 4 5 6 
#
# 1 0.020231 -0.007180 -0.000705 0.000000 -0.005421 0.000000
# 2 -0.007180 0.021504 -0.008670 0.000000 0.001815 0.000001
# 3 -0.000705 -0.008670 0.012617 0.000000 0.003679 0.000000
# 4 0.000000 0.000000 0.000000 0.035760 0.000000 0.002267
# 5 -0.005421 0.001815 0.003679 0.000000 0.055376 0.000000
# 6 0.000000 0.000001 0.000000 0.002267 0.000000 0.042094
#
#
# Mechanical properties :
#
#
# Convention : Reuss Voigt Hill
#
# Bulk Modulus (GPa) = 47.07644 53.62908 50.35276
# Shear Modulus (GPa) = 21.95184 24.47132 23.21158
#
# Velocity S-wave (km/s) = 3.47144 3.66524 3.56965
# Velocity P-wave (km/s) = 6.47389 6.88133 6.68072
#
# Compressibility (1/GPa) = 0.02124205
#
# Stress axis : x y z
#
# Youngs Moduli (GPa) = 49.42942 46.50258 79.25905
#
# Poissons Ratio (x) = 0.33388 0.05586
# Poissons Ratio (y) = 0.35489 0.68720
# Poissons Ratio (z) = 0.03484 0.40319
#
# Static dielectric constant tensor:
#      x y z
#    x 3.064150 0.000000 -0.135890 
#    y 0.000000 3.399140 0.000000 
#    z -0.135890 0.000000 3.678440 
# 
# 
# High freq. dielectric constant tensor:
#      x y z
#    x 1.672790 0.000000 -0.009990 
#    y 0.000000 1.712860 0.000000 
#    z -0.009990 0.000000 1.723140 
# 
# From -- ./inp_files/346091.got.cif
#   From: 2010.06.25/outbox.cif.g09.slc.cpg/sg12_174_cif.got.tgz:346091.got - 2010.06.28 00:19:55.
