data_PCOD8082735
_publ_section_title
;
Structure prediction by ZEFSAII (Michael W. Deem and Ramdas Pophale) SiO2 
 PCOD8082735
Probable space group: C 2/M
;
_chemical_formula_sum "Si O2"
_cell_formula_units_Z 64
_cell_length_a 18.828050
_cell_length_b 15.554488
_cell_length_c 19.105815
_cell_angle_alpha 90.000000
_cell_angle_beta 147.477750
_cell_angle_gamma 90.000000
_cell_volume 3008.207382
_symmetry_space_group_name_H-M "C 2/M"
_symmetry_group_IT_number 12
_symmetry_cell_setting 'monoclinic'
loop_
_space_group_symop_operation_xyz
x,y,z
-x,y,-z
-x,-y,-z
x,-y,z
1/2+x,1/2+y,z
1/2-x,1/2+y,-z
1/2-x,1/2-y,-z
1/2+x,1/2-y,z
loop_
_atom_site_type_symbol
_atom_site_label
_atom_site_fract_x
_atom_site_fract_y
_atom_site_fract_z
Si Si1 0.354248 0.263832 0.374800
Si Si2 0.364500 0.188519 0.916520
Si Si3 0.008347 0.402567 0.743770
Si Si4 0.815701 0.256194 0.629104
Si Si5 0.760366 0.344977 0.976320
Si Si6 0.102687 0.884759 0.030677
Si Si7 0.493347 0.406637 0.790878
Si Si8 0.387825 0.094144 0.317147
O O1 0.500000 0.308244 0.500000
O O2 0.256006 0.312036 0.239490
O O3 0.291573 0.270010 0.399487
O O4 0.380841 0.164938 0.372670
O O5 0.324043 0.141226 0.953346
O O6 0.401955 0.282768 0.972330
O O7 0.500000 0.145112 0.000000
O O8 0.952992 0.500000 0.704953
O O9 0.016268 0.376742 0.667652
O O10 0.917878 0.335698 0.711943
O O11 0.154784 0.400056 0.898343
O O12 0.750000 0.250000 0.500000
O O13 0.881343 0.164873 0.699270
O O14 0.613043 0.379737 0.839899
O O15 0.750000 0.250000 0.000000
O O16 0.245256 0.920622 0.165847
O O17 0.058626 0.918213 0.919911
O O18 0.000000 0.923889 0.000000
O O19 0.434555 0.500000 0.718918
O O20 0.432930 0.000000 0.383917
#
# Coordination Sequence:
#
# PCOD8082735 Si02
#       8
#     8   8   8   8   8   8   8   8
#     4  11  24  41  63  94 125 171 225 272 331 403
#     4  10  20  36  62  93 127 168 216 268 323 385
#     4  11  22  41  68 102 137 174 219 273 332 400
#     4  12  27  44  67  91 128 182 227 271 331 393
#     4  12  19  35  67  97 133 171 213 268 333 393
#     4  10  18  31  54  90 132 166 199 248 325 401
#     4  12  24  38  61  99 135 169 215 273 330 394
#     4  10  20  35  59  94 133 169 206 261 332 404
#
# _framework density 21.275129
#
# number of rings (size 3 to 8) (size 9 to 14) (size 15 to 20)
#    0.000    1.000    3.750    5.250    1.750    3.250 
#    0.000    0.000    0.000    7.125    0.000    0.000 
#    0.000    0.000    0.000    0.000    0.000    0.000 
#
# Total GULP energy -396588.748472 kJ/mol
# GULP energy per Si atom -12393.398390 kJ/mol
# Density = 2.122671 g / cm^3
# Si number density = 21.275129 Si / 1000 Ang^3
#
#
#
# Elastic Constant Matrix: (Units=GPa)
#
#
# Indices 1 2 3 4 5 6 
#
# 1 158.3236 21.5418 30.4379 -0.0004 4.3395 -0.0002
# 2 21.5418 76.3954 9.6897 -0.0008 7.4635 -0.0006
# 3 30.4379 9.6897 93.6473 -0.0008 5.2008 -0.0006
# 4 -0.0004 -0.0008 -0.0008 -0.1031 -0.0007 -7.2911
# 5 4.3395 7.4635 5.2008 -0.0007 38.1828 -0.0004
# 6 -0.0002 -0.0006 -0.0006 -7.2911 -0.0004 -4.7253
#
#
#
# Elastic Compliance Matrix: (Units=1/GPa)
#
#
# Indices 1 2 3 4 5 6 
#
# 1 0.006948 -0.001679 -0.002075 0.000000 -0.000179 0.000000
# 2 -0.001679 0.013896 -0.000758 0.000000 -0.002422 -0.000001
# 3 -0.002075 -0.000758 0.011497 0.000000 -0.001182 -0.000001
# 4 0.000000 0.000000 0.000000 0.089710 0.000000 -0.138422
# 5 -0.000179 -0.002422 -0.001182 0.000000 0.026845 -0.000002
# 6 0.000000 -0.000001 -0.000001 -0.138422 -0.000002 0.001957
#
#
# Mechanical properties :
#
#
# Convention : Reuss Voigt Hill
#
# Bulk Modulus (GPa) = 42.88385 50.18946 46.53666
# Shear Modulus (GPa) = 29.82446 24.45067 27.13757
#
# Velocity S-wave (km/s) = 3.74819 3.39375 3.57536
# Velocity P-wave (km/s) = 6.23958 6.24489 6.24224
#
# Compressibility (1/GPa) = 0.02331880
#
# Stress axis : x y z
#
# Youngs Moduli (GPa) = 143.91881 71.96375 86.98094
#
# Poissons Ratio (x) = 0.12080 0.18047
# Poissons Ratio (y) = 0.24159 0.06590
# Poissons Ratio (z) = 0.29860 0.05453
#
# Static dielectric constant tensor:
#      x y z
#    x 4.650140 0.000000 0.156360 
#    y 0.000000 3.672270 0.000000 
#    z 0.156360 0.000000 3.739850 
# 
# 
# High freq. dielectric constant tensor:
#      x y z
#    x 1.848980 0.000000 0.003830 
#    y 0.000000 1.809410 0.000000 
#    z 0.003830 0.000000 1.828440 
# 
# From -- ./inp_files/278202.got.cif
#   From: 2010.06.25/outbox.cif.g09.slc.cpg/sg12_140_cif.got.tgz:278202.got - 2010.06.28 00:19:55.
