data_PCOD8082324
_publ_section_title
;
Structure prediction by ZEFSAII (Michael W. Deem and Ramdas Pophale) SiO2 
 PCOD8082324
Probable space group: C 2/M
;
_chemical_formula_sum "Si O2"
_cell_formula_units_Z 56
_cell_length_a 27.869093
_cell_length_b 13.566848
_cell_length_c 15.296706
_cell_angle_alpha 90.000000
_cell_angle_beta 33.943819
_cell_angle_gamma 90.000000
_cell_volume 3229.455884
_symmetry_space_group_name_H-M "C 2/M"
_symmetry_group_IT_number 12
_symmetry_cell_setting 'monoclinic'
loop_
_space_group_symop_operation_xyz
x,y,z
-x,y,-z
-x,-y,-z
x,-y,z
1/2+x,1/2+y,z
1/2-x,1/2+y,-z
1/2-x,1/2-y,-z
1/2+x,1/2-y,z
loop_
_atom_site_type_symbol
_atom_site_label
_atom_site_fract_x
_atom_site_fract_y
_atom_site_fract_z
Si Si1 0.818617 0.610929 0.244460
Si Si2 0.622598 0.116551 0.383582
Si Si3 0.933614 0.384867 0.713344
Si Si4 0.933145 0.612251 0.905117
Si Si5 0.762321 0.691605 0.643197
Si Si6 0.394469 0.803488 0.296668
Si Si7 0.404702 0.613506 0.180951
O O1 0.782795 0.500000 0.308588
O O2 0.742539 0.690175 0.362478
O O3 0.886456 0.633827 0.219204
O O4 0.861315 0.626217 0.085801
O O5 0.625430 0.154232 0.277727
O O6 0.531735 0.153515 0.560268
O O7 0.698773 0.168942 0.321071
O O8 0.635895 0.000000 0.373517
O O9 0.939179 0.500000 0.687804
O O10 0.894713 0.358548 0.867454
O O11 0.967060 0.500000 0.851323
O O12 0.012230 0.682692 0.804739
O O13 0.823287 0.655942 0.471872
O O14 0.668995 0.638420 0.779602
O O15 0.385285 0.686401 0.291391
O O16 0.396911 0.500000 0.223129
O O17 0.500000 0.635048 0.000000
#
# Coordination Sequence:
#
# PCOD8082324 Si02
#       7
#     8   8   8   8   8   8   8
#     4  10  21  33  45  66 101 134 161 193 233 286
#     4   9  16  29  49  76 102 119 149 200 250 290
#     4   8  15  28  49  75 100 121 146 193 255 298
#     4  10  18  31  51  74  99 126 155 195 248 295
#     4  11  21  32  50  74  97 127 164 200 237 279
#     4  11  20  31  50  73  96 125 164 202 236 281
#     4  10  21  35  48  65  96 134 165 195 232 278
#
# _framework density 17.340382000000002
#
# number of rings (size 3 to 8) (size 9 to 14) (size 15 to 20)
#    0.000    2.143    1.429    5.571    0.000    4.571 
#    0.000    0.714    0.000    0.000    0.000    3.000 
#    0.000    0.000    0.000    0.000    0.000    0.429 
#
# Total GULP energy -347009.401545 kJ/mol
# GULP energy per Si atom -12393.192912 kJ/mol
# Density = 1.730091 g / cm^3
# Si number density = 17.340382 Si / 1000 Ang^3
#
#
#
# Elastic Constant Matrix: (Units=GPa)
#
#
# Indices 1 2 3 4 5 6 
#
# 1 119.6920 20.7898 29.2950 0.0000 12.5836 0.0000
# 2 20.7898 65.4797 6.4018 0.0000 0.4334 0.0000
# 3 29.2950 6.4018 42.2404 0.0000 8.2746 0.0000
# 4 0.0000 0.0000 0.0000 20.3558 0.0000 -0.4469
# 5 12.5836 0.4334 8.2746 0.0000 31.6271 0.0000
# 6 0.0000 0.0000 0.0000 -0.4469 0.0000 20.4464
#
#
#
# Elastic Compliance Matrix: (Units=1/GPa)
#
#
# Indices 1 2 3 4 5 6 
#
# 1 0.010687 -0.002741 -0.006504 0.000000 -0.002513 0.000000
# 2 -0.002741 0.016210 -0.000765 0.000000 0.001068 0.000000
# 3 -0.006504 -0.000765 0.029293 0.000000 -0.005066 0.000000
# 4 0.000000 0.000000 0.000000 0.049150 0.000000 0.001074
# 5 -0.002513 0.001068 -0.005066 0.000000 0.033929 0.000000
# 6 0.000000 0.000000 0.000000 0.001074 0.000000 0.048932
#
#
# Mechanical properties :
#
#
# Convention : Reuss Voigt Hill
#
# Bulk Modulus (GPa) = 27.64738 37.82059 32.73398
# Shear Modulus (GPa) = 22.69873 25.88090 24.28981
#
# Velocity S-wave (km/s) = 3.62195 3.86751 3.74674
# Velocity P-wave (km/s) = 5.78532 6.46541 6.13480
#
# Compressibility (1/GPa) = 0.03616979
#
# Stress axis : x y z
#
# Youngs Moduli (GPa) = 93.57284 61.69112 34.13776
#
# Poissons Ratio (x) = 0.16907 0.22203
# Poissons Ratio (y) = 0.25644 0.02613
# Poissons Ratio (z) = 0.60860 0.04721
#
# Static dielectric constant tensor:
#      x y z
#    x 3.380270 0.000000 0.164160 
#    y 0.000000 3.120470 0.000000 
#    z 0.164160 0.000000 3.112390 
# 
# 
# High freq. dielectric constant tensor:
#      x y z
#    x 1.670120 0.000000 0.011820 
#    y 0.000000 1.648080 0.000000 
#    z 0.011820 0.000000 1.654500 
# 
# From -- ./inp_files/224688.got.cif
#   From: 2010.06.25/outbox.cif.g09.slc.cpg/sg12_113_cif.got.tgz:224688.got - 2010.06.28 00:19:55.
