data_PCOD8082968
_publ_section_title
;
Structure prediction by ZEFSAII (Michael W. Deem and Ramdas Pophale) SiO2 
 PCOD8082968
Probable space group: C 2/M
;
_chemical_formula_sum "Si O2"
_cell_formula_units_Z 56
_cell_length_a 26.502431
_cell_length_b 9.436486
_cell_length_c 13.849931
_cell_angle_alpha 90.000000
_cell_angle_beta 59.504582
_cell_angle_gamma 90.000000
_cell_volume 2984.588539
_symmetry_space_group_name_H-M "C 2/M"
_symmetry_group_IT_number 12
_symmetry_cell_setting 'monoclinic'
loop_
_space_group_symop_operation_xyz
x,y,z
-x,y,-z
-x,-y,-z
x,-y,z
1/2+x,1/2+y,z
1/2-x,1/2+y,-z
1/2-x,1/2-y,-z
1/2+x,1/2-y,z
loop_
_atom_site_type_symbol
_atom_site_label
_atom_site_fract_x
_atom_site_fract_y
_atom_site_fract_z
Si Si1 0.279957 0.335657 0.759412
Si Si2 0.992768 0.162934 0.775995
Si Si3 0.421097 0.343625 0.040455
Si Si4 0.274986 0.833917 0.386277
Si Si5 0.620230 0.335014 0.208414
Si Si6 0.307006 0.339785 0.039080
Si Si7 0.088543 0.333962 0.768255
O O1 0.263262 0.500000 0.783250
O O2 0.261681 0.279908 0.671705
O O3 0.349809 0.311081 0.715014
O O4 0.246745 0.257467 0.877910
O O5 0.947044 0.219811 0.736901
O O6 0.051405 0.258902 0.718318
O O7 0.011044 0.000000 0.739984
O O8 0.960205 0.184609 0.909095
O O9 0.435535 0.500000 0.069114
O O10 0.352970 0.336218 0.081738
O O11 0.435048 0.227068 0.107565
O O12 0.250000 0.750000 0.500000
O O13 0.343241 0.797623 0.309685
O O14 0.265020 0.000000 0.412720
O O15 0.615719 0.500000 0.185223
O O16 0.663227 0.270789 0.084883
O O17 0.284535 0.500000 0.042795
O O18 0.076530 0.500000 0.776905
#
# Coordination Sequence:
#
# PCOD8082968 Si02
#       7
#     8   8   8   8   8   8   8
#     4  10  18  32  52  73 100 132 164 210 261 297
#     4   9  18  32  49  73 103 139 175 199 231 293
#     4   9  17  29  46  70 103 140 175 202 232 290
#     4  10  23  39  55  76  99 126 168 217 266 309
#     4   8  16  30  49  73 104 137 170 202 236 291
#     4   9  16  27  45  73 104 137 171 200 237 295
#     4  11  21  33  49  73 102 130 165 212 260 299
#
# _framework density 18.763055000000001
#
# number of rings (size 3 to 8) (size 9 to 14) (size 15 to 20)
#    0.000    2.571    1.429    3.000    0.000    4.000 
#    0.000    2.857    0.000    0.857    0.000    6.000 
#    0.000    0.000    0.000    0.000    0.000    0.000 
#
# Total GULP energy -346955.173802 kJ/mol
# GULP energy per Si atom -12391.256207 kJ/mol
# Density = 1.872035 g / cm^3
# Si number density = 18.763055 Si / 1000 Ang^3
#
#
#
# Elastic Constant Matrix: (Units=GPa)
#
#
# Indices 1 2 3 4 5 6 
#
# 1 175.6522 51.1022 37.3263 0.0000 9.0133 0.0000
# 2 51.1022 59.8885 18.8271 0.0000 -1.0749 0.0000
# 3 37.3263 18.8271 33.7443 0.0000 6.8553 0.0000
# 4 0.0000 0.0000 0.0000 19.3664 0.0000 -3.9179
# 5 9.0133 -1.0749 6.8553 0.0000 13.9732 0.0000
# 6 0.0000 0.0000 0.0000 -3.9179 0.0000 26.5959
#
#
#
# Elastic Compliance Matrix: (Units=1/GPa)
#
#
# Indices 1 2 3 4 5 6 
#
# 1 0.008758 -0.005688 -0.005862 0.000000 -0.003211 0.000000
# 2 -0.005688 0.024758 -0.009611 0.000000 0.010289 0.000000
# 3 -0.005862 -0.009611 0.045387 0.000000 -0.019225 0.000000
# 4 0.000000 0.000000 0.000000 0.053222 0.000000 0.007840
# 5 -0.003211 0.010289 -0.019225 0.000000 0.083860 0.000000
# 6 0.000000 0.000000 0.000000 0.007840 0.000000 0.038755
#
#
# Mechanical properties :
#
#
# Convention : Reuss Voigt Hill
#
# Bulk Modulus (GPa) = 27.33745 53.75514 40.54630
# Shear Modulus (GPa) = 16.16779 22.78905 19.47842
#
# Velocity S-wave (km/s) = 2.93863 3.48885 3.22549
# Velocity P-wave (km/s) = 5.11033 6.70381 5.96056
#
# Compressibility (1/GPa) = 0.03657985
#
# Stress axis : x y z
#
# Youngs Moduli (GPa) = 114.17589 40.39168 22.03262
#
# Poissons Ratio (x) = 0.22976 0.12916
# Poissons Ratio (y) = 0.64946 0.21176
# Poissons Ratio (z) = 0.66931 0.38822
#
# Static dielectric constant tensor:
#      x y z
#    x 4.049920 0.000000 0.010100 
#    y 0.000000 3.252080 0.000000 
#    z 0.010100 0.000000 2.908000 
# 
# 
# High freq. dielectric constant tensor:
#      x y z
#    x 1.760790 0.000000 0.002070 
#    y 0.000000 1.706050 0.000000 
#    z 0.002070 0.000000 1.668650 
# 
# From -- ./inp_files/243651.got.cif
#   From: 2010.06.25/outbox.cif.g09.slc.cpg/sg12_122_cif.got.tgz:243651.got - 2010.06.28 00:19:55.
