data_PCOD8082716
_publ_section_title
;
Structure prediction by ZEFSAII (Michael W. Deem and Ramdas Pophale) SiO2 
 PCOD8082716
Probable space group: C 2/M
;
_chemical_formula_sum "Si O2"
_cell_formula_units_Z 56
_cell_length_a 22.009767
_cell_length_b 17.176339
_cell_length_c 24.243098
_cell_angle_alpha 90.000000
_cell_angle_beta 18.912015
_cell_angle_gamma 90.000000
_cell_volume 2970.532965
_symmetry_space_group_name_H-M "C 2/M"
_symmetry_group_IT_number 12
_symmetry_cell_setting 'monoclinic'
loop_
_space_group_symop_operation_xyz
x,y,z
-x,y,-z
-x,-y,-z
x,-y,z
1/2+x,1/2+y,z
1/2-x,1/2+y,-z
1/2-x,1/2-y,-z
1/2+x,1/2-y,z
loop_
_atom_site_type_symbol
_atom_site_label
_atom_site_fract_x
_atom_site_fract_y
_atom_site_fract_z
Si Si1 0.946294 0.836074 0.822219
Si Si2 0.940823 0.912290 0.613061
Si Si3 0.870226 0.589782 0.970867
Si Si4 0.154797 0.302263 0.908192
Si Si5 0.775383 0.412343 0.393666
Si Si6 0.680829 0.089182 0.519978
Si Si7 0.158354 0.697917 0.162956
O O1 0.835731 0.895092 0.876775
O O2 0.956694 0.754672 0.779643
O O3 0.157996 0.866450 0.653966
O O4 0.839695 0.831563 0.972709
O O5 0.772166 0.853422 0.764518
O O6 0.000000 0.916653 0.500000
O O7 0.107246 0.871419 0.505538
O O8 0.890889 0.000000 0.677406
O O9 0.887370 0.500000 0.971273
O O10 0.924078 0.637876 0.978758
O O11 0.017903 0.620848 0.797756
O O12 0.269021 0.236386 0.842739
O O13 0.000000 0.264496 0.000000
O O14 0.778736 0.500000 0.368115
O O15 0.729325 0.408123 0.496953
O O16 0.478204 0.130330 0.696770
O O17 0.652648 0.000000 0.523594
#
# Coordination Sequence:
#
# PCOD8082716 Si02
#       7
#     8   8   8   8   8   8   8
#     4  10  20  35  56  85 120 154 190 228 289 351
#     4  10  20  34  51  78 114 154 198 234 269 327
#     4  10  18  31  54  82 117 153 187 230 274 335
#     4  11  23  38  53  76 110 153 199 233 284 340
#     4   9  17  29  48  77 113 146 180 226 277 325
#     4  11  21  35  59  87 114 148 191 240 297 347
#     4  10  22  39  55  83 118 153 189 242 288 349
#
# _framework density 18.851835999999999
#
# number of rings (size 3 to 8) (size 9 to 14) (size 15 to 20)
#    0.000    1.857    1.429    3.857    0.000    4.000 
#    2.571    0.000    0.000    0.429    0.000    1.000 
#    0.000    0.000    0.000    0.000    0.000    0.000 
#
# Total GULP energy -346966.049945 kJ/mol
# GULP energy per Si atom -12391.644641 kJ/mol
# Density = 1.880893 g / cm^3
# Si number density = 18.851836 Si / 1000 Ang^3
#
#
#
# Elastic Constant Matrix: (Units=GPa)
#
#
# Indices 1 2 3 4 5 6 
#
# 1 62.1953 25.5843 17.8468 -0.0099 -4.1525 -0.0214
# 2 25.5843 90.9593 48.3764 0.0636 -0.9260 0.0483
# 3 17.8468 48.3764 112.0524 0.0248 7.7005 0.0819
# 4 -0.0099 0.0636 0.0248 27.6993 -0.0149 3.0724
# 5 -4.1525 -0.9260 7.7005 -0.0149 24.0633 -0.0008
# 6 -0.0214 0.0483 0.0819 3.0724 -0.0008 14.4659
#
#
#
# Elastic Compliance Matrix: (Units=1/GPa)
#
#
# Indices 1 2 3 4 5 6 
#
# 1 0.018519 -0.004518 -0.001234 0.000015 0.003417 0.000047
# 2 -0.004518 0.015531 -0.006107 -0.000029 0.001772 -0.000018
# 3 -0.001234 -0.006107 0.012054 0.000006 -0.004305 -0.000051
# 4 0.000015 -0.000029 0.000006 0.036973 0.000022 -0.007853
# 5 0.003417 0.001772 -0.004305 0.000022 0.043593 0.000021
# 6 0.000047 -0.000018 -0.000051 -0.007853 0.000021 0.070796
#
#
# Mechanical properties :
#
#
# Convention : Reuss Voigt Hill
#
# Bulk Modulus (GPa) = 44.67239 49.86913 47.27076
# Shear Modulus (GPa) = 21.86789 24.80566 23.33677
#
# Velocity S-wave (km/s) = 3.40955 3.63136 3.52220
# Velocity P-wave (km/s) = 6.26483 6.64026 6.45527
#
# Compressibility (1/GPa) = 0.02238519
#
# Stress axis : x y z
#
# Youngs Moduli (GPa) = 53.99843 64.38745 82.96296
#
# Poissons Ratio (x) = 0.29090 0.10237
# Poissons Ratio (y) = 0.24396 0.50669
# Poissons Ratio (z) = 0.06663 0.39324
#
# Static dielectric constant tensor:
#      x y z
#    x 3.153180 -0.000040 0.091300 
#    y -0.000040 3.393810 0.000270 
#    z 0.091300 0.000270 3.633100 
# 
# 
# High freq. dielectric constant tensor:
#      x y z
#    x 1.700450 0.000000 0.009240 
#    y 0.000000 1.708790 0.000030 
#    z 0.009240 0.000030 1.747610 
# 
# From -- ./inp_files/347780.got.cif
#   From: 2010.06.25/outbox.cif.g09.slc.cpg/sg12_174_cif.got.tgz:347780.got - 2010.06.28 00:19:55.
