data_PCOD8082872
_publ_section_title
;
Structure prediction by ZEFSAII (Michael W. Deem and Ramdas Pophale) SiO2 
 PCOD8082872
Probable space group: C 2/M
;
_chemical_formula_sum "Si O2"
_cell_formula_units_Z 56
_cell_length_a 22.186442
_cell_length_b 21.063395
_cell_length_c 8.168509
_cell_angle_alpha 90.000000
_cell_angle_beta 52.834345
_cell_angle_gamma 90.000000
_cell_volume 3041.994302
_symmetry_space_group_name_H-M "C 2/M"
_symmetry_group_IT_number 12
_symmetry_cell_setting 'monoclinic'
loop_
_space_group_symop_operation_xyz
x,y,z
-x,y,-z
-x,-y,-z
x,-y,z
1/2+x,1/2+y,z
1/2-x,1/2+y,-z
1/2-x,1/2-y,-z
1/2+x,1/2-y,z
loop_
_atom_site_type_symbol
_atom_site_label
_atom_site_fract_x
_atom_site_fract_y
_atom_site_fract_z
Si Si1 0.915071 0.280685 0.642010
Si Si2 0.363175 0.200057 0.397289
Si Si3 0.423642 0.664871 0.212222
Si Si4 0.693559 0.341393 0.171534
Si Si5 0.202914 0.824782 0.794865
Si Si6 0.568927 0.427210 0.508798
Si Si7 0.651785 0.185976 0.928795
O O1 0.904559 0.324775 0.495447
O O2 0.851973 0.225089 0.741831
O O3 0.000000 0.252213 0.500000
O O4 0.903201 0.324674 0.823929
O O5 0.383996 0.274916 0.363837
O O6 0.274132 0.188262 0.563680
O O7 0.383274 0.163622 0.191511
O O8 0.360385 0.632769 0.195748
O O9 0.448881 0.612242 0.300015
O O10 0.500000 0.688228 0.000000
O O11 0.643955 0.401630 0.298655
O O12 0.765276 0.342333 0.174538
O O13 0.724882 0.352636 0.935905
O O14 0.156354 0.760740 0.897978
O O15 0.500000 0.418268 0.500000
O O16 0.581795 0.500000 0.535817
#
# Coordination Sequence:
#
# PCOD8082872 Si02
#       7
#     8   8   8   8   8   8   8
#     4  11  21  29  45  72 105 137 166 203 245 308
#     4  11  20  31  48  72 102 133 172 202 250 310
#     4  11  22  32  49  72  96 138 176 212 255 307
#     4  11  18  34  52  69  94 134 177 207 262 310
#     4  10  18  32  49  71  96 127 168 205 253 311
#     4  11  23  37  51  69  96 133 182 236 271 293
#     4  10  19  31  48  72  99 132 171 204 248 313
#
# _framework density 18.408975999999999
#
# number of rings (size 3 to 8) (size 9 to 14) (size 15 to 20)
#    0.000    1.286    4.286    4.714    6.000    0.286 
#    0.000    0.714    0.000    0.000    0.000    0.000 
#    0.000    0.571    0.000    4.000    0.000    0.000 
#
# Total GULP energy -346865.819113 kJ/mol
# GULP energy per Si atom -12388.064968 kJ/mol
# Density = 1.836708 g / cm^3
# Si number density = 18.408976 Si / 1000 Ang^3
#
#
#
# Elastic Constant Matrix: (Units=GPa)
#
#
# Indices 1 2 3 4 5 6 
#
# 1 103.2006 25.0826 55.6485 0.0000 17.9565 0.0000
# 2 25.0826 34.7388 23.9284 0.0000 -4.2654 0.0000
# 3 55.6485 23.9284 123.9093 0.0000 17.1449 0.0000
# 4 0.0000 0.0000 0.0000 8.7505 0.0000 0.3027
# 5 17.9565 -4.2654 17.1449 0.0000 43.0175 0.0000
# 6 0.0000 0.0000 0.0000 0.3027 0.0000 16.9790
#
#
#
# Elastic Compliance Matrix: (Units=1/GPa)
#
#
# Indices 1 2 3 4 5 6 
#
# 1 0.015055 -0.008521 -0.004370 0.000000 -0.005387 0.000000
# 2 -0.008521 0.039660 -0.005152 0.000000 0.009543 0.000000
# 3 -0.004370 -0.005152 0.011479 0.000000 -0.003262 0.000000
# 4 0.000000 0.000000 0.000000 0.114349 0.000000 -0.002038
# 5 -0.005387 0.009543 -0.003262 0.000000 0.027741 0.000000
# 6 0.000000 0.000000 0.000000 -0.002038 0.000000 0.058933
#
#
# Mechanical properties :
#
#
# Convention : Reuss Voigt Hill
#
# Bulk Modulus (GPa) = 33.21562 52.35196 42.78379
# Shear Modulus (GPa) = 15.95710 24.22868 20.09289
#
# Velocity S-wave (km/s) = 2.94736 3.63179 3.30733
# Velocity P-wave (km/s) = 5.44655 6.78871 6.15433
#
# Compressibility (1/GPa) = 0.03010632
#
# Stress axis : x y z
#
# Youngs Moduli (GPa) = 66.42355 25.21458 87.11269
#
# Poissons Ratio (x) = 0.21486 0.38070
# Poissons Ratio (y) = 0.56602 0.44882
# Poissons Ratio (z) = 0.29029 0.12991
#
# Static dielectric constant tensor:
#      x y z
#    x 4.089530 0.000000 0.686290 
#    y 0.000000 2.654320 0.000000 
#    z 0.686290 0.000000 4.077780 
# 
# 
# High freq. dielectric constant tensor:
#      x y z
#    x 1.739360 0.000000 0.019760 
#    y 0.000000 1.603320 0.000000 
#    z 0.019760 0.000000 1.739860 
# 
# From -- ./inp_files/98791.got.cif
#   From: 2010.06.25/outbox.cif.g09.slc.cpg/sg12_50_cif.got.tgz:98791.got - 2010.06.28 00:19:55.
