data_PCOD8082423
_publ_section_title
;
Structure prediction by ZEFSAII (Michael W. Deem and Ramdas Pophale) SiO2 
 PCOD8082423
Probable space group: C 2/M
;
_chemical_formula_sum "Si O2"
_cell_formula_units_Z 56
_cell_length_a 19.292402
_cell_length_b 8.945812
_cell_length_c 28.686520
_cell_angle_alpha 90.000000
_cell_angle_beta 38.709632
_cell_angle_gamma 90.000000
_cell_volume 3096.161819
_symmetry_space_group_name_H-M "C 2/M"
_symmetry_group_IT_number 12
_symmetry_cell_setting 'monoclinic'
loop_
_space_group_symop_operation_xyz
x,y,z
-x,y,-z
-x,-y,-z
x,-y,z
1/2+x,1/2+y,z
1/2-x,1/2+y,-z
1/2-x,1/2-y,-z
1/2+x,1/2-y,z
loop_
_atom_site_type_symbol
_atom_site_label
_atom_site_fract_x
_atom_site_fract_y
_atom_site_fract_z
Si Si1 0.344792 0.821137 0.919447
Si Si2 0.795103 0.174319 0.751113
Si Si3 0.059132 0.325690 0.398658
Si Si4 0.667033 0.825252 0.438450
Si Si5 0.413049 0.828391 0.192223
Si Si6 0.886714 0.327619 0.313387
Si Si7 0.113828 0.174688 0.197941
O O1 0.462803 0.761400 0.877913
O O2 0.332746 0.765056 0.872814
O O3 0.337205 0.000000 0.923554
O O4 0.250000 0.750000 0.000000
O O5 0.898642 0.243599 0.669476
O O6 0.677822 0.245626 0.794777
O O7 0.806213 0.204522 0.800112
O O8 0.796826 0.000000 0.738492
O O9 0.077620 0.500000 0.381847
O O10 0.125966 0.271742 0.409157
O O11 0.928784 0.290039 0.473671
O O12 0.776264 0.734035 0.396146
O O13 0.695405 0.000000 0.422657
O O14 0.370525 0.805232 0.266836
O O15 0.423950 0.000000 0.173181
O O16 0.905349 0.500000 0.316970
O O17 0.992275 0.234158 0.275185
O O18 0.106805 0.000000 0.189107
#
# Coordination Sequence:
#
# PCOD8082423 Si02
#       7
#     8   8   8   8   8   8   8
#     4  10  20  37  60  83 108 135 170 210 251 305
#     4  10  19  34  53  76 105 137 175 216 260 312
#     4   9  18  30  47  73 105 138 171 219 271 312
#     4   9  17  30  47  72 104 136 175 220 270 314
#     4   8  16  31  52  77 101 130 170 211 250 298
#     4  10  18  31  52  75 101 135 179 224 260 306
#     4  10  21  35  54  78 107 139 170 210 262 314
#
# _framework density 18.086908999999999
#
# number of rings (size 3 to 8) (size 9 to 14) (size 15 to 20)
#    0.000    2.571    1.429    3.000    0.000    1.714 
#    0.000    3.571    0.000    4.286    0.000    0.000 
#    0.000    0.000    0.000    0.000    0.000    0.000 
#
# Total GULP energy -347109.094571 kJ/mol
# GULP energy per Si atom -12396.753378 kJ/mol
# Density = 1.804574 g / cm^3
# Si number density = 18.086909 Si / 1000 Ang^3
#
#
#
# Elastic Constant Matrix: (Units=GPa)
#
#
# Indices 1 2 3 4 5 6 
#
# 1 89.4020 36.1996 46.5592 -0.0001 -5.6471 0.0006
# 2 36.1996 66.2837 43.0741 -0.0009 -1.4497 0.0039
# 3 46.5592 43.0741 127.0634 0.0002 -8.7358 -0.0003
# 4 -0.0001 -0.0009 0.0002 33.6061 -0.0001 0.1767
# 5 -5.6471 -1.4497 -8.7358 -0.0001 19.6771 -0.0005
# 6 0.0006 0.0039 -0.0003 0.1767 -0.0005 22.1011
#
#
#
# Elastic Compliance Matrix: (Units=1/GPa)
#
#
# Indices 1 2 3 4 5 6 
#
# 1 0.015677 -0.006266 -0.003448 0.000000 0.002507 0.000001
# 2 -0.006266 0.021899 -0.005302 0.000001 -0.002539 -0.000004
# 3 -0.003448 -0.005302 0.011177 0.000000 0.003582 0.000001
# 4 0.000000 0.000001 0.000000 0.029758 0.000000 -0.000238
# 5 0.002507 -0.002539 0.003582 0.000000 0.052943 0.000002
# 6 0.000001 -0.000004 0.000001 -0.000238 0.000002 0.045249
#
#
# Mechanical properties :
#
#
# Convention : Reuss Voigt Hill
#
# Bulk Modulus (GPa) = 53.41741 59.37942 56.39842
# Shear Modulus (GPa) = 23.47705 25.53793 24.50749
#
# Velocity S-wave (km/s) = 3.60670 3.76168 3.68501
# Velocity P-wave (km/s) = 6.85144 7.19502 7.02533
#
# Compressibility (1/GPa) = 0.01872049
#
# Stress axis : x y z
#
# Youngs Moduli (GPa) = 63.78974 45.66462 89.46863
#
# Poissons Ratio (x) = 0.28614 0.30846
# Poissons Ratio (y) = 0.39971 0.47437
# Poissons Ratio (z) = 0.21993 0.24212
#
# Static dielectric constant tensor:
#      x y z
#    x 3.350040 0.000000 -0.246870 
#    y 0.000000 3.219840 0.000000 
#    z -0.246870 0.000000 3.309700 
# 
# 
# High freq. dielectric constant tensor:
#      x y z
#    x 1.687090 0.000000 -0.015570 
#    y 0.000000 1.691040 0.000000 
#    z -0.015570 0.000000 1.693830 
# 
# From -- ./inp_files/280176.got.cif
#   From: 2010.06.25/outbox.cif.g09.slc.cpg/sg12_141_cif.got.tgz:280176.got - 2010.06.28 00:19:55.
