data_PCOD8082800
_publ_section_title
;
Structure prediction by ZEFSAII (Michael W. Deem and Ramdas Pophale) SiO2 
 PCOD8082800
Probable space group: C 2/M
;
_chemical_formula_sum "Si O2"
_cell_formula_units_Z 56
_cell_length_a 14.614474
_cell_length_b 22.587771
_cell_length_c 9.766633
_cell_angle_alpha 90.000000
_cell_angle_beta 111.551196
_cell_angle_gamma 90.000000
_cell_volume 2998.653430
_symmetry_space_group_name_H-M "C 2/M"
_symmetry_group_IT_number 12
_symmetry_cell_setting 'monoclinic'
loop_
_space_group_symop_operation_xyz
x,y,z
-x,y,-z
-x,-y,-z
x,-y,z
1/2+x,1/2+y,z
1/2-x,1/2+y,-z
1/2-x,1/2-y,-z
1/2+x,1/2-y,z
loop_
_atom_site_type_symbol
_atom_site_label
_atom_site_fract_x
_atom_site_fract_y
_atom_site_fract_z
Si Si1 0.719336 0.142029 0.439440
Si Si2 0.713087 0.933811 0.697711
Si Si3 0.366830 0.931877 0.831960
Si Si4 0.064564 0.931788 0.162794
Si Si5 0.429662 0.892671 0.151049
Si Si6 0.556398 0.341408 0.396827
Si Si7 0.473646 0.209336 0.642528
O O1 0.687587 0.108357 0.558881
O O2 0.716920 0.097345 0.308557
O O3 0.828319 0.168292 0.507882
O O4 0.639094 0.193834 0.380527
O O5 0.822170 0.921508 0.815406
O O6 0.637196 0.926029 0.777625
O O7 0.705621 0.000000 0.635777
O O8 0.469716 0.929719 0.806585
O O9 0.340250 0.000000 0.851213
O O10 0.374184 0.892830 0.974601
O O11 0.035712 0.891854 0.275403
O O12 0.042694 0.000000 0.189075
O O13 0.000000 0.910671 0.000000
O O14 0.452792 0.825999 0.215487
O O15 0.500000 0.363108 0.500000
O O16 0.512071 0.278940 0.321190
O O17 0.500000 0.193775 0.500000
#
# Coordination Sequence:
#
# PCOD8082800 Si02
#       7
#     8   8   8   8   8   8   8
#     4  10  20  35  54  80 109 146 187 228 273 321
#     4  10  18  31  56  82 109 143 184 225 273 334
#     4  10  20  33  51  80 120 148 178 226 280 340
#     4   9  20  39  58  82 110 140 182 234 279 324
#     4  10  19  33  52  80 115 151 180 219 276 333
#     4  10  22  38  59  79 108 144 190 231 274 324
#     4  10  19  36  57  79 109 148 184 228 269 326
#
# _framework density 18.675049999999999
#
# number of rings (size 3 to 8) (size 9 to 14) (size 15 to 20)
#    0.000    2.143    1.429    2.571    0.000    2.000 
#    5.143    3.571    0.000    2.571    0.000    0.000 
#    0.000    0.000    0.000    0.000    0.000    0.000 
#
# Total GULP energy -347217.063090 kJ/mol
# GULP energy per Si atom -12400.609396 kJ/mol
# Density = 1.863254 g / cm^3
# Si number density = 18.675050 Si / 1000 Ang^3
#
#
#
# Elastic Constant Matrix: (Units=GPa)
#
#
# Indices 1 2 3 4 5 6 
#
# 1 56.8125 25.8155 27.1536 0.0000 -16.8551 0.0000
# 2 25.8155 94.0449 51.7262 0.0000 -4.0171 0.0000
# 3 27.1536 51.7262 107.9396 0.0000 -3.0601 0.0000
# 4 0.0000 0.0000 0.0000 27.4346 0.0000 -2.5332
# 5 -16.8551 -4.0171 -3.0601 0.0000 25.7638 0.0000
# 6 0.0000 0.0000 0.0000 -2.5332 0.0000 24.2419
#
#
#
# Elastic Compliance Matrix: (Units=1/GPa)
#
#
# Indices 1 2 3 4 5 6 
#
# 1 0.026257 -0.004264 -0.004108 0.000000 0.016025 0.000000
# 2 -0.004264 0.015184 -0.006237 0.000000 -0.001163 0.000000
# 3 -0.004108 -0.006237 0.013227 0.000000 -0.002089 0.000000
# 4 0.000000 0.000000 0.000000 0.036805 0.000000 0.003846
# 5 0.016025 -0.001163 -0.002089 0.000000 0.048868 0.000000
# 6 0.000000 0.000000 0.000000 0.003846 0.000000 0.041653
#
#
# Mechanical properties :
#
#
# Convention : Reuss Voigt Hill
#
# Bulk Modulus (GPa) = 39.28996 52.02087 45.65541
# Shear Modulus (GPa) = 22.75875 25.76152 24.26013
#
# Velocity S-wave (km/s) = 3.49473 3.71814 3.60817
# Velocity P-wave (km/s) = 6.11299 6.80801 6.46984
#
# Compressibility (1/GPa) = 0.02545179
#
# Stress axis : x y z
#
# Youngs Moduli (GPa) = 38.08549 65.85712 75.60072
#
# Poissons Ratio (x) = 0.28080 0.31054
# Poissons Ratio (y) = 0.16239 0.47152
# Poissons Ratio (z) = 0.15644 0.41075
#
# Static dielectric constant tensor:
#      x y z
#    x 3.361060 0.000000 0.011530 
#    y 0.000000 3.361950 0.000000 
#    z 0.011530 0.000000 3.456960 
# 
# 
# High freq. dielectric constant tensor:
#      x y z
#    x 1.720260 0.000000 -0.003320 
#    y 0.000000 1.721210 0.000000 
#    z -0.003320 0.000000 1.721990 
# 
# From -- ./inp_files/65293.got.cif
#   From: 2010.06.25/outbox.cif.g09.slc.cpg/sg12_33_cif.got.tgz:65293.got - 2010.06.28 00:19:55.
