data_PCOD8082574
_publ_section_title
;
Structure prediction by ZEFSAII (Michael W. Deem and Ramdas Pophale) SiO2 
 PCOD8082574
Probable space group: C 2/M
;
_chemical_formula_sum "Si O2"
_cell_formula_units_Z 64
_cell_length_a 14.194415
_cell_length_b 13.974530
_cell_length_c 22.858085
_cell_angle_alpha 90.000000
_cell_angle_beta 45.690491
_cell_angle_gamma 90.000000
_cell_volume 3244.522659
_symmetry_space_group_name_H-M "C 2/M"
_symmetry_group_IT_number 12
_symmetry_cell_setting 'monoclinic'
loop_
_space_group_symop_operation_xyz
x,y,z
-x,y,-z
-x,-y,-z
x,-y,z
1/2+x,1/2+y,z
1/2-x,1/2+y,-z
1/2-x,1/2-y,-z
1/2+x,1/2-y,z
loop_
_atom_site_type_symbol
_atom_site_label
_atom_site_fract_x
_atom_site_fract_y
_atom_site_fract_z
Si Si1 0.867129 0.388816 0.630745
Si Si2 0.544502 0.735416 0.600681
Si Si3 0.203823 0.113392 0.313368
Si Si4 0.476860 0.891874 0.139908
Si Si5 0.726793 0.261249 0.415492
Si Si6 0.782201 0.609153 0.890798
Si Si7 0.832761 0.109615 0.181336
Si Si8 0.558975 0.280115 0.037123
O O1 0.896463 0.500000 0.606480
O O2 0.836879 0.336077 0.582777
O O3 0.741305 0.370879 0.726261
O O4 0.992459 0.341881 0.608359
O O5 0.425001 0.660485 0.659853
O O6 0.637733 0.700363 0.507353
O O7 0.625999 0.739011 0.625601
O O8 0.327953 0.140826 0.218529
O O9 0.228790 0.155164 0.366880
O O10 0.185866 0.000000 0.326128
O O11 0.563064 0.881791 0.161901
O O12 0.546262 0.831676 0.057980
O O13 0.477345 0.000000 0.116573
O O14 0.733186 0.500000 0.921698
O O15 0.759285 0.641591 0.833661
O O16 0.707214 0.678893 0.969859
O O17 0.970431 0.166087 0.124091
O O18 0.870064 0.000000 0.158169
O O19 0.500000 0.304893 0.000000
#
# Coordination Sequence:
#
# PCOD8082574 Si02
#       8
#     8   8   8   8   8   8   8   8
#     4  10  20  35  57  82 113 147 179 223 280 332
#     4  10  22  38  56  82 114 144 183 229 276 328
#     4  10  21  38  60  81 109 150 189 228 275 328
#     4  10  21  35  51  75 107 141 181 225 265 317
#     4  10  22  38  56  83 113 144 182 232 276 325
#     4   9  18  32  52  78 106 134 175 228 273 319
#     4   9  18  32  52  79 107 134 172 224 272 320
#     4  10  18  31  53  77 102 142 180 215 272 327
#
# _framework density 19.725550999999999
#
# number of rings (size 3 to 8) (size 9 to 14) (size 15 to 20)
#    0.000    2.250    0.000    3.750    1.750    4.750 
#    0.000    2.500    0.000    0.000    0.000    0.000 
#    0.000    0.000    0.000    0.000    0.000    0.000 
#
# Total GULP energy -396761.162686 kJ/mol
# GULP energy per Si atom -12398.786334 kJ/mol
# Density = 1.968065 g / cm^3
# Si number density = 19.725551 Si / 1000 Ang^3
#
#
#
# Elastic Constant Matrix: (Units=GPa)
#
#
# Indices 1 2 3 4 5 6 
#
# 1 80.1474 25.8012 4.5141 0.0000 -21.1057 0.0000
# 2 25.8012 90.2241 22.8560 0.0000 -10.5963 0.0000
# 3 4.5141 22.8560 55.2225 0.0000 -15.6073 0.0000
# 4 0.0000 0.0000 0.0000 31.4356 0.0000 -0.6320
# 5 -21.1057 -10.5963 -15.6073 0.0000 27.1300 0.0000
# 6 0.0000 0.0000 0.0000 -0.6320 0.0000 19.0391
#
#
#
# Elastic Compliance Matrix: (Units=1/GPa)
#
#
# Indices 1 2 3 4 5 6 
#
# 1 0.017449 -0.004432 0.004484 0.000000 0.014423 0.000000
# 2 -0.004432 0.013624 -0.005669 0.000000 -0.001388 0.000000
# 3 0.004484 -0.005669 0.024419 0.000000 0.015322 0.000000
# 4 0.000000 0.000000 0.000000 0.031832 0.000000 0.001057
# 5 0.014423 -0.001388 0.015322 0.000000 0.056353 0.000000
# 6 0.000000 0.000000 0.000000 0.001057 0.000000 0.052559
#
#
# Mechanical properties :
#
#
# Convention : Reuss Voigt Hill
#
# Bulk Modulus (GPa) = 22.59411 36.88185 29.73798
# Shear Modulus (GPa) = 22.50006 27.01577 24.75792
#
# Velocity S-wave (km/s) = 3.38102 3.70480 3.54661
# Velocity P-wave (km/s) = 5.16922 6.08595 5.64622
#
# Compressibility (1/GPa) = 0.04425933
#
# Stress axis : x y z
#
# Youngs Moduli (GPa) = 57.30851 73.39999 40.95229
#
# Poissons Ratio (x) = 0.32531 -0.18365
# Poissons Ratio (y) = 0.25399 0.23215
# Poissons Ratio (z) = -0.25700 0.41609
#
# Static dielectric constant tensor:
#      x y z
#    x 3.499220 0.000000 -0.132340 
#    y 0.000000 3.589190 0.000000 
#    z -0.132340 0.000000 3.637750 
# 
# 
# High freq. dielectric constant tensor:
#      x y z
#    x 1.756420 0.000000 -0.010440 
#    y 0.000000 1.768500 0.000000 
#    z -0.010440 0.000000 1.770670 
# 
# From -- ./inp_files/340130.got.cif
#   From: 2010.06.25/outbox.cif.g09.slc.cpg/sg12_171_cif.got.tgz:340130.got - 2010.06.28 00:19:55.
