data_PCOD8082068
_publ_section_title
;
Structure prediction by ZEFSAII (Michael W. Deem and Ramdas Pophale) SiO2 
 PCOD8082068
Probable space group: C 2/M
;
_chemical_formula_sum "Si O2"
_cell_formula_units_Z 64
_cell_length_a 27.996909
_cell_length_b 9.622256
_cell_length_c 12.805080
_cell_angle_alpha 90.000000
_cell_angle_beta 93.477613
_cell_angle_gamma 90.000000
_cell_volume 3443.252180
_symmetry_space_group_name_H-M "C 2/M"
_symmetry_group_IT_number 12
_symmetry_cell_setting 'monoclinic'
loop_
_space_group_symop_operation_xyz
x,y,z
-x,y,-z
-x,-y,-z
x,-y,z
1/2+x,1/2+y,z
1/2-x,1/2+y,-z
1/2-x,1/2-y,-z
1/2+x,1/2-y,z
loop_
_atom_site_type_symbol
_atom_site_label
_atom_site_fract_x
_atom_site_fract_y
_atom_site_fract_z
Si Si1 0.221038 0.150788 0.357342
Si Si2 0.271770 0.739901 0.170551
Si Si3 0.440652 0.657623 0.178842
Si Si4 0.521690 0.841730 0.117851
Si Si5 0.896062 0.840306 0.945353
Si Si6 0.142962 0.843933 0.677317
Si Si7 0.188885 0.350879 0.025718
Si Si8 0.680388 0.844773 0.508244
O O1 0.235696 0.176609 0.240232
O O2 0.267660 0.147483 0.435130
O O3 0.184290 0.266417 0.396945
O O4 0.195769 0.000000 0.359864
O O5 0.309306 0.654974 0.245516
O O6 0.239241 0.641309 0.093936
O O7 0.301207 0.839724 0.096968
O O8 0.459493 0.500000 0.197706
O O9 0.484598 0.765326 0.190690
O O10 0.403063 0.701014 0.262291
O O11 0.414514 0.667621 0.065107
O O12 0.570140 0.750930 0.125658
O O13 0.531222 0.000000 0.157383
O O14 0.500000 0.843263 0.000000
O O15 0.843263 0.774576 0.935185
O O16 0.894040 0.000000 0.905812
O O17 0.145338 0.738607 0.580826
O O18 0.137243 0.000000 0.633016
O O19 0.162806 0.500000 0.038317
O O20 0.659866 0.000000 0.486969
#
# Coordination Sequence:
#
# PCOD8082068 Si02
#       8
#     8   8   8   8   8   8   8   8
#     4   9  17  31  47  63  84 117 155 192 234 278
#     4  10  21  33  47  66  91 125 163 202 235 270
#     4   9  17  29  45  66  90 121 154 186 229 280
#     4   9  17  29  45  66  88 114 149 190 234 278
#     4  10  19  32  47  63  88 121 157 195 233 276
#     4  10  18  31  48  67  93 126 159 190 229 280
#     4  11  22  33  47  67  92 124 164 204 237 272
#     4   9  18  29  44  67  90 114 148 191 237 280
#
# _framework density 18.587078999999999
#
# number of rings (size 3 to 8) (size 9 to 14) (size 15 to 20)
#    0.000    2.375    1.250    1.875    0.000    9.000 
#    0.000    0.000    0.000    0.000    0.000    0.000 
#    0.000    1.000    0.000    8.750    0.000    3.375 
#
# Total GULP energy -396642.299742 kJ/mol
# GULP energy per Si atom -12395.071867 kJ/mol
# Density = 1.854477 g / cm^3
# Si number density = 18.587079 Si / 1000 Ang^3
#
#
#
# Elastic Constant Matrix: (Units=GPa)
#
#
# Indices 1 2 3 4 5 6 
#
# 1 81.0221 58.9630 34.2382 0.0000 -32.1948 0.0000
# 2 58.9630 164.7985 38.8757 0.0000 -32.6871 0.0000
# 3 34.2382 38.8757 50.9904 0.0000 -25.2026 0.0000
# 4 0.0000 0.0000 0.0000 14.3879 0.0000 -12.5683
# 5 -32.1948 -32.6871 -25.2026 0.0000 27.2884 0.0000
# 6 0.0000 0.0000 0.0000 -12.5683 0.0000 28.4943
#
#
#
# Elastic Compliance Matrix: (Units=1/GPa)
#
#
# Indices 1 2 3 4 5 6 
#
# 1 0.025397 -0.003923 -0.002898 0.000000 0.022588 0.000000
# 2 -0.003923 0.008741 -0.002102 0.000000 0.003901 0.000000
# 3 -0.002898 -0.002102 0.037213 0.000000 0.028431 0.000000
# 4 0.000000 0.000000 0.000000 0.113068 0.000000 0.049872
# 5 0.022588 0.003901 0.028431 0.000000 0.094225 0.000000
# 6 0.000000 0.000000 0.000000 0.049872 0.000000 0.057092
#
#
# Mechanical properties :
#
#
# Convention : Reuss Voigt Hill
#
# Bulk Modulus (GPa) = 18.69005 62.32941 40.50973
# Shear Modulus (GPa) = 13.46192 25.01639 19.23916
#
# Velocity S-wave (km/s) = 2.69413 3.67263 3.22076
# Velocity P-wave (km/s) = 4.44466 7.18268 5.97268
#
# Compressibility (1/GPa) = 0.05350440
#
# Stress axis : x y z
#
# Youngs Moduli (GPa) = 39.37398 114.40036 26.87269
#
# Poissons Ratio (x) = 0.44879 0.07788
# Poissons Ratio (y) = 0.15446 0.05650
# Poissons Ratio (z) = 0.11411 0.24051
#
# Static dielectric constant tensor:
#      x y z
#    x 3.166500 0.000000 -0.320300 
#    y 0.000000 3.646720 0.000000 
#    z -0.320300 0.000000 3.158050 
# 
# 
# High freq. dielectric constant tensor:
#      x y z
#    x 1.688990 0.000000 -0.034550 
#    y 0.000000 1.734720 0.000000 
#    z -0.034550 0.000000 1.685020 
# 
# From -- ./inp_files/248363.got.cif
#   From: 2010.06.25/outbox.cif.g09.slc.cpg/sg12_125_cif.got.tgz:248363.got - 2010.06.28 00:19:55.
