data_PCOD8082349
_publ_section_title
;
Structure prediction by ZEFSAII (Michael W. Deem and Ramdas Pophale) SiO2 
 PCOD8082349
Probable space group: C 2/M
;
_chemical_formula_sum "Si O2"
_cell_formula_units_Z 64
_cell_length_a 20.046435
_cell_length_b 8.939156
_cell_length_c 19.165227
_cell_angle_alpha 90.000000
_cell_angle_beta 90.318930
_cell_angle_gamma 90.000000
_cell_volume 3434.321161
_symmetry_space_group_name_H-M "C 2/M"
_symmetry_group_IT_number 12
_symmetry_cell_setting 'monoclinic'
loop_
_space_group_symop_operation_xyz
x,y,z
-x,y,-z
-x,-y,-z
x,-y,z
1/2+x,1/2+y,z
1/2-x,1/2+y,-z
1/2-x,1/2-y,-z
1/2+x,1/2-y,z
loop_
_atom_site_type_symbol
_atom_site_label
_atom_site_fract_x
_atom_site_fract_y
_atom_site_fract_z
Si Si1 0.364742 0.173524 0.854444
Si Si2 0.491482 0.676418 0.919691
Si Si3 0.830217 0.831969 0.566851
Si Si4 0.328694 0.831018 0.430342
Si Si5 0.754683 0.326226 0.074277
Si Si6 0.387932 0.827397 0.157838
Si Si7 0.824701 0.671076 0.703064
Si Si8 0.672710 0.676412 0.709854
O O1 0.419598 0.269196 0.894365
O O2 0.292882 0.237875 0.873702
O O3 0.371595 0.191338 0.770905
O O4 0.369675 0.000000 0.876692
O O5 0.497382 0.500000 0.910038
O O6 0.546283 0.754957 0.873003
O O7 0.500000 0.723759 0.000000
O O8 0.750754 0.825382 0.566666
O O9 0.858681 0.739566 0.501351
O O10 0.856846 0.764107 0.639848
O O11 0.856964 0.000000 0.560617
O O12 0.354244 0.736171 0.364481
O O13 0.354852 0.000000 0.423535
O O14 0.733872 0.500000 0.069630
O O15 0.829547 0.306581 0.101521
O O16 0.750000 0.250000 0.000000
O O17 0.371175 0.749255 0.230256
O O18 0.402254 0.000000 0.173404
O O19 0.821196 0.500000 0.678366
O O20 0.749689 0.725509 0.720508
O O21 0.663442 0.500000 0.713082
#
# Coordination Sequence:
#
# PCOD8082349 Si02
#       8
#     8   8   8   8   8   8   8   8
#     4  11  22  38  59  83 111 144 183 227 279 333
#     4  11  25  43  61  81 108 144 185 231 281 334
#     4   9  16  25  41  67 101 142 182 221 265 317
#     4   9  16  26  41  66 103 143 181 221 267 320
#     4  11  23  37  57  83 111 141 179 224 275 333
#     4  11  23  38  57  82 110 144 183 227 277 331
#     4   9  18  31  49  75 107 143 178 221 273 324
#     4  10  18  31  51  76 108 143 181 225 272 325
#
# _framework density 18.635415999999999
#
# number of rings (size 3 to 8) (size 9 to 14) (size 15 to 20)
#    0.000    1.875    1.250    3.375    0.000    9.000 
#    0.000    0.000    0.000    0.000    0.000    0.875 
#    0.000    7.000    0.000    0.000    0.000    0.000 
#
# Total GULP energy -396880.844511 kJ/mol
# GULP energy per Si atom -12402.526391 kJ/mol
# Density = 1.859300 g / cm^3
# Si number density = 18.635416 Si / 1000 Ang^3
#
#
#
# Elastic Constant Matrix: (Units=GPa)
#
#
# Indices 1 2 3 4 5 6 
#
# 1 31.7823 13.3747 9.8671 0.0000 -1.9628 0.0000
# 2 13.3747 98.6104 53.6233 0.0000 -5.2604 0.0000
# 3 9.8671 53.6233 119.3671 0.0000 -3.7539 0.0000
# 4 0.0000 0.0000 0.0000 39.8686 0.0000 -3.0303
# 5 -1.9628 -5.2604 -3.7539 0.0000 18.4141 0.0000
# 6 0.0000 0.0000 0.0000 -3.0303 0.0000 24.5252
#
#
#
# Elastic Compliance Matrix: (Units=1/GPa)
#
#
# Indices 1 2 3 4 5 6 
#
# 1 0.033545 -0.003917 -0.000942 0.000000 0.002265 0.000000
# 2 -0.003917 0.014003 -0.005892 0.000000 0.002382 0.000000
# 3 -0.000942 -0.005892 0.011117 0.000000 0.000483 0.000000
# 4 0.000000 0.000000 0.000000 0.025320 0.000000 0.003129
# 5 0.002265 0.002382 0.000483 0.000000 0.055327 0.000000
# 6 0.000000 0.000000 0.000000 0.003129 0.000000 0.041161
#
#
# Mechanical properties :
#
#
# Convention : Reuss Voigt Hill
#
# Bulk Modulus (GPa) = 26.90795 44.83222 35.87009
# Shear Modulus (GPa) = 23.32499 28.08787 25.70643
#
# Velocity S-wave (km/s) = 3.54170 3.88652 3.71811
# Velocity P-wave (km/s) = 5.58528 6.65205 6.14187
#
# Compressibility (1/GPa) = 0.03716373
#
# Stress axis : x y z
#
# Youngs Moduli (GPa) = 29.81106 71.41224 89.94862
#
# Poissons Ratio (x) = 0.27969 0.08475
# Poissons Ratio (y) = 0.11676 0.52998
# Poissons Ratio (z) = 0.02809 0.42076
#
# Static dielectric constant tensor:
#      x y z
#    x 2.989190 0.000000 0.001740 
#    y 0.000000 3.591640 0.000000 
#    z 0.001740 0.000000 3.600650 
# 
# 
# High freq. dielectric constant tensor:
#      x y z
#    x 1.671150 0.000000 -0.000920 
#    y 0.000000 1.740400 0.000000 
#    z -0.000920 0.000000 1.741660 
# 
# From -- ./inp_files/281292.got.cif
#   From: 2010.06.25/outbox.cif.g09.slc.cpg/sg12_141_cif.got.tgz:281292.got - 2010.06.28 00:19:55.
