data_PCOD8082493
_publ_section_title
;
Structure prediction by ZEFSAII (Michael W. Deem and Ramdas Pophale) SiO2 
 PCOD8082493
Probable space group: C 2/M
;
_chemical_formula_sum "Si O2"
_cell_formula_units_Z 48
_cell_length_a 21.877813
_cell_length_b 9.770491
_cell_length_c 14.716660
_cell_angle_alpha 90.000000
_cell_angle_beta 124.589429
_cell_angle_gamma 90.000000
_cell_volume 2589.742635
_symmetry_space_group_name_H-M "C 2/M"
_symmetry_group_IT_number 12
_symmetry_cell_setting 'monoclinic'
loop_
_space_group_symop_operation_xyz
x,y,z
-x,y,-z
-x,-y,-z
x,-y,z
1/2+x,1/2+y,z
1/2-x,1/2+y,-z
1/2-x,1/2-y,-z
1/2+x,1/2-y,z
loop_
_atom_site_type_symbol
_atom_site_label
_atom_site_fract_x
_atom_site_fract_y
_atom_site_fract_z
Si Si1 0.285445 0.653338 0.603830
Si Si2 0.810964 0.654818 0.308177
Si Si3 0.950527 0.842743 0.709387
Si Si4 0.426378 0.349692 0.491169
Si Si5 0.716845 0.340115 0.053303
Si Si6 0.048174 0.162892 0.953492
O O1 0.268391 0.500000 0.556220
O O2 0.250000 0.750000 0.500000
O O3 0.253433 0.684080 0.674831
O O4 0.372101 0.677350 0.691853
O O5 0.841009 0.500000 0.340434
O O6 0.877590 0.756202 0.385006
O O7 0.776957 0.684471 0.181892
O O8 0.944330 0.775760 0.603295
O O9 0.011177 0.777627 0.828931
O O10 0.972172 0.000000 0.711981
O O11 0.500000 0.376188 0.500000
O O12 0.388242 0.500000 0.475713
O O13 0.712871 0.500000 0.021080
O O14 0.750000 0.250000 0.000000
O O15 0.635100 0.292475 0.021380
O O16 0.041820 0.000000 0.950460
O O17 0.000000 0.219208 0.000000
#
# Coordination Sequence:
#
# PCOD8082493 Si02
#       6
#     8   8   8   8   8   8
#     4  10  18  31  52  78 108 137 171 215 266 321
#     4  10  21  36  54  79 111 143 177 218 272 334
#     4   9  17  30  50  77 105 132 172 223 264 308
#     4  10  21  34  52  79 107 139 181 223 265 314
#     4  10  22  38  58  84 111 145 187 230 278 331
#     4   9  17  32  56  82 107 140 184 231 274 317
#
# _framework density 18.534661
#
# number of rings (size 3 to 8) (size 9 to 14) (size 15 to 20)
#    0.000    2.333    1.667    1.000    2.333    5.000 
#    0.000    0.000    0.000    1.500    0.000    0.000 
#    0.000    0.000    0.000    0.000    0.000    0.000 
#
# Total GULP energy -297379.969799 kJ/mol
# GULP energy per Si atom -12390.832075 kJ/mol
# Density = 1.849248 g / cm^3
# Si number density = 18.534661 Si / 1000 Ang^3
#
#
#
# Elastic Constant Matrix: (Units=GPa)
#
#
# Indices 1 2 3 4 5 6 
#
# 1 104.5645 37.3600 43.2603 0.0000 -7.0950 0.0000
# 2 37.3600 54.8664 50.7537 0.0000 -1.1016 0.0000
# 3 43.2603 50.7537 129.2075 0.0000 0.4546 0.0000
# 4 0.0000 0.0000 0.0000 26.4173 0.0000 2.6087
# 5 -7.0950 -1.1016 0.4546 0.0000 30.6752 0.0000
# 6 0.0000 0.0000 0.0000 2.6087 0.0000 36.5462
#
#
#
# Elastic Compliance Matrix: (Units=1/GPa)
#
#
# Indices 1 2 3 4 5 6 
#
# 1 0.013017 -0.007488 -0.001426 0.000000 0.002763 0.000000
# 2 -0.007488 0.032981 -0.010446 0.000000 -0.000393 0.000000
# 3 -0.001426 -0.010446 0.012324 0.000000 -0.000888 0.000000
# 4 0.000000 0.000000 0.000000 0.038123 0.000000 -0.002721
# 5 0.002763 -0.000393 -0.000888 0.000000 0.033238 0.000000
# 6 0.000000 0.000000 0.000000 -0.002721 0.000000 0.027557
#
#
# Mechanical properties :
#
#
# Convention : Reuss Voigt Hill
#
# Bulk Modulus (GPa) = 51.02453 61.26517 56.14485
# Shear Modulus (GPa) = 24.69215 29.21203 26.95209
#
# Velocity S-wave (km/s) = 3.65391 3.97429 3.81746
# Velocity P-wave (km/s) = 6.73724 7.36112 7.05608
#
# Compressibility (1/GPa) = 0.01959842
#
# Stress axis : x y z
#
# Youngs Moduli (GPa) = 76.82494 30.32077 81.14501
#
# Poissons Ratio (x) = 0.22706 0.11574
# Poissons Ratio (y) = 0.57530 0.84768
# Poissons Ratio (z) = 0.10958 0.31674
#
# Static dielectric constant tensor:
#      x y z
#    x 3.514160 0.000000 -0.044420 
#    y 0.000000 3.098800 0.000000 
#    z -0.044420 0.000000 3.709740 
# 
# 
# High freq. dielectric constant tensor:
#      x y z
#    x 1.727630 0.000000 -0.005750 
#    y 0.000000 1.672060 0.000000 
#    z -0.005750 0.000000 1.732380 
# 
# From -- ./inp_files/165174.got.cif
#   From: 2010.06.25/outbox.cif.g09.slc.cpg/sg12_83_cif.got.tgz:165174.got - 2010.06.28 00:19:55.
