data_PCOD8082190
_publ_section_title
;
Structure prediction by ZEFSAII (Michael W. Deem and Ramdas Pophale) SiO2 
 PCOD8082190
Probable space group: C 2/M
;
_chemical_formula_sum "Si O2"
_cell_formula_units_Z 48
_cell_length_a 30.103419
_cell_length_b 9.109824
_cell_length_c 10.128906
_cell_angle_alpha 90.000000
_cell_angle_beta 102.174929
_cell_angle_gamma 90.000000
_cell_volume 2715.243554
_symmetry_space_group_name_H-M "C 2/M"
_symmetry_group_IT_number 12
_symmetry_cell_setting 'monoclinic'
loop_
_space_group_symop_operation_xyz
x,y,z
-x,y,-z
-x,-y,-z
x,-y,z
1/2+x,1/2+y,z
1/2-x,1/2+y,-z
1/2-x,1/2-y,-z
1/2+x,1/2-y,z
loop_
_atom_site_type_symbol
_atom_site_label
_atom_site_fract_x
_atom_site_fract_y
_atom_site_fract_z
Si Si1 0.789995 0.834991 0.860190
Si Si2 0.887566 0.672332 0.218060
Si Si3 0.702596 0.665892 0.821379
Si Si4 0.122192 0.667270 0.091188
Si Si5 0.023100 0.830919 0.654709
Si Si6 0.026243 0.669485 0.147147
O O1 0.746547 0.742658 0.783536
O O2 0.836246 0.766042 0.831279
O O3 0.785274 0.000000 0.803562
O O4 0.792372 0.831861 0.018833
O O5 0.885697 0.500000 0.244728
O O6 0.842065 0.744576 0.248777
O O7 0.930270 0.740913 0.319365
O O8 0.892988 0.708733 0.066549
O O9 0.699008 0.500000 0.765803
O O10 0.139249 0.500000 0.103403
O O11 0.079988 0.692020 0.161709
O O12 0.000000 0.810780 0.500000
O O13 0.988506 0.769524 0.741355
O O14 0.033726 0.000000 0.693375
O O15 0.014038 0.500000 0.169857
O O16 0.000000 0.721186 0.000000
#
# Coordination Sequence:
#
# PCOD8082190 Si02
#       6
#     8   8   8   8   8   8
#     4   9  16  25  39  64  97 131 166 201 244 299
#     4  10  18  31  50  71  97 131 170 211 255 303
#     4   9  16  26  41  64  96 131 165 203 251 300
#     4   9  17  29  47  71 100 129 162 208 256 301
#     4  11  24  38  51  73 105 138 174 215 257 304
#     4  10  19  35  55  77 101 132 173 215 259 307
#
# _framework density 17.677973999999999
#
# number of rings (size 3 to 8) (size 9 to 14) (size 15 to 20)
#    0.000    2.333    1.667    2.000    0.000    7.000 
#    0.000    0.000    0.000    0.000    0.000    1.167 
#    0.000    0.000    0.000    0.000    0.000    0.000 
#
# Total GULP energy -297643.057756 kJ/mol
# GULP energy per Si atom -12401.794073 kJ/mol
# Density = 1.763774 g / cm^3
# Si number density = 17.677974 Si / 1000 Ang^3
#
#
#
# Elastic Constant Matrix: (Units=GPa)
#
#
# Indices 1 2 3 4 5 6 
#
# 1 125.1509 74.9655 36.1432 0.0000 21.6203 0.0000
# 2 74.9655 138.6962 41.0063 0.0000 14.3820 0.0000
# 3 36.1432 41.0063 43.4563 0.0000 1.8716 0.0000
# 4 0.0000 0.0000 0.0000 19.4818 0.0000 5.0317
# 5 21.6203 14.3820 1.8716 0.0000 18.4336 0.0000
# 6 0.0000 0.0000 0.0000 5.0317 0.0000 37.9043
#
#
#
# Elastic Compliance Matrix: (Units=1/GPa)
#
#
# Indices 1 2 3 4 5 6 
#
# 1 0.015353 -0.004550 -0.007887 0.000000 -0.013656 0.000000
# 2 -0.004550 0.012298 -0.007670 0.000000 -0.003479 0.000000
# 3 -0.007887 -0.007670 0.036312 0.000000 0.011548 0.000000
# 4 0.000000 0.000000 0.000000 0.053152 0.000000 -0.007056
# 5 -0.013656 -0.003479 0.011548 0.000000 0.071808 0.000000
# 6 0.000000 0.000000 0.000000 -0.007056 0.000000 0.027319
#
#
# Mechanical properties :
#
#
# Convention : Reuss Voigt Hill
#
# Bulk Modulus (GPa) = 42.11019 67.94815 55.02917
# Shear Modulus (GPa) = 18.91263 25.50981 22.21122
#
# Velocity S-wave (km/s) = 3.27439 3.80284 3.54847
# Velocity P-wave (km/s) = 6.17802 7.60278 6.92713
#
# Compressibility (1/GPa) = 0.02374722
#
# Stress axis : x y z
#
# Youngs Moduli (GPa) = 65.13391 81.31412 27.53905
#
# Poissons Ratio (x) = 0.37000 0.21721
# Poissons Ratio (y) = 0.29638 0.21123
# Poissons Ratio (z) = 0.51373 0.62370
#
# Static dielectric constant tensor:
#      x y z
#    x 3.420520 0.000000 0.146840 
#    y 0.000000 3.436490 0.000000 
#    z 0.146840 0.000000 2.735090 
# 
# 
# High freq. dielectric constant tensor:
#      x y z
#    x 1.698410 0.000000 0.019620 
#    y 0.000000 1.696310 0.000000 
#    z 0.019620 0.000000 1.618130 
# 
# From -- ./inp_files/185737.got.cif
#   From: 2010.06.25/outbox.cif.g09.slc.cpg/sg12_93_cif.got.tgz:185737.got - 2010.06.28 00:19:55.
