data_PCOD8082687
_publ_section_title
;
Structure prediction by ZEFSAII (Michael W. Deem and Ramdas Pophale) SiO2 
 PCOD8082687
Probable space group: C 2/M
;
_chemical_formula_sum "Si O2"
_cell_formula_units_Z 64
_cell_length_a 22.601928
_cell_length_b 8.812287
_cell_length_c 18.417961
_cell_angle_alpha 90.000000
_cell_angle_beta 115.994003
_cell_angle_gamma 90.000000
_cell_volume 3297.296667
_symmetry_space_group_name_H-M "C 2/M"
_symmetry_group_IT_number 12
_symmetry_cell_setting 'monoclinic'
loop_
_space_group_symop_operation_xyz
x,y,z
-x,y,-z
-x,-y,-z
x,-y,z
1/2+x,1/2+y,z
1/2-x,1/2+y,-z
1/2-x,1/2-y,-z
1/2+x,1/2-y,z
loop_
_atom_site_type_symbol
_atom_site_label
_atom_site_fract_x
_atom_site_fract_y
_atom_site_fract_z
Si Si1 0.693310 0.177773 0.151770
Si Si2 0.183648 0.821939 0.997164
Si Si3 0.414296 0.672142 0.181132
Si Si4 0.550415 0.180977 0.465607
Si Si5 0.324982 0.681422 0.706811
Si Si6 0.182252 0.329748 0.599454
Si Si7 0.950069 0.825787 0.686157
Si Si8 0.827098 0.330585 0.240813
O O1 0.661177 0.251788 0.205977
O O2 0.771008 0.210025 0.191218
O O3 0.679658 0.000000 0.144797
O O4 0.662847 0.250546 0.062891
O O5 0.120410 0.785411 0.913081
O O6 0.196180 0.000000 0.012067
O O7 0.250000 0.750000 0.000000
O O8 0.395933 0.500000 0.192898
O O9 0.493401 0.692150 0.221766
O O10 0.391250 0.786490 0.230965
O O11 0.500000 0.242933 0.500000
O O12 0.624780 0.247562 0.520310
O O13 0.529428 0.234593 0.374670
O O14 0.551682 0.000000 0.469647
O O15 0.321752 0.500000 0.713455
O O16 0.255188 0.746745 0.637501
O O17 0.382400 0.736946 0.684228
O O18 0.192174 0.500000 0.576601
O O19 0.153365 0.326025 0.664935
O O20 0.940998 0.000000 0.658708
O O21 0.802883 0.500000 0.206511
#
# Coordination Sequence:
#
# PCOD8082687 Si02
#       8
#     8   8   8   8   8   8   8   8
#     4  11  21  34  54  82 114 143 178 229 279 329
#     4  11  21  34  54  82 114 145 180 225 280 335
#     4  10  21  35  52  77 110 143 180 227 279 332
#     4  10  20  35  55  81 114 146 180 226 281 338
#     4   9  19  38  59  77 105 148 194 232 271 326
#     4   8  16  31  52  78 105 140 184 226 269 322
#     4  10  22  39  57  79 109 146 187 233 280 326
#     4  10  18  31  54  80 109 145 182 222 273 332
#
# _framework density 19.409839999999999
#
# number of rings (size 3 to 8) (size 9 to 14) (size 15 to 20)
#    0.000    2.125    1.250    3.375    0.000    3.250 
#    0.000    3.750    0.000    3.750    0.000    0.000 
#    0.000    0.000    0.000    0.000    0.000    0.000 
#
# Total GULP energy -396646.404834 kJ/mol
# GULP energy per Si atom -12395.200151 kJ/mol
# Density = 1.936566 g / cm^3
# Si number density = 19.409840 Si / 1000 Ang^3
#
#
#
# Elastic Constant Matrix: (Units=GPa)
#
#
# Indices 1 2 3 4 5 6 
#
# 1 115.0262 26.6896 54.8732 0.0000 -0.5322 0.0000
# 2 26.6896 58.8859 29.5703 0.0000 -1.5384 0.0000
# 3 54.8732 29.5703 127.1756 0.0000 9.2436 0.0000
# 4 0.0000 0.0000 0.0000 23.2865 0.0000 -4.8221
# 5 -0.5322 -1.5384 9.2436 0.0000 24.5010 0.0000
# 6 0.0000 0.0000 0.0000 -4.8221 0.0000 22.9079
#
#
#
# Elastic Compliance Matrix: (Units=1/GPa)
#
#
# Indices 1 2 3 4 5 6 
#
# 1 0.011483 -0.002953 -0.004393 0.000000 0.001721 0.000000
# 2 -0.002953 0.020200 -0.003609 0.000000 0.002566 0.000000
# 3 -0.004393 -0.003609 0.010921 0.000000 -0.004442 0.000000
# 4 0.000000 0.000000 0.000000 0.044901 0.000000 0.009452
# 5 0.001721 0.002566 -0.004442 0.000000 0.042689 0.000000
# 6 0.000000 0.000000 0.000000 0.009452 0.000000 0.045643
#
#
# Mechanical properties :
#
#
# Convention : Reuss Voigt Hill
#
# Bulk Modulus (GPa) = 48.32657 58.15042 53.23850
# Shear Modulus (GPa) = 24.43277 26.80272 25.61774
#
# Velocity S-wave (km/s) = 3.55178 3.72005 3.63689
# Velocity P-wave (km/s) = 6.46314 6.96247 6.71745
#
# Compressibility (1/GPa) = 0.02069255
#
# Stress axis : x y z
#
# Youngs Moduli (GPa) = 87.08884 49.50505 91.57063
#
# Poissons Ratio (x) = 0.14621 0.40225
# Poissons Ratio (y) = 0.25722 0.33047
# Poissons Ratio (z) = 0.38256 0.17866
#
# Static dielectric constant tensor:
#      x y z
#    x 3.467050 0.000000 0.080410 
#    y 0.000000 3.344860 0.000000 
#    z 0.080410 0.000000 3.689170 
# 
# 
# High freq. dielectric constant tensor:
#      x y z
#    x 1.739670 0.000000 0.003570 
#    y 0.000000 1.737200 0.000000 
#    z 0.003570 0.000000 1.762120 
# 
# From -- ./inp_files/324277.got.cif
#   From: 2010.06.25/outbox.cif.g09.slc.cpg/sg12_163_cif.got.tgz:324277.got - 2010.06.28 00:19:55.
