data_PCOD8082921
_publ_section_title
;
Structure prediction by ZEFSAII (Michael W. Deem and Ramdas Pophale) SiO2 
 PCOD8082921
Probable space group: C 2/M
;
_chemical_formula_sum "Si O2"
_cell_formula_units_Z 64
_cell_length_a 30.868101
_cell_length_b 13.747286
_cell_length_c 8.719593
_cell_angle_alpha 90.000000
_cell_angle_beta 75.778146
_cell_angle_gamma 90.000000
_cell_volume 3586.777830
_symmetry_space_group_name_H-M "C 2/M"
_symmetry_group_IT_number 12
_symmetry_cell_setting 'monoclinic'
loop_
_space_group_symop_operation_xyz
x,y,z
-x,y,-z
-x,-y,-z
x,-y,z
1/2+x,1/2+y,z
1/2-x,1/2+y,-z
1/2-x,1/2-y,-z
1/2+x,1/2-y,z
loop_
_atom_site_type_symbol
_atom_site_label
_atom_site_fract_x
_atom_site_fract_y
_atom_site_fract_z
Si Si1 0.925536 0.113100 0.743902
Si Si2 0.685318 0.892859 0.103397
Si Si3 0.484938 0.613774 0.175609
Si Si4 0.220915 0.697353 0.360984
Si Si5 0.098176 0.113438 0.569581
Si Si6 0.851071 0.791895 0.983224
Si Si7 0.776584 0.112818 0.844977
Si Si8 0.819170 0.799600 0.347560
O O1 0.909472 0.157548 0.594561
O O2 0.977774 0.133061 0.726466
O O3 0.914378 0.000000 0.760884
O O4 0.898910 0.161732 0.907564
O O5 0.698202 0.879329 0.269286
O O6 0.665437 0.000000 0.097701
O O7 0.648027 0.815487 0.090340
O O8 0.728465 0.874463 0.962049
O O9 0.477786 0.500000 0.152757
O O10 0.438449 0.659012 0.280687
O O11 0.500000 0.661725 0.000000
O O12 0.221776 0.809014 0.294277
O O13 0.191318 0.702486 0.542564
O O14 0.270345 0.655131 0.354072
O O15 0.148747 0.130741 0.580563
O O16 0.088606 0.000000 0.565920
O O17 0.844860 0.777587 0.169101
O O18 0.812909 0.859984 0.942270
O O19 0.784379 0.000000 0.784020
#
# Coordination Sequence:
#
# PCOD8082921 Si02
#       8
#     8   8   8   8   8   8   8   8
#     4  10  20  33  51  73 100 137 169 199 242 292
#     4  10  19  34  52  67  89 126 168 205 251 294
#     4   9  17  31  49  72 102 131 162 201 243 291
#     4  10  20  36  47  67  99 129 166 209 251 291
#     4  10  20  32  47  71 103 138 171 200 239 295
#     4  11  19  33  49  72  98 125 169 211 247 291
#     4  10  18  32  51  68  91 127 166 204 247 294
#     4  11  21  31  47  67 100 132 161 208 249 286
#
# _framework density 17.843312999999998
#
# number of rings (size 3 to 8) (size 9 to 14) (size 15 to 20)
#    0.000    1.875    2.500    3.750    0.000    5.500 
#    0.000    2.500    0.000    0.000    0.000    0.000 
#    0.000   13.500    0.000    0.000    0.000    0.125 
#
# Total GULP energy -396592.926132 kJ/mol
# GULP energy per Si atom -12393.528942 kJ/mol
# Density = 1.780270 g / cm^3
# Si number density = 17.843313 Si / 1000 Ang^3
#
#
#
# Elastic Constant Matrix: (Units=GPa)
#
#
# Indices 1 2 3 4 5 6 
#
# 1 61.1989 19.8951 34.5837 0.0000 -5.4799 0.0000
# 2 19.8951 53.9602 6.9454 0.0000 -2.6481 0.0000
# 3 34.5837 6.9454 112.9558 0.0000 -6.0874 0.0000
# 4 0.0000 0.0000 0.0000 17.0048 0.0000 -0.2449
# 5 -5.4799 -2.6481 -6.0874 0.0000 29.9377 0.0000
# 6 0.0000 0.0000 0.0000 -0.2449 0.0000 19.3383
#
#
#
# Elastic Compliance Matrix: (Units=1/GPa)
#
#
# Indices 1 2 3 4 5 6 
#
# 1 0.022505 -0.007377 -0.006319 0.000000 0.002182 0.000000
# 2 -0.007377 0.021159 0.000997 0.000000 0.000724 0.000000
# 3 -0.006319 0.000997 0.010787 0.000000 0.001125 0.000000
# 4 0.000000 0.000000 0.000000 0.058817 0.000000 0.000745
# 5 0.002182 0.000724 0.001125 0.000000 0.034095 0.000000
# 6 0.000000 0.000000 0.000000 0.000745 0.000000 0.051720
#
#
# Mechanical properties :
#
#
# Convention : Reuss Voigt Hill
#
# Bulk Modulus (GPa) = 34.42098 38.99594 36.70846
# Shear Modulus (GPa) = 21.35232 24.36889 22.86061
#
# Velocity S-wave (km/s) = 3.46303 3.69957 3.58325
# Velocity P-wave (km/s) = 5.94328 6.33650 6.14304
#
# Compressibility (1/GPa) = 0.02905205
#
# Stress axis : x y z
#
# Youngs Moduli (GPa) = 44.43522 47.26045 92.70349
#
# Poissons Ratio (x) = 0.34864 0.58580
# Poissons Ratio (y) = 0.32780 -0.09239
# Poissons Ratio (z) = 0.28079 -0.04710
#
# Static dielectric constant tensor:
#      x y z
#    x 3.243750 0.000000 0.001290 
#    y 0.000000 2.982580 0.000000 
#    z 0.001290 0.000000 3.611470 
# 
# 
# High freq. dielectric constant tensor:
#      x y z
#    x 1.681010 0.000000 0.005150 
#    y 0.000000 1.633210 0.000000 
#    z 0.005150 0.000000 1.711460 
# 
# From -- ./inp_files/111174.got.cif
#   From: 2010.06.25/outbox.cif.g09.slc.cpg/sg12_56_cif.got.tgz:111174.got - 2010.06.28 00:19:55.
