data_PCOD8082704
_publ_section_title
;
Structure prediction by ZEFSAII (Michael W. Deem and Ramdas Pophale) SiO2 
 PCOD8082704
Probable space group: C 2/M
;
_chemical_formula_sum "Si O2"
_cell_formula_units_Z 52
_cell_length_a 11.281521
_cell_length_b 31.105758
_cell_length_c 8.070444
_cell_angle_alpha 90.000000
_cell_angle_beta 99.649705
_cell_angle_gamma 90.000000
_cell_volume 2792.011167
_symmetry_space_group_name_H-M "C 2/M"
_symmetry_group_IT_number 12
_symmetry_cell_setting 'monoclinic'
loop_
_space_group_symop_operation_xyz
x,y,z
-x,y,-z
-x,-y,-z
x,-y,z
1/2+x,1/2+y,z
1/2-x,1/2+y,-z
1/2-x,1/2-y,-z
1/2+x,1/2-y,z
loop_
_atom_site_type_symbol
_atom_site_label
_atom_site_fract_x
_atom_site_fract_y
_atom_site_fract_z
Si Si1 0.259125 0.549923 0.432837
Si Si2 0.000000 0.902162 0.500000
Si Si3 0.010916 0.840365 0.190513
Si Si4 0.025293 0.453882 0.192860
Si Si5 0.749502 0.305315 0.335472
Si Si6 0.115063 0.608396 0.635265
Si Si7 0.875045 0.218929 0.373434
O O1 0.273995 0.500000 0.482062
O O2 0.388944 0.568665 0.415505
O O3 0.165307 0.557808 0.260197
O O4 0.209862 0.575940 0.577600
O O5 0.035345 0.874774 0.343941
O O6 0.123791 0.807819 0.208381
O O7 0.894398 0.812632 0.220301
O O8 0.000000 0.859823 0.000000
O O9 0.000016 0.500000 0.280515
O O10 0.934162 0.416151 0.216711
O O11 0.000000 0.462531 0.000000
O O12 0.824308 0.347125 0.302580
O O13 0.824376 0.263934 0.293731
O O14 0.723617 0.302724 0.527571
O O15 0.000000 0.619288 0.500000
O O16 0.000000 0.226241 0.500000
#
# Coordination Sequence:
#
# PCOD8082704 Si02
#       7
#     8   4   8   8   8   8   8
#     4  10  20  35  59  83 109 153 192 231 285 339
#     4  12  21  42  58  82 120 154 194 238 277 342
#     4  11  22  37  57  81 111 151 187 231 285 336
#     4   9  19  35  54  80 114 146 182 234 289 338
#     4  10  18  34  56  79 109 144 183 227 281 330
#     4  10  18  31  54  82 106 139 186 230 274 334
#     4   9  18  35  56  79 107 146 184 226 280 339
#
# _framework density 18.624569000000001
#
# number of rings (size 3 to 8) (size 9 to 14) (size 15 to 20)
#    0.000    2.000    3.846    1.154    0.000    3.692 
#    0.000    0.769    0.000    0.923    0.000    0.000 
#    0.000    0.000    0.000    0.000    0.000    0.000 
#
# Total GULP energy -322146.964742 kJ/mol
# GULP energy per Si atom -12390.267875 kJ/mol
# Density = 1.858218 g / cm^3
# Si number density = 18.624569 Si / 1000 Ang^3
#
#
#
# Elastic Constant Matrix: (Units=GPa)
#
#
# Indices 1 2 3 4 5 6 
#
# 1 89.3693 43.3206 13.1486 0.0000 0.7313 0.0000
# 2 43.3206 113.0953 23.7855 0.0000 -1.1010 0.0000
# 3 13.1486 23.7855 76.2536 0.0000 -4.9904 0.0000
# 4 0.0000 0.0000 0.0000 15.7714 0.0000 0.9312
# 5 0.7313 -1.1010 -4.9904 0.0000 13.1932 0.0000
# 6 0.0000 0.0000 0.0000 0.9312 0.0000 43.8647
#
#
#
# Elastic Compliance Matrix: (Units=1/GPa)
#
#
# Indices 1 2 3 4 5 6 
#
# 1 0.013814 -0.005120 -0.000885 0.000000 -0.001528 0.000000
# 2 -0.005120 0.011362 -0.002646 0.000000 0.000231 0.000000
# 3 -0.000885 -0.002646 0.014438 0.000000 0.005290 0.000000
# 4 0.000000 0.000000 0.000000 0.063486 0.000000 -0.001348
# 5 -0.001528 0.000231 0.005290 0.000000 0.077901 0.000000
# 6 0.000000 0.000000 0.000000 -0.001348 0.000000 0.022826
#
#
# Mechanical properties :
#
#
# Convention : Reuss Voigt Hill
#
# Bulk Modulus (GPa) = 44.81860 48.80307 46.81084
# Shear Modulus (GPa) = 21.87537 27.79675 24.83606
#
# Velocity S-wave (km/s) = 3.43088 3.86745 3.65569
# Velocity P-wave (km/s) = 6.30960 6.79731 6.55799
#
# Compressibility (1/GPa) = 0.02231216
#
# Stress axis : x y z
#
# Youngs Moduli (GPa) = 72.38934 88.01157 69.26033
#
# Poissons Ratio (x) = 0.45064 0.06129
# Poissons Ratio (y) = 0.37065 0.18327
# Poissons Ratio (z) = 0.06406 0.23289
#
# Static dielectric constant tensor:
#      x y z
#    x 2.716470 0.000000 0.087120 
#    y 0.000000 3.531490 0.000000 
#    z 0.087120 0.000000 3.072660 
# 
# 
# High freq. dielectric constant tensor:
#      x y z
#    x 1.730230 0.000000 0.001980 
#    y 0.000000 1.728840 0.000000 
#    z 0.001980 0.000000 1.686250 
# 
# From -- ./inp_files/52658.got.cif
#   From: 2010.06.25/outbox.cif.g09.slc.cpg/sg12_27_cif.got.tgz:52658.got - 2010.06.28 00:19:55.
