data_PCOD8082357
_publ_section_title
;
Structure prediction by ZEFSAII (Michael W. Deem and Ramdas Pophale) SiO2 
 PCOD8082357
Probable space group: C 2/M
;
_chemical_formula_sum "Si O2"
_cell_formula_units_Z 64
_cell_length_a 33.580042
_cell_length_b 9.025829
_cell_length_c 12.097334
_cell_angle_alpha 90.000000
_cell_angle_beta 85.752903
_cell_angle_gamma 90.000000
_cell_volume 3656.484762
_symmetry_space_group_name_H-M "C 2/M"
_symmetry_group_IT_number 12
_symmetry_cell_setting 'monoclinic'
loop_
_space_group_symop_operation_xyz
x,y,z
-x,y,-z
-x,-y,-z
x,-y,z
1/2+x,1/2+y,z
1/2-x,1/2+y,-z
1/2-x,1/2-y,-z
1/2+x,1/2-y,z
loop_
_atom_site_type_symbol
_atom_site_label
_atom_site_fract_x
_atom_site_fract_y
_atom_site_fract_z
Si Si1 0.478621 0.171068 0.220420
Si Si2 0.858986 0.826704 0.236805
Si Si3 0.700934 0.326278 0.408615
Si Si4 0.777169 0.170829 0.351050
Si Si5 0.932615 0.673835 0.809984
Si Si6 0.586646 0.826846 0.933962
Si Si7 0.412845 0.826882 0.405251
Si Si8 0.112361 0.824023 0.374024
O O1 0.522768 0.241307 0.214428
O O2 0.451845 0.235570 0.125368
O O3 0.456413 0.197233 0.341448
O O4 0.485321 0.000000 0.192425
O O5 0.811330 0.799373 0.252720
O O6 0.874369 0.759983 0.117880
O O7 0.879244 0.745933 0.336043
O O8 0.869077 0.000000 0.243382
O O9 0.703799 0.500000 0.395212
O O10 0.736634 0.256993 0.327736
O O11 0.705871 0.274469 0.534250
O O12 0.658132 0.270130 0.374753
O O13 0.765714 0.000000 0.359908
O O14 0.930337 0.500000 0.780442
O O15 0.903261 0.766606 0.739437
O O16 0.918439 0.704602 0.936868
O O17 0.592535 0.000000 0.906012
O O18 0.413962 0.749042 0.523742
O O19 0.403246 0.000000 0.420310
O O20 0.108490 0.000000 0.383469
#
# Coordination Sequence:
#
# PCOD8082357 Si02
#       8
#     8   8   8   8   8   8   8   8
#     4   8  16  32  54  77  99 126 166 218 260 290
#     4  10  18  31  51  77 109 135 158 202 259 305
#     4   9  18  32  48  70 101 134 163 199 245 295
#     4   9  17  30  49  75 102 129 162 199 246 296
#     4  10  20  35  54  74  98 133 177 216 250 293
#     4   9  18  33  54  78 100 129 172 216 253 293
#     4  10  19  32  52  76 100 133 174 208 248 298
#     4  11  22  36  50  70 107 141 167 202 253 310
#
# _framework density 17.503149000000001
#
# number of rings (size 3 to 8) (size 9 to 14) (size 15 to 20)
#    0.000    2.500    1.250    2.250    0.000    4.500 
#    0.000    5.625    0.000    4.500    0.000    0.000 
#    0.000    0.000    0.000    0.000    0.000    0.000 
#
# Total GULP energy -396761.901494 kJ/mol
# GULP energy per Si atom -12398.809422 kJ/mol
# Density = 1.746331 g / cm^3
# Si number density = 17.503149 Si / 1000 Ang^3
#
#
#
# Elastic Constant Matrix: (Units=GPa)
#
#
# Indices 1 2 3 4 5 6 
#
# 1 118.7969 48.4329 66.0267 0.0000 -14.2834 0.0000
# 2 48.4329 65.0647 43.8252 0.0000 -5.7937 0.0000
# 3 66.0267 43.8252 93.5768 0.0000 -2.4177 0.0000
# 4 0.0000 0.0000 0.0000 26.3040 0.0000 -0.5794
# 5 -14.2834 -5.7937 -2.4177 0.0000 21.8078 0.0000
# 6 0.0000 0.0000 0.0000 -0.5794 0.0000 26.1013
#
#
#
# Elastic Compliance Matrix: (Units=1/GPa)
#
#
# Indices 1 2 3 4 5 6 
#
# 1 0.016696 -0.005681 -0.008902 0.000000 0.008439 0.000000
# 2 -0.005681 0.024900 -0.007600 0.000000 0.002052 0.000000
# 3 -0.008902 -0.007600 0.020383 0.000000 -0.005590 0.000000
# 4 0.000000 0.000000 0.000000 0.038036 0.000000 0.000844
# 5 0.008439 0.002052 -0.005590 0.000000 0.051308 0.000000
# 6 0.000000 0.000000 0.000000 0.000844 0.000000 0.038331
#
#
# Mechanical properties :
#
#
# Convention : Reuss Voigt Hill
#
# Bulk Modulus (GPa) = 56.77737 66.00088 61.38913
# Shear Modulus (GPa) = 20.84287 22.78618 21.81452
#
# Velocity S-wave (km/s) = 3.45455 3.61201 3.53416
# Velocity P-wave (km/s) = 6.95850 7.42868 7.19743
#
# Compressibility (1/GPa) = 0.01761265
#
# Stress axis : x y z
#
# Youngs Moduli (GPa) = 59.89411 40.16085 49.06142
#
# Poissons Ratio (x) = 0.22814 0.43675
# Poissons Ratio (y) = 0.34024 0.37288
# Poissons Ratio (z) = 0.53318 0.30523
#
# Static dielectric constant tensor:
#      x y z
#    x 3.410220 0.000000 -0.178930 
#    y 0.000000 3.153130 0.000000 
#    z -0.178930 0.000000 3.091430 
# 
# 
# High freq. dielectric constant tensor:
#      x y z
#    x 1.677870 0.000000 -0.017850 
#    y 0.000000 1.666950 0.000000 
#    z -0.017850 0.000000 1.654710 
# 
# From -- ./inp_files/187457.got.cif
#   From: 2010.06.25/outbox.cif.g09.slc.cpg/sg12_94_cif.got.tgz:187457.got - 2010.06.28 00:19:55.
