data_PCOD8082149
_publ_section_title
;
Structure prediction by ZEFSAII (Michael W. Deem and Ramdas Pophale) SiO2 
 PCOD8082149
Probable space group: C 2/M
;
_chemical_formula_sum "Si O2"
_cell_formula_units_Z 60
_cell_length_a 26.542590
_cell_length_b 25.592109
_cell_length_c 14.270399
_cell_angle_alpha 90.000000
_cell_angle_beta 19.065153
_cell_angle_gamma 90.000000
_cell_volume 3166.350693
_symmetry_space_group_name_H-M "C 2/M"
_symmetry_group_IT_number 12
_symmetry_cell_setting 'monoclinic'
loop_
_space_group_symop_operation_xyz
x,y,z
-x,y,-z
-x,-y,-z
x,-y,z
1/2+x,1/2+y,z
1/2-x,1/2+y,-z
1/2-x,1/2-y,-z
1/2+x,1/2-y,z
loop_
_atom_site_type_symbol
_atom_site_label
_atom_site_fract_x
_atom_site_fract_y
_atom_site_fract_z
Si Si1 0.000000 0.698669 0.500000
Si Si2 0.228823 0.854200 0.879872
Si Si3 0.401328 0.828536 0.393645
Si Si4 0.895455 0.942422 0.261531
Si Si5 0.020524 0.770336 0.638562
Si Si6 0.825269 0.356655 0.330593
Si Si7 0.746261 0.852795 0.746661
Si Si8 0.485961 0.559895 0.310281
O O1 0.857779 0.659750 0.730204
O O2 0.961387 0.736052 0.655324
O O3 0.304731 0.859165 0.643196
O O4 0.112240 0.805567 0.083332
O O5 0.140893 0.907523 0.065424
O O6 0.424060 0.768308 0.377876
O O7 0.306395 0.826171 0.462273
O O8 0.568539 0.857292 0.090766
O O9 0.731311 0.915354 0.555554
O O10 0.988472 0.942568 0.194371
O O11 0.856947 0.000000 0.293365
O O12 0.000000 0.913278 0.000000
O O13 0.164185 0.807179 0.354070
O O14 0.737581 0.334844 0.392188
O O15 0.000000 0.361118 0.000000
O O16 0.832343 0.908561 0.614092
O O17 0.488024 0.500000 0.347771
#
# Coordination Sequence:
#
# PCOD8082149 Si02
#       8
#     4   8   8   8   8   8   8   8
#     4  10  20  34  55  80 101 124 158 204 256 304
#     4  10  20  33  53  79 101 127 166 209 252 297
#     4  10  18  31  49  74 107 135 166 208 247 288
#     4   9  16  27  45  67  91 124 168 212 247 283
#     4  10  20  35  54  76 101 132 166 200 246 302
#     4   9  18  30  44  66 100 137 168 201 241 286
#     4   9  19  34  50  72 102 137 174 204 240 295
#     4   9  18  34  52  70  97 133 169 205 248 297
#
# _framework density 18.949259000000001
#
# number of rings (size 3 to 8) (size 9 to 14) (size 15 to 20)
#    0.000    2.533    0.000    2.800    0.000    1.867 
#    0.000    4.333    0.000    0.000    0.000   26.133 
#    0.000    0.000    0.000    0.000    0.000    0.000 
#
# Total GULP energy -371677.006989 kJ/mol
# GULP energy per Si atom -12389.233566 kJ/mol
# Density = 1.890613 g / cm^3
# Si number density = 18.949259 Si / 1000 Ang^3
#
#
#
# Elastic Constant Matrix: (Units=GPa)
#
#
# Indices 1 2 3 4 5 6 
#
# 1 70.3758 30.3464 13.1590 -0.0050 -2.7149 0.0221
# 2 30.3464 115.4166 33.1353 -0.0221 -8.0926 0.0388
# 3 13.1590 33.1353 32.6479 -0.0558 -1.1067 0.0443
# 4 -0.0050 -0.0221 -0.0558 21.6994 0.0033 -4.8508
# 5 -2.7149 -8.0926 -1.1067 0.0033 24.9784 -0.0296
# 6 0.0221 0.0388 0.0443 -4.8508 -0.0296 16.3824
#
#
#
# Elastic Compliance Matrix: (Units=1/GPa)
#
#
# Indices 1 2 3 4 5 6 
#
# 1 0.016256 -0.003331 -0.003153 -0.000009 0.000548 -0.000007
# 2 -0.003331 0.013208 -0.011947 -0.000017 0.003388 0.000007
# 3 -0.003153 -0.011947 0.043950 0.000086 -0.002266 -0.000065
# 4 -0.000009 -0.000017 0.000086 0.049351 0.000008 0.014613
# 5 0.000548 0.003388 -0.002266 0.000008 0.041091 0.000074
# 6 -0.000007 0.000007 -0.000065 0.014613 0.000074 0.065368
#
#
# Mechanical properties :
#
#
# Convention : Reuss Voigt Hill
#
# Bulk Modulus (GPa) = 27.35895 41.30238 34.33067
# Shear Modulus (GPa) = 17.96807 22.06534 20.01671
#
# Velocity S-wave (km/s) = 3.08266 3.41610 3.25365
# Velocity P-wave (km/s) = 5.20958 6.11582 5.68080
#
# Compressibility (1/GPa) = 0.03655111
#
# Stress axis : x y z
#
# Youngs Moduli (GPa) = 61.51444 75.71445 22.75307
#
# Poissons Ratio (x) = 0.25217 0.07175
# Poissons Ratio (y) = 0.20487 0.27184
# Poissons Ratio (z) = 0.19398 0.90460
#
# Static dielectric constant tensor:
#      x y z
#    x 3.741570 -0.000050 -0.110940 
#    y -0.000050 3.477670 0.000150 
#    z -0.110940 0.000150 3.583110 
# 
# 
# High freq. dielectric constant tensor:
#      x y z
#    x 1.724980 0.000000 -0.002980 
#    y 0.000000 1.719430 0.000020 
#    z -0.002980 0.000020 1.740070 
# 
# From -- ./inp_files/247425.got.cif
#   From: 2010.06.25/outbox.cif.g09.slc.cpg/sg12_124_cif.got.tgz:247425.got - 2010.06.28 00:19:55.
