data_PCOD8082094
_publ_section_title
;
Structure prediction by ZEFSAII (Michael W. Deem and Ramdas Pophale) SiO2 
 PCOD8082094
Probable space group: C 2/M
;
_chemical_formula_sum "Si O2"
_cell_formula_units_Z 64
_cell_length_a 22.929849
_cell_length_b 22.857678
_cell_length_c 9.174877
_cell_angle_alpha 90.000000
_cell_angle_beta 53.470792
_cell_angle_gamma 90.000000
_cell_volume 3864.100108
_symmetry_space_group_name_H-M "C 2/M"
_symmetry_group_IT_number 12
_symmetry_cell_setting 'monoclinic'
loop_
_space_group_symop_operation_xyz
x,y,z
-x,y,-z
-x,-y,-z
x,-y,z
1/2+x,1/2+y,z
1/2-x,1/2+y,-z
1/2-x,1/2-y,-z
1/2+x,1/2-y,z
loop_
_atom_site_type_symbol
_atom_site_label
_atom_site_fract_x
_atom_site_fract_y
_atom_site_fract_z
Si Si1 0.857922 0.748329 0.402173
Si Si2 0.084203 0.729008 0.374800
Si Si3 0.831626 0.929931 0.460221
Si Si4 0.636081 0.660179 0.111337
Si Si5 0.083512 0.150372 0.870075
Si Si6 0.085055 0.936780 0.375822
Si Si7 0.714562 0.813090 0.024995
Si Si8 0.273854 0.830169 0.325906
O O1 0.901097 0.727890 0.477072
O O2 0.909833 0.792541 0.239220
O O3 0.787419 0.781667 0.563472
O O4 0.839065 0.690413 0.334848
O O5 0.102113 0.790087 0.267229
O O6 0.136899 0.680482 0.221415
O O7 0.000000 0.711851 0.500000
O O8 0.871641 0.905383 0.256795
O O9 0.882484 0.911229 0.521535
O O10 0.754880 0.895521 0.591971
O O11 0.819261 0.000000 0.464817
O O12 0.600994 0.599998 0.209986
O O13 0.616152 0.671807 0.974798
O O14 0.722266 0.646778 0.001411
O O15 0.000000 0.131219 0.000000
O O16 0.000000 0.942367 0.500000
O O17 0.121449 0.000000 0.300598
O O18 0.750000 0.750000 0.000000
O O19 0.699294 0.828072 0.879985
#
# Coordination Sequence:
#
# PCOD8082094 Si02
#       8
#     8   8   8   8   8   8   8   8
#     4  10  19  31  51  72 102 135 171 208 262 312
#     4  11  21  32  50  75 105 134 165 206 256 320
#     4  10  21  36  51  71 103 141 182 219 252 300
#     4  11  19  32  50  69 103 137 176 206 244 301
#     4  11  22  32  48  76 109 144 174 212 260 311
#     4  10  19  32  50  70  96 133 174 213 249 288
#     4  10  18  31  48  73  96 132 167 207 253 309
#     4  10  18  33  51  74  99 133 174 218 261 302
#
# _framework density 16.562719000000001
#
# number of rings (size 3 to 8) (size 9 to 14) (size 15 to 20)
#    0.000    1.625    3.750    4.125    3.500    0.750 
#    0.000    0.000    0.000    0.000    0.000    0.000 
#    0.000    8.000    0.000    0.000    0.000    0.000 
#
# Total GULP energy -396548.922310 kJ/mol
# GULP energy per Si atom -12392.153822 kJ/mol
# Density = 1.652502 g / cm^3
# Si number density = 16.562719 Si / 1000 Ang^3
#
#
#
# Elastic Constant Matrix: (Units=GPa)
#
#
# Indices 1 2 3 4 5 6 
#
# 1 83.8737 22.5281 47.8225 0.0000 15.1311 0.0000
# 2 22.5281 67.5958 32.8051 0.0000 1.8322 0.0000
# 3 47.8225 32.8051 108.1753 0.0000 4.7438 0.0000
# 4 0.0000 0.0000 0.0000 3.7713 0.0000 -1.9845
# 5 15.1311 1.8322 4.7438 0.0000 34.8631 0.0000
# 6 0.0000 0.0000 0.0000 -1.9845 0.0000 18.1715
#
#
#
# Elastic Compliance Matrix: (Units=1/GPa)
#
#
# Indices 1 2 3 4 5 6 
#
# 1 0.017620 -0.002408 -0.006770 0.000000 -0.006600 0.000000
# 2 -0.002408 0.017677 -0.004327 0.000000 0.000705 0.000000
# 3 -0.006770 -0.004327 0.013491 0.000000 0.001330 0.000000
# 4 0.000000 0.000000 0.000000 0.281327 0.000000 0.030723
# 5 -0.006600 0.000705 0.001330 0.000000 0.031330 0.000000
# 6 0.000000 0.000000 0.000000 0.030723 0.000000 0.058386
#
#
# Mechanical properties :
#
#
# Convention : Reuss Voigt Hill
#
# Bulk Modulus (GPa) = 45.91725 51.77292 48.84509
# Shear Modulus (GPa) = 11.01075 21.79379 16.40227
#
# Velocity S-wave (km/s) = 2.58115 3.63138 3.15034
# Velocity P-wave (km/s) = 6.05529 6.99350 6.54124
#
# Compressibility (1/GPa) = 0.02177831
#
# Stress axis : x y z
#
# Youngs Moduli (GPa) = 56.75347 56.56985 74.12325
#
# Poissons Ratio (x) = 0.13622 0.50181
# Poissons Ratio (y) = 0.13666 0.32074
# Poissons Ratio (z) = 0.38421 0.24479
#
# Static dielectric constant tensor:
#      x y z
#    x 3.225740 0.000000 0.158050 
#    y 0.000000 2.922060 0.000000 
#    z 0.158050 0.000000 3.204450 
# 
# 
# High freq. dielectric constant tensor:
#      x y z
#    x 1.638550 0.000000 0.015070 
#    y 0.000000 1.600190 0.000000 
#    z 0.015070 0.000000 1.642550 
# 
# From -- ./inp_files/78823.got.cif
#   From: 2010.06.25/outbox.cif.g09.slc.cpg/sg12_40_cif.got.tgz:78823.got - 2010.06.28 00:19:55.
