data_PCOD8082355
_publ_section_title
;
Structure prediction by ZEFSAII (Michael W. Deem and Ramdas Pophale) SiO2 
 PCOD8082355
Probable space group: C 2/M
;
_chemical_formula_sum "Si O2"
_cell_formula_units_Z 64
_cell_length_a 19.855135
_cell_length_b 8.763956
_cell_length_c 30.087928
_cell_angle_alpha 90.000000
_cell_angle_beta 140.889354
_cell_angle_gamma 90.000000
_cell_volume 3302.712442
_symmetry_space_group_name_H-M "C 2/M"
_symmetry_group_IT_number 12
_symmetry_cell_setting 'monoclinic'
loop_
_space_group_symop_operation_xyz
x,y,z
-x,y,-z
-x,-y,-z
x,-y,z
1/2+x,1/2+y,z
1/2-x,1/2+y,-z
1/2-x,1/2-y,-z
1/2+x,1/2-y,z
loop_
_atom_site_type_symbol
_atom_site_label
_atom_site_fract_x
_atom_site_fract_y
_atom_site_fract_z
Si Si1 0.041049 0.677205 0.782295
Si Si2 0.395077 0.178113 0.626131
Si Si3 0.592112 0.179286 0.201060
Si Si4 0.806149 0.321709 0.431448
Si Si5 0.591909 0.328168 0.940427
Si Si6 0.771568 0.828824 0.078947
Si Si7 0.189439 0.322017 0.669876
Si Si8 0.528355 0.679091 0.423087
O O1 0.063045 0.500000 0.800573
O O2 0.155185 0.760440 0.844333
O O3 0.991234 0.715455 0.709133
O O4 0.959178 0.733298 0.778431
O O5 0.283395 0.220656 0.590948
O O6 0.409614 0.279559 0.590121
O O7 0.393431 0.000000 0.612629
O O8 0.513456 0.225667 0.120531
O O9 0.702305 0.268609 0.251038
O O10 0.613927 0.000000 0.211203
O O11 0.785390 0.500000 0.429460
O O12 0.805914 0.282154 0.379610
O O13 0.919991 0.271534 0.509505
O O14 0.556780 0.500000 0.933479
O O15 0.662883 0.321092 0.932839
O O16 0.661270 0.264093 0.017090
O O17 0.740969 0.000000 0.076265
O O18 0.171397 0.500000 0.669323
O O19 0.094031 0.229557 0.643940
O O20 0.537357 0.500000 0.436589
#
# Coordination Sequence:
#
# PCOD8082355 Si02
#       8
#     8   8   8   8   8   8   8   8
#     4   9  18  31  50  75 105 141 178 220 269 323
#     4  11  22  39  60  83 112 146 185 227 276 329
#     4  10  18  31  51  77 107 140 181 223 270 324
#     4  11  23  40  62  85 110 141 181 228 278 332
#     4   9  16  26  41  66 102 141 178 218 268 319
#     4   9  16  25  41  67 101 139 177 220 267 316
#     4  11  23  39  59  83 111 144 183 227 277 330
#     4  12  26  41  58  81 111 145 184 229 278 329
#
# _framework density 19.378011999999998
#
# number of rings (size 3 to 8) (size 9 to 14) (size 15 to 20)
#    0.000    1.750    1.250    4.125    0.000    7.500 
#    0.000    0.000    0.000    0.000    0.000    0.875 
#    0.000    7.000    0.000    0.000    0.000    0.000 
#
# Total GULP energy -396934.622089 kJ/mol
# GULP energy per Si atom -12404.206940 kJ/mol
# Density = 1.933391 g / cm^3
# Si number density = 19.378012 Si / 1000 Ang^3
#
#
#
# Elastic Constant Matrix: (Units=GPa)
#
#
# Indices 1 2 3 4 5 6 
#
# 1 37.8061 14.5045 5.8144 0.0000 10.1595 -0.0003
# 2 14.5045 76.4013 29.6206 0.0000 1.5595 -0.0007
# 3 5.8144 29.6206 98.9478 0.0000 13.4858 -0.0001
# 4 0.0000 0.0000 0.0000 39.9874 0.0000 5.8676
# 5 10.1595 1.5595 13.4858 0.0000 12.9294 -0.0001
# 6 -0.0003 -0.0007 -0.0001 5.8676 -0.0001 22.4846
#
#
#
# Elastic Compliance Matrix: (Units=1/GPa)
#
#
# Indices 1 2 3 4 5 6 
#
# 1 0.038083 -0.008447 0.004931 0.000000 -0.034049 0.000000
# 2 -0.008447 0.016803 -0.006018 0.000000 0.010887 0.000000
# 3 0.004931 -0.006018 0.014044 0.000000 -0.017797 0.000000
# 4 0.000000 0.000000 0.000000 0.026004 0.000000 -0.006786
# 5 -0.034049 0.010887 -0.017797 0.000000 0.121348 0.000000
# 6 0.000000 0.000000 0.000000 -0.006786 0.000000 0.046246
#
#
# Mechanical properties :
#
#
# Convention : Reuss Voigt Hill
#
# Bulk Modulus (GPa) = 20.05473 34.78156 27.41814
# Shear Modulus (GPa) = 16.76651 25.96132 21.36392
#
# Velocity S-wave (km/s) = 2.94468 3.66420 3.32397
# Velocity P-wave (km/s) = 4.68329 5.99081 5.37694
#
# Compressibility (1/GPa) = 0.04986356
#
# Stress axis : x y z
#
# Youngs Moduli (GPa) = 26.25857 59.51273 71.20710
#
# Poissons Ratio (x) = 0.50269 -0.35115
# Poissons Ratio (y) = 0.22180 0.42849
# Poissons Ratio (z) = -0.12949 0.35812
#
# Static dielectric constant tensor:
#      x y z
#    x 3.074890 0.000000 0.060050 
#    y 0.000000 3.569010 0.000000 
#    z 0.060050 0.000000 3.775510 
# 
# 
# High freq. dielectric constant tensor:
#      x y z
#    x 1.701550 0.000000 0.010420 
#    y 0.000000 1.765680 0.000000 
#    z 0.010420 0.000000 1.771490 
# 
# From -- ./inp_files/346188.got.cif
#   From: 2010.06.25/outbox.cif.g09.slc.cpg/sg12_174_cif.got.tgz:346188.got - 2010.06.28 00:19:55.
