data_PCOD8082474
_publ_section_title
;
Structure prediction by ZEFSAII (Michael W. Deem and Ramdas Pophale) SiO2 
 PCOD8082474
Probable space group: C 2/M
;
_chemical_formula_sum "Si O2"
_cell_formula_units_Z 64
_cell_length_a 18.352518
_cell_length_b 17.970558
_cell_length_c 13.777821
_cell_angle_alpha 90.000000
_cell_angle_beta 53.109714
_cell_angle_gamma 90.000000
_cell_volume 3634.224883
_symmetry_space_group_name_H-M "C 2/M"
_symmetry_group_IT_number 12
_symmetry_cell_setting 'monoclinic'
loop_
_space_group_symop_operation_xyz
x,y,z
-x,y,-z
-x,-y,-z
x,-y,z
1/2+x,1/2+y,z
1/2-x,1/2+y,-z
1/2-x,1/2-y,-z
1/2+x,1/2-y,z
loop_
_atom_site_type_symbol
_atom_site_label
_atom_site_fract_x
_atom_site_fract_y
_atom_site_fract_z
Si Si1 0.572301 0.858400 0.102002
Si Si2 0.467674 0.273077 0.732023
Si Si3 0.178032 0.714155 0.295629
Si Si4 0.377207 0.084913 0.289731
Si Si5 0.212299 0.358897 0.824458
Si Si6 0.780504 0.583940 0.874366
Si Si7 0.859755 0.084253 0.849177
Si Si8 0.342063 0.213192 0.463145
O O1 0.561527 0.774521 0.150663
O O2 0.476124 0.898475 0.166469
O O3 0.630912 0.907011 0.129724
O O4 0.619392 0.854964 0.959817
O O5 0.415032 0.241212 0.680367
O O6 0.443687 0.359196 0.770620
O O7 0.575436 0.269127 0.627940
O O8 0.256132 0.775071 0.219522
O O9 0.216399 0.638390 0.219333
O O10 0.159121 0.697820 0.422249
O O11 0.303676 0.101414 0.265178
O O12 0.357988 0.134143 0.399633
O O13 0.369086 0.000000 0.329502
O O14 0.288940 0.406072 0.818005
O O15 0.777762 0.500000 0.836729
O O16 0.690910 0.601864 0.009362
O O17 0.897636 0.000000 0.816701
O O18 0.250000 0.250000 0.500000
#
# Coordination Sequence:
#
# PCOD8082474 Si02
#       8
#     8   8   8   8   8   8   8   8
#     4   9  18  31  50  79 108 138 166 206 260 322
#     4   9  19  34  55  77 102 134 179 215 257 305
#     4  10  19  34  56  76 102 138 178 216 253 304
#     4  11  22  34  50  75 107 138 171 212 260 312
#     4  10  18  31  52  77 108 139 170 205 259 317
#     4   9  17  30  52  82 109 132 165 213 262 310
#     4   9  17  31  53  81 109 132 165 215 264 306
#     4  11  22  39  54  71 100 140 181 218 251 299
#
# _framework density 17.610358000000002
#
# number of rings (size 3 to 8) (size 9 to 14) (size 15 to 20)
#    0.000    2.250    1.250    2.250    0.000    5.500 
#    0.000    0.625    0.000    6.000    0.000    1.750 
#    0.000    0.000    0.000    0.000    0.000    0.000 
#
# Total GULP energy -396870.680945 kJ/mol
# GULP energy per Si atom -12402.208780 kJ/mol
# Density = 1.757028 g / cm^3
# Si number density = 17.610358 Si / 1000 Ang^3
#
#
#
# Elastic Constant Matrix: (Units=GPa)
#
#
# Indices 1 2 3 4 5 6 
#
# 1 63.3137 47.9458 41.4962 0.0000 -5.4188 0.0000
# 2 47.9458 145.0736 65.2844 0.0000 -5.7310 0.0000
# 3 41.4962 65.2844 96.7897 0.0000 -1.3109 0.0000
# 4 0.0000 0.0000 0.0000 18.1277 0.0000 3.5506
# 5 -5.4188 -5.7310 -1.3109 0.0000 28.4868 0.0000
# 6 0.0000 0.0000 0.0000 3.5506 0.0000 21.3988
#
#
#
# Elastic Compliance Matrix: (Units=1/GPa)
#
#
# Indices 1 2 3 4 5 6 
#
# 1 0.024365 -0.004651 -0.007263 0.000000 0.003365 0.000000
# 2 -0.004651 0.010866 -0.005321 0.000000 0.001057 0.000000
# 3 -0.007263 -0.005321 0.017012 0.000000 -0.001669 0.000000
# 4 0.000000 0.000000 0.000000 0.057017 0.000000 -0.009460
# 5 0.003365 0.001057 -0.001669 0.000000 0.035880 0.000000
# 6 0.000000 0.000000 0.000000 -0.009460 0.000000 0.048301
#
#
# Mechanical properties :
#
#
# Convention : Reuss Voigt Hill
#
# Bulk Modulus (GPa) = 56.26578 68.29221 62.27899
# Shear Modulus (GPa) = 21.38250 23.63270 22.50760
#
# Velocity S-wave (km/s) = 3.48832 3.66727 3.57892
# Velocity P-wave (km/s) = 6.94581 7.53629 7.24706
#
# Compressibility (1/GPa) = 0.01777279
#
# Stress axis : x y z
#
# Youngs Moduli (GPa) = 41.04294 92.02650 58.78204
#
# Poissons Ratio (x) = 0.42801 0.42694
# Poissons Ratio (y) = 0.19089 0.31278
# Poissons Ratio (z) = 0.29810 0.48968
#
# Static dielectric constant tensor:
#      x y z
#    x 3.191750 0.000000 0.003130 
#    y 0.000000 3.261950 0.000000 
#    z 0.003130 0.000000 3.252510 
# 
# 
# High freq. dielectric constant tensor:
#      x y z
#    x 1.671870 0.000000 0.002880 
#    y 0.000000 1.681110 0.000000 
#    z 0.002880 0.000000 1.676780 
# 
# From -- ./inp_files/226844.got.cif
#   From: 2010.06.25/outbox.cif.g09.slc.cpg/sg12_114_cif.got.tgz:226844.got - 2010.06.28 00:19:55.
