data_PCOD8082839
_publ_section_title
;
Structure prediction by ZEFSAII (Michael W. Deem and Ramdas Pophale) SiO2 
 PCOD8082839
Probable space group: C 2/M
;
_chemical_formula_sum "Si O2"
_cell_formula_units_Z 64
_cell_length_a 30.969215
_cell_length_b 15.380234
_cell_length_c 9.693955
_cell_angle_alpha 90.000000
_cell_angle_beta 136.275364
_cell_angle_gamma 90.000000
_cell_volume 3191.490834
_symmetry_space_group_name_H-M "C 2/M"
_symmetry_group_IT_number 12
_symmetry_cell_setting 'monoclinic'
loop_
_space_group_symop_operation_xyz
x,y,z
-x,y,-z
-x,-y,-z
x,-y,z
1/2+x,1/2+y,z
1/2-x,1/2+y,-z
1/2-x,1/2-y,-z
1/2+x,1/2-y,z
loop_
_atom_site_type_symbol
_atom_site_label
_atom_site_fract_x
_atom_site_fract_y
_atom_site_fract_z
Si Si1 0.171551 0.598134 0.923394
Si Si2 0.308564 0.161910 0.531577
Si Si3 0.394086 0.096313 0.949608
Si Si4 0.867067 0.720343 0.400458
Si Si5 0.688887 0.402677 0.697560
Si Si6 0.044896 0.093357 0.971886
Si Si7 0.500535 0.229987 0.836231
Si Si8 0.683376 0.642817 0.374194
O O1 0.151087 0.500000 0.833831
O O2 0.156095 0.616759 0.047090
O O3 0.135679 0.669728 0.749628
O O4 0.245450 0.609284 0.073538
O O5 0.317027 0.174463 0.387142
O O6 0.320677 0.253576 0.634106
O O7 0.239890 0.120460 0.398980
O O8 0.361128 0.102033 0.723834
O O9 0.452148 0.158663 0.107941
O O10 0.421628 0.000000 0.027651
O O11 0.855540 0.824050 0.353629
O O12 0.933766 0.706663 0.622876
O O13 0.661493 0.500000 0.667380
O O14 0.700335 0.396706 0.560981
O O15 0.117629 0.103453 0.177239
O O16 0.037869 0.000000 0.877995
O O17 0.022636 0.175306 0.829231
O O18 0.000000 0.091012 0.000000
O O19 0.500000 0.231750 0.000000
#
# Coordination Sequence:
#
# PCOD8082839 Si02
#       8
#     8   8   8   8   8   8   8   8
#     4  10  23  41  60  86 117 151 198 246 294 354
#     4  10  19  35  57  88 118 150 194 242 293 344
#     4  11  22  39  62  83 114 159 197 240 296 350
#     4  11  23  38  61  87 119 156 195 248 292 344
#     4  10  19  35  60  88 118 153 191 233 294 359
#     4  10  19  32  54  86 124 155 185 235 292 346
#     4  11  21  38  57  86 119 151 198 241 289 347
#     4  10  18  31  59  89 120 153 189 238 290 349
#
# _framework density 20.053324
#
# number of rings (size 3 to 8) (size 9 to 14) (size 15 to 20)
#    0.000    1.625    3.750    3.000    0.000    3.750 
#    0.000    1.250    0.000    2.250    0.000    1.750 
#    0.000    0.000    0.000    0.000    0.000    0.000 
#
# Total GULP energy -396630.893160 kJ/mol
# GULP energy per Si atom -12394.715411 kJ/mol
# Density = 2.000768 g / cm^3
# Si number density = 20.053324 Si / 1000 Ang^3
#
#
#
# Elastic Constant Matrix: (Units=GPa)
#
#
# Indices 1 2 3 4 5 6 
#
# 1 53.5408 40.0384 17.0686 0.0000 20.9547 0.0000
# 2 40.0384 116.5861 23.5224 0.0000 2.5663 0.0000
# 3 17.0686 23.5224 67.7932 0.0000 10.7935 0.0000
# 4 0.0000 0.0000 0.0000 65.3098 0.0000 116.2149
# 5 20.9547 2.5663 10.7935 0.0000 33.9231 0.0000
# 6 0.0000 0.0000 0.0000 116.2149 0.0000 320.1124
#
#
#
# Elastic Compliance Matrix: (Units=1/GPa)
#
#
# Indices 1 2 3 4 5 6 
#
# 1 0.036033 -0.011564 -0.001744 0.000000 -0.020828 0.000000
# 2 -0.011564 0.012938 -0.002696 0.000000 0.007022 0.000000
# 3 -0.001744 -0.002696 0.016771 0.000000 -0.004055 0.000000
# 4 0.000000 0.000000 0.000000 0.043255 0.000000 -0.015704
# 5 -0.020828 0.007022 -0.004055 0.000000 0.043103 0.000000
# 6 0.000000 0.000000 0.000000 -0.015704 0.000000 0.008825
#
#
# Mechanical properties :
#
#
# Convention : Reuss Voigt Hill
#
# Bulk Modulus (GPa) = 29.64303 44.35319 36.99811
# Shear Modulus (GPa) = 24.48858 94.35509 59.42184
#
# Velocity S-wave (km/s) = 3.49832 6.86689 5.44943
# Velocity P-wave (km/s) = 5.57959 9.22160 7.62135
#
# Compressibility (1/GPa) = 0.03373474
#
# Stress axis : x y z
#
# Youngs Moduli (GPa) = 27.75248 77.29125 59.62797
#
# Poissons Ratio (x) = 0.89382 0.10396
# Poissons Ratio (y) = 0.32094 0.16073
# Poissons Ratio (z) = 0.04839 0.20835
#
# Static dielectric constant tensor:
#      x y z
#    x 3.585190 0.000000 0.199650 
#    y 0.000000 4.076640 0.000000 
#    z 0.199650 0.000000 3.379530 
# 
# 
# High freq. dielectric constant tensor:
#      x y z
#    x 1.759180 0.000000 0.027530 
#    y 0.000000 1.799200 0.000000 
#    z 0.027530 0.000000 1.758650 
# 
# From -- ./inp_files/112032.got.cif
#   From: 2010.06.25/outbox.cif.g09.slc.cpg/sg12_57_cif.got.tgz:112032.got - 2010.06.28 00:19:55.
