data_PCOD8082703
_publ_section_title
;
Structure prediction by ZEFSAII (Michael W. Deem and Ramdas Pophale) SiO2 
 PCOD8082703
Probable space group: C 2/M
;
_chemical_formula_sum "Si O2"
_cell_formula_units_Z 64
_cell_length_a 20.520273
_cell_length_b 9.338788
_cell_length_c 31.973717
_cell_angle_alpha 90.000000
_cell_angle_beta 36.202727
_cell_angle_gamma 90.000000
_cell_volume 3619.033713
_symmetry_space_group_name_H-M "C 2/M"
_symmetry_group_IT_number 12
_symmetry_cell_setting 'monoclinic'
loop_
_space_group_symop_operation_xyz
x,y,z
-x,y,-z
-x,-y,-z
x,-y,z
1/2+x,1/2+y,z
1/2-x,1/2+y,-z
1/2-x,1/2-y,-z
1/2+x,1/2-y,z
loop_
_atom_site_type_symbol
_atom_site_label
_atom_site_fract_x
_atom_site_fract_y
_atom_site_fract_z
Si Si1 0.071694 0.335475 0.792037
Si Si2 0.478167 0.832058 0.058854
Si Si3 0.360365 0.835566 0.951249
Si Si4 0.075683 0.333077 0.346389
Si Si5 0.650761 0.830636 0.573838
Si Si6 0.885411 0.337421 0.582632
Si Si7 0.311133 0.164509 0.351610
Si Si8 0.688595 0.667334 0.802020
O O1 0.100015 0.500000 0.789318
O O2 0.092349 0.304685 0.732361
O O3 0.150233 0.231444 0.777623
O O4 0.944245 0.304849 0.869493
O O5 0.581412 0.789638 0.035116
O O6 0.369804 0.746644 0.129260
O O7 0.453162 0.000000 0.076001
O O8 0.500000 0.786641 0.000000
O O9 0.325860 0.000000 0.971236
O O10 0.250000 0.750000 0.000000
O O11 0.054639 0.500000 0.364161
O O12 0.100767 0.265089 0.378844
O O13 0.179905 0.306982 0.261826
O O14 0.964053 0.268261 0.384901
O O15 0.750000 0.750000 0.500000
O O16 0.644912 0.792075 0.625763
O O17 0.664827 0.000000 0.559201
O O18 0.843034 0.500000 0.608745
O O19 0.797614 0.253240 0.600997
O O20 0.000000 0.329124 0.500000
O O21 0.275760 0.000000 0.368595
O O22 0.658709 0.500000 0.818509
#
# Coordination Sequence:
#
# PCOD8082703 Si02
#       8
#     8   8   8   8   8   8   8   8
#     4   9  18  34  53  76 105 141 174 207 259 311
#     4   9  19  37  57  76 106 144 175 208 256 311
#     4   9  18  33  53  77 105 137 171 207 253 304
#     4   9  18  33  51  75 105 136 169 210 261 309
#     4  10  21  38  55  73 103 140 175 213 262 315
#     4  10  19  32  53  77 102 134 170 210 257 308
#     4  10  20  34  54  77 102 134 174 216 256 304
#     4  10  18  31  54  82 106 133 173 219 260 300
#
# _framework density 17.684280000000001
#
# number of rings (size 3 to 8) (size 9 to 14) (size 15 to 20)
#    0.000    2.500    1.250    1.875    0.000    4.000 
#    2.250    1.875    0.000    0.000    0.000    0.000 
#    0.000    0.000    0.000    0.000    0.000    0.000 
#
# Total GULP energy -396742.925721 kJ/mol
# GULP energy per Si atom -12398.216429 kJ/mol
# Density = 1.764403 g / cm^3
# Si number density = 17.684280 Si / 1000 Ang^3
#
#
#
# Elastic Constant Matrix: (Units=GPa)
#
#
# Indices 1 2 3 4 5 6 
#
# 1 102.0640 40.9734 65.4626 0.0008 -0.3694 -0.0024
# 2 40.9734 52.7852 46.8050 0.0006 -3.0475 0.0030
# 3 65.4626 46.8050 122.4957 0.0001 4.3199 0.0038
# 4 0.0008 0.0006 0.0001 28.6743 -0.0001 0.6997
# 5 -0.3694 -3.0475 4.3199 -0.0001 37.7568 0.0002
# 6 -0.0024 0.0030 0.0038 0.6997 0.0002 20.9927
#
#
#
# Elastic Compliance Matrix: (Units=1/GPa)
#
#
# Indices 1 2 3 4 5 6 
#
# 1 0.016730 -0.007618 -0.006038 0.000000 0.000240 0.000004
# 2 -0.007618 0.032612 -0.008514 0.000000 0.003532 -0.000004
# 3 -0.006038 -0.008514 0.014729 0.000000 -0.002431 -0.000002
# 4 0.000000 0.000000 0.000000 0.034903 0.000000 -0.001163
# 5 0.000240 0.003532 -0.002431 0.000000 0.027051 0.000000
# 6 0.000004 -0.000004 -0.000002 -0.001163 0.000000 0.047674
#
#
# Mechanical properties :
#
#
# Convention : Reuss Voigt Hill
#
# Bulk Modulus (GPa) = 50.68454 64.86966 57.77710
# Shear Modulus (GPa) = 22.26023 25.75835 24.00929
#
# Velocity S-wave (km/s) = 3.55175 3.82064 3.68865
# Velocity P-wave (km/s) = 6.74855 7.49832 7.13329
#
# Compressibility (1/GPa) = 0.01972988
#
# Stress axis : x y z
#
# Youngs Moduli (GPa) = 59.77399 30.66394 67.89234
#
# Poissons Ratio (x) = 0.23361 0.40993
# Poissons Ratio (y) = 0.45538 0.57804
# Poissons Ratio (z) = 0.36092 0.26107
#
# Static dielectric constant tensor:
#      x y z
#    x 3.101890 -0.000040 -0.109450 
#    y -0.000040 3.192080 -0.000020 
#    z -0.109450 -0.000020 3.147120 
# 
# 
# High freq. dielectric constant tensor:
#      x y z
#    x 1.674630 0.000000 0.005190 
#    y 0.000000 1.670320 0.000000 
#    z 0.005190 0.000000 1.694790 
# 
# From -- ./inp_files/378199.got.cif
#   From: 2010.06.25/outbox.cif.g09.slc.cpg/sg12_190_cif.got.tgz:378199.got - 2010.06.28 00:19:55.
