data_PCOD8082785
_publ_section_title
;
Structure prediction by ZEFSAII (Michael W. Deem and Ramdas Pophale) SiO2 
 PCOD8082785
Probable space group: C 2/M
;
_chemical_formula_sum "Si O2"
_cell_formula_units_Z 52
_cell_length_a 12.606852
_cell_length_b 17.133606
_cell_length_c 20.438479
_cell_angle_alpha 90.000000
_cell_angle_beta 143.870911
_cell_angle_gamma 90.000000
_cell_volume 2602.952624
_symmetry_space_group_name_H-M "C 2/M"
_symmetry_group_IT_number 12
_symmetry_cell_setting 'monoclinic'
loop_
_space_group_symop_operation_xyz
x,y,z
-x,y,-z
-x,-y,-z
x,-y,z
1/2+x,1/2+y,z
1/2-x,1/2+y,-z
1/2-x,1/2-y,-z
1/2+x,1/2-y,z
loop_
_atom_site_type_symbol
_atom_site_label
_atom_site_fract_x
_atom_site_fract_y
_atom_site_fract_z
Si Si1 0.500000 0.690917 0.000000
Si Si2 0.097922 0.340191 0.984916
Si Si3 0.479235 0.591390 0.195676
Si Si4 0.032158 0.092666 0.367890
Si Si5 0.240177 0.909148 0.209447
Si Si6 0.139212 0.407756 0.385001
Si Si7 0.662331 0.907274 0.248411
O O1 0.587407 0.745899 0.987022
O O2 0.345038 0.637210 0.893160
O O3 0.000719 0.366971 0.870705
O O4 0.303673 0.365260 0.082245
O O5 0.000000 0.379216 0.000000
O O6 0.435122 0.500000 0.176090
O O7 0.534759 0.623175 0.294710
O O8 0.643679 0.610269 0.229506
O O9 0.202893 0.128808 0.491456
O O10 0.849833 0.121593 0.311206
O O11 0.042835 0.000000 0.374800
O O12 0.447620 0.883438 0.320105
O O13 0.224801 0.000000 0.183700
O O14 0.162256 0.500000 0.395284
O O15 0.156405 0.376620 0.319674
O O16 0.639205 0.000000 0.231965
#
# Coordination Sequence:
#
# PCOD8082785 Si02
#       7
#     4   8   8   8   8   8   8
#     4  10  23  40  55  78 112 150 188 230 281 324
#     4  10  21  36  54  83 112 143 186 225 284 326
#     4  10  20  34  58  87 115 148 180 227 276 329
#     4   9  16  30  53  84 116 141 181 231 277 322
#     4  10  22  39  56  80 112 148 189 226 274 334
#     4   9  19  33  53  83 113 147 184 226 276 325
#     4  10  18  31  55  86 118 147 181 228 276 327
#
# _framework density 19.977312999999999
#
# number of rings (size 3 to 8) (size 9 to 14) (size 15 to 20)
#    0.462    1.846    1.538    1.154    2.154    3.692 
#    0.000    3.077    0.000    3.692    8.000    0.000 
#    0.000    0.000    0.000    0.000    0.000    0.000 
#
# Total GULP energy -322397.820308 kJ/mol
# GULP energy per Si atom -12399.916166 kJ/mol
# Density = 1.993184 g / cm^3
# Si number density = 19.977313 Si / 1000 Ang^3
#
#
#
# Elastic Constant Matrix: (Units=GPa)
#
#
# Indices 1 2 3 4 5 6 
#
# 1 137.8664 32.7548 89.9464 0.0000 10.0574 0.0000
# 2 32.7548 38.9104 40.3876 0.0005 0.7584 0.0001
# 3 89.9464 40.3876 211.0801 0.0004 0.2431 0.0001
# 4 0.0000 0.0005 0.0004 -4.1070 0.0002 -3.5254
# 5 10.0574 0.7584 0.2431 0.0002 24.2391 0.0000
# 6 0.0000 0.0001 0.0001 -3.5254 0.0000 15.9184
#
#
#
# Elastic Compliance Matrix: (Units=1/GPa)
#
#
# Indices 1 2 3 4 5 6 
#
# 1 0.011366 -0.005563 -0.003774 -0.000001 -0.004504 0.000000
# 2 -0.005563 0.034813 -0.004292 0.000003 0.001262 0.000001
# 3 -0.003774 -0.004292 0.007165 0.000000 0.001628 0.000000
# 4 -0.000001 0.000003 0.000000 -0.204592 0.000002 -0.045310
# 5 -0.004504 0.001262 0.001628 0.000002 0.043069 0.000000
# 6 0.000000 0.000001 0.000000 -0.045310 0.000000 0.052786
#
#
# Mechanical properties :
#
#
# Convention : Reuss Voigt Hill
#
# Bulk Modulus (GPa) = 38.33368 79.33715 58.83541
# Shear Modulus (GPa) = -257.18605 22.19462 -117.49571
#
# Velocity S-wave (km/s) = -11.35863 3.33677 -7.67739
# Velocity P-wave (km/s) = 12.36101 7.39224 7.00533
#
# Compressibility (1/GPa) = 0.02608672
#
# Stress axis : x y z
#
# Youngs Moduli (GPa) = 87.98518 28.72461 139.56927
#
# Poissons Ratio (x) = 0.15979 0.52667
# Poissons Ratio (y) = 0.48945 0.59904
# Poissons Ratio (z) = 0.33202 0.12329
#
# Static dielectric constant tensor:
#      x y z
#    x 3.674380 0.000000 -0.017590 
#    y 0.000000 3.192590 0.000000 
#    z -0.017590 0.000000 3.819520 
# 
# 
# High freq. dielectric constant tensor:
#      x y z
#    x 1.786230 0.000000 0.000500 
#    y 0.000000 1.736050 0.000000 
#    z 0.000500 0.000000 1.788040 
# 
# From -- ./inp_files/311540.got.cif
#   From: 2010.06.25/outbox.cif.g09.slc.cpg/sg12_156_cif.got.tgz:311540.got - 2010.06.28 00:19:55.
