data_PCOD8082640
_publ_section_title
;
Structure prediction by ZEFSAII (Michael W. Deem and Ramdas Pophale) SiO2 
 PCOD8082640
Probable space group: C 2/M
;
_chemical_formula_sum "Si O2"
_cell_formula_units_Z 56
_cell_length_a 22.241623
_cell_length_b 15.355049
_cell_length_c 8.494157
_cell_angle_alpha 90.000000
_cell_angle_beta 91.650659
_cell_angle_gamma 90.000000
_cell_volume 2899.731004
_symmetry_space_group_name_H-M "C 2/M"
_symmetry_group_IT_number 12
_symmetry_cell_setting 'monoclinic'
loop_
_space_group_symop_operation_xyz
x,y,z
-x,y,-z
-x,-y,-z
x,-y,z
1/2+x,1/2+y,z
1/2-x,1/2+y,-z
1/2-x,1/2-y,-z
1/2+x,1/2-y,z
loop_
_atom_site_type_symbol
_atom_site_label
_atom_site_fract_x
_atom_site_fract_y
_atom_site_fract_z
Si Si1 0.294548 0.598223 0.956145
Si Si2 0.666250 0.167003 0.904138
Si Si3 0.643896 0.749273 0.205948
Si Si4 0.613108 0.094439 0.619968
Si Si5 0.212338 0.598611 0.383541
Si Si6 0.567836 0.730179 0.498362
Si Si7 0.330178 0.664985 0.281078
O O1 0.299628 0.500000 0.893928
O O2 0.225039 0.623011 0.985877
O O3 0.319205 0.660494 0.820389
O O4 0.331642 0.605600 0.123450
O O5 0.623885 0.099005 0.808972
O O6 0.687785 0.238128 0.776194
O O7 0.624390 0.214336 0.032469
O O8 0.682667 0.828938 0.272679
O O9 0.589463 0.726043 0.318529
O O10 0.679848 0.102575 0.549416
O O11 0.568948 0.169214 0.554686
O O12 0.584331 0.000000 0.577915
O O13 0.206736 0.500000 0.312485
O O14 0.282236 0.626025 0.402333
O O15 0.500000 0.695313 0.500000
O O16 0.607088 0.669341 0.617996
#
# Coordination Sequence:
#
# PCOD8082640 Si02
#       7
#     8   8   8   8   8   8   8
#     4  11  20  33  55  87 124 152 175 221 293 356
#     4  10  18  32  51  84 121 149 168 217 283 355
#     4  10  20  36  57  86 116 145 190 234 279 344
#     4   9  20  33  54  86 119 147 182 227 281 351
#     4  10  18  31  53  86 119 152 180 223 290 345
#     4  10  23  40  60  76 105 158 203 245 280 311
#     4  10  19  34  53  78 117 146 187 229 275 335
#
# _framework density 19.312135000000001
#
# number of rings (size 3 to 8) (size 9 to 14) (size 15 to 20)
#    0.000    2.000    2.857    1.714    2.000    2.571 
#    0.000    7.143    0.000    5.571    0.000    0.000 
#    0.000    0.000    0.000    0.000    0.000    0.000 
#
# Total GULP energy -346913.730695 kJ/mol
# GULP energy per Si atom -12389.776096 kJ/mol
# Density = 1.926818 g / cm^3
# Si number density = 19.312135 Si / 1000 Ang^3
#
#
#
# Elastic Constant Matrix: (Units=GPa)
#
#
# Indices 1 2 3 4 5 6 
#
# 1 93.2547 19.5711 36.1625 0.0000 -0.6706 0.0000
# 2 19.5711 85.8622 22.1005 0.0000 -0.2751 0.0000
# 3 36.1625 22.1005 93.2736 0.0000 -5.1848 0.0000
# 4 0.0000 0.0000 0.0000 23.9034 0.0000 -1.8678
# 5 -0.6706 -0.2751 -5.1848 0.0000 18.4791 0.0000
# 6 0.0000 0.0000 0.0000 -1.8678 0.0000 13.2163
#
#
#
# Elastic Compliance Matrix: (Units=1/GPa)
#
#
# Indices 1 2 3 4 5 6 
#
# 1 0.012878 -0.001747 -0.004626 0.000000 -0.000857 0.000000
# 2 -0.001747 0.012648 -0.002349 0.000000 -0.000534 0.000000
# 3 -0.004626 -0.002349 0.013267 0.000000 0.003520 0.000000
# 4 0.000000 0.000000 0.000000 0.042302 0.000000 0.005978
# 5 -0.000857 -0.000534 0.003520 0.000000 0.055064 0.000000
# 6 0.000000 0.000000 0.000000 0.005978 0.000000 0.076509
#
#
# Mechanical properties :
#
#
# Convention : Reuss Voigt Hill
#
# Bulk Modulus (GPa) = 46.84457 47.56210 47.20334
# Shear Modulus (GPa) = 21.07670 24.09018 22.58344
#
# Velocity S-wave (km/s) = 3.30717 3.53570 3.42335
# Velocity P-wave (km/s) = 6.23638 6.43038 6.33412
#
# Compressibility (1/GPa) = 0.02134719
#
# Stress axis : x y z
#
# Youngs Moduli (GPa) = 77.65238 79.06534 75.37461
#
# Poissons Ratio (x) = 0.13815 0.34872
# Poissons Ratio (y) = 0.13568 0.17706
# Poissons Ratio (z) = 0.35925 0.18573
#
# Static dielectric constant tensor:
#      x y z
#    x 3.020310 0.000000 -0.102750 
#    y 0.000000 3.688700 0.000000 
#    z -0.102750 0.000000 3.678820 
# 
# 
# High freq. dielectric constant tensor:
#      x y z
#    x 1.690850 0.000000 -0.005460 
#    y 0.000000 1.755220 0.000000 
#    z -0.005460 0.000000 1.759670 
# 
# From -- ./inp_files/86395.got.cif
#   From: 2010.06.25/outbox.cif.g09.slc.cpg/sg12_44_cif.got.tgz:86395.got - 2010.06.28 00:19:55.
