data_PCOD8082054
_publ_section_title
;
Structure prediction by ZEFSAII (Michael W. Deem and Ramdas Pophale) SiO2 
 PCOD8082054
Probable space group: C 2/M
;
_chemical_formula_sum "Si O2"
_cell_formula_units_Z 64
_cell_length_a 11.132812
_cell_length_b 23.257994
_cell_length_c 14.610314
_cell_angle_alpha 90.000000
_cell_angle_beta 79.811840
_cell_angle_gamma 90.000000
_cell_volume 3723.353237
_symmetry_space_group_name_H-M "C 2/M"
_symmetry_group_IT_number 12
_symmetry_cell_setting 'monoclinic'
loop_
_space_group_symop_operation_xyz
x,y,z
-x,y,-z
-x,-y,-z
x,-y,z
1/2+x,1/2+y,z
1/2-x,1/2+y,-z
1/2-x,1/2-y,-z
1/2+x,1/2-y,z
loop_
_atom_site_type_symbol
_atom_site_label
_atom_site_fract_x
_atom_site_fract_y
_atom_site_fract_z
Si Si1 0.223080 0.563351 0.495701
Si Si2 0.287081 0.252739 0.344169
Si Si3 0.601344 0.564014 0.698741
Si Si4 0.936421 0.174199 0.194447
Si Si5 0.709419 0.672847 0.205274
Si Si6 0.328434 0.435456 0.678589
Si Si7 0.863438 0.257798 0.054580
Si Si8 0.870095 0.319206 0.496383
O O1 0.162511 0.500000 0.506101
O O2 0.302825 0.571336 0.394747
O O3 0.304463 0.573595 0.574695
O O4 0.119000 0.611636 0.507792
O O5 0.403098 0.282659 0.281418
O O6 0.197305 0.223411 0.282529
O O7 0.221006 0.301615 0.411126
O O8 0.329499 0.201464 0.403043
O O9 0.610619 0.500000 0.740981
O O10 0.620096 0.610971 0.776874
O O11 0.471392 0.574834 0.670170
O O12 0.877364 0.197854 0.108634
O O13 0.083098 0.171469 0.165408
O O14 0.739994 0.611308 0.248164
O O15 0.823062 0.688785 0.124270
O O16 0.289338 0.500000 0.714930
O O17 0.750000 0.250000 0.000000
O O18 0.000000 0.273542 0.000000
O O19 0.000000 0.291473 0.500000
#
# Coordination Sequence:
#
# PCOD8082054 Si02
#       8
#     8   8   8   8   8   8   8   8
#     4  10  18  31  47  69 103 145 186 220 256 299
#     4  10  20  33  46  72 100 143 175 223 265 312
#     4   9  17  30  50  77 107 140 176 219 264 303
#     4  10  19  33  56  79 105 134 175 221 268 325
#     4  10  19  33  56  79 104 134 176 219 272 324
#     4   9  17  30  50  77 106 139 179 220 259 306
#     4  11  22  39  58  85 111 138 168 215 277 342
#     4  11  21  32  44  66 105 141 185 224 265 310
#
# _framework density 17.188808000000002
#
# number of rings (size 3 to 8) (size 9 to 14) (size 15 to 20)
#    0.000    2.000    3.750    1.125    0.000    1.750 
#    0.000    0.000    0.000    1.500    0.000    0.000 
#    0.000    0.000    0.000    0.000    0.000    0.000 
#
# Total GULP energy -396553.574207 kJ/mol
# GULP energy per Si atom -12392.299194 kJ/mol
# Density = 1.714969 g / cm^3
# Si number density = 17.188808 Si / 1000 Ang^3
#
#
#
# Elastic Constant Matrix: (Units=GPa)
#
#
# Indices 1 2 3 4 5 6 
#
# 1 69.4245 26.2222 32.7732 0.0000 0.4023 0.0000
# 2 26.2222 116.1406 37.7894 0.0000 -0.6693 0.0000
# 3 32.7732 37.7894 74.7466 0.0000 -1.1278 0.0000
# 4 0.0000 0.0000 0.0000 26.2406 0.0000 0.5166
# 5 0.4023 -0.6693 -1.1278 0.0000 23.0755 0.0000
# 6 0.0000 0.0000 0.0000 0.5166 0.0000 22.3828
#
#
#
# Elastic Compliance Matrix: (Units=1/GPa)
#
#
# Indices 1 2 3 4 5 6 
#
# 1 0.018498 -0.001841 -0.007191 0.000000 -0.000727 0.000000
# 2 -0.001841 0.010489 -0.004494 0.000000 0.000117 0.000000
# 3 -0.007191 -0.004494 0.018817 0.000000 0.000915 0.000000
# 4 0.000000 0.000000 0.000000 0.038126 0.000000 -0.000880
# 5 -0.000727 0.000117 0.000915 0.000000 0.043397 0.000000
# 6 0.000000 0.000000 0.000000 -0.000880 0.000000 0.044697
#
#
# Mechanical properties :
#
#
# Convention : Reuss Voigt Hill
#
# Bulk Modulus (GPa) = 48.18635 50.43127 49.30881
# Shear Modulus (GPa) = 24.03916 25.24157 24.64037
#
# Velocity S-wave (km/s) = 3.74376 3.83624 3.79028
# Velocity P-wave (km/s) = 6.83974 7.00183 6.92126
#
# Compressibility (1/GPa) = 0.02075276
#
# Stress axis : x y z
#
# Youngs Moduli (GPa) = 54.05888 95.34015 53.14288
#
# Poissons Ratio (x) = 0.17552 0.38215
# Poissons Ratio (y) = 0.09952 0.23881
# Poissons Ratio (z) = 0.38874 0.42844
#
# Static dielectric constant tensor:
#      x y z
#    x 3.005110 0.000000 0.009620 
#    y 0.000000 3.475240 0.000000 
#    z 0.009620 0.000000 3.163840 
# 
# 
# High freq. dielectric constant tensor:
#      x y z
#    x 1.646320 0.000000 0.000730 
#    y 0.000000 1.670370 0.000000 
#    z 0.000730 0.000000 1.649490 
# 
# From -- ./inp_files/199885.got.cif
#   From: 2010.06.25/outbox.cif.g09.slc.cpg/sg12_100_cif.got.tgz:199885.got - 2010.06.28 00:19:55.
