data_PCOD8082195
_publ_section_title
;
Structure prediction by ZEFSAII (Michael W. Deem and Ramdas Pophale) SiO2 
 PCOD8082195
Probable space group: C 2/M
;
_chemical_formula_sum "Si O2"
_cell_formula_units_Z 48
_cell_length_a 19.146529
_cell_length_b 7.753449
_cell_length_c 17.302715
_cell_angle_alpha 90.000000
_cell_angle_beta 90.717899
_cell_angle_gamma 90.000000
_cell_volume 2568.414726
_symmetry_space_group_name_H-M "C 2/M"
_symmetry_group_IT_number 12
_symmetry_cell_setting 'monoclinic'
loop_
_space_group_symop_operation_xyz
x,y,z
-x,y,-z
-x,-y,-z
x,-y,z
1/2+x,1/2+y,z
1/2-x,1/2+y,-z
1/2-x,1/2-y,-z
1/2+x,1/2-y,z
loop_
_atom_site_type_symbol
_atom_site_label
_atom_site_fract_x
_atom_site_fract_y
_atom_site_fract_z
Si Si1 0.837943 0.196019 0.665813
Si Si2 0.590799 0.799709 0.807953
Si Si3 0.319612 0.204235 0.336384
Si Si4 0.330109 0.201097 0.502474
Si Si5 0.421248 0.500000 0.908480
Si Si6 0.086702 0.000000 0.919785
Si Si7 0.429005 0.191066 0.802475
O O1 0.759681 0.275991 0.672074
O O2 0.865167 0.206309 0.576992
O O3 0.889077 0.304389 0.720733
O O4 0.840579 0.000000 0.694390
O O5 0.634040 0.734159 0.734503
O O6 0.613550 0.675105 0.878670
O O7 0.510009 0.770684 0.786531
O O8 0.606890 0.000000 0.829261
O O9 0.357077 0.263486 0.417755
O O10 0.313164 0.000000 0.339011
O O11 0.250000 0.250000 0.500000
O O12 0.342418 0.000000 0.514250
O O13 0.503678 0.500000 0.919781
O O14 0.397259 0.328757 0.862263
O O15 0.384534 0.500000 0.992041
O O16 0.420510 0.000000 0.838631
#
# Coordination Sequence:
#
# PCOD8082195 Si02
#       7
#     8   8   8   8   4   4   8
#     4  10  18  31  50  72 101 135 167 211 247 289
#     4   9  18  34  52  75 103 127 165 208 245 298
#     4   8  16  31  50  71  97 135 167 207 249 287
#     4   9  16  28  45  68  99 129 171 210 244 284
#     4   9  18  34  52  75 107 123 160 209 242 305
#     4   9  18  32  54  79  97 131 160 199 258 293
#     4  10  19  32  53  76 100 132 164 204 252 295
#
# _framework density 18.688569000000001
#
# number of rings (size 3 to 8) (size 9 to 14) (size 15 to 20)
#    0.000    2.833    0.833    2.000    0.000    0.667 
#    9.000    4.167    0.000    6.000    0.000    0.000 
#    0.000    0.000    0.000    0.000    0.000    0.000 
#
# Total GULP energy -297388.444425 kJ/mol
# GULP energy per Si atom -12391.185184 kJ/mol
# Density = 1.864603 g / cm^3
# Si number density = 18.688569 Si / 1000 Ang^3
#
#
#
# Elastic Constant Matrix: (Units=GPa)
#
#
# Indices 1 2 3 4 5 6 
#
# 1 33.3459 18.3705 24.7973 0.0000 -6.3336 0.0000
# 2 18.3705 88.2207 44.9703 0.0000 -6.8930 0.0000
# 3 24.7973 44.9703 127.6347 0.0000 -19.4473 0.0000
# 4 0.0000 0.0000 0.0000 29.7856 0.0000 -0.3589
# 5 -6.3336 -6.8930 -19.4473 0.0000 22.6652 0.0000
# 6 0.0000 0.0000 0.0000 -0.3589 0.0000 15.1150
#
#
#
# Elastic Compliance Matrix: (Units=1/GPa)
#
#
# Indices 1 2 3 4 5 6 
#
# 1 0.037153 -0.004942 -0.004744 0.000000 0.004808 0.000000
# 2 -0.004942 0.014474 -0.004233 0.000000 -0.000611 0.000000
# 3 -0.004744 -0.004233 0.011331 0.000000 0.007109 0.000000
# 4 0.000000 0.000000 0.000000 0.033583 0.000000 0.000797
# 5 0.004808 -0.000611 0.007109 0.000000 0.051378 0.000000
# 6 0.000000 0.000000 0.000000 0.000797 0.000000 0.066178
#
#
# Mechanical properties :
#
#
# Convention : Reuss Voigt Hill
#
# Bulk Modulus (GPa) = 28.47411 47.27529 37.87470
# Shear Modulus (GPa) = 19.71280 24.25073 21.98176
#
# Velocity S-wave (km/s) = 3.25130 3.60616 3.43332
# Velocity P-wave (km/s) = 5.41884 6.53380 6.00226
#
# Compressibility (1/GPa) = 0.03511962
#
# Stress axis : x y z
#
# Youngs Moduli (GPa) = 26.91598 69.08825 88.25252
#
# Poissons Ratio (x) = 0.34146 0.41868
# Poissons Ratio (y) = 0.13303 0.37354
# Poissons Ratio (z) = 0.12769 0.29243
#
# Static dielectric constant tensor:
#      x y z
#    x 3.077410 0.000000 -0.094970 
#    y 0.000000 3.513150 0.000000 
#    z -0.094970 0.000000 3.840110 
# 
# 
# High freq. dielectric constant tensor:
#      x y z
#    x 1.672910 0.000000 0.001650 
#    y 0.000000 1.729390 0.000000 
#    z 0.001650 0.000000 1.730180 
# 
# From -- ./inp_files/221771.got.cif
#   From: 2010.06.25/outbox.cif.g09.slc.cpg/sg12_111_cif.got.tgz:221771.got - 2010.06.28 00:19:55.
