data_PCOD8082123
_publ_section_title
;
Structure prediction by ZEFSAII (Michael W. Deem and Ramdas Pophale) SiO2 
 PCOD8082123
Probable space group: C 2/M
;
_chemical_formula_sum "Si O2"
_cell_formula_units_Z 64
_cell_length_a 25.613147
_cell_length_b 8.997314
_cell_length_c 15.356334
_cell_angle_alpha 90.000000
_cell_angle_beta 70.519197
_cell_angle_gamma 90.000000
_cell_volume 3336.271773
_symmetry_space_group_name_H-M "C 2/M"
_symmetry_group_IT_number 12
_symmetry_cell_setting 'monoclinic'
loop_
_space_group_symop_operation_xyz
x,y,z
-x,y,-z
-x,-y,-z
x,-y,z
1/2+x,1/2+y,z
1/2-x,1/2+y,-z
1/2-x,1/2-y,-z
1/2+x,1/2-y,z
loop_
_atom_site_type_symbol
_atom_site_label
_atom_site_fract_x
_atom_site_fract_y
_atom_site_fract_z
Si Si1 0.501387 0.323043 0.270021
Si Si2 0.650743 0.675502 0.871345
Si Si3 0.122729 0.176971 0.240368
Si Si4 0.468938 0.677140 0.100608
Si Si5 0.885947 0.174536 0.404396
Si Si6 0.789616 0.175704 0.331091
Si Si7 0.324754 0.674525 0.610234
Si Si8 0.190657 0.177013 0.034113
O O1 0.501306 0.500000 0.275385
O O2 0.559418 0.261862 0.276343
O O3 0.498632 0.268224 0.171728
O O4 0.447310 0.258972 0.350824
O O5 0.646179 0.500000 0.878966
O O6 0.593269 0.740225 0.867033
O O7 0.698088 0.721082 0.776086
O O8 0.661813 0.736212 0.961926
O O9 0.153512 0.237688 0.309475
O O10 0.155229 0.233670 0.136597
O O11 0.121704 0.000000 0.241604
O O12 0.469250 0.500000 0.097290
O O13 0.500000 0.744256 0.000000
O O14 0.838722 0.238373 0.365704
O O15 0.870967 0.212404 0.512202
O O16 0.888576 0.000000 0.385535
O O17 0.731903 0.249873 0.388805
O O18 0.783664 0.000000 0.346232
O O19 0.313759 0.500000 0.621892
O O20 0.196683 0.000000 0.032066
O O21 0.250000 0.250000 0.000000
#
# Coordination Sequence:
#
# PCOD8082123 Si02
#       8
#     8   8   8   8   8   8   8   8
#     4   9  15  26  43  65  95 124 148 188 240 280
#     4   9  16  26  42  65  91 117 147 186 230 273
#     4   9  18  30  44  66  98 127 154 189 231 279
#     4   9  14  21  37  62  91 118 143 178 231 279
#     4   9  17  29  46  68  94 121 153 194 238 277
#     4  10  18  31  49  70  94 120 155 197 234 274
#     4  10  20  32  46  68  96 126 157 190 229 277
#     4  10  19  31  46  67  95 125 156 189 226 272
#
# _framework density 19.18309
#
# number of rings (size 3 to 8) (size 9 to 14) (size 15 to 20)
#    0.000    2.625    1.250    1.875    0.000    3.500 
#    0.000    2.500    0.000    0.000    0.000    4.375 
#    0.000    2.000    0.000    0.000    0.000    0.000 
#
# Total GULP energy -396633.058232 kJ/mol
# GULP energy per Si atom -12394.783070 kJ/mol
# Density = 1.913943 g / cm^3
# Si number density = 19.183090 Si / 1000 Ang^3
#
#
#
# Elastic Constant Matrix: (Units=GPa)
#
#
# Indices 1 2 3 4 5 6 
#
# 1 142.5445 12.8994 55.4551 0.0000 -9.7662 0.0000
# 2 12.8994 9.5851 15.0735 0.0000 -2.5349 0.0000
# 3 55.4551 15.0735 124.3267 0.0000 -3.2810 0.0000
# 4 0.0000 0.0000 0.0000 9.5343 0.0000 -3.0599
# 5 -9.7662 -2.5349 -3.2810 0.0000 39.3942 0.0000
# 6 0.0000 0.0000 0.0000 -3.0599 0.0000 18.3610
#
#
#
# Elastic Compliance Matrix: (Units=1/GPa)
#
#
# Indices 1 2 3 4 5 6 
#
# 1 0.008947 -0.006703 -0.003138 0.000000 0.001525 0.000000
# 2 -0.006703 0.135888 -0.013328 0.000000 0.005972 0.000000
# 3 -0.003138 -0.013328 0.011040 0.000000 -0.000716 0.000000
# 4 0.000000 0.000000 0.000000 0.110811 0.000000 0.018467
# 5 0.001525 0.005972 -0.000716 0.000000 0.026087 0.000000
# 6 0.000000 0.000000 0.000000 0.018467 0.000000 0.057541
#
#
# Mechanical properties :
#
#
# Convention : Reuss Voigt Hill
#
# Bulk Modulus (GPa) = 9.12926 49.25694 29.19310
# Shear Modulus (GPa) = 11.54298 26.32646 18.93472
#
# Velocity S-wave (km/s) = 2.45567 3.70858 3.14515
# Velocity P-wave (km/s) = 3.57908 6.63861 5.33296
#
# Compressibility (1/GPa) = 0.10953788
#
# Stress axis : x y z
#
# Youngs Moduli (GPa) = 111.76689 7.35901 90.57995
#
# Poissons Ratio (x) = 0.04933 0.28423
# Poissons Ratio (y) = 0.74915 1.20724
# Poissons Ratio (z) = 0.35072 0.09808
#
# Static dielectric constant tensor:
#      x y z
#    x 3.829940 0.000000 0.061220 
#    y 0.000000 2.752970 0.000000 
#    z 0.061220 0.000000 3.833590 
# 
# 
# High freq. dielectric constant tensor:
#      x y z
#    x 1.758840 0.000000 -0.002140 
#    y 0.000000 1.660510 0.000000 
#    z -0.002140 0.000000 1.764130 
# 
# From -- ./inp_files/232462.got.cif
#   From: 2010.06.25/outbox.cif.g09.slc.cpg/sg12_117_cif.got.tgz:232462.got - 2010.06.28 00:19:55.
