data_PCOD8082378
_publ_section_title
;
Structure prediction by ZEFSAII (Michael W. Deem and Ramdas Pophale) SiO2 
 PCOD8082378
Probable space group: C 2/M
;
_chemical_formula_sum "Si O2"
_cell_formula_units_Z 64
_cell_length_a 18.017949
_cell_length_b 17.713596
_cell_length_c 10.799942
_cell_angle_alpha 90.000000
_cell_angle_beta 81.515143
_cell_angle_gamma 90.000000
_cell_volume 3409.211213
_symmetry_space_group_name_H-M "C 2/M"
_symmetry_group_IT_number 12
_symmetry_cell_setting 'monoclinic'
loop_
_space_group_symop_operation_xyz
x,y,z
-x,y,-z
-x,-y,-z
x,-y,z
1/2+x,1/2+y,z
1/2-x,1/2+y,-z
1/2-x,1/2-y,-z
1/2+x,1/2-y,z
loop_
_atom_site_type_symbol
_atom_site_label
_atom_site_fract_x
_atom_site_fract_y
_atom_site_fract_z
Si Si1 0.521928 0.585063 0.693316
Si Si2 0.849967 0.720178 0.236836
Si Si3 0.284329 0.085270 0.826378
Si Si4 0.574363 0.269380 0.546682
Si Si5 0.630829 0.631061 0.170374
Si Si6 0.182449 0.265509 0.302030
Si Si7 0.118393 0.869691 0.891168
Si Si8 0.295195 0.916191 0.108591
O O1 0.535334 0.500000 0.641287
O O2 0.562832 0.642790 0.589070
O O3 0.432722 0.601575 0.719731
O O4 0.553370 0.593905 0.824504
O O5 0.907989 0.719187 0.336881
O O6 0.768675 0.745536 0.304104
O O7 0.878065 0.779665 0.128170
O O8 0.847929 0.637963 0.176194
O O9 0.326377 0.145282 0.726865
O O10 0.195180 0.090460 0.830034
O O11 0.310625 0.000000 0.787021
O O12 0.302608 0.106922 0.963392
O O13 0.500000 0.236862 0.500000
O O14 0.642762 0.260220 0.436783
O O15 0.647972 0.719099 0.194567
O O16 0.708277 0.586237 0.172304
O O17 0.600802 0.617676 0.039287
O O18 0.325844 0.000000 0.123526
#
# Coordination Sequence:
#
# PCOD8082378 Si02
#       8
#     8   8   8   8   8   8   8   8
#     4  11  22  34  50  75 111 147 174 206 251 308
#     4   9  19  34  55  77 103 139 179 219 262 307
#     4   9  17  31  55  82 107 133 168 220 273 315
#     4  11  22  39  53  73  99 143 186 221 253 302
#     4  10  18  31  51  80 111 145 171 203 252 317
#     4  10  19  35  55  76 104 140 184 221 254 305
#     4   9  18  31  51  80 112 139 172 205 255 320
#     4   9  17  31  53  83 111 133 166 217 271 317
#
# _framework density 18.772670000000002
#
# number of rings (size 3 to 8) (size 9 to 14) (size 15 to 20)
#    0.000    2.250    1.250    2.250    0.000    5.250 
#    0.000    1.250    0.000    1.500    0.000    1.750 
#    0.000    0.000    0.000    0.000    0.000    0.000 
#
# Total GULP energy -396732.176424 kJ/mol
# GULP energy per Si atom -12397.880513 kJ/mol
# Density = 1.872994 g / cm^3
# Si number density = 18.772670 Si / 1000 Ang^3
#
#
#
# Elastic Constant Matrix: (Units=GPa)
#
#
# Indices 1 2 3 4 5 6 
#
# 1 61.7177 38.5990 24.4699 0.0000 14.6160 0.0000
# 2 38.5990 130.2154 45.0897 0.0000 4.3790 0.0000
# 3 24.4699 45.0897 68.2163 0.0000 1.0600 0.0000
# 4 0.0000 0.0000 0.0000 21.9214 0.0000 -2.5831
# 5 14.6160 4.3790 1.0600 0.0000 34.1892 0.0000
# 6 0.0000 0.0000 0.0000 -2.5831 0.0000 17.4705
#
#
#
# Elastic Compliance Matrix: (Units=1/GPa)
#
#
# Indices 1 2 3 4 5 6 
#
# 1 0.023449 -0.004898 -0.005030 0.000000 -0.009241 0.000000
# 2 -0.004898 0.011022 -0.005541 0.000000 0.000854 0.000000
# 3 -0.005030 -0.005541 0.020092 0.000000 0.002237 0.000000
# 4 0.000000 0.000000 0.000000 0.046426 0.000000 0.006864
# 5 -0.009241 0.000854 0.002237 0.000000 0.033021 0.000000
# 6 0.000000 0.000000 0.000000 0.006864 0.000000 0.058254
#
#
# Mechanical properties :
#
#
# Convention : Reuss Voigt Hill
#
# Bulk Modulus (GPa) = 42.33194 52.94072 47.63633
# Shear Modulus (GPa) = 21.63774 24.84893 23.24334
#
# Velocity S-wave (km/s) = 3.39871 3.64218 3.52255
# Velocity P-wave (km/s) = 6.16444 6.77861 6.47881
#
# Compressibility (1/GPa) = 0.02362282
#
# Stress axis : x y z
#
# Youngs Moduli (GPa) = 42.64538 90.73071 49.77224
#
# Poissons Ratio (x) = 0.44443 0.25036
# Poissons Ratio (y) = 0.20889 0.27580
# Poissons Ratio (z) = 0.21451 0.50276
#
# Static dielectric constant tensor:
#      x y z
#    x 3.361440 0.000000 0.131280 
#    y 0.000000 3.460830 0.000000 
#    z 0.131280 0.000000 3.314330 
# 
# 
# High freq. dielectric constant tensor:
#      x y z
#    x 1.712720 0.000000 0.010700 
#    y 0.000000 1.721310 0.000000 
#    z 0.010700 0.000000 1.720160 
# 
# From -- ./inp_files/157805.got.cif
#   From: 2010.06.25/outbox.cif.g09.slc.cpg/sg12_79_cif.got.tgz:157805.got - 2010.06.28 00:19:55.
