data_PCOD8082889
_publ_section_title
;
Structure prediction by ZEFSAII (Michael W. Deem and Ramdas Pophale) SiO2 
 PCOD8082889
Probable space group: C 2/M
;
_chemical_formula_sum "Si O2"
_cell_formula_units_Z 64
_cell_length_a 25.180633
_cell_length_b 8.865149
_cell_length_c 21.396922
_cell_angle_alpha 90.000000
_cell_angle_beta 52.532670
_cell_angle_gamma 90.000000
_cell_volume 3791.059016
_symmetry_space_group_name_H-M "C 2/M"
_symmetry_group_IT_number 12
_symmetry_cell_setting 'monoclinic'
loop_
_space_group_symop_operation_xyz
x,y,z
-x,y,-z
-x,-y,-z
x,-y,z
1/2+x,1/2+y,z
1/2-x,1/2+y,-z
1/2-x,1/2-y,-z
1/2+x,1/2-y,z
loop_
_atom_site_type_symbol
_atom_site_label
_atom_site_fract_x
_atom_site_fract_y
_atom_site_fract_z
Si Si1 0.987852 0.675317 0.651282
Si Si2 0.357299 0.824720 0.663636
Si Si3 0.294944 0.820702 0.914662
Si Si4 0.247761 0.677327 0.820880
Si Si5 0.433950 0.669593 0.505898
Si Si6 0.054167 0.321911 0.184730
Si Si7 0.891377 0.824629 0.087228
Si Si8 0.510814 0.326001 0.092701
O O1 0.005686 0.500000 0.634510
O O2 0.048294 0.764127 0.574815
O O3 0.916879 0.706984 0.669475
O O4 0.982667 0.735065 0.726017
O O5 0.293599 0.727851 0.730252
O O6 0.377537 0.770674 0.579696
O O7 0.338091 0.000000 0.675219
O O8 0.269053 0.769035 0.866383
O O9 0.370108 0.760068 0.871297
O O10 0.290683 0.000000 0.921167
O O11 0.250000 0.750000 0.000000
O O12 0.254862 0.500000 0.827716
O O13 0.171722 0.717253 0.858475
O O14 0.500000 0.674351 0.500000
O O15 0.406901 0.500000 0.517550
O O16 0.056681 0.500000 0.184381
O O17 0.012953 0.268673 0.154454
O O18 0.940747 0.792019 0.109423
O O19 0.870140 0.000000 0.101310
O O20 0.928075 0.780767 0.996359
O O21 0.516663 0.500000 0.106359
#
# Coordination Sequence:
#
# PCOD8082889 Si02
#       8
#     8   8   8   8   8   8   8   8
#     4   9  17  31  47  67  96 135 170 197 240 299
#     4  10  18  32  50  68  97 137 170 201 243 297
#     4  11  22  36  49  69 100 137 171 203 247 301
#     4  12  23  33  49  75 102 132 169 210 252 296
#     4   9  17  28  44  70  99 127 162 206 246 286
#     4  10  20  33  49  71 101 132 166 205 247 296
#     4   9  19  37  55  71  96 129 168 213 257 304
#     4   9  19  35  55  75  94 125 169 214 258 298
#
# _framework density 16.881826
#
# number of rings (size 3 to 8) (size 9 to 14) (size 15 to 20)
#    0.000    2.125    1.250    3.750    0.000    6.500 
#    0.000    1.250    0.000    0.000    0.000    0.875 
#    0.000    0.000    0.000    0.000    0.000    0.000 
#
# Total GULP energy -396852.696953 kJ/mol
# GULP energy per Si atom -12401.646780 kJ/mol
# Density = 1.684340 g / cm^3
# Si number density = 16.881826 Si / 1000 Ang^3
#
#
#
# Elastic Constant Matrix: (Units=GPa)
#
#
# Indices 1 2 3 4 5 6 
#
# 1 59.7198 20.5131 41.5350 -0.0072 8.4883 0.0151
# 2 20.5131 63.2957 38.2361 -0.0128 1.8793 0.0222
# 3 41.5350 38.2361 126.7213 0.0059 16.1833 -0.0101
# 4 -0.0072 -0.0128 0.0059 33.1362 -0.0031 2.2780
# 5 8.4883 1.8793 16.1833 -0.0031 20.6595 0.0034
# 6 0.0151 0.0222 -0.0101 2.2780 0.0034 24.7162
#
#
#
# Elastic Compliance Matrix: (Units=1/GPa)
#
#
# Indices 1 2 3 4 5 6 
#
# 1 0.022648 -0.003752 -0.005718 0.000005 -0.004485 -0.000013
# 2 -0.003752 0.020125 -0.005340 0.000010 0.003894 -0.000019
# 3 -0.005718 -0.005340 0.012239 -0.000007 -0.006752 0.000015
# 4 0.000005 0.000010 -0.000007 0.030371 0.000008 -0.002799
# 5 -0.004485 0.003894 -0.006752 0.000008 0.055181 -0.000012
# 6 -0.000013 -0.000019 0.000015 -0.002799 -0.000012 0.040717
#
#
# Mechanical properties :
#
#
# Convention : Reuss Voigt Hill
#
# Bulk Modulus (GPa) = 39.38346 50.03391 44.70868
# Shear Modulus (GPa) = 22.79283 25.66589 24.22936
#
# Velocity S-wave (km/s) = 3.67841 3.90337 3.79256
# Velocity P-wave (km/s) = 6.43588 7.07228 6.76157
#
# Compressibility (1/GPa) = 0.02539137
#
# Stress axis : x y z
#
# Youngs Moduli (GPa) = 44.15326 49.68936 81.70509
#
# Poissons Ratio (x) = 0.18645 0.46723
# Poissons Ratio (y) = 0.16568 0.43629
# Poissons Ratio (z) = 0.25249 0.26533
#
# Static dielectric constant tensor:
#      x y z
#    x 2.910890 -0.000020 0.037920 
#    y -0.000020 3.146360 -0.000080 
#    z 0.037920 -0.000080 2.959310 
# 
# 
# High freq. dielectric constant tensor:
#      x y z
#    x 1.613320 0.000000 0.004200 
#    y 0.000000 1.655050 0.000000 
#    z 0.004200 0.000000 1.659570 
# 
# From -- ./inp_files/324094.got.cif
#   From: 2010.06.25/outbox.cif.g09.slc.cpg/sg12_163_cif.got.tgz:324094.got - 2010.06.28 00:19:55.
