data_PCOD8082380
_publ_section_title
;
Structure prediction by ZEFSAII (Michael W. Deem and Ramdas Pophale) SiO2 
 PCOD8082380
Probable space group: C 2/M
;
_chemical_formula_sum "Si O2"
_cell_formula_units_Z 56
_cell_length_a 22.837187
_cell_length_b 8.592616
_cell_length_c 14.794460
_cell_angle_alpha 90.000000
_cell_angle_beta 77.345395
_cell_angle_gamma 90.000000
_cell_volume 2832.612601
_symmetry_space_group_name_H-M "C 2/M"
_symmetry_group_IT_number 12
_symmetry_cell_setting 'monoclinic'
loop_
_space_group_symop_operation_xyz
x,y,z
-x,y,-z
-x,-y,-z
x,-y,z
1/2+x,1/2+y,z
1/2-x,1/2+y,-z
1/2-x,1/2-y,-z
1/2+x,1/2-y,z
loop_
_atom_site_type_symbol
_atom_site_label
_atom_site_fract_x
_atom_site_fract_y
_atom_site_fract_z
Si Si1 0.535816 0.186086 0.768737
Si Si2 0.348838 0.814675 0.620915
Si Si3 0.365483 0.682426 0.140349
Si Si4 0.882765 0.680183 0.416971
Si Si5 0.183438 0.316216 0.023550
Si Si6 0.902104 0.315659 0.790486
Si Si7 0.718443 0.819587 0.685537
O O1 0.571764 0.256101 0.841016
O O2 0.565307 0.250630 0.665094
O O3 0.467722 0.247643 0.795951
O O4 0.540951 0.000000 0.772010
O O5 0.382520 0.752073 0.519062
O O6 0.387473 0.760605 0.693859
O O7 0.285419 0.732036 0.646608
O O8 0.339063 0.000000 0.621668
O O9 0.369110 0.500000 0.123202
O O10 0.309635 0.720213 0.223909
O O11 0.355282 0.765334 0.048766
O O12 0.896599 0.500000 0.420878
O O13 0.818045 0.711993 0.394125
O O14 0.188401 0.500000 0.024856
O O15 0.148434 0.252026 0.123922
O O16 0.250000 0.250000 0.000000
O O17 0.903702 0.500000 0.794078
O O18 0.714754 0.000000 0.714584
#
# Coordination Sequence:
#
# PCOD8082380 Si02
#       7
#     8   8   8   8   8   8   8
#     4   9  18  37  57  78 107 142 181 222 265 319
#     4  10  18  31  51  80 112 144 179 221 267 319
#     4  11  22  37  57  81 106 140 180 227 277 323
#     4   8  16  29  51  79 108 140 179 221 266 316
#     4  11  22  38  58  84 113 145 180 220 268 322
#     4   9  20  35  55  79 107 141 181 222 265 317
#     4  10  19  33  52  79 110 144 181 222 270 325
#
# _framework density 19.769734
#
# number of rings (size 3 to 8) (size 9 to 14) (size 15 to 20)
#    0.000    2.286    0.000    4.286    0.000    2.286 
#    0.000   11.429    0.000    0.000    0.000    5.000 
#    0.000    0.000    0.000    0.000    0.000    0.000 
#
# Total GULP energy -347149.793861 kJ/mol
# GULP energy per Si atom -12398.206924 kJ/mol
# Density = 1.972474 g / cm^3
# Si number density = 19.769734 Si / 1000 Ang^3
#
#
#
# Elastic Constant Matrix: (Units=GPa)
#
#
# Indices 1 2 3 4 5 6 
#
# 1 148.8182 25.6684 76.6973 0.0000 -7.7487 0.0000
# 2 25.6684 38.6714 16.5740 0.0000 0.3240 0.0000
# 3 76.6973 16.5740 116.8149 0.0000 18.4962 0.0000
# 4 0.0000 0.0000 0.0000 17.1654 0.0000 -2.0495
# 5 -7.7487 0.3240 18.4962 0.0000 29.2547 0.0000
# 6 0.0000 0.0000 0.0000 -2.0495 0.0000 26.6942
#
#
#
# Elastic Compliance Matrix: (Units=1/GPa)
#
#
# Indices 1 2 3 4 5 6 
#
# 1 0.012704 -0.004589 -0.009146 0.000000 0.009199 0.000000
# 2 -0.004589 0.029344 -0.001007 0.000000 -0.000904 0.000000
# 3 -0.009146 -0.001007 0.016769 0.000000 -0.013014 0.000000
# 4 0.000000 0.000000 0.000000 0.058796 0.000000 0.004514
# 5 0.009199 -0.000904 -0.013014 0.000000 0.044857 0.000000
# 6 0.000000 0.000000 0.000000 0.004514 0.000000 0.037808
#
#
# Mechanical properties :
#
#
# Convention : Reuss Voigt Hill
#
# Bulk Modulus (GPa) = 34.09261 60.24267 47.16764
# Shear Modulus (GPa) = 20.87325 26.98051 23.92688
#
# Velocity S-wave (km/s) = 3.25286 3.69824 3.48268
# Velocity P-wave (km/s) = 5.60272 6.98386 6.33106
#
# Compressibility (1/GPa) = 0.02933187
#
# Stress axis : x y z
#
# Youngs Moduli (GPa) = 78.71560 34.07812 59.63296
#
# Poissons Ratio (x) = 0.15640 0.54543
# Poissons Ratio (y) = 0.36126 0.06006
# Poissons Ratio (z) = 0.71996 0.03432
#
# Static dielectric constant tensor:
#      x y z
#    x 3.684230 0.000000 -0.044360 
#    y 0.000000 3.309500 0.000000 
#    z -0.044360 0.000000 4.171350 
# 
# 
# High freq. dielectric constant tensor:
#      x y z
#    x 1.772850 0.000000 0.003070 
#    y 0.000000 1.739960 0.000000 
#    z 0.003070 0.000000 1.782240 
# 
# From -- ./inp_files/237464.got.cif
#   From: 2010.06.25/outbox.cif.g09.slc.cpg/sg12_119_cif.got.tgz:237464.got - 2010.06.28 00:19:55.
