data_PCOD8082738
_publ_section_title
;
Structure prediction by ZEFSAII (Michael W. Deem and Ramdas Pophale) SiO2 
 PCOD8082738
Probable space group: C 2/M
;
_chemical_formula_sum "Si O2"
_cell_formula_units_Z 48
_cell_length_a 25.968145
_cell_length_b 22.201837
_cell_length_c 12.144295
_cell_angle_alpha 90.000000
_cell_angle_beta 23.085363
_cell_angle_gamma 90.000000
_cell_volume 2745.372878
_symmetry_space_group_name_H-M "C 2/M"
_symmetry_group_IT_number 12
_symmetry_cell_setting 'monoclinic'
loop_
_space_group_symop_operation_xyz
x,y,z
-x,y,-z
-x,-y,-z
x,-y,z
1/2+x,1/2+y,z
1/2-x,1/2+y,-z
1/2-x,1/2-y,-z
1/2+x,1/2-y,z
loop_
_atom_site_type_symbol
_atom_site_label
_atom_site_fract_x
_atom_site_fract_y
_atom_site_fract_z
Si Si1 0.765040 0.806484 0.547177
Si Si2 0.887392 0.000000 0.311215
Si Si3 0.275141 0.233158 0.728918
Si Si4 0.369800 0.000000 0.325592
Si Si5 0.985265 0.195419 0.653912
Si Si6 0.716987 0.877535 0.445611
Si Si7 0.487300 0.380908 0.195183
O O1 0.750000 0.750000 0.500000
O O2 0.714655 0.785275 0.766698
O O3 0.685201 0.857656 0.635874
O O4 0.915895 0.827286 0.268224
O O5 0.901207 0.058627 0.361070
O O6 0.746765 0.000000 0.532470
O O7 0.000000 0.000000 0.000000
O O8 0.405538 0.254034 0.535101
O O9 0.317509 0.173301 0.576560
O O10 0.161039 0.221452 0.041123
O O11 0.361155 0.940132 0.420282
O O12 0.500000 0.000000 0.000000
O O13 0.001496 0.137133 0.698959
O O14 0.000000 0.173736 0.500000
O O15 0.872220 0.891325 0.136640
#
# Coordination Sequence:
#
# PCOD8082738 Si02
#       7
#     8   4   8   4   8   8   8
#     4   9  16  27  47  77 107 130 164 209 249 305
#     4  12  18  34  59  74 103 143 176 201 249 325
#     4   9  20  32  53  75 101 135 171 210 264 312
#     4  12  24  32  48  78 113 143 168 206 254 305
#     4  10  20  36  53  75 103 132 176 225 264 304
#     4  10  18  33  49  75 107 139 172 207 249 317
#     4  10  18  31  55  77  96 140 185 209 250 308
#
# _framework density 17.483964
#
# number of rings (size 3 to 8) (size 9 to 14) (size 15 to 20)
#    0.000    2.000    3.333    1.000    0.000    2.667 
#    0.000    5.417    0.000    0.000    0.000    0.583 
#    0.000    0.000    0.000    0.000    0.000    0.000 
#
# Total GULP energy -297335.625726 kJ/mol
# GULP energy per Si atom -12388.984405 kJ/mol
# Density = 1.744417 g / cm^3
# Si number density = 17.483964 Si / 1000 Ang^3
#
#
#
# Elastic Constant Matrix: (Units=GPa)
#
#
# Indices 1 2 3 4 5 6 
#
# 1 74.2528 37.9974 30.2013 0.0007 10.9755 -0.0013
# 2 37.9974 99.3826 36.9403 0.0001 3.3856 0.0000
# 3 30.2013 36.9403 87.7145 0.0018 5.0972 -0.0015
# 4 0.0007 0.0001 0.0018 20.8918 -0.0001 -2.9703
# 5 10.9755 3.3856 5.0972 -0.0001 28.2859 0.0008
# 6 -0.0013 0.0000 -0.0015 -2.9703 0.0008 18.4968
#
#
#
# Elastic Compliance Matrix: (Units=1/GPa)
#
#
# Indices 1 2 3 4 5 6 
#
# 1 0.018715 -0.005556 -0.003760 0.000000 -0.005919 0.000001
# 2 -0.005556 0.013587 -0.003880 0.000000 0.001229 -0.000001
# 3 -0.003760 -0.003880 0.014368 -0.000001 -0.000666 0.000001
# 4 0.000000 0.000000 -0.000001 0.048984 0.000000 0.007866
# 5 -0.005919 0.001229 -0.000666 0.000000 0.037623 -0.000002
# 6 0.000001 -0.000001 0.000001 0.007866 -0.000002 0.055326
#
#
# Mechanical properties :
#
#
# Convention : Reuss Voigt Hill
#
# Bulk Modulus (GPa) = 49.31684 52.40312 50.85998
# Shear Modulus (GPa) = 22.54738 23.94897 23.24817
#
# Velocity S-wave (km/s) = 3.59500 3.70505 3.65044
# Velocity P-wave (km/s) = 6.74538 6.95273 6.84984
#
# Compressibility (1/GPa) = 0.02027705
#
# Stress axis : x y z
#
# Youngs Moduli (GPa) = 53.43307 73.60025 69.59871
#
# Poissons Ratio (x) = 0.40894 0.26169
# Poissons Ratio (y) = 0.29689 0.27007
# Poissons Ratio (z) = 0.20090 0.28560
#
# Static dielectric constant tensor:
#      x y z
#    x 3.105990 0.000020 0.151570 
#    y 0.000020 3.762540 -0.000020 
#    z 0.151570 -0.000020 2.961680 
# 
# 
# High freq. dielectric constant tensor:
#      x y z
#    x 1.655220 0.000000 -0.008440 
#    y 0.000000 1.678860 0.000000 
#    z -0.008440 0.000000 1.658910 
# 
# From -- ./inp_files/185030.got.cif
#   From: 2010.06.25/outbox.cif.g09.slc.cpg/sg12_93_cif.got.tgz:185030.got - 2010.06.28 00:19:55.
