data_PCOD8082443
_publ_section_title
;
Structure prediction by ZEFSAII (Michael W. Deem and Ramdas Pophale) SiO2 
 PCOD8082443
Probable space group: C 2/M
;
_chemical_formula_sum "Si O2"
_cell_formula_units_Z 56
_cell_length_a 30.813875
_cell_length_b 13.777807
_cell_length_c 10.256441
_cell_angle_alpha 90.000000
_cell_angle_beta 129.959911
_cell_angle_gamma 90.000000
_cell_volume 3337.581362
_symmetry_space_group_name_H-M "C 2/M"
_symmetry_group_IT_number 12
_symmetry_cell_setting 'monoclinic'
loop_
_space_group_symop_operation_xyz
x,y,z
-x,y,-z
-x,-y,-z
x,-y,z
1/2+x,1/2+y,z
1/2-x,1/2+y,-z
1/2-x,1/2-y,-z
1/2+x,1/2-y,z
loop_
_atom_site_type_symbol
_atom_site_label
_atom_site_fract_x
_atom_site_fract_y
_atom_site_fract_z
Si Si1 0.279179 0.391963 0.095737
Si Si2 0.372685 0.790632 0.547919
Si Si3 0.802813 0.891306 0.437825
Si Si4 0.106813 0.385778 0.950212
Si Si5 0.014172 0.391314 0.177644
Si Si6 0.312212 0.114295 0.664783
Si Si7 0.337492 0.199088 0.188573
O O1 0.297323 0.500000 0.083598
O O2 0.273330 0.388813 0.240061
O O3 0.324957 0.312998 0.137130
O O4 0.218597 0.365847 0.920270
O O5 0.357618 0.678055 0.548743
O O6 0.437942 0.811420 0.704253
O O7 0.331341 0.853664 0.558654
O O8 0.364125 0.817466 0.381274
O O9 0.753314 0.854580 0.439959
O O10 0.823578 0.000000 0.512828
O O11 0.117013 0.500000 0.955046
O O12 0.119207 0.334247 0.837715
O O13 0.041617 0.361057 0.851763
O O14 0.146368 0.342882 0.142595
O O15 0.034734 0.500000 0.258069
O O16 0.000000 0.392008 0.000000
O O17 0.317312 0.000000 0.682665
#
# Coordination Sequence:
#
# PCOD8082443 Si02
#       7
#     8   8   8   8   8   8   8
#     4   9  17  32  51  72 104 139 165 196 249 310
#     4  11  21  32  51  77 105 128 167 218 248 283
#     4   9  18  33  53  75 100 135 172 201 246 304
#     4  10  19  33  54  73 100 138 169 198 242 308
#     4  10  20  35  53  74  99 134 171 201 247 304
#     4  10  18  31  52  76 102 134 166 201 249 307
#     4  10  20  31  50  78 102 131 168 207 250 293
#
# _framework density 16.778617000000001
#
# number of rings (size 3 to 8) (size 9 to 14) (size 15 to 20)
#    0.000    2.143    2.857    1.286    0.000    2.857 
#    0.000    1.429    0.000    1.286    0.000    4.000 
#    0.000    0.000    0.000    0.000    0.000    0.000 
#
# Total GULP energy -347143.336752 kJ/mol
# GULP energy per Si atom -12397.976313 kJ/mol
# Density = 1.674043 g / cm^3
# Si number density = 16.778617 Si / 1000 Ang^3
#
#
#
# Elastic Constant Matrix: (Units=GPa)
#
#
# Indices 1 2 3 4 5 6 
#
# 1 119.6548 53.6919 45.5062 0.0000 -5.2996 0.0000
# 2 53.6919 76.5027 38.0505 0.0000 10.9750 0.0000
# 3 45.5062 38.0505 66.6538 0.0000 5.2174 0.0000
# 4 0.0000 0.0000 0.0000 15.4356 0.0000 -3.7445
# 5 -5.2996 10.9750 5.2174 0.0000 26.7817 0.0000
# 6 0.0000 0.0000 0.0000 -3.7445 0.0000 21.6905
#
#
#
# Elastic Compliance Matrix: (Units=1/GPa)
#
#
# Indices 1 2 3 4 5 6 
#
# 1 0.014715 -0.008544 -0.005759 0.000000 0.007535 0.000000
# 2 -0.008544 0.024061 -0.007106 0.000000 -0.010167 0.000000
# 3 -0.005759 -0.007106 0.023206 0.000000 -0.002748 0.000000
# 4 0.000000 0.000000 0.000000 0.067617 0.000000 0.011673
# 5 0.007535 -0.010167 -0.002748 0.000000 0.043532 0.000000
# 6 0.000000 0.000000 0.000000 0.011673 0.000000 0.048118
#
#
# Mechanical properties :
#
#
# Convention : Reuss Voigt Hill
#
# Bulk Modulus (GPa) = 52.18136 59.70095 55.94115
# Shear Modulus (GPa) = 18.48724 21.15242 19.81983
#
# Velocity S-wave (km/s) = 3.32299 3.55445 3.44067
# Velocity P-wave (km/s) = 6.77425 7.24599 7.01408
#
# Compressibility (1/GPa) = 0.01916393
#
# Stress axis : x y z
#
# Youngs Moduli (GPa) = 67.95663 41.56057 43.09164
#
# Poissons Ratio (x) = 0.35511 0.24815
# Poissons Ratio (y) = 0.58065 0.30623
# Poissons Ratio (z) = 0.39133 0.29535
#
# Static dielectric constant tensor:
#      x y z
#    x 3.374010 0.000000 0.002930 
#    y 0.000000 3.234000 0.000000 
#    z 0.002930 0.000000 3.072230 
# 
# 
# High freq. dielectric constant tensor:
#      x y z
#    x 1.643870 0.000000 -0.009560 
#    y 0.000000 1.635840 0.000000 
#    z -0.009560 0.000000 1.634920 
# 
# From -- ./inp_files/104422.got.cif
#   From: 2010.06.25/outbox.cif.g09.slc.cpg/sg12_53_cif.got.tgz:104422.got - 2010.06.28 00:19:55.
