data_PCOD8082969
_publ_section_title
;
Structure prediction by ZEFSAII (Michael W. Deem and Ramdas Pophale) SiO2 
 PCOD8082969
Probable space group: C 2/M
;
_chemical_formula_sum "Si O2"
_cell_formula_units_Z 56
_cell_length_a 25.230302
_cell_length_b 16.693846
_cell_length_c 12.485473
_cell_angle_alpha 90.000000
_cell_angle_beta 143.599585
_cell_angle_gamma 90.000000
_cell_volume 3120.681760
_symmetry_space_group_name_H-M "C 2/M"
_symmetry_group_IT_number 12
_symmetry_cell_setting 'monoclinic'
loop_
_space_group_symop_operation_xyz
x,y,z
-x,y,-z
-x,-y,-z
x,-y,z
1/2+x,1/2+y,z
1/2-x,1/2+y,-z
1/2-x,1/2-y,-z
1/2+x,1/2-y,z
loop_
_atom_site_type_symbol
_atom_site_label
_atom_site_fract_x
_atom_site_fract_y
_atom_site_fract_z
Si Si1 0.338991 0.286057 0.370114
Si Si2 0.016399 0.792764 0.776757
Si Si3 0.793568 0.222942 0.680009
Si Si4 0.584716 0.590212 0.062214
Si Si5 0.808559 0.591567 0.944185
Si Si6 0.559744 0.840406 0.002586
Si Si7 0.350028 0.220238 0.168833
O O1 0.421240 0.319021 0.573719
O O2 0.276407 0.228658 0.337642
O O3 0.282105 0.361998 0.235695
O O4 0.378498 0.229255 0.339391
O O5 0.086583 0.776794 0.797142
O O6 0.058872 0.866033 0.910432
O O7 0.001554 0.713201 0.825199
O O8 0.750000 0.250000 0.500000
O O9 0.831693 0.132426 0.741238
O O10 0.876869 0.279789 0.832946
O O11 0.614317 0.500000 0.083425
O O12 0.500000 0.591895 0.000000
O O13 0.784147 0.500000 0.928057
O O14 0.881676 0.594756 0.966998
O O15 0.851725 0.630271 0.122278
O O16 0.500000 0.881280 0.000000
O O17 0.250000 0.250000 0.000000
#
# Coordination Sequence:
#
# PCOD8082969 Si02
#       7
#     8   8   8   8   8   8   8
#     4  10  19  32  53  77  99 131 173 208 242 299
#     4  10  18  32  54  75 100 131 168 207 247 296
#     4  10  18  32  52  73 100 135 174 206 241 296
#     4  10  20  33  50  76 108 136 163 204 258 302
#     4   9  19  33  50  74 103 133 164 207 260 300
#     4   9  17  30  50  74  97 131 174 209 244 293
#     4   9  18  34  53  73  97 131 174 209 242 294
#
# _framework density 17.944797000000001
#
# number of rings (size 3 to 8) (size 9 to 14) (size 15 to 20)
#    0.000    2.429    0.000    6.429    0.000    0.857 
#    0.000   10.714    0.000   18.000    0.000    0.000 
#    0.000    0.000    0.000    0.000    0.000    0.000 
#
# Total GULP energy -347033.960417 kJ/mol
# GULP energy per Si atom -12394.070015 kJ/mol
# Density = 1.790395 g / cm^3
# Si number density = 17.944797 Si / 1000 Ang^3
#
#
#
# Elastic Constant Matrix: (Units=GPa)
#
#
# Indices 1 2 3 4 5 6 
#
# 1 114.3399 34.5561 30.1739 0.0000 -4.2696 0.0000
# 2 34.5561 116.6826 47.7466 0.0000 -2.4192 0.0000
# 3 30.1739 47.7466 107.0611 0.0000 -8.5936 0.0000
# 4 0.0000 0.0000 0.0000 15.6380 0.0000 1.6193
# 5 -4.2696 -2.4192 -8.5936 0.0000 28.5645 0.0000
# 6 0.0000 0.0000 0.0000 1.6193 0.0000 13.9660
#
#
#
# Elastic Compliance Matrix: (Units=1/GPa)
#
#
# Indices 1 2 3 4 5 6 
#
# 1 0.009901 -0.002201 -0.001747 0.000000 0.000768 0.000000
# 2 -0.002201 0.010981 -0.004333 0.000000 -0.000703 0.000000
# 3 -0.001747 -0.004333 0.012005 0.000000 0.002984 0.000000
# 4 0.000000 0.000000 0.000000 0.064724 0.000000 -0.007505
# 5 0.000768 -0.000703 0.002984 0.000000 0.035961 0.000000
# 6 0.000000 0.000000 0.000000 -0.007505 0.000000 0.072473
#
#
# Mechanical properties :
#
#
# Convention : Reuss Voigt Hill
#
# Bulk Modulus (GPa) = 61.26200 62.55966 61.91083
# Shear Modulus (GPa) = 21.92517 26.67416 24.29967
#
# Velocity S-wave (km/s) = 3.49924 3.85964 3.68385
# Velocity P-wave (km/s) = 7.10911 7.40273 7.25741
#
# Compressibility (1/GPa) = 0.01632333
#
# Stress axis : x y z
#
# Youngs Moduli (GPa) = 101.00116 91.06844 83.30004
#
# Poissons Ratio (x) = 0.20048 0.14553
# Poissons Ratio (y) = 0.22234 0.36095
# Poissons Ratio (z) = 0.17645 0.39461
#
# Static dielectric constant tensor:
#      x y z
#    x 3.548150 0.000000 -0.082800 
#    y 0.000000 0.480650 0.000000 
#    z -0.082800 0.000000 3.586480 
# 
# 
# High freq. dielectric constant tensor:
#      x y z
#    x 1.713100 0.000000 -0.001810 
#    y 0.000000 1.657150 0.000000 
#    z -0.001810 0.000000 1.693540 
# 
# From -- ./inp_files/177195.got.cif
#   From: 2010.06.25/outbox.cif.g09.slc.cpg/sg12_89_cif.got.tgz:177195.got - 2010.06.28 00:19:55.
