data_PCOD8082483
_publ_section_title
;
Structure prediction by ZEFSAII (Michael W. Deem and Ramdas Pophale) SiO2 
 PCOD8082483
Probable space group: C 2/M
;
_chemical_formula_sum "Si O2"
_cell_formula_units_Z 56
_cell_length_a 19.277260
_cell_length_b 17.795392
_cell_length_c 10.235795
_cell_angle_alpha 90.000000
_cell_angle_beta 76.671789
_cell_angle_gamma 90.000000
_cell_volume 3416.776027
_symmetry_space_group_name_H-M "C 2/M"
_symmetry_group_IT_number 12
_symmetry_cell_setting 'monoclinic'
loop_
_space_group_symop_operation_xyz
x,y,z
-x,y,-z
-x,-y,-z
x,-y,z
1/2+x,1/2+y,z
1/2-x,1/2+y,-z
1/2-x,1/2-y,-z
1/2+x,1/2-y,z
loop_
_atom_site_type_symbol
_atom_site_label
_atom_site_fract_x
_atom_site_fract_y
_atom_site_fract_z
Si Si1 0.711736 0.411009 0.303437
Si Si2 0.057715 0.154211 0.367944
Si Si3 0.211525 0.088568 0.012108
Si Si4 0.924422 0.323747 0.576399
Si Si5 0.695928 0.910595 0.264839
Si Si6 0.551659 0.589002 0.092327
Si Si7 0.788252 0.671006 0.491153
O O1 0.711585 0.500000 0.316479
O O2 0.633340 0.381635 0.374775
O O3 0.732300 0.384329 0.148306
O O4 0.772208 0.376716 0.369319
O O5 0.063981 0.243955 0.359909
O O6 0.030533 0.127068 0.238374
O O7 0.000000 0.128217 0.500000
O O8 0.130981 0.114030 0.015756
O O9 0.216379 0.000000 0.002231
O O10 0.266050 0.121736 0.881784
O O11 0.885726 0.379835 0.696494
O O12 0.873526 0.315519 0.469946
O O13 0.000000 0.358657 0.500000
O O14 0.738907 0.876280 0.370368
O O15 0.696272 0.000000 0.272657
O O16 0.546463 0.500000 0.115454
O O17 0.500000 0.617308 0.000000
O O18 0.750000 0.750000 0.500000
#
# Coordination Sequence:
#
# PCOD8082483 Si02
#       7
#     8   8   8   8   8   8   8
#     4  10  18  31  52  78 105 133 169 210 255 304
#     4  10  19  33  51  71 105 142 170 202 252 306
#     4   8  16  31  50  74 104 131 163 211 254 298
#     4   9  20  36  53  70 105 133 168 213 261 302
#     4   9  18  33  55  77  96 129 176 215 254 299
#     4   9  18  32  48  72 106 141 172 204 246 298
#     4  10  19  34  51  76 105 133 167 211 256 303
#
# _framework density 16.389720000000001
#
# number of rings (size 3 to 8) (size 9 to 14) (size 15 to 20)
#    0.857    1.857    1.429    1.714    0.000    2.571 
#    0.000    7.857    0.000    0.000    0.000    3.000 
#    0.000    0.000    0.000    0.000    0.000    0.000 
#
# Total GULP energy -346992.445193 kJ/mol
# GULP energy per Si atom -12392.587328 kJ/mol
# Density = 1.635242 g / cm^3
# Si number density = 16.389720 Si / 1000 Ang^3
#
#
#
# Elastic Constant Matrix: (Units=GPa)
#
#
# Indices 1 2 3 4 5 6 
#
# 1 103.7401 26.3161 78.8799 0.0000 -9.7724 0.0000
# 2 26.3161 61.5580 44.0756 0.0000 -9.2752 0.0000
# 3 78.8799 44.0756 140.1182 0.0000 -8.5630 0.0000
# 4 0.0000 0.0000 0.0000 15.8950 0.0000 2.3529
# 5 -9.7724 -9.2752 -8.5630 0.0000 27.8581 0.0000
# 6 0.0000 0.0000 0.0000 2.3529 0.0000 27.1144
#
#
#
# Elastic Compliance Matrix: (Units=1/GPa)
#
#
# Indices 1 2 3 4 5 6 
#
# 1 0.017113 -0.000116 -0.009410 0.000000 0.003072 0.000000
# 2 -0.000116 0.021689 -0.006439 0.000000 0.005201 0.000000
# 3 -0.009410 -0.006439 0.014397 0.000000 -0.001019 0.000000
# 4 0.000000 0.000000 0.000000 0.063732 0.000000 -0.005530
# 5 0.003072 0.005201 -0.001019 0.000000 0.038392 0.000000
# 6 0.000000 0.000000 0.000000 -0.005530 0.000000 0.037361
#
#
# Mechanical properties :
#
#
# Convention : Reuss Voigt Hill
#
# Bulk Modulus (GPa) = 47.01567 67.10662 57.06114
# Shear Modulus (GPa) = 21.57939 24.58315 23.08127
#
# Velocity S-wave (km/s) = 3.63249 3.87707 3.75677
# Velocity P-wave (km/s) = 6.80747 7.81508 7.32861
#
# Compressibility (1/GPa) = 0.02126950
#
# Stress axis : x y z
#
# Youngs Moduli (GPa) = 58.43524 46.10716 69.45722
#
# Poissons Ratio (x) = 0.00533 0.65357
# Poissons Ratio (y) = 0.00675 0.44727
# Poissons Ratio (z) = 0.54986 0.29691
#
# Static dielectric constant tensor:
#      x y z
#    x 3.192810 0.000000 0.010460 
#    y 0.000000 2.967750 0.000000 
#    z 0.010460 0.000000 3.266300 
# 
# 
# High freq. dielectric constant tensor:
#      x y z
#    x 1.620680 0.000000 0.000970 
#    y 0.000000 1.622370 0.000000 
#    z 0.000970 0.000000 1.627070 
# 
# From -- ./inp_files/88759.got.cif
#   From: 2010.06.25/outbox.cif.g09.slc.cpg/sg12_45_cif.got.tgz:88759.got - 2010.06.28 00:19:55.
