data_PCOD8082831
_publ_section_title
;
Structure prediction by ZEFSAII (Michael W. Deem and Ramdas Pophale) SiO2 
 PCOD8082831
Probable space group: C 2/M
;
_chemical_formula_sum "Si O2"
_cell_formula_units_Z 60
_cell_length_a 22.182174
_cell_length_b 24.595030
_cell_length_c 9.617931
_cell_angle_alpha 90.000000
_cell_angle_beta 144.141222
_cell_angle_gamma 90.000000
_cell_volume 3073.793158
_symmetry_space_group_name_H-M "C 2/M"
_symmetry_group_IT_number 12
_symmetry_cell_setting 'monoclinic'
loop_
_space_group_symop_operation_xyz
x,y,z
-x,y,-z
-x,-y,-z
x,-y,z
1/2+x,1/2+y,z
1/2-x,1/2+y,-z
1/2-x,1/2-y,-z
1/2+x,1/2-y,z
loop_
_atom_site_type_symbol
_atom_site_label
_atom_site_fract_x
_atom_site_fract_y
_atom_site_fract_z
Si Si1 0.839820 0.357602 0.791652
Si Si2 0.538472 0.615794 0.419172
Si Si3 0.000000 0.718460 0.000000
Si Si4 0.318844 0.061383 0.512230
Si Si5 0.752385 0.561952 0.847300
Si Si6 0.875080 0.185850 0.657459
Si Si7 0.587302 0.588680 0.069658
Si Si8 0.605051 0.937146 0.636319
O O1 0.861940 0.398708 0.707790
O O2 0.817738 0.395369 0.881111
O O3 0.747396 0.315712 0.587226
O O4 0.939819 0.319757 0.998267
O O5 0.500000 0.634430 0.500000
O O6 0.630717 0.572743 0.612407
O O7 0.577600 0.666351 0.401237
O O8 0.446556 0.589212 0.155988
O O9 0.083432 0.753683 0.240221
O O10 0.194822 0.058150 0.281071
O O11 0.363117 0.087225 0.452782
O O12 0.358382 0.000000 0.612265
O O13 0.772177 0.500000 0.832997
O O14 0.795043 0.570858 0.081137
O O15 0.904300 0.148877 0.845642
O O16 0.500000 0.557868 0.000000
O O17 0.500000 0.909563 0.500000
O O18 0.580820 0.000000 0.567800
#
# Coordination Sequence:
#
# PCOD8082831 Si02
#       8
#     8   8   4   8   8   8   8   8
#     4  10  23  34  59  88 104 139 190 231 274 327
#     4  10  18  31  58  87 113 143 186 223 270 337
#     4  12  20  38  63  76 103 144 192 232 284 334
#     4  10  20  35  53  82 116 145 184 225 265 330
#     4  10  21  37  53  82 124 149 175 227 275 321
#     4   9  19  39  56  77 111 144 174 232 288 325
#     4   9  17  32  54  80 110 147 180 210 283 342
#     4   9  19  35  55  70 104 160 187 206 265 323
#
# _framework density 19.519856000000001
#
# number of rings (size 3 to 8) (size 9 to 14) (size 15 to 20)
#    0.000    2.267    2.000    2.400    1.867    1.067 
#    0.000    0.667    2.933    1.600    0.000    0.000 
#    0.000    0.000    0.000    0.000    0.000    0.000 
#
# Total GULP energy -371760.052593 kJ/mol
# GULP energy per Si atom -12392.001753 kJ/mol
# Density = 1.947543 g / cm^3
# Si number density = 19.519856 Si / 1000 Ang^3
#
#
#
# Elastic Constant Matrix: (Units=GPa)
#
#
# Indices 1 2 3 4 5 6 
#
# 1 109.7248 35.5093 16.5919 0.0000 -12.0352 0.0000
# 2 35.5093 88.9467 23.2242 0.0000 4.3475 0.0000
# 3 16.5919 23.2242 50.2754 0.0000 -6.7291 0.0000
# 4 0.0000 0.0000 0.0000 11.4700 0.0000 8.6238
# 5 -12.0352 4.3475 -6.7291 0.0000 34.2170 0.0000
# 6 0.0000 0.0000 0.0000 8.6238 0.0000 18.9470
#
#
#
# Elastic Compliance Matrix: (Units=1/GPa)
#
#
# Indices 1 2 3 4 5 6 
#
# 1 0.011165 -0.004381 -0.001089 0.000000 0.004269 0.000000
# 2 -0.004381 0.014783 -0.005998 0.000000 -0.004599 0.000000
# 3 -0.001089 -0.005998 0.023695 0.000000 0.005039 0.000000
# 4 0.000000 0.000000 0.000000 0.132541 0.000000 -0.060326
# 5 0.004269 -0.004599 0.005039 0.000000 0.032302 0.000000
# 6 0.000000 0.000000 0.000000 -0.060326 0.000000 0.080236
#
#
# Mechanical properties :
#
#
# Convention : Reuss Voigt Hill
#
# Bulk Modulus (GPa) = 37.44651 44.39974 40.92313
# Shear Modulus (GPa) = 15.31107 24.50159 19.90633
#
# Velocity S-wave (km/s) = 2.80372 3.54674 3.19689
# Velocity P-wave (km/s) = 5.45038 6.29030 5.88534
#
# Compressibility (1/GPa) = 0.02670476
#
# Stress axis : x y z
#
# Youngs Moduli (GPa) = 89.56859 67.64613 42.20265
#
# Poissons Ratio (x) = 0.29639 0.04596
# Poissons Ratio (y) = 0.39244 0.25315
# Poissons Ratio (z) = 0.09755 0.40577
#
# Static dielectric constant tensor:
#      x y z
#    x 3.824780 0.000000 0.161070 
#    y 0.000000 3.248750 0.000000 
#    z 0.161070 0.000000 3.576410 
# 
# 
# High freq. dielectric constant tensor:
#      x y z
#    x 1.765440 0.000000 0.012320 
#    y 0.000000 1.725920 0.000000 
#    z 0.012320 0.000000 1.763780 
# 
# From -- ./inp_files/91243.got.cif
#   From: 2010.06.25/outbox.cif.g09.slc.cpg/sg12_46_cif.got.tgz:91243.got - 2010.06.28 00:19:55.
