data_PCOD8082348
_publ_section_title
;
Structure prediction by ZEFSAII (Michael W. Deem and Ramdas Pophale) SiO2 
 PCOD8082348
Probable space group: C 2/M
;
_chemical_formula_sum "Si O2"
_cell_formula_units_Z 64
_cell_length_a 20.585482
_cell_length_b 8.760077
_cell_length_c 19.695662
_cell_angle_alpha 90.000000
_cell_angle_beta 101.896976
_cell_angle_gamma 90.000000
_cell_volume 3475.435189
_symmetry_space_group_name_H-M "C 2/M"
_symmetry_group_IT_number 12
_symmetry_cell_setting 'monoclinic'
loop_
_space_group_symop_operation_xyz
x,y,z
-x,y,-z
-x,-y,-z
x,-y,z
1/2+x,1/2+y,z
1/2-x,1/2+y,-z
1/2-x,1/2-y,-z
1/2+x,1/2-y,z
loop_
_atom_site_type_symbol
_atom_site_label
_atom_site_fract_x
_atom_site_fract_y
_atom_site_fract_z
Si Si1 0.534601 0.680243 0.208309
Si Si2 0.161285 0.180741 0.152185
Si Si3 0.531364 0.823312 0.349783
Si Si4 0.320654 0.680977 0.996761
Si Si5 0.397940 0.180885 0.133135
Si Si6 0.885190 0.677298 0.372835
Si Si7 0.074204 0.828418 0.488487
Si Si8 0.698629 0.818332 0.769279
O O1 0.522877 0.500000 0.198161
O O2 0.596617 0.739466 0.177348
O O3 0.549856 0.721043 0.289330
O O4 0.471925 0.771906 0.167590
O O5 0.159054 0.236140 0.074039
O O6 0.227438 0.246479 0.203091
O O7 0.164951 0.000000 0.156072
O O8 0.455303 0.790543 0.352165
O O9 0.579420 0.773924 0.421974
O O10 0.543194 0.000000 0.335427
O O11 0.315413 0.500000 0.000018
O O12 0.250000 0.750000 0.000000
O O13 0.377923 0.741276 0.058336
O O14 0.348599 0.242399 0.180777
O O15 0.393522 0.000000 0.124350
O O16 0.877149 0.500000 0.387564
O O17 0.877432 0.765153 0.442417
O O18 0.828495 0.738779 0.309458
O O19 0.000000 0.820559 0.500000
O O20 0.095528 0.000000 0.474987
O O21 0.696182 0.000000 0.770039
#
# Coordination Sequence:
#
# PCOD8082348 Si02
#       8
#     8   8   8   8   8   8   8   8
#     4  11  22  36  55  81 111 145 185 226 272 327
#     4   9  20  37  57  79 109 147 182 220 273 337
#     4  10  18  31  51  76 107 144 180 220 272 326
#     4  11  21  37  60  85 111 143 184 229 277 329
#     4  11  21  37  59  82 110 145 184 228 275 325
#     4   9  16  28  50  77 103 136 178 222 268 322
#     4   9  17  28  44  73 110 142 173 218 270 319
#     4   9  16  32  56  79 103 140 184 220 265 326
#
# _framework density 18.414960000000001
#
# number of rings (size 3 to 8) (size 9 to 14) (size 15 to 20)
#    0.000    2.125    2.500    1.875    0.000    2.500 
#    0.000    5.000    0.000    0.750    0.000    0.000 
#    0.000    0.000    0.000    0.000    0.000    0.000 
#
# Total GULP energy -396815.731584 kJ/mol
# GULP energy per Si atom -12400.491612 kJ/mol
# Density = 1.837305 g / cm^3
# Si number density = 18.414960 Si / 1000 Ang^3
#
#
#
# Elastic Constant Matrix: (Units=GPa)
#
#
# Indices 1 2 3 4 5 6 
#
# 1 90.0062 15.6159 50.2820 0.0000 4.5356 0.0000
# 2 15.6159 51.2634 27.5561 0.0000 -1.0684 0.0000
# 3 50.2820 27.5561 140.5608 0.0000 21.3460 0.0000
# 4 0.0000 0.0000 0.0000 33.4514 0.0000 4.1029
# 5 4.5356 -1.0684 21.3460 0.0000 26.3596 0.0000
# 6 0.0000 0.0000 0.0000 4.1029 0.0000 20.4042
#
#
#
# Elastic Compliance Matrix: (Units=1/GPa)
#
#
# Indices 1 2 3 4 5 6 
#
# 1 0.014078 -0.001593 -0.004956 0.000000 0.001526 0.000000
# 2 -0.001593 0.022568 -0.004601 0.000000 0.004915 0.000000
# 3 -0.004956 -0.004601 0.011046 0.000000 -0.008279 0.000000
# 4 0.000000 0.000000 0.000000 0.030650 0.000000 -0.006163
# 5 0.001526 0.004915 -0.008279 0.000000 0.044578 0.000000
# 6 0.000000 0.000000 0.000000 -0.006163 0.000000 0.050249
#
#
# Mechanical properties :
#
#
# Convention : Reuss Voigt Hill
#
# Bulk Modulus (GPa) = 39.37963 52.08206 45.73085
# Shear Modulus (GPa) = 24.51791 28.60146 26.55968
#
# Velocity S-wave (km/s) = 3.65281 3.94530 3.80187
# Velocity P-wave (km/s) = 6.26272 7.00697 6.64528
#
# Compressibility (1/GPa) = 0.02539384
#
# Stress axis : x y z
#
# Youngs Moduli (GPa) = 71.03149 44.31081 90.52744
#
# Poissons Ratio (x) = 0.07058 0.44862
# Poissons Ratio (y) = 0.11314 0.41650
# Poissons Ratio (z) = 0.35201 0.20387
#
# Static dielectric constant tensor:
#      x y z
#    x 3.326420 0.000000 0.161370 
#    y 0.000000 3.255860 0.000000 
#    z 0.161370 0.000000 3.728280 
# 
# 
# High freq. dielectric constant tensor:
#      x y z
#    x 1.684950 0.000000 0.015980 
#    y 0.000000 1.700090 0.000000 
#    z 0.015980 0.000000 1.730380 
# 
# From -- ./inp_files/281259.got.cif
#   From: 2010.06.25/outbox.cif.g09.slc.cpg/sg12_141_cif.got.tgz:281259.got - 2010.06.28 00:19:55.
