data_PCOD8082873
_publ_section_title
;
Structure prediction by ZEFSAII (Michael W. Deem and Ramdas Pophale) SiO2 
 PCOD8082873
Probable space group: C 2/M
;
_chemical_formula_sum "Si O2"
_cell_formula_units_Z 60
_cell_length_a 23.311165
_cell_length_b 28.466620
_cell_length_c 12.727768
_cell_angle_alpha 90.000000
_cell_angle_beta 153.731165
_cell_angle_gamma 90.000000
_cell_volume 3738.069309
_symmetry_space_group_name_H-M "C 2/M"
_symmetry_group_IT_number 12
_symmetry_cell_setting 'monoclinic'
loop_
_space_group_symop_operation_xyz
x,y,z
-x,y,-z
-x,-y,-z
x,-y,z
1/2+x,1/2+y,z
1/2-x,1/2+y,-z
1/2-x,1/2-y,-z
1/2+x,1/2-y,z
loop_
_atom_site_type_symbol
_atom_site_label
_atom_site_fract_x
_atom_site_fract_y
_atom_site_fract_z
Si Si1 0.511247 0.873389 0.321621
Si Si2 0.525158 0.283032 0.919303
Si Si3 0.127494 0.447755 0.639208
Si Si4 0.431421 0.175255 0.995597
Si Si5 0.000000 0.851987 0.500000
Si Si6 0.284603 0.803222 0.253127
Si Si7 0.648321 0.700431 0.563176
Si Si8 0.748854 0.127060 0.977108
O O1 0.584955 0.922954 0.460190
O O2 0.591947 0.832084 0.507563
O O3 0.369042 0.873475 0.136560
O O4 0.499664 0.863321 0.180433
O O5 0.411900 0.296622 0.652512
O O6 0.500000 0.294280 0.000000
O O7 0.538226 0.227941 0.919784
O O8 0.655412 0.312176 0.109234
O O9 0.182569 0.500000 0.707848
O O10 0.236644 0.415780 0.874104
O O11 0.000000 0.450132 0.500000
O O12 0.276187 0.169591 0.748221
O O13 0.500000 0.163635 0.000000
O O14 0.950020 0.822921 0.517575
O O15 0.880478 0.882343 0.258516
O O16 0.318165 0.748607 0.320961
O O17 0.251532 0.821577 0.080677
#
# Coordination Sequence:
#
# PCOD8082873 Si02
#       8
#     8   8   8   8   4   8   8   8
#     4  10  18  32  49  73  96 124 163 205 247 288
#     4  10  21  33  46  65  95 137 179 212 235 274
#     4   8  16  32  55  75  94 120 154 197 246 303
#     4  10  21  32  47  67  97 134 174 209 243 275
#     4  12  22  32  47  72 108 134 159 202 246 302
#     4  10  20  31  47  67  94 131 170 207 241 278
#     4  11  22  32  47  67 100 139 172 206 245 283
#     4  10  20  33  48  72 102 125 158 203 248 299
#
# _framework density 16.051067
#
# number of rings (size 3 to 8) (size 9 to 14) (size 15 to 20)
#    0.000    2.000    4.000    1.200    3.733    2.133 
#    0.000    0.333    0.000    0.400    0.000    0.000 
#    0.000   10.667    0.000    0.000    0.000    0.000 
#
# Total GULP energy -371664.752108 kJ/mol
# GULP energy per Si atom -12388.825070 kJ/mol
# Density = 1.601453 g / cm^3
# Si number density = 16.051067 Si / 1000 Ang^3
#
#
#
# Elastic Constant Matrix: (Units=GPa)
#
#
# Indices 1 2 3 4 5 6 
#
# 1 79.1136 28.2859 37.4396 0.0000 -10.5006 0.0000
# 2 28.2859 63.9870 35.1777 0.0000 -10.0512 0.0000
# 3 37.4396 35.1777 119.8255 0.0000 -13.4388 0.0000
# 4 0.0000 0.0000 0.0000 11.4910 0.0000 -5.7248
# 5 -10.5006 -10.0512 -13.4388 0.0000 27.5929 0.0000
# 6 0.0000 0.0000 0.0000 -5.7248 0.0000 7.5191
#
#
#
# Elastic Compliance Matrix: (Units=1/GPa)
#
#
# Indices 1 2 3 4 5 6 
#
# 1 0.016366 -0.004957 -0.003345 0.000000 0.002793 0.000000
# 2 -0.004957 0.020647 -0.004105 0.000000 0.003635 0.000000
# 3 -0.003345 -0.004105 0.010880 0.000000 0.002530 0.000000
# 4 0.000000 0.000000 0.000000 0.140207 0.000000 0.106748
# 5 0.002793 0.003635 0.002530 0.000000 0.039861 0.000000
# 6 0.000000 0.000000 0.000000 0.106748 0.000000 0.214268
#
#
# Mechanical properties :
#
#
# Convention : Reuss Voigt Hill
#
# Bulk Modulus (GPa) = 43.32959 51.63692 47.48326
# Shear Modulus (GPa) = 10.53217 20.12213 15.32715
#
# Velocity S-wave (km/s) = 2.56435 3.54451 3.09350
# Velocity P-wave (km/s) = 5.98509 6.99940 6.51202
#
# Compressibility (1/GPa) = 0.02307891
#
# Stress axis : x y z
#
# Youngs Moduli (GPa) = 61.10182 48.43255 91.91549
#
# Poissons Ratio (x) = 0.24008 0.30747
# Poissons Ratio (y) = 0.30288 0.37731
# Poissons Ratio (z) = 0.20439 0.19881
#
# Static dielectric constant tensor:
#      x y z
#    x 3.060140 0.000000 -0.031930 
#    y 0.000000 2.967280 0.000000 
#    z -0.031930 0.000000 3.302430 
# 
# 
# High freq. dielectric constant tensor:
#      x y z
#    x 1.610600 0.000000 -0.001370 
#    y 0.000000 1.573030 0.000000 
#    z -0.001370 0.000000 1.633880 
# 
# From -- ./inp_files/136976.got.cif
#   From: 2010.06.25/outbox.cif.g09.slc.cpg/sg12_69_cif.got.tgz:136976.got - 2010.06.28 00:19:55.
