data_PCOD8082288
_publ_section_title
;
Structure prediction by ZEFSAII (Michael W. Deem and Ramdas Pophale) SiO2 
 PCOD8082288
Probable space group: C 2/M
;
_chemical_formula_sum "Si O2"
_cell_formula_units_Z 56
_cell_length_a 19.139920
_cell_length_b 8.718669
_cell_length_c 22.191442
_cell_angle_alpha 90.000000
_cell_angle_beta 56.861921
_cell_angle_gamma 90.000000
_cell_volume 3100.885684
_symmetry_space_group_name_H-M "C 2/M"
_symmetry_group_IT_number 12
_symmetry_cell_setting 'monoclinic'
loop_
_space_group_symop_operation_xyz
x,y,z
-x,y,-z
-x,-y,-z
x,-y,z
1/2+x,1/2+y,z
1/2-x,1/2+y,-z
1/2-x,1/2-y,-z
1/2+x,1/2-y,z
loop_
_atom_site_type_symbol
_atom_site_label
_atom_site_fract_x
_atom_site_fract_y
_atom_site_fract_z
Si Si1 0.967079 0.680110 0.079031
Si Si2 0.679800 0.181581 0.488641
Si Si3 0.289496 0.821681 0.199907
Si Si4 0.249679 0.823714 0.089064
Si Si5 0.992789 0.829738 0.431999
Si Si6 0.674409 0.316044 0.358997
Si Si7 0.381041 0.677101 0.946124
O O1 0.954916 0.500000 0.077120
O O2 0.879859 0.752897 0.143046
O O3 0.035282 0.722858 0.096815
O O4 0.000000 0.750817 0.000000
O O5 0.750000 0.250000 0.500000
O O6 0.585095 0.226454 0.553786
O O7 0.694348 0.242298 0.414175
O O8 0.688056 0.000000 0.486172
O O9 0.232636 0.793809 0.167497
O O10 0.244495 0.751425 0.279802
O O11 0.300867 0.000000 0.207868
O O12 0.166263 0.780531 0.093007
O O13 0.275605 0.000000 0.064769
O O14 0.326231 0.721247 0.030103
O O15 0.085067 0.765914 0.371099
O O16 0.000000 0.837722 0.500000
O O17 0.977447 0.000000 0.412600
O O18 0.675157 0.500000 0.366276
O O19 0.404618 0.500000 0.939075
#
# Coordination Sequence:
#
# PCOD8082288 Si02
#       7
#     8   8   8   8   8   8   8
#     4  10  18  31  51  71  96 135 178 214 252 312
#     4  11  21  34  55  81 109 139 172 210 251 301
#     4   9  17  32  54  74  96 135 178 211 250 309
#     4   9  17  32  50  68  92 127 168 204 251 312
#     4   8  15  30  52  77 104 133 168 207 246 298
#     4   9  18  34  55  78 105 137 173 213 258 309
#     4  10  19  29  46  71  98 124 161 219 265 296
#
# _framework density 18.059356000000001
#
# number of rings (size 3 to 8) (size 9 to 14) (size 15 to 20)
#    0.000    2.571    1.429    2.571    0.000    3.429 
#    0.000    2.857    0.000    1.714    0.000    0.000 
#    0.000    0.000    0.000    0.000    0.000    0.000 
#
# Total GULP energy -346946.890529 kJ/mol
# GULP energy per Si atom -12390.960376 kJ/mol
# Density = 1.801825 g / cm^3
# Si number density = 18.059356 Si / 1000 Ang^3
#
#
#
# Elastic Constant Matrix: (Units=GPa)
#
#
# Indices 1 2 3 4 5 6 
#
# 1 146.1020 37.0500 71.3102 -0.0001 -12.2984 -0.0003
# 2 37.0500 44.4366 27.9715 -0.0004 -3.7184 -0.0011
# 3 71.3102 27.9715 119.0863 0.0000 -14.3875 -0.0001
# 4 -0.0001 -0.0004 0.0000 14.9385 0.0000 1.3460
# 5 -12.2984 -3.7184 -14.3875 0.0000 24.3203 0.0000
# 6 -0.0003 -0.0011 -0.0001 1.3460 0.0000 29.8315
#
#
#
# Elastic Compliance Matrix: (Units=1/GPa)
#
#
# Indices 1 2 3 4 5 6 
#
# 1 0.010873 -0.005814 -0.004941 0.000000 0.001686 0.000000
# 2 -0.005814 0.029521 -0.003514 0.000001 -0.000505 0.000001
# 3 -0.004941 -0.003514 0.012724 0.000000 0.004491 0.000000
# 4 0.000000 0.000001 0.000000 0.067214 0.000000 -0.003033
# 5 0.001686 -0.000505 0.004491 0.000000 0.044550 0.000000
# 6 0.000000 0.000001 0.000000 -0.003033 0.000000 0.033658
#
#
# Mechanical properties :
#
#
# Convention : Reuss Voigt Hill
#
# Bulk Modulus (GPa) = 40.68348 64.69869 52.69109
# Shear Modulus (GPa) = 21.25204 25.37094 23.31149
#
# Velocity S-wave (km/s) = 3.43416 3.75222 3.59670
# Velocity P-wave (km/s) = 6.18879 7.39429 6.81824
#
# Compressibility (1/GPa) = 0.02458000
#
# Stress axis : x y z
#
# Youngs Moduli (GPa) = 91.97465 33.87446 78.59060
#
# Poissons Ratio (x) = 0.19694 0.38835
# Poissons Ratio (y) = 0.53471 0.27614
# Poissons Ratio (z) = 0.45448 0.11902
#
# Static dielectric constant tensor:
#      x y z
#    x 3.653470 0.000000 -0.296790 
#    y 0.000000 3.121740 0.000000 
#    z -0.296790 0.000000 3.478240 
# 
# 
# High freq. dielectric constant tensor:
#      x y z
#    x 1.709410 0.000000 -0.008710 
#    y 0.000000 1.675490 0.000000 
#    z -0.008710 0.000000 1.673870 
# 
# From -- ./inp_files/319045.got.cif
#   From: 2010.06.25/outbox.cif.g09.slc.cpg/sg12_160_cif.got.tgz:319045.got - 2010.06.28 00:19:55.
