data_PCOD8082756
_publ_section_title
;
Structure prediction by ZEFSAII (Michael W. Deem and Ramdas Pophale) SiO2 
 PCOD8082756
Probable space group: C 2/M
;
_chemical_formula_sum "Si O2"
_cell_formula_units_Z 56
_cell_length_a 20.299144
_cell_length_b 16.507773
_cell_length_c 14.827172
_cell_angle_alpha 90.000000
_cell_angle_beta 32.329515
_cell_angle_gamma 90.000000
_cell_volume 2657.088070
_symmetry_space_group_name_H-M "C 2/M"
_symmetry_group_IT_number 12
_symmetry_cell_setting 'monoclinic'
loop_
_space_group_symop_operation_xyz
x,y,z
-x,y,-z
-x,-y,-z
x,-y,z
1/2+x,1/2+y,z
1/2-x,1/2+y,-z
1/2-x,1/2-y,-z
1/2+x,1/2-y,z
loop_
_atom_site_type_symbol
_atom_site_label
_atom_site_fract_x
_atom_site_fract_y
_atom_site_fract_z
Si Si1 0.707249 0.093502 0.405965
Si Si2 0.857026 0.594592 0.178727
Si Si3 0.723348 0.595790 0.864310
Si Si4 0.543260 0.596318 0.226057
Si Si5 0.286111 0.662002 0.492188
Si Si6 0.237164 0.404253 0.900533
Si Si7 0.436894 0.096423 0.744281
O O1 0.778878 0.130612 0.235717
O O2 0.785964 0.103660 0.405147
O O3 0.572861 0.134794 0.575422
O O4 0.687421 0.000000 0.406989
O O5 0.831824 0.500000 0.221823
O O6 0.815045 0.639398 0.317137
O O7 0.780462 0.628610 0.180836
O O8 0.000000 0.613006 0.000000
O O9 0.713195 0.500000 0.878752
O O10 0.853801 0.622975 0.755620
O O11 0.609725 0.626543 0.056827
O O12 0.513631 0.500000 0.259555
O O13 0.420974 0.650266 0.379383
O O14 0.630000 0.618303 0.211292
O O15 0.250000 0.750000 0.500000
O O16 0.222022 0.500000 0.916641
O O17 0.127279 0.369280 0.090607
O O18 0.446257 0.000000 0.740031
#
# Coordination Sequence:
#
# PCOD8082756 Si02
#       7
#     8   8   8   8   8   8   8
#     4  10  18  31  55  81 108 147 191 231 272 324
#     4  10  20  38  66  94 114 143 194 249 295 343
#     4   8  15  28  53  88 113 136 174 224 282 335
#     4   9  18  36  60  86 115 145 187 240 288 343
#     4  12  26  40  51  75 116 157 192 233 292 348
#     4   8  15  29  57  92 116 140 180 240 301 335
#     4   8  13  25  51  87 118 134 165 230 289 331
#
# _framework density 21.075703000000001
#
# number of rings (size 3 to 8) (size 9 to 14) (size 15 to 20)
#    0.000    2.714    0.000    4.286    0.000    5.143 
#    2.571    4.286    6.286    2.571    0.000    0.000 
#    0.000    0.000    0.000    0.000    0.000    0.000 
#
# Total GULP energy -347000.794138 kJ/mol
# GULP energy per Si atom -12392.885505 kJ/mol
# Density = 2.102773 g / cm^3
# Si number density = 21.075703 Si / 1000 Ang^3
#
#
#
# Elastic Constant Matrix: (Units=GPa)
#
#
# Indices 1 2 3 4 5 6 
#
# 1 141.4569 29.3010 64.1479 0.0000 19.3318 0.0000
# 2 29.3010 34.9138 38.5410 0.0000 -0.6681 0.0000
# 3 64.1479 38.5410 108.5420 0.0001 6.6031 0.0000
# 4 0.0000 0.0000 0.0001 5.7665 0.0000 4.0425
# 5 19.3318 -0.6681 6.6031 0.0000 42.5276 0.0000
# 6 0.0000 0.0000 0.0000 4.0425 0.0000 11.3243
#
#
#
# Elastic Compliance Matrix: (Units=1/GPa)
#
#
# Indices 1 2 3 4 5 6 
#
# 1 0.010512 -0.003816 -0.004607 0.000000 -0.004123 0.000000
# 2 -0.003816 0.048974 -0.015433 0.000000 0.004900 0.000000
# 3 -0.004607 -0.015433 0.017468 0.000000 -0.000860 0.000000
# 4 0.000000 0.000000 0.000000 0.231298 0.000000 -0.082567
# 5 -0.004123 0.004900 -0.000860 0.000000 0.025599 0.000000
# 6 0.000000 0.000000 0.000000 -0.082567 0.000000 0.117780
#
#
# Mechanical properties :
#
#
# Convention : Reuss Voigt Hill
#
# Bulk Modulus (GPa) = 34.19557 60.98806 47.59182
# Shear Modulus (GPa) = 9.82144 22.11852 15.96998
#
# Velocity S-wave (km/s) = 2.16106 3.24308 2.75570
# Velocity P-wave (km/s) = 4.74207 6.55926 5.72325
#
# Compressibility (1/GPa) = 0.02924355
#
# Stress axis : x y z
#
# Youngs Moduli (GPa) = 95.12620 20.41895 57.24747
#
# Poissons Ratio (x) = 0.07791 0.26374
# Poissons Ratio (y) = 0.36296 0.88349
# Poissons Ratio (z) = 0.43826 0.31512
#
# Static dielectric constant tensor:
#      x y z
#    x 4.226580 0.000000 0.263860 
#    y 0.000000 3.120710 0.000000 
#    z 0.263860 0.000000 4.021410 
# 
# 
# High freq. dielectric constant tensor:
#      x y z
#    x 1.835560 0.000000 0.006500 
#    y 0.000000 1.759490 0.000000 
#    z 0.006500 0.000000 1.831420 
# 
# From -- ./inp_files/234655.got.cif
#   From: 2010.06.25/outbox.cif.g09.slc.cpg/sg12_118_cif.got.tgz:234655.got - 2010.06.28 00:19:55.
