data_PCOD8082858
_publ_section_title
;
Structure prediction by ZEFSAII (Michael W. Deem and Ramdas Pophale) SiO2 
 PCOD8082858
Probable space group: C 2/M
;
_chemical_formula_sum "Si O2"
_cell_formula_units_Z 56
_cell_length_a 18.753121
_cell_length_b 28.926751
_cell_length_c 8.805228
_cell_angle_alpha 90.000000
_cell_angle_beta 42.016215
_cell_angle_gamma 90.000000
_cell_volume 3197.136495
_symmetry_space_group_name_H-M "C 2/M"
_symmetry_group_IT_number 12
_symmetry_cell_setting 'monoclinic'
loop_
_space_group_symop_operation_xyz
x,y,z
-x,y,-z
-x,-y,-z
x,-y,z
1/2+x,1/2+y,z
1/2-x,1/2+y,-z
1/2-x,1/2-y,-z
1/2+x,1/2-y,z
loop_
_atom_site_type_symbol
_atom_site_label
_atom_site_fract_x
_atom_site_fract_y
_atom_site_fract_z
Si Si1 0.614451 0.591891 0.242766
Si Si2 0.221522 0.186146 0.051110
Si Si3 0.426380 0.235152 0.741163
Si Si4 0.581015 0.234733 0.756727
Si Si5 0.883718 0.092280 0.118654
Si Si6 0.221040 0.187853 0.693206
Si Si7 0.618159 0.500000 0.379420
Si Si8 0.117164 0.000000 0.743112
O O1 0.500000 0.601653 0.500000
O O2 0.692996 0.634753 0.148320
O O3 0.671184 0.546965 0.229647
O O4 0.602301 0.584731 0.082800
O O5 0.130618 0.221289 0.252652
O O6 0.336199 0.199022 0.942867
O O7 0.227507 0.196144 0.861864
O O8 0.500000 0.209683 0.500000
O O9 0.503633 0.254330 0.748916
O O10 0.664466 0.197240 0.563475
O O11 0.635324 0.278568 0.751435
O O12 0.500000 0.208990 0.000000
O O13 0.809330 0.134661 0.285536
O O14 0.828090 0.046777 0.280731
O O15 0.000000 0.101780 0.000000
O O16 0.500000 0.500000 0.500000
O O17 0.617469 0.500000 0.561350
O O18 0.000000 0.000000 0.000000
#
# Coordination Sequence:
#
# PCOD8082858 Si02
#       8
#     8   8   8   8   8   8   4   4
#     4  10  19  33  51  75 104 132 169 208 251 301
#     4  10  21  34  51  80  99 138 176 210 253 303
#     4  11  21  36  53  72 107 137 172 213 255 292
#     4  11  21  37  52  73 104 140 170 214 255 297
#     4  10  19  32  52  74 103 135 167 205 253 305
#     4  10  21  34  53  76 103 134 179 208 252 306
#     4  10  18  32  48  72 104 132 162 206 254 304
#     4  10  18  32  48  74 102 134 164 199 258 308
#
# _framework density 17.515674000000001
#
# number of rings (size 3 to 8) (size 9 to 14) (size 15 to 20)
#    0.000    1.714    2.857    4.714    2.000    0.000 
#    7.714    0.000    0.000    0.000    0.000    2.000 
#    0.000    0.000    0.000    0.000    0.000    0.000 
#
# Total GULP energy -346999.171211 kJ/mol
# GULP energy per Si atom -12392.827543 kJ/mol
# Density = 1.747581 g / cm^3
# Si number density = 17.515674 Si / 1000 Ang^3
#
#
#
# Elastic Constant Matrix: (Units=GPa)
#
#
# Indices 1 2 3 4 5 6 
#
# 1 72.6651 40.0386 40.4066 0.0000 1.1029 0.0000
# 2 40.0386 147.5200 57.4598 0.0000 0.0104 0.0000
# 3 40.4066 57.4598 106.6305 0.0000 1.3744 0.0000
# 4 0.0000 0.0000 0.0000 26.1307 0.0000 5.5091
# 5 1.1029 0.0104 1.3744 0.0000 28.5596 0.0000
# 6 0.0000 0.0000 0.0000 5.5091 0.0000 21.3383
#
#
#
# Elastic Compliance Matrix: (Units=1/GPa)
#
#
# Indices 1 2 3 4 5 6 
#
# 1 0.018357 -0.002879 -0.005399 0.000000 -0.000448 0.000000
# 2 -0.002879 0.009033 -0.003780 0.000000 0.000290 0.000000
# 3 -0.005399 -0.003780 0.013467 0.000000 -0.000438 0.000000
# 4 0.000000 0.000000 0.000000 0.040472 0.000000 -0.010449
# 5 -0.000448 0.000290 -0.000438 0.000000 0.035053 0.000000
# 6 0.000000 0.000000 0.000000 -0.010449 0.000000 0.049562
#
#
# Mechanical properties :
#
#
# Convention : Reuss Voigt Hill
#
# Bulk Modulus (GPa) = 59.73780 66.95842 63.34811
# Shear Modulus (GPa) = 25.55721 27.79977 26.67849
#
# Velocity S-wave (km/s) = 3.82397 3.98821 3.90695
# Velocity P-wave (km/s) = 7.32641 7.71482 7.52312
#
# Compressibility (1/GPa) = 0.01673982
#
# Stress axis : x y z
#
# Youngs Moduli (GPa) = 54.47432 110.71078 74.25790
#
# Poissons Ratio (x) = 0.31879 0.40091
# Poissons Ratio (y) = 0.15686 0.28069
# Poissons Ratio (z) = 0.29410 0.41848
#
# Static dielectric constant tensor:
#      x y z
#    x 3.567930 0.000000 -0.081320 
#    y 0.000000 3.649180 0.000000 
#    z -0.081320 0.000000 3.512820 
# 
# 
# High freq. dielectric constant tensor:
#      x y z
#    x 1.670250 0.000000 0.022490 
#    y 0.000000 1.669330 0.000000 
#    z 0.022490 0.000000 1.669680 
# 
# From -- ./inp_files/80444.got.cif
#   From: 2010.06.25/outbox.cif.g09.slc.cpg/sg12_41_cif.got.tgz:80444.got - 2010.06.28 00:19:55.
