data_PCOD8082439
_publ_section_title
;
Structure prediction by ZEFSAII (Michael W. Deem and Ramdas Pophale) SiO2 
 PCOD8082439
Probable space group: C 2/M
;
_chemical_formula_sum "Si O2"
_cell_formula_units_Z 40
_cell_length_a 28.355901
_cell_length_b 8.658570
_cell_length_c 30.022542
_cell_angle_alpha 90.000000
_cell_angle_beta 160.390112
_cell_angle_gamma 90.000000
_cell_volume 2473.872650
_symmetry_space_group_name_H-M "C 2/M"
_symmetry_group_IT_number 12
_symmetry_cell_setting 'monoclinic'
loop_
_space_group_symop_operation_xyz
x,y,z
-x,y,-z
-x,-y,-z
x,-y,z
1/2+x,1/2+y,z
1/2-x,1/2+y,-z
1/2-x,1/2-y,-z
1/2+x,1/2-y,z
loop_
_atom_site_type_symbol
_atom_site_label
_atom_site_fract_x
_atom_site_fract_y
_atom_site_fract_z
Si Si1 0.255122 0.824954 0.874131
Si Si2 0.100941 0.183506 0.649200
Si Si3 0.955407 0.325304 0.834718
Si Si4 0.315690 0.681157 0.014412
Si Si5 0.815725 0.318846 0.367594
O O1 0.182280 0.756486 0.765365
O O2 0.215732 0.723638 0.882923
O O3 0.203492 0.000000 0.836561
O O4 0.425813 0.821728 0.020386
O O5 0.188286 0.238234 0.684078
O O6 0.946187 0.256048 0.512287
O O7 0.089629 0.000000 0.637838
O O8 0.903036 0.500000 0.779380
O O9 0.826098 0.217786 0.732465
O O10 0.029815 0.257269 0.856252
O O11 0.331617 0.500000 0.033638
O O12 0.250000 0.750000 0.000000
O O13 0.832500 0.500000 0.375726
#
# Coordination Sequence:
#
# PCOD8082439 Si02
#       5
#     8   8   8   8   8
#     4   8  18  33  51  74  97 126 167 206 243 287
#     4  10  19  34  52  70  97 137 171 201 242 290
#     4   9  18  34  51  73  98 128 166 205 244 288
#     4  10  18  31  52  76 101 127 158 199 248 295
#     4  11  21  32  47  73 103 134 168 203 242 291
#
# _framework density 16.168980999999999
#
# number of rings (size 3 to 8) (size 9 to 14) (size 15 to 20)
#    1.200    1.200    0.000    5.400    0.000    2.400 
#    0.000    4.000    0.000    1.200    0.000    0.000 
#    0.000    0.000    0.000    0.000    0.000    0.000 
#
# Total GULP energy -247831.525786 kJ/mol
# GULP energy per Si atom -12391.576289 kJ/mol
# Density = 1.613218 g / cm^3
# Si number density = 16.168981 Si / 1000 Ang^3
#
#
#
# Elastic Constant Matrix: (Units=GPa)
#
#
# Indices 1 2 3 4 5 6 
#
# 1 121.2559 67.3014 59.6950 -0.0070 23.2871 -0.0007
# 2 67.3014 148.5570 38.4194 -0.0071 11.1800 -0.0003
# 3 59.6950 38.4194 71.1483 -0.0035 14.6960 0.0001
# 4 -0.0070 -0.0071 -0.0035 23.0897 0.0040 3.8460
# 5 23.2871 11.1800 14.6960 0.0040 11.7394 0.0006
# 6 -0.0007 -0.0003 0.0001 3.8460 0.0006 28.5254
#
#
#
# Elastic Compliance Matrix: (Units=1/GPa)
#
#
# Indices 1 2 3 4 5 6 
#
# 1 0.020082 -0.004915 -0.009352 0.000007 -0.023448 0.000000
# 2 -0.004915 0.009102 -0.001368 0.000001 0.002794 0.000000
# 3 -0.009352 -0.001368 0.025005 0.000003 -0.011448 0.000000
# 4 0.000007 0.000001 0.000003 0.044304 -0.000033 -0.005973
# 5 -0.023448 0.002794 -0.011448 -0.000033 0.143368 0.000001
# 6 0.000000 0.000000 0.000000 -0.005973 0.000001 0.035862
#
#
# Mechanical properties :
#
#
# Convention : Reuss Voigt Hill
#
# Bulk Modulus (GPa) = 43.63241 74.64365 59.13803
# Shear Modulus (GPa) = 15.79116 24.37394 20.08255
#
# Velocity S-wave (km/s) = 3.12850 3.88680 3.52808
# Velocity P-wave (km/s) = 6.33197 8.14911 7.29732
#
# Compressibility (1/GPa) = 0.02291874
#
# Stress axis : x y z
#
# Youngs Moduli (GPa) = 49.79539 109.87176 39.99127
#
# Poissons Ratio (x) = 0.53998 0.37401
# Poissons Ratio (y) = 0.24472 0.05473
# Poissons Ratio (z) = 0.46570 0.15035
#
# Static dielectric constant tensor:
#      x y z
#    x 3.001090 0.000000 -0.053180 
#    y 0.000000 3.103790 0.000000 
#    z -0.053180 0.000000 2.952490 
# 
# 
# High freq. dielectric constant tensor:
#      x y z
#    x 1.604410 0.000000 0.002670 
#    y 0.000000 1.637400 0.000000 
#    z 0.002670 0.000000 1.603130 
# 
# From -- ./inp_files/101085.got.cif
#   From: 2010.06.25/outbox.cif.g09.slc.cpg/sg12_51_cif.got.tgz:101085.got - 2010.06.28 00:19:55.
