data_PCOD8082098
_publ_section_title
;
Structure prediction by ZEFSAII (Michael W. Deem and Ramdas Pophale) SiO2 
 PCOD8082098
Probable space group: C 2/M
;
_chemical_formula_sum "Si O2"
_cell_formula_units_Z 64
_cell_length_a 28.079042
_cell_length_b 8.897026
_cell_length_c 20.625178
_cell_angle_alpha 90.000000
_cell_angle_beta 132.822557
_cell_angle_gamma 90.000000
_cell_volume 3779.224199
_symmetry_space_group_name_H-M "C 2/M"
_symmetry_group_IT_number 12
_symmetry_cell_setting 'monoclinic'
loop_
_space_group_symop_operation_xyz
x,y,z
-x,y,-z
-x,-y,-z
x,-y,z
1/2+x,1/2+y,z
1/2-x,1/2+y,-z
1/2-x,1/2-y,-z
1/2+x,1/2-y,z
loop_
_atom_site_type_symbol
_atom_site_label
_atom_site_fract_x
_atom_site_fract_y
_atom_site_fract_z
Si Si1 0.181454 0.176702 0.249316
Si Si2 0.682355 0.823143 0.651917
Si Si3 0.537717 0.678604 0.098559
Si Si4 0.485802 0.831565 0.793159
Si Si5 0.499464 0.322636 0.322409
Si Si6 0.832191 0.334203 0.636075
Si Si7 0.865263 0.324399 0.531211
Si Si8 0.944847 0.321139 0.396877
O O1 0.243604 0.234531 0.263988
O O2 0.112111 0.241846 0.161414
O O3 0.194708 0.216888 0.336919
O O4 0.178994 0.000000 0.242693
O O5 0.671807 0.778811 0.567652
O O6 0.625167 0.756879 0.643604
O O7 0.678965 0.000000 0.657270
O O8 0.537489 0.500000 0.105518
O O9 0.501207 0.746617 0.126962
O O10 0.500000 0.732855 0.000000
O O11 0.521224 0.745770 0.766609
O O12 0.410008 0.834641 0.708634
O O13 0.514157 0.000000 0.824499
O O14 0.490741 0.500000 0.311064
O O15 0.572565 0.281311 0.407946
O O16 0.453754 0.255694 0.335921
O O17 0.805599 0.500000 0.629228
O O18 0.816083 0.291182 0.546191
O O19 0.887337 0.500000 0.551666
O O20 0.945780 0.500000 0.389168
O O21 0.000000 0.273452 0.500000
#
# Coordination Sequence:
#
# PCOD8082098 Si02
#       8
#     8   8   8   8   8   8   8   8
#     4   9  17  29  44  63  89 119 152 185 219 269
#     4   9  17  29  45  62  82 116 161 198 224 261
#     4   9  17  30  49  74 103 127 145 176 229 282
#     4   9  17  30  48  69  93 122 157 190 223 269
#     4  11  20  29  44  67  95 120 151 197 241 275
#     4   8  15  26  41  59  84 116 149 184 221 263
#     4   9  16  29  44  59  82 119 161 193 225 263
#     4  10  18  31  49  63  82 120 164 200 235 270
#
# _framework density 16.934692999999999
#
# number of rings (size 3 to 8) (size 9 to 14) (size 15 to 20)
#    0.000    2.750    1.250    2.250    0.000    4.000 
#    0.000    1.250    0.000    0.000    0.000    0.875 
#    0.000    0.000    0.000    0.000    0.000    0.000 
#
# Total GULP energy -396485.145757 kJ/mol
# GULP energy per Si atom -12390.160805 kJ/mol
# Density = 1.689615 g / cm^3
# Si number density = 16.934693 Si / 1000 Ang^3
#
#
#
# Elastic Constant Matrix: (Units=GPa)
#
#
# Indices 1 2 3 4 5 6 
#
# 1 130.7360 31.9746 64.5269 0.0000 -7.1386 0.0000
# 2 31.9746 44.1413 27.0858 0.0000 -7.2244 0.0000
# 3 64.5269 27.0858 71.0148 0.0000 -12.8884 0.0000
# 4 0.0000 0.0000 0.0000 13.3990 0.0000 -9.6265
# 5 -7.1386 -7.2244 -12.8884 0.0000 21.9841 0.0000
# 6 0.0000 0.0000 0.0000 -9.6265 0.0000 21.9961
#
#
#
# Elastic Compliance Matrix: (Units=1/GPa)
#
#
# Indices 1 2 3 4 5 6 
#
# 1 0.014455 -0.003405 -0.012519 0.000000 -0.003765 0.000000
# 2 -0.003405 0.030618 -0.007787 0.000000 0.004391 0.000000
# 3 -0.012519 -0.007787 0.030467 0.000000 0.011237 0.000000
# 4 0.000000 0.000000 0.000000 0.108861 0.000000 0.047642
# 5 -0.003765 0.004391 0.011237 0.000000 0.052296 0.000000
# 6 0.000000 0.000000 0.000000 0.047642 0.000000 0.066313
#
#
# Mechanical properties :
#
#
# Convention : Reuss Voigt Hill
#
# Bulk Modulus (GPa) = 35.56571 54.78518 45.17545
# Shear Modulus (GPa) = 13.89643 19.62948 16.76296
#
# Velocity S-wave (km/s) = 2.86770 3.40829 3.14962
# Velocity P-wave (km/s) = 5.65793 6.92168 6.32147
#
# Compressibility (1/GPa) = 0.02811697
#
# Stress axis : x y z
#
# Youngs Moduli (GPa) = 69.17881 32.66053 32.82292
#
# Poissons Ratio (x) = 0.11121 0.41092
# Poissons Ratio (y) = 0.23556 0.25560
# Poissons Ratio (z) = 0.86606 0.25433
#
# Static dielectric constant tensor:
#      x y z
#    x 3.458910 0.000000 -0.038100 
#    y 0.000000 3.011390 0.000000 
#    z -0.038100 0.000000 3.070560 
# 
# 
# High freq. dielectric constant tensor:
#      x y z
#    x 1.652180 0.000000 -0.011020 
#    y 0.000000 1.637210 0.000000 
#    z -0.011020 0.000000 1.613500 
# 
# From -- ./inp_files/326942.got.cif
#   From: 2010.06.25/outbox.cif.g09.slc.cpg/sg12_164_cif.got.tgz:326942.got - 2010.06.28 00:19:55.
