data_PCOD8082594
_publ_section_title
;
Structure prediction by ZEFSAII (Michael W. Deem and Ramdas Pophale) SiO2 
 PCOD8082594
Probable space group: C 2/M
;
_chemical_formula_sum "Si O2"
_cell_formula_units_Z 64
_cell_length_a 12.564183
_cell_length_b 22.758430
_cell_length_c 14.698372
_cell_angle_alpha 90.000000
_cell_angle_beta 119.935214
_cell_angle_gamma 90.000000
_cell_volume 3642.164588
_symmetry_space_group_name_H-M "C 2/M"
_symmetry_group_IT_number 12
_symmetry_cell_setting 'monoclinic'
loop_
_space_group_symop_operation_xyz
x,y,z
-x,y,-z
-x,-y,-z
x,-y,z
1/2+x,1/2+y,z
1/2-x,1/2+y,-z
1/2-x,1/2-y,-z
1/2+x,1/2-y,z
loop_
_atom_site_type_symbol
_atom_site_label
_atom_site_fract_x
_atom_site_fract_y
_atom_site_fract_z
Si Si1 0.123303 0.228236 0.081009
Si Si2 0.545050 0.434096 0.775620
Si Si3 0.829429 0.431531 0.592417
Si Si4 0.112323 0.118260 0.616320
Si Si5 0.067023 0.825343 0.886788
Si Si6 0.760344 0.066097 0.648068
Si Si7 0.370358 0.266741 0.266168
Si Si8 0.549904 0.143010 0.622598
O O1 0.227751 0.264454 0.175362
O O2 0.069201 0.177758 0.125948
O O3 0.167989 0.197557 0.004536
O O4 0.000000 0.267270 0.000000
O O5 0.578017 0.500000 0.817855
O O6 0.591247 0.423128 0.693723
O O7 0.608486 0.390865 0.875547
O O8 0.401707 0.420020 0.723149
O O9 0.854623 0.500000 0.627014
O O10 0.740818 0.401697 0.628236
O O11 0.764260 0.425085 0.468385
O O12 0.956866 0.395376 0.644088
O O13 0.118977 0.186646 0.647610
O O14 0.000000 0.108636 0.500000
O O15 0.055401 0.786363 0.790776
O O16 0.679269 0.109348 0.674660
O O17 0.726015 0.000000 0.662645
O O18 0.427320 0.205510 0.321501
O O19 0.500000 0.152670 0.500000
#
# Coordination Sequence:
#
# PCOD8082594 Si02
#       8
#     8   8   8   8   8   8   8   8
#     4   8  19  35  56  74 100 129 174 223 276 327
#     4  10  18  31  53  78 106 141 177 220 270 319
#     4  10  20  34  52  72 106 149 192 227 253 309
#     4  11  22  34  49  81 113 150 187 218 265 318
#     4   8  19  33  51  76 100 128 174 220 265 326
#     4   9  17  31  51  71  99 141 183 216 256 307
#     4  11  20  34  54  76 110 141 175 221 275 328
#     4  10  21  34  49  78 109 147 181 219 268 317
#
# _framework density 17.571967999999998
#
# number of rings (size 3 to 8) (size 9 to 14) (size 15 to 20)
#    0.750    1.500    1.250    2.250    1.750    2.000 
#    0.000    3.125    0.000    1.500    0.000    0.000 
#    0.000    6.500    0.000    0.000    0.000    0.000 
#
# Total GULP energy -396464.287781 kJ/mol
# GULP energy per Si atom -12389.508993 kJ/mol
# Density = 1.753197 g / cm^3
# Si number density = 17.571968 Si / 1000 Ang^3
#
#
#
# Elastic Constant Matrix: (Units=GPa)
#
#
# Indices 1 2 3 4 5 6 
#
# 1 4.6221 64.8939 62.9592 0.0000 -37.9918 0.0000
# 2 64.8939 110.6143 16.3331 0.0000 -11.1157 0.0000
# 3 62.9592 16.3331 26.1043 0.0000 0.4890 0.0000
# 4 0.0000 0.0000 0.0000 3.7063 0.0000 5.8725
# 5 -37.9918 -11.1157 0.4890 0.0000 21.0471 0.0000
# 6 0.0000 0.0000 0.0000 5.8725 0.0000 23.0436
#
#
#
# Elastic Compliance Matrix: (Units=1/GPa)
#
#
# Indices 1 2 3 4 5 6 
#
# 1 -0.004538 0.000204 0.010974 0.000000 -0.008339 0.000000
# 2 0.000204 0.010607 -0.007244 0.000000 0.006139 0.000000
# 3 0.010974 -0.007244 0.016080 0.000000 0.015610 0.000000
# 4 0.000000 0.000000 0.000000 0.452539 0.000000 -0.115327
# 5 -0.008339 0.006139 0.015610 0.000000 0.035339 0.000000
# 6 0.000000 0.000000 0.000000 -0.115327 0.000000 0.072786
#
#
# Mechanical properties :
#
#
# Convention : Reuss Voigt Hill
#
# Bulk Modulus (GPa) = 33.31371 47.74589 40.52980
# Shear Modulus (GPa) = 8.54773 9.36970 8.95871
#
# Velocity S-wave (km/s) = 2.20793 2.31166 2.26039
# Velocity P-wave (km/s) = 5.04971 5.86137 5.47061
#
# Compressibility (1/GPa) = 0.03001767
#
# Stress axis : x y z
#
# Youngs Moduli (GPa) = -220.34966 94.27542 62.18785
#
# Poissons Ratio (x) = -0.01924 -0.68245
# Poissons Ratio (y) = 0.04496 0.45048
# Poissons Ratio (z) = 2.41813 0.68292
#
# Static dielectric constant tensor:
#      x y z
#    x 3.281850 0.000000 -0.108800 
#    y 0.000000 3.229710 0.000000 
#    z -0.108800 0.000000 3.156620 
# 
# 
# High freq. dielectric constant tensor:
#      x y z
#    x 1.680860 0.000000 -0.013460 
#    y 0.000000 1.673780 0.000000 
#    z -0.013460 0.000000 1.662690 
# 
# From -- ./inp_files/207724.got.cif
#   From: 2010.06.25/outbox.cif.g09.slc.cpg/sg12_104_cif.got.tgz:207724.got - 2010.06.28 00:19:55.
