data_PCOD8082625
_publ_section_title
;
Structure prediction by ZEFSAII (Michael W. Deem and Ramdas Pophale) SiO2 
 PCOD8082625
Probable space group: C 2/M
;
_chemical_formula_sum "Si O2"
_cell_formula_units_Z 56
_cell_length_a 12.190167
_cell_length_b 21.280627
_cell_length_c 10.989811
_cell_angle_alpha 90.000000
_cell_angle_beta 92.125666
_cell_angle_gamma 90.000000
_cell_volume 2848.953418
_symmetry_space_group_name_H-M "C 2/M"
_symmetry_group_IT_number 12
_symmetry_cell_setting 'monoclinic'
loop_
_space_group_symop_operation_xyz
x,y,z
-x,y,-z
-x,-y,-z
x,-y,z
1/2+x,1/2+y,z
1/2-x,1/2+y,-z
1/2-x,1/2-y,-z
1/2+x,1/2-y,z
loop_
_atom_site_type_symbol
_atom_site_label
_atom_site_fract_x
_atom_site_fract_y
_atom_site_fract_z
Si Si1 0.413963 0.647939 0.741831
Si Si2 0.348038 0.568806 0.522697
Si Si3 0.813994 0.304020 0.263646
Si Si4 0.875899 0.374493 0.503589
Si Si5 0.209993 0.670975 0.247931
Si Si6 0.887820 0.070770 0.244934
Si Si7 0.514081 0.229615 0.135971
O O1 0.397428 0.626906 0.600803
O O2 0.289728 0.653915 0.789497
O O3 0.496629 0.596909 0.806513
O O4 0.470860 0.715664 0.761851
O O5 0.378771 0.500000 0.579451
O O6 0.215003 0.570823 0.513015
O O7 0.399623 0.574413 0.391283
O O8 0.858360 0.323917 0.396723
O O9 0.785745 0.230870 0.274647
O O10 0.908536 0.311852 0.166961
O O11 0.857714 0.342116 0.632544
O O12 0.000000 0.401892 0.500000
O O13 0.284462 0.613472 0.202272
O O14 0.120769 0.684817 0.139472
O O15 0.867864 0.000000 0.197349
O O16 0.500000 0.258044 0.000000
#
# Coordination Sequence:
#
# PCOD8082625 Si02
#       7
#     8   8   8   8   8   8   8
#     4  10  20  34  55  82 111 146 183 232 277 329
#     4   9  19  33  53  83 116 153 186 220 272 341
#     4  10  20  36  53  85 113 145 180 233 287 344
#     4  10  18  31  53  81 119 145 181 226 285 342
#     4  10  20  35  55  85 114 149 184 229 283 337
#     4  10  19  35  59  87 119 151 186 222 273 344
#     4  11  23  39  59  82 109 151 193 239 285 330
#
# _framework density 19.656341000000001
#
# number of rings (size 3 to 8) (size 9 to 14) (size 15 to 20)
#    0.000    2.000    2.857    1.286    0.000    4.857 
#    5.143    0.000    0.000    2.143    0.000    0.000 
#    0.000    0.000    0.000    0.000    0.000    0.000 
#
# Total GULP energy -346895.382650 kJ/mol
# GULP energy per Si atom -12389.120809 kJ/mol
# Density = 1.961160 g / cm^3
# Si number density = 19.656341 Si / 1000 Ang^3
#
#
#
# Elastic Constant Matrix: (Units=GPa)
#
#
# Indices 1 2 3 4 5 6 
#
# 1 150.7074 59.4711 27.6055 0.0000 -3.2256 0.0000
# 2 59.4711 110.4417 23.7952 0.0000 4.7564 0.0000
# 3 27.6055 23.7952 39.3999 0.0000 15.1769 0.0000
# 4 0.0000 0.0000 0.0000 9.9534 0.0000 0.4088
# 5 -3.2256 4.7564 15.1769 0.0000 10.3795 0.0000
# 6 0.0000 0.0000 0.0000 0.4088 0.0000 25.6855
#
#
#
# Elastic Compliance Matrix: (Units=1/GPa)
#
#
# Indices 1 2 3 4 5 6 
#
# 1 0.012558 -0.004012 -0.019662 0.000000 0.034490 0.000000
# 2 -0.004012 0.012177 -0.004382 0.000000 -0.000420 0.000000
# 3 -0.019662 -0.004382 0.099329 0.000000 -0.149341 0.000000
# 4 0.000000 0.000000 0.000000 0.100534 0.000000 -0.001600
# 5 0.034490 -0.000420 -0.149341 0.000000 0.325619 0.000000
# 6 0.000000 0.000000 0.000000 -0.001600 0.000000 0.038958
#
#
# Mechanical properties :
#
#
# Convention : Reuss Voigt Hill
#
# Bulk Modulus (GPa) = 14.71583 58.03253 36.37418
# Shear Modulus (GPa) = 7.48574 21.84882 14.66728
#
# Velocity S-wave (km/s) = 1.95361 3.33759 2.73460
# Velocity P-wave (km/s) = 3.54846 6.66636 5.34003
#
# Compressibility (1/GPa) = 0.06795405
#
# Stress axis : x y z
#
# Youngs Moduli (GPa) = 79.63028 82.12319 10.06756
#
# Poissons Ratio (x) = 0.32944 0.19794
# Poissons Ratio (y) = 0.31944 0.04411
# Poissons Ratio (z) = 1.56566 0.35984
#
# Static dielectric constant tensor:
#      x y z
#    x 4.062240 0.000000 -0.043120 
#    y 0.000000 3.492980 0.000000 
#    z -0.043120 0.000000 3.102600 
# 
# 
# High freq. dielectric constant tensor:
#      x y z
#    x 1.798800 0.000000 -0.002520 
#    y 0.000000 1.744960 0.000000 
#    z -0.002520 0.000000 1.716020 
# 
# From -- ./inp_files/133148.got.cif
#   From: 2010.06.25/outbox.cif.g09.slc.cpg/sg12_67_cif.got.tgz:133148.got - 2010.06.28 00:19:55.
