data_PCOD8082020
_publ_section_title
;
Structure prediction by ZEFSAII (Michael W. Deem and Ramdas Pophale) SiO2 
 PCOD8082020
Probable space group: C 2/M
;
_chemical_formula_sum "Si O2"
_cell_formula_units_Z 36
_cell_length_a 27.821587
_cell_length_b 13.699086
_cell_length_c 9.315135
_cell_angle_alpha 90.000000
_cell_angle_beta 149.800159
_cell_angle_gamma 90.000000
_cell_volume 1785.853301
_symmetry_space_group_name_H-M "C 2/M"
_symmetry_group_IT_number 12
_symmetry_cell_setting 'monoclinic'
loop_
_space_group_symop_operation_xyz
x,y,z
-x,y,-z
-x,-y,-z
x,-y,z
1/2+x,1/2+y,z
1/2-x,1/2+y,-z
1/2-x,1/2-y,-z
1/2+x,1/2-y,z
loop_
_atom_site_type_symbol
_atom_site_label
_atom_site_fract_x
_atom_site_fract_y
_atom_site_fract_z
Si Si1 0.576842 0.707927 0.827402
Si Si2 0.226364 0.000000 0.860987
Si Si3 0.443241 0.000000 0.500516
Si Si4 0.458966 0.815774 0.741688
Si Si5 0.104844 0.000000 0.829350
Si Si6 0.733016 0.287643 0.796137
O O1 0.500000 0.716467 0.500000
O O2 0.525372 0.732196 0.843856
O O3 0.618866 0.598573 0.956732
O O4 0.667901 0.777680 0.035059
O O5 0.177072 0.000000 0.886061
O O6 0.200103 0.901286 0.706754
O O7 0.336067 0.000000 0.176962
O O8 0.500000 0.000000 0.500000
O O9 0.466275 0.094599 0.652389
O O10 0.351527 0.777013 0.489565
O O11 0.500000 0.848651 0.000000
O O12 0.000000 0.000000 0.500000
O O13 0.750000 0.250000 0.000000
#
# Coordination Sequence:
#
# PCOD8082020 Si02
#       6
#     8   4   4   8   4   8
#     4  11  20  38  62  91 122 165 218 263 312 378
#     4  12  20  35  65  99 117 156 223 271 305 364
#     4  12  23  41  70  95 120 167 219 265 309 387
#     4  12  26  42  61  95 137 168 204 267 333 379
#     4  10  18  30  57  88 119 155 209 260 303 359
#     4  12  21  39  65  94 126 166 219 268 313 381
#
# _framework density 20.158431
#
# number of rings (size 3 to 8) (size 9 to 14) (size 15 to 20)
#    0.000    0.444    6.667    3.667    0.000    0.889 
#    0.000    2.222    0.000    0.000    0.000    0.000 
#    0.000    0.000    0.000    0.000    0.000    0.000 
#
# Total GULP energy -223202.163677 kJ/mol
# GULP energy per Si atom -12400.120204 kJ/mol
# Density = 2.011255 g / cm^3
# Si number density = 20.158431 Si / 1000 Ang^3
#
#
#
# Elastic Constant Matrix: (Units=GPa)
#
#
# Indices 1 2 3 4 5 6 
#
# 1 106.2793 29.8004 46.5168 0.0000 19.1431 0.0000
# 2 29.8004 145.0560 23.9452 0.0000 0.8412 0.0000
# 3 46.5168 23.9452 95.3727 0.0000 7.4026 0.0000
# 4 0.0000 0.0000 0.0000 13.7605 0.0000 15.9214
# 5 19.1431 0.8412 7.4026 0.0000 41.2332 0.0000
# 6 0.0000 0.0000 0.0000 15.9214 0.0000 26.7744
#
#
#
# Elastic Compliance Matrix: (Units=1/GPa)
#
#
# Indices 1 2 3 4 5 6 
#
# 1 0.013299 -0.001771 -0.005644 0.000000 -0.005125 0.000000
# 2 -0.001771 0.007429 -0.001068 0.000000 0.000862 0.000000
# 3 -0.005644 -0.001068 0.013489 0.000000 0.000220 0.000000
# 4 0.000000 0.000000 0.000000 0.232946 0.000000 -0.138521
# 5 -0.005125 0.000862 0.000220 0.000000 0.026574 0.000000
# 6 0.000000 0.000000 0.000000 -0.138521 0.000000 0.119721
#
#
# Mechanical properties :
#
#
# Convention : Reuss Voigt Hill
#
# Bulk Modulus (GPa) = 57.96882 60.80365 59.38623
# Shear Modulus (GPa) = 11.46327 32.78334 22.12331
#
# Velocity S-wave (km/s) = 2.38724 4.03710 3.31640
# Velocity P-wave (km/s) = 6.03470 7.20828 6.64744
#
# Compressibility (1/GPa) = 0.01725065
#
# Stress axis : x y z
#
# Youngs Moduli (GPa) = 75.19291 134.60664 74.13348
#
# Poissons Ratio (x) = 0.23836 0.41842
# Poissons Ratio (y) = 0.13315 0.07921
# Poissons Ratio (z) = 0.42440 0.14382
#
# Static dielectric constant tensor:
#      x y z
#    x 3.653310 0.000000 0.416840 
#    y 0.000000 4.364440 0.000000 
#    z 0.416840 0.000000 3.649270 
# 
# 
# High freq. dielectric constant tensor:
#      x y z
#    x 1.782490 0.000000 0.040100 
#    y 0.000000 1.808370 0.000000 
#    z 0.040100 0.000000 1.762830 
# 
# From -- ./inp_files/104904.got.cif
#   From: 2010.06.25/outbox.cif.g09.slc.cpg/sg12_53_cif.got.tgz:104904.got - 2010.06.28 00:19:55.
