data_PCOD8082899
_publ_section_title
;
Structure prediction by ZEFSAII (Michael W. Deem and Ramdas Pophale) SiO2 
 PCOD8082899
Probable space group: C 2/M
;
_chemical_formula_sum "Si O2"
_cell_formula_units_Z 64
_cell_length_a 17.908326
_cell_length_b 16.667135
_cell_length_c 12.270572
_cell_angle_alpha 90.000000
_cell_angle_beta 93.071453
_cell_angle_gamma 90.000000
_cell_volume 3657.265054
_symmetry_space_group_name_H-M "C 2/M"
_symmetry_group_IT_number 12
_symmetry_cell_setting 'monoclinic'
loop_
_space_group_symop_operation_xyz
x,y,z
-x,y,-z
-x,-y,-z
x,-y,z
1/2+x,1/2+y,z
1/2-x,1/2+y,-z
1/2-x,1/2-y,-z
1/2+x,1/2-y,z
loop_
_atom_site_type_symbol
_atom_site_label
_atom_site_fract_x
_atom_site_fract_y
_atom_site_fract_z
Si Si1 0.414669 0.178532 0.506691
Si Si2 0.765924 0.408726 0.460303
Si Si3 0.171450 0.803288 0.621053
Si Si4 0.768986 0.829313 0.748142
Si Si5 0.366649 0.189031 0.745050
Si Si6 0.720725 0.405535 0.794610
Si Si7 0.425304 0.909822 0.930339
Si Si8 0.229206 0.591635 0.968814
O O1 0.500000 0.149087 0.500000
O O2 0.354704 0.112235 0.461055
O O3 0.400934 0.264168 0.442947
O O4 0.404897 0.191093 0.632707
O O5 0.756013 0.500000 0.501110
O O6 0.724337 0.345556 0.535363
O O7 0.727951 0.403632 0.336255
O O8 0.213228 0.731018 0.683568
O O9 0.152434 0.866947 0.717818
O O10 0.846240 0.781249 0.772286
O O11 0.743559 0.853885 0.866089
O O12 0.295449 0.129130 0.743341
O O13 0.426789 0.155243 0.834686
O O14 0.720244 0.500000 0.781312
O O15 0.719506 0.381935 0.922875
O O16 0.421089 0.000000 0.881311
O O17 0.500000 0.894716 0.000000
O O18 0.356711 0.896197 0.006596
O O19 0.247127 0.500000 0.939788
#
# Coordination Sequence:
#
# PCOD8082899 Si02
#       8
#     8   8   8   8   8   8   8   8
#     4  11  22  36  50  77 114 141 171 220 269 323
#     4  11  20  34  56  79 103 140 182 220 267 317
#     4  10  19  34  53  75 102 140 183 220 261 310
#     4  10  18  32  51  74 106 131 176 227 268 308
#     4  10  18  32  50  71 101 138 178 213 267 315
#     4   9  17  30  53  77 100 133 175 221 264 307
#     4   9  19  33  49  70 106 148 177 205 253 320
#     4   9  18  31  48  78 106 129 169 222 268 307
#
# _framework density 17.499414000000002
#
# number of rings (size 3 to 8) (size 9 to 14) (size 15 to 20)
#    0.000    2.125    3.750    2.625    0.000    7.250 
#    0.000    1.250    0.000    1.500    0.000    0.000 
#    0.000    3.000    0.000    0.000    0.000    0.125 
#
# Total GULP energy -396424.834135 kJ/mol
# GULP energy per Si atom -12388.276067 kJ/mol
# Density = 1.745958 g / cm^3
# Si number density = 17.499414 Si / 1000 Ang^3
#
#
#
# Elastic Constant Matrix: (Units=GPa)
#
#
# Indices 1 2 3 4 5 6 
#
# 1 41.4331 30.1896 34.6200 0.0000 6.3597 0.0000
# 2 30.1896 81.5484 52.4294 0.0000 5.6503 0.0000
# 3 34.6200 52.4294 141.2964 0.0000 -0.9813 0.0000
# 4 0.0000 0.0000 0.0000 34.1255 0.0000 7.0903
# 5 6.3597 5.6503 -0.9813 0.0000 5.0919 0.0000
# 6 0.0000 0.0000 0.0000 7.0903 0.0000 16.6051
#
#
#
# Elastic Compliance Matrix: (Units=1/GPa)
#
#
# Indices 1 2 3 4 5 6 
#
# 1 0.043996 -0.007632 -0.008282 0.000000 -0.048078 0.000000
# 2 -0.007632 0.019512 -0.005462 0.000000 -0.013173 0.000000
# 3 -0.008282 -0.005462 0.011262 0.000000 0.018575 0.000000
# 4 0.000000 0.000000 0.000000 0.032156 0.000000 -0.013731
# 5 -0.048078 -0.013173 0.018575 0.000000 0.274639 0.000000
# 6 0.000000 0.000000 0.000000 -0.013731 0.000000 0.066085
#
#
# Mechanical properties :
#
#
# Convention : Reuss Voigt Hill
#
# Bulk Modulus (GPa) = 31.23093 55.41734 43.32413
# Shear Modulus (GPa) = 9.97856 20.96709 15.47282
#
# Velocity S-wave (km/s) = 2.39052 3.46520 2.97676
# Velocity P-wave (km/s) = 5.05025 6.90992 6.05194
#
# Compressibility (1/GPa) = 0.03201954
#
# Stress axis : x y z
#
# Youngs Moduli (GPa) = 22.72959 51.25017 88.79297
#
# Poissons Ratio (x) = 0.39112 0.73536
# Poissons Ratio (y) = 0.17346 0.48497
# Poissons Ratio (z) = 0.18824 0.27992
#
# Static dielectric constant tensor:
#      x y z
#    x 3.029200 0.000000 0.359020 
#    y 0.000000 3.545920 0.000000 
#    z 0.359020 0.000000 3.697360 
# 
# 
# High freq. dielectric constant tensor:
#      x y z
#    x 1.620240 0.000000 0.013570 
#    y 0.000000 1.677090 0.000000 
#    z 0.013570 0.000000 1.697250 
# 
# From -- ./inp_files/157852.got.cif
#   From: 2010.06.25/outbox.cif.g09.slc.cpg/sg12_79_cif.got.tgz:157852.got - 2010.06.28 00:19:55.
