data_PCOD8082113
_publ_section_title
;
Structure prediction by ZEFSAII (Michael W. Deem and Ramdas Pophale) SiO2 
 PCOD8082113
Probable space group: C 2/M
;
_chemical_formula_sum "Si O2"
_cell_formula_units_Z 48
_cell_length_a 22.725598
_cell_length_b 7.807165
_cell_length_c 25.015438
_cell_angle_alpha 90.000000
_cell_angle_beta 142.848514
_cell_angle_gamma 90.000000
_cell_volume 2680.398735
_symmetry_space_group_name_H-M "C 2/M"
_symmetry_group_IT_number 12
_symmetry_cell_setting 'monoclinic'
loop_
_space_group_symop_operation_xyz
x,y,z
-x,y,-z
-x,-y,-z
x,-y,z
1/2+x,1/2+y,z
1/2-x,1/2+y,-z
1/2-x,1/2-y,-z
1/2+x,1/2-y,z
loop_
_atom_site_type_symbol
_atom_site_label
_atom_site_fract_x
_atom_site_fract_y
_atom_site_fract_z
Si Si1 0.376602 0.797485 0.550954
Si Si2 0.658555 0.500000 0.113970
Si Si3 0.085916 0.691009 0.200460
Si Si4 0.959858 0.701824 0.413613
Si Si5 0.991596 0.000000 0.080978
Si Si6 0.164626 0.195735 0.365424
Si Si7 0.748340 0.191685 0.233060
O O1 0.463134 0.738290 0.575127
O O2 0.274159 0.731827 0.452411
O O3 0.394272 0.713860 0.621724
O O4 0.372664 0.000000 0.554863
O O5 0.570526 0.500000 0.091554
O O6 0.723749 0.329419 0.169082
O O7 0.616052 0.500000 0.023026
O O8 0.047016 0.500000 0.158820
O O9 0.003152 0.829162 0.125247
O O10 0.110210 0.696931 0.280677
O O11 0.184285 0.732814 0.239030
O O12 0.940575 0.500000 0.397695
O O13 0.860136 0.799196 0.330816
O O14 0.000000 0.758743 0.500000
O O15 0.167022 0.000000 0.348037
O O16 0.726093 0.000000 0.195378
#
# Coordination Sequence:
#
# PCOD8082113 Si02
#       7
#     8   4   8   8   4   8   8
#     4   9  19  31  46  70 100 137 175 209 248 290
#     4   9  18  34  51  72 106 132 161 210 253 306
#     4  10  19  31  50  76 104 131 166 208 254 299
#     4  10  19  32  50  71 102 140 177 208 244 292
#     4   9  18  32  52  76 100 132 165 202 259 309
#     4  10  18  31  49  69 101 136 169 210 254 295
#     4  10  20  32  50  75 103 137 171 204 250 301
#
# _framework density 17.907782999999998
#
# number of rings (size 3 to 8) (size 9 to 14) (size 15 to 20)
#    0.000    2.333    1.667    1.500    0.000    3.667 
#    0.000    3.333    0.000    0.000    0.000    1.167 
#    0.000    0.000    0.000    0.000    0.000    0.000 
#
# Total GULP energy -297625.107209 kJ/mol
# GULP energy per Si atom -12401.046134 kJ/mol
# Density = 1.786702 g / cm^3
# Si number density = 17.907783 Si / 1000 Ang^3
#
#
#
# Elastic Constant Matrix: (Units=GPa)
#
#
# Indices 1 2 3 4 5 6 
#
# 1 71.2733 26.9713 38.2197 0.0000 -6.7340 -0.0001
# 2 26.9713 102.7068 55.5282 0.0001 -8.1223 -0.0007
# 3 38.2197 55.5282 123.4229 0.0000 -15.9773 0.0000
# 4 0.0000 0.0001 0.0000 18.1021 0.0000 -1.4944
# 5 -6.7340 -8.1223 -15.9773 0.0000 19.8096 0.0000
# 6 -0.0001 -0.0007 0.0000 -1.4944 0.0000 19.9062
#
#
#
# Elastic Compliance Matrix: (Units=1/GPa)
#
#
# Indices 1 2 3 4 5 6 
#
# 1 0.017226 -0.002147 -0.004158 0.000000 0.001622 0.000000
# 2 -0.002147 0.013142 -0.005186 0.000000 0.000476 0.000000
# 3 -0.004158 -0.005186 0.012578 0.000000 0.006605 0.000000
# 4 0.000000 0.000000 0.000000 0.055587 0.000000 0.004173
# 5 0.001622 0.000476 0.006605 0.000000 0.056554 0.000000
# 6 0.000000 0.000000 0.000000 0.004173 0.000000 0.050549
#
#
# Mechanical properties :
#
#
# Convention : Reuss Voigt Hill
#
# Bulk Modulus (GPa) = 50.09309 59.87124 54.98216
# Shear Modulus (GPa) = 21.25194 23.34252 22.29723
#
# Velocity S-wave (km/s) = 3.44865 3.61430 3.53245
# Velocity P-wave (km/s) = 6.62504 7.13605 6.88529
#
# Compressibility (1/GPa) = 0.01996283
#
# Stress axis : x y z
#
# Youngs Moduli (GPa) = 58.05124 76.09342 79.50312
#
# Poissons Ratio (x) = 0.16339 0.33060
# Poissons Ratio (y) = 0.12465 0.41230
# Poissons Ratio (z) = 0.24140 0.39462
#
# Static dielectric constant tensor:
#      x y z
#    x 3.110120 0.000000 -0.091750 
#    y 0.000000 3.372490 0.000000 
#    z -0.091750 0.000000 3.241790 
# 
# 
# High freq. dielectric constant tensor:
#      x y z
#    x 1.660920 0.000000 -0.012070 
#    y 0.000000 1.704070 0.000000 
#    z -0.012070 0.000000 1.674250 
# 
# From -- ./inp_files/345719.got.cif
#   From: 2010.06.25/outbox.cif.g09.slc.cpg/sg12_173_cif.got.tgz:345719.got - 2010.06.28 00:19:55.
