data_PCOD8082615
_publ_section_title
;
Structure prediction by ZEFSAII (Michael W. Deem and Ramdas Pophale) SiO2 
 PCOD8082615
Probable space group: C 2/M
;
_chemical_formula_sum "Si O2"
_cell_formula_units_Z 64
_cell_length_a 19.036628
_cell_length_b 8.605064
_cell_length_c 21.054389
_cell_angle_alpha 90.000000
_cell_angle_beta 89.601433
_cell_angle_gamma 90.000000
_cell_volume 3448.865539
_symmetry_space_group_name_H-M "C 2/M"
_symmetry_group_IT_number 12
_symmetry_cell_setting 'monoclinic'
loop_
_space_group_symop_operation_xyz
x,y,z
-x,y,-z
-x,-y,-z
x,-y,z
1/2+x,1/2+y,z
1/2-x,1/2+y,-z
1/2-x,1/2-y,-z
1/2+x,1/2-y,z
loop_
_atom_site_type_symbol
_atom_site_label
_atom_site_fract_x
_atom_site_fract_y
_atom_site_fract_z
Si Si1 0.081145 0.315665 0.006229
Si Si2 0.134848 0.819894 0.459415
Si Si3 0.529347 0.681211 0.348522
Si Si4 0.885003 0.183711 0.400325
Si Si5 0.866211 0.682198 0.744701
Si Si6 0.764791 0.681958 0.636930
Si Si7 0.792666 0.184555 0.058935
Si Si8 0.332726 0.682591 0.877460
O O1 0.086094 0.500000 0.006361
O O2 0.113571 0.252065 0.071303
O O3 0.127537 0.250625 0.946254
O O4 0.000000 0.260730 0.000000
O O5 0.069228 0.788341 0.414193
O O6 0.118980 0.745142 0.528509
O O7 0.204155 0.745262 0.428925
O O8 0.151122 0.000000 0.467307
O O9 0.531851 0.500000 0.329538
O O10 0.451182 0.746796 0.360530
O O11 0.560545 0.782151 0.290845
O O12 0.816628 0.229859 0.359947
O O13 0.893785 0.000000 0.407291
O O14 0.859692 0.500000 0.759939
O O15 0.804045 0.746497 0.699191
O O16 0.864128 0.779638 0.808874
O O17 0.775926 0.500000 0.635499
O O18 0.746539 0.244491 0.118976
O O19 0.795757 0.000000 0.059076
O O20 0.750000 0.250000 0.000000
O O21 0.327594 0.500000 0.888931
#
# Coordination Sequence:
#
# PCOD8082615 Si02
#       8
#     8   8   8   8   8   8   8   8
#     4  10  20  35  56  84 117 144 166 201 249 295
#     4   9  16  27  46  70  94 122 157 198 246 302
#     4   9  17  30  48  69  94 126 163 203 247 299
#     4   9  16  28  47  70  94 121 157 201 250 302
#     4  10  20  35  51  68  94 129 169 208 250 299
#     4   9  18  31  47  67  93 125 159 201 249 296
#     4  10  18  31  53  80 110 140 172 208 245 288
#     4  11  21  35  57  79 101 135 178 215 250 299
#
# _framework density 18.556825
#
# number of rings (size 3 to 8) (size 9 to 14) (size 15 to 20)
#    0.000    2.375    0.000    5.250    0.000    3.000 
#    0.000    2.500    0.000    7.500    0.000    0.000 
#    0.000    0.000    0.000    0.000    0.000    0.000 
#
# Total GULP energy -396682.496690 kJ/mol
# GULP energy per Si atom -12396.328022 kJ/mol
# Density = 1.851459 g / cm^3
# Si number density = 18.556825 Si / 1000 Ang^3
#
#
#
# Elastic Constant Matrix: (Units=GPa)
#
#
# Indices 1 2 3 4 5 6 
#
# 1 143.1137 41.0405 52.9894 0.0000 -21.3398 0.0000
# 2 41.0405 66.3832 22.5882 0.0000 -4.7784 0.0000
# 3 52.9894 22.5882 99.8175 0.0000 -12.9180 0.0000
# 4 0.0000 0.0000 0.0000 23.7805 0.0000 -6.3976
# 5 -21.3398 -4.7784 -12.9180 0.0000 18.7475 0.0000
# 6 0.0000 0.0000 0.0000 -6.3976 0.0000 25.2929
#
#
#
# Elastic Compliance Matrix: (Units=1/GPa)
#
#
# Indices 1 2 3 4 5 6 
#
# 1 0.011069 -0.004980 -0.003604 0.000000 0.008847 0.000000
# 2 -0.004980 0.018615 -0.001854 0.000000 -0.002201 0.000000
# 3 -0.003604 -0.001854 0.012910 0.000000 0.004321 0.000000
# 4 0.000000 0.000000 0.000000 0.045122 0.000000 0.011413
# 5 0.008847 -0.002201 0.004321 0.000000 0.065827 0.000000
# 6 0.000000 0.000000 0.000000 0.011413 0.000000 0.042424
#
#
# Mechanical properties :
#
#
# Convention : Reuss Voigt Hill
#
# Bulk Modulus (GPa) = 46.04355 60.28341 53.16348
# Shear Modulus (GPa) = 22.31319 26.41062 24.36190
#
# Velocity S-wave (km/s) = 3.47136 3.77666 3.62723
# Velocity P-wave (km/s) = 6.39791 7.18150 6.80100
#
# Compressibility (1/GPa) = 0.02171857
#
# Stress axis : x y z
#
# Youngs Moduli (GPa) = 90.33969 53.71940 77.45730
#
# Poissons Ratio (x) = 0.26753 0.27918
# Poissons Ratio (y) = 0.44991 0.14358
# Poissons Ratio (z) = 0.32562 0.09958
#
# Static dielectric constant tensor:
#      x y z
#    x 3.878550 0.000000 -0.314260 
#    y 0.000000 3.278880 0.000000 
#    z -0.314260 0.000000 3.460420 
# 
# 
# High freq. dielectric constant tensor:
#      x y z
#    x 1.721770 0.000000 -0.018250 
#    y 0.000000 1.710680 0.000000 
#    z -0.018250 0.000000 1.704190 
# 
# From -- ./inp_files/319100.got.cif
#   From: 2010.06.25/outbox.cif.g09.slc.cpg/sg12_160_cif.got.tgz:319100.got - 2010.06.28 00:19:55.
