data_PCOD8082656
_publ_section_title
;
Structure prediction by ZEFSAII (Michael W. Deem and Ramdas Pophale) SiO2 
 PCOD8082656
Probable space group: C 2/M
;
_chemical_formula_sum "Si O2"
_cell_formula_units_Z 56
_cell_length_a 15.405164
_cell_length_b 9.384699
_cell_length_c 21.136889
_cell_angle_alpha 90.000000
_cell_angle_beta 90.543548
_cell_angle_gamma 90.000000
_cell_volume 3055.682294
_symmetry_space_group_name_H-M "C 2/M"
_symmetry_group_IT_number 12
_symmetry_cell_setting 'monoclinic'
loop_
_space_group_symop_operation_xyz
x,y,z
-x,y,-z
-x,-y,-z
x,-y,z
1/2+x,1/2+y,z
1/2-x,1/2+y,-z
1/2-x,1/2-y,-z
1/2+x,1/2-y,z
loop_
_atom_site_type_symbol
_atom_site_label
_atom_site_fract_x
_atom_site_fract_y
_atom_site_fract_z
Si Si1 0.406609 0.667510 0.142053
Si Si2 0.603615 0.668377 0.435953
Si Si3 0.737655 0.834438 0.645695
Si Si4 0.909929 0.168771 0.421035
Si Si5 0.740915 0.165428 0.792152
Si Si6 0.662142 0.334281 0.995162
Si Si7 0.096995 0.167941 0.128294
O O1 0.395538 0.500000 0.154660
O O2 0.345419 0.751002 0.189531
O O3 0.504999 0.721348 0.155316
O O4 0.386805 0.705817 0.069270
O O5 0.603172 0.500000 0.431983
O O6 0.681247 0.730010 0.393438
O O7 0.509338 0.719902 0.410319
O O8 0.618482 0.715296 0.508497
O O9 0.650477 0.749274 0.629106
O O10 0.760270 0.811540 0.718830
O O11 0.722470 0.000000 0.629516
O O12 0.900214 0.000000 0.411187
O O13 0.822536 0.231559 0.831198
O O14 0.726596 0.000000 0.808590
O O15 0.685261 0.500000 0.998164
O O16 0.603113 0.289465 0.054528
O O17 0.750000 0.250000 0.000000
O O18 0.099516 0.000000 0.135953
#
# Coordination Sequence:
#
# PCOD8082656 Si02
#       7
#     8   8   8   8   8   8   8
#     4  10  20  34  55  79  99 127 171 217 253 292
#     4   8  16  32  53  77 104 132 165 205 251 304
#     4  10  20  33  50  73 103 137 170 203 248 303
#     4   9  17  32  55  79 101 129 167 211 252 292
#     4  10  21  36  51  70 101 140 172 203 248 303
#     4  10  18  31  54  79 103 128 161 208 258 303
#     4   9  18  34  54  74 100 134 168 203 252 308
#
# _framework density 18.326511
#
# number of rings (size 3 to 8) (size 9 to 14) (size 15 to 20)
#    0.000    2.571    1.429    1.714    0.000    3.429 
#    0.000    6.429    0.000    1.714    0.000    0.000 
#    0.000    0.000    0.000    0.000    0.000    0.000 
#
# Total GULP energy -347142.060665 kJ/mol
# GULP energy per Si atom -12397.930738 kJ/mol
# Density = 1.828480 g / cm^3
# Si number density = 18.326511 Si / 1000 Ang^3
#
#
#
# Elastic Constant Matrix: (Units=GPa)
#
#
# Indices 1 2 3 4 5 6 
#
# 1 119.9877 28.5140 29.0325 0.0000 -8.3371 0.0000
# 2 28.5140 31.2705 21.6602 0.0000 -1.0874 0.0000
# 3 29.0325 21.6602 64.2651 0.0000 -3.2555 0.0000
# 4 0.0000 0.0000 0.0000 24.4578 0.0000 1.1891
# 5 -8.3371 -1.0874 -3.2555 0.0000 22.8259 0.0000
# 6 0.0000 0.0000 0.0000 1.1891 0.0000 27.9034
#
#
#
# Elastic Compliance Matrix: (Units=1/GPa)
#
#
# Indices 1 2 3 4 5 6 
#
# 1 0.011092 -0.008668 -0.001919 0.000000 0.003365 0.000000
# 2 -0.008668 0.048493 -0.012562 0.000000 -0.002648 0.000000
# 3 -0.001919 -0.012562 0.020746 0.000000 0.001659 0.000000
# 4 0.000000 0.000000 0.000000 0.040972 0.000000 -0.001746
# 5 0.003365 -0.002648 0.001659 0.000000 0.045149 0.000000
# 6 0.000000 0.000000 0.000000 -0.001746 0.000000 0.035912
#
#
# Mechanical properties :
#
#
# Convention : Reuss Voigt Hill
#
# Bulk Modulus (GPa) = 29.38467 41.54852 35.46659
# Shear Modulus (GPa) = 19.23027 24.12518 21.67772
#
# Velocity S-wave (km/s) = 3.24283 3.63217 3.44301
# Velocity P-wave (km/s) = 5.48544 6.34907 5.93299
#
# Compressibility (1/GPa) = 0.03403135
#
# Stress axis : x y z
#
# Youngs Moduli (GPa) = 90.15311 20.62172 48.20298
#
# Poissons Ratio (x) = 0.17875 0.09250
# Poissons Ratio (y) = 0.78147 0.60554
# Poissons Ratio (z) = 0.17301 0.25906
#
# Static dielectric constant tensor:
#      x y z
#    x 3.725130 0.000000 0.204070 
#    y 0.000000 3.209810 0.000000 
#    z 0.204070 0.000000 3.802420 
# 
# 
# High freq. dielectric constant tensor:
#      x y z
#    x 1.723950 0.000000 -0.000910 
#    y 0.000000 1.671120 0.000000 
#    z -0.000910 0.000000 1.710850 
# 
# From -- ./inp_files/308963.got.cif
#   From: 2010.06.25/outbox.cif.g09.slc.cpg/sg12_155_cif.got.tgz:308963.got - 2010.06.28 00:19:55.
