data_PCOD8082419
_publ_section_title
;
Structure prediction by ZEFSAII (Michael W. Deem and Ramdas Pophale) SiO2 
 PCOD8082419
Probable space group: C 2/M
;
_chemical_formula_sum "Si O2"
_cell_formula_units_Z 64
_cell_length_a 20.173733
_cell_length_b 9.003178
_cell_length_c 20.385719
_cell_angle_alpha 90.000000
_cell_angle_beta 77.831195
_cell_angle_gamma 90.000000
_cell_volume 3619.416747
_symmetry_space_group_name_H-M "C 2/M"
_symmetry_group_IT_number 12
_symmetry_cell_setting 'monoclinic'
loop_
_space_group_symop_operation_xyz
x,y,z
-x,y,-z
-x,-y,-z
x,-y,z
1/2+x,1/2+y,z
1/2-x,1/2+y,-z
1/2-x,1/2-y,-z
1/2+x,1/2-y,z
loop_
_atom_site_type_symbol
_atom_site_label
_atom_site_fract_x
_atom_site_fract_y
_atom_site_fract_z
Si Si1 0.630041 0.675976 0.318733
Si Si2 0.751063 0.824231 0.069958
Si Si3 0.410106 0.823980 0.342550
Si Si4 0.622006 0.173624 0.180980
Si Si5 0.721728 0.824883 0.698273
Si Si6 0.527093 0.173506 0.804498
Si Si7 0.157847 0.675972 0.846803
Si Si8 0.499358 0.676003 0.574752
O O1 0.627372 0.500000 0.313803
O O2 0.624207 0.738811 0.247666
O O3 0.702125 0.728489 0.334951
O O4 0.569825 0.735706 0.377292
O O5 0.682201 0.775066 0.121099
O O6 0.816165 0.763691 0.095273
O O7 0.756219 0.000000 0.061512
O O8 0.750000 0.750000 0.000000
O O9 0.332376 0.770951 0.345053
O O10 0.455117 0.764669 0.271787
O O11 0.435574 0.744506 0.402829
O O12 0.415907 0.000000 0.351338
O O13 0.550259 0.212473 0.160331
O O14 0.626598 0.000000 0.196340
O O15 0.702150 0.769791 0.775283
O O16 0.716552 0.000000 0.701819
O O17 0.579923 0.228443 0.849204
O O18 0.540081 0.000000 0.795832
O O19 0.163935 0.500000 0.858681
O O20 0.500000 0.731908 0.500000
O O21 0.504510 0.500000 0.577737
#
# Coordination Sequence:
#
# PCOD8082419 Si02
#       8
#     8   8   8   8   8   8   8   8
#     4  10  18  31  52  74  98 132 170 206 247 297
#     4  11  23  36  52  75 105 138 166 201 248 298
#     4   9  16  30  52  74  97 128 167 210 249 292
#     4  10  19  33  53  78 102 125 165 214 250 285
#     4   8  15  28  50  77  98 123 165 210 251 293
#     4   8  15  29  52  78 101 125 159 209 256 291
#     4   9  16  31  54  76 100 130 164 204 250 299
#     4  10  21  34  47  70 106 141 168 200 250 305
#
# _framework density 17.682407000000001
#
# number of rings (size 3 to 8) (size 9 to 14) (size 15 to 20)
#    0.000    2.625    2.500    1.875    0.000    0.750 
#    0.000    5.000    0.000    3.750    0.000    0.000 
#    0.000    0.000    0.000    0.000    0.000    0.000 
#
# Total GULP energy -396623.082145 kJ/mol
# GULP energy per Si atom -12394.471317 kJ/mol
# Density = 1.764216 g / cm^3
# Si number density = 17.682407 Si / 1000 Ang^3
#
#
#
# Elastic Constant Matrix: (Units=GPa)
#
#
# Indices 1 2 3 4 5 6 
#
# 1 146.9641 29.3207 70.8394 0.0000 15.9658 0.0000
# 2 29.3207 29.0986 31.3584 0.0000 5.1504 0.0000
# 3 70.8394 31.3584 118.9071 0.0000 16.5142 0.0000
# 4 0.0000 0.0000 0.0000 22.6845 0.0000 6.7730
# 5 15.9658 5.1504 16.5142 0.0000 31.1340 0.0000
# 6 0.0000 0.0000 0.0000 6.7730 0.0000 24.0248
#
#
#
# Elastic Compliance Matrix: (Units=1/GPa)
#
#
# Indices 1 2 3 4 5 6 
#
# 1 0.010184 -0.005125 -0.004435 0.000000 -0.002022 0.000000
# 2 -0.005125 0.050640 -0.010259 0.000000 -0.000308 0.000000
# 3 -0.004435 -0.010259 0.014256 0.000000 -0.003590 0.000000
# 4 0.000000 0.000000 0.000000 0.048135 0.000000 -0.013570
# 5 -0.002022 -0.000308 -0.003590 0.000000 0.035112 0.000000
# 6 0.000000 0.000000 0.000000 -0.013570 0.000000 0.045449
#
#
# Mechanical properties :
#
#
# Convention : Reuss Voigt Hill
#
# Bulk Modulus (GPa) = 28.21423 62.00074 45.10748
# Shear Modulus (GPa) = 19.59033 26.46541 23.02787
#
# Velocity S-wave (km/s) = 3.33212 3.87293 3.61266
# Velocity P-wave (km/s) = 5.54931 7.42557 6.55492
#
# Compressibility (1/GPa) = 0.03544311
#
# Stress axis : x y z
#
# Youngs Moduli (GPa) = 98.19103 19.74724 70.14460
#
# Poissons Ratio (x) = 0.10120 0.31109
# Poissons Ratio (y) = 0.50319 0.71962
# Poissons Ratio (z) = 0.43547 0.20259
#
# Static dielectric constant tensor:
#      x y z
#    x 4.142180 0.000000 -0.022200 
#    y 0.000000 2.972720 0.000000 
#    z -0.022200 0.000000 3.091320 
# 
# 
# High freq. dielectric constant tensor:
#      x y z
#    x 1.704750 0.000000 0.008290 
#    y 0.000000 1.654720 0.000000 
#    z 0.008290 0.000000 1.656530 
# 
# From -- ./inp_files/319126.got.cif
#   From: 2010.06.25/outbox.cif.g09.slc.cpg/sg12_160_cif.got.tgz:319126.got - 2010.06.28 00:19:55.
