data_PCOD8082187
_publ_section_title
;
Structure prediction by ZEFSAII (Michael W. Deem and Ramdas Pophale) SiO2 
 PCOD8082187
Probable space group: C 2/M
;
_chemical_formula_sum "Si O2"
_cell_formula_units_Z 56
_cell_length_a 19.319113
_cell_length_b 18.145041
_cell_length_c 14.813726
_cell_angle_alpha 90.000000
_cell_angle_beta 140.066629
_cell_angle_gamma 90.000000
_cell_volume 3333.299578
_symmetry_space_group_name_H-M "C 2/M"
_symmetry_group_IT_number 12
_symmetry_cell_setting 'monoclinic'
loop_
_space_group_symop_operation_xyz
x,y,z
-x,y,-z
-x,-y,-z
x,-y,z
1/2+x,1/2+y,z
1/2-x,1/2+y,-z
1/2-x,1/2-y,-z
1/2+x,1/2-y,z
loop_
_atom_site_type_symbol
_atom_site_label
_atom_site_fract_x
_atom_site_fract_y
_atom_site_fract_z
Si Si1 0.124015 0.179311 0.022690
Si Si2 0.000000 0.583286 0.107355
Si Si3 0.373917 0.583969 0.604121
Si Si4 0.875985 0.820689 0.774660
Si Si5 0.126083 0.916031 0.856286
Si Si6 0.288142 0.836239 0.893346
Si Si7 0.788142 0.663761 0.682938
O O1 0.145075 0.149767 0.145075
O O2 0.199928 0.249101 0.077940
O O3 0.152411 0.113716 0.982775
O O4 1.000000 0.205348 0.888733
O O5 0.000000 0.500000 0.142745
O O6 0.106561 0.623005 0.251543
O O7 0.893438 0.623005 0.038420
O O8 0.000000 0.588261 0.000000
O O9 0.332661 0.500000 0.557060
O O10 0.347589 0.613716 0.677954
O O11 0.500000 0.588814 0.709239
O O12 0.316424 0.634437 0.472761
O O13 0.800072 0.750900 0.678084
O O14 0.183576 0.865564 0.839913
O O15 0.167339 0.000000 0.891738
O O16 0.272980 0.854234 0.772980
#
# Coordination Sequence:
#
# PCOD8082187 Si02
#       7
#     8   8   8   8   8   8   8
#     4   9  17  32  53  73  93 121 161 206 244 275
#     4   9  16  26  44  70  94 118 152 193 236 278
#     4  10  21  33  46  70 102 132 160 190 231 288
#     4   9  17  32  53  73  93 121 161 206 244 275
#     4  10  21  33  46  70 102 132 160 190 231 288
#     4  10  18  31  50  71  97 126 157 197 240 283
#     4  10  18  31  50  71  97 126 157 197 240 283
#
# _framework density 16.800170000000001
#
# number of rings (size 3 to 8) (size 9 to 14) (size 15 to 20)
#    0.000    2.429    1.429    1.714    0.000    2.857 
#    0.000    4.286    0.000    0.000    0.000    0.000 
#    0.000    3.429    0.000    0.000    0.000    0.000 
#
# Total GULP energy -347221.793146 kJ/mol
# GULP energy per Si atom -12400.778327 kJ/mol
# Density = 1.676193 g / cm^3
# Si number density = 16.800170 Si / 1000 Ang^3
#
#
#
# Elastic Constant Matrix: (Units=GPa)
#
#
# Indices 1 2 3 4 5 6 
#
# 1 78.0608 35.3747 27.3822 0.0000 -2.0632 0.0000
# 2 35.3747 66.0775 33.6915 0.0000 -2.9844 0.0000
# 3 27.3822 33.6915 72.6189 0.0000 -7.5858 0.0000
# 4 0.0000 0.0000 0.0000 24.5415 0.0000 -0.5277
# 5 -2.0632 -2.9844 -7.5858 0.0000 14.9650 0.0000
# 6 0.0000 0.0000 0.0000 -0.5277 0.0000 24.8391
#
#
#
# Elastic Compliance Matrix: (Units=1/GPa)
#
#
# Indices 1 2 3 4 5 6 
#
# 1 0.017384 -0.007805 -0.003005 0.000000 -0.000683 0.000000
# 2 -0.007805 0.023335 -0.007930 0.000000 -0.000442 0.000000
# 3 -0.003005 -0.007930 0.019401 0.000000 0.007839 0.000000
# 4 0.000000 0.000000 0.000000 0.040766 0.000000 0.000866
# 5 -0.000683 -0.000442 0.007839 0.000000 0.070614 0.000000
# 6 0.000000 0.000000 0.000000 0.000866 0.000000 0.040277
#
#
# Mechanical properties :
#
#
# Convention : Reuss Voigt Hill
#
# Bulk Modulus (GPa) = 44.16737 45.51710 44.84224
# Shear Modulus (GPa) = 19.47013 20.88971 20.17992
#
# Velocity S-wave (km/s) = 3.40799 3.53005 3.46956
# Velocity P-wave (km/s) = 6.46783 6.61566 6.54216
#
# Compressibility (1/GPa) = 0.02264115
#
# Stress axis : x y z
#
# Youngs Moduli (GPa) = 57.52572 42.85352 51.54264
#
# Poissons Ratio (x) = 0.33447 0.15489
# Poissons Ratio (y) = 0.44899 0.40871
# Poissons Ratio (z) = 0.17287 0.33981
#
# Static dielectric constant tensor:
#      x y z
#    x 3.020750 0.000000 0.001170 
#    y 0.000000 3.183940 0.000000 
#    z 0.001170 0.000000 3.021410 
# 
# 
# High freq. dielectric constant tensor:
#      x y z
#    x 1.632020 0.000000 0.000640 
#    y 0.000000 1.653150 0.000000 
#    z 0.000640 0.000000 1.632380 
# 
# From -- ./inp_files/156740.got.cif
#   From: 2010.06.25/outbox.cif.g09.slc.cpg/sg12_79_cif.got.tgz:156740.got - 2010.06.28 00:19:55.
