data_PCOD8082708
_publ_section_title
;
Structure prediction by ZEFSAII (Michael W. Deem and Ramdas Pophale) SiO2 
 PCOD8082708
Probable space group: C 2/M
;
_chemical_formula_sum "Si O2"
_cell_formula_units_Z 40
_cell_length_a 30.153423
_cell_length_b 8.891123
_cell_length_c 9.264687
_cell_angle_alpha 90.000000
_cell_angle_beta 72.242557
_cell_angle_gamma 90.000000
_cell_volume 2365.502428
_symmetry_space_group_name_H-M "C 2/M"
_symmetry_group_IT_number 12
_symmetry_cell_setting 'monoclinic'
loop_
_space_group_symop_operation_xyz
x,y,z
-x,y,-z
-x,-y,-z
x,-y,z
1/2+x,1/2+y,z
1/2-x,1/2+y,-z
1/2-x,1/2-y,-z
1/2+x,1/2-y,z
loop_
_atom_site_type_symbol
_atom_site_label
_atom_site_fract_x
_atom_site_fract_y
_atom_site_fract_z
Si Si1 0.699848 0.322763 0.543845
Si Si2 0.374850 0.169488 0.222743
Si Si3 0.044101 0.177282 0.364708
Si Si4 0.623003 0.830238 0.463104
Si Si5 0.042704 0.323940 0.060877
O O1 0.704404 0.500000 0.528565
O O2 0.750000 0.250000 0.500000
O O3 0.670904 0.275790 0.717981
O O4 0.672382 0.257982 0.430411
O O5 0.401174 0.169787 0.353416
O O6 0.358314 0.000000 0.203055
O O7 0.409988 0.228456 0.066204
O O8 0.090989 0.249951 0.378497
O O9 0.036807 0.225768 0.208344
O O10 0.000000 0.234909 0.500000
O O11 0.049315 0.000000 0.370212
O O12 0.632698 0.000000 0.400301
O O13 0.044352 0.500000 0.098085
O O14 0.000000 0.286176 0.000000
#
# Coordination Sequence:
#
# PCOD8082708 Si02
#       5
#     8   8   8   8   8
#     4  10  18  31  54  82 110 138 174 219 266 314
#     4   8  17  32  51  77 105 134 175 219 261 311
#     4  11  23  35  49  75 109 143 179 220 266 315
#     4   9  18  34  54  76 103 136 176 219 262 311
#     4  10  20  35  54  76 103 141 183 220 262 314
#
# _framework density 16.909728999999999
#
# number of rings (size 3 to 8) (size 9 to 14) (size 15 to 20)
#    1.200    1.200    0.000    3.600    0.000    4.400 
#    0.000    0.000    0.000    1.200    0.000    0.000 
#    0.000    0.000    0.000    0.000    0.000    0.000 
#
# Total GULP energy -247836.923376 kJ/mol
# GULP energy per Si atom -12391.846169 kJ/mol
# Density = 1.687124 g / cm^3
# Si number density = 16.909729 Si / 1000 Ang^3
#
#
#
# Elastic Constant Matrix: (Units=GPa)
#
#
# Indices 1 2 3 4 5 6 
#
# 1 126.8809 63.7927 41.3165 0.0000 -6.3071 0.0000
# 2 63.7927 111.9769 35.9883 0.0000 -3.6201 0.0000
# 3 41.3165 35.9883 75.9131 0.0000 -6.9817 0.0000
# 4 0.0000 0.0000 0.0000 26.1748 0.0000 2.1213
# 5 -6.3071 -3.6201 -6.9817 0.0000 25.5767 0.0000
# 6 0.0000 0.0000 0.0000 2.1213 0.0000 27.2715
#
#
#
# Elastic Compliance Matrix: (Units=1/GPa)
#
#
# Indices 1 2 3 4 5 6 
#
# 1 0.011964 -0.005569 -0.003768 0.000000 0.001134 0.000000
# 2 -0.005569 0.013128 -0.003229 0.000000 -0.000397 0.000000
# 3 -0.003768 -0.003229 0.017055 0.000000 0.003269 0.000000
# 4 0.000000 0.000000 0.000000 0.038447 0.000000 -0.002991
# 5 0.001134 -0.000397 0.003269 0.000000 0.040214 0.000000
# 6 0.000000 0.000000 0.000000 -0.002991 0.000000 0.036901
#
#
# Mechanical properties :
#
#
# Convention : Reuss Voigt Hill
#
# Bulk Modulus (GPa) = 58.76642 66.32954 62.54798
# Shear Modulus (GPa) = 26.52351 27.38283 26.95317
#
# Velocity S-wave (km/s) = 3.96477 4.02848 3.99675
# Velocity P-wave (km/s) = 7.46912 7.80699 7.63992
#
# Compressibility (1/GPa) = 0.01701652
#
# Stress axis : x y z
#
# Youngs Moduli (GPa) = 83.58191 76.17419 58.63350
#
# Poissons Ratio (x) = 0.42418 0.22091
# Poissons Ratio (y) = 0.46543 0.18934
# Poissons Ratio (z) = 0.31490 0.24599
#
# Static dielectric constant tensor:
#      x y z
#    x 3.041210 0.000000 -0.081840 
#    y 0.000000 3.156830 0.000000 
#    z -0.081840 0.000000 2.984000 
# 
# 
# High freq. dielectric constant tensor:
#      x y z
#    x 1.642730 0.000000 -0.004500 
#    y 0.000000 1.659400 0.000000 
#    z -0.004500 0.000000 1.628330 
# 
# From -- ./inp_files/93721.got.cif
#   From: 2010.06.25/outbox.cif.g09.slc.cpg/sg12_47_cif.got.tgz:93721.got - 2010.06.28 00:19:55.
