data_PCOD8082360
_publ_section_title
;
Structure prediction by ZEFSAII (Michael W. Deem and Ramdas Pophale) SiO2 
 PCOD8082360
Probable space group: C 2/M
;
_chemical_formula_sum "Si O2"
_cell_formula_units_Z 64
_cell_length_a 33.663703
_cell_length_b 9.294241
_cell_length_c 26.142181
_cell_angle_alpha 90.000000
_cell_angle_beta 155.998230
_cell_angle_gamma 90.000000
_cell_volume 3327.063315
_symmetry_space_group_name_H-M "C 2/M"
_symmetry_group_IT_number 12
_symmetry_cell_setting 'monoclinic'
loop_
_space_group_symop_operation_xyz
x,y,z
-x,y,-z
-x,-y,-z
x,-y,z
1/2+x,1/2+y,z
1/2-x,1/2+y,-z
1/2-x,1/2-y,-z
1/2+x,1/2-y,z
loop_
_atom_site_type_symbol
_atom_site_label
_atom_site_fract_x
_atom_site_fract_y
_atom_site_fract_z
Si Si1 0.381369 0.668391 0.960090
Si Si2 0.021106 0.333964 0.651529
Si Si3 0.938215 0.832732 0.641877
Si Si4 0.827547 0.340130 0.803287
Si Si5 0.332336 0.835325 0.259072
Si Si6 0.938625 0.831983 0.760076
Si Si7 0.283148 0.170229 0.638622
Si Si8 0.893905 0.838360 0.422820
O O1 0.387807 0.500000 0.958346
O O2 0.391517 0.741208 0.916230
O O3 0.280739 0.711161 0.870436
O O4 0.468804 0.723304 0.098675
O O5 0.991871 0.500000 0.623483
O O6 0.017066 0.256969 0.701789
O O7 0.944226 0.258669 0.524157
O O8 0.129526 0.318324 0.754364
O O9 0.959913 0.797995 0.726200
O O10 0.829417 0.782896 0.498539
O O11 0.952923 0.000000 0.646544
O O12 0.873008 0.500000 0.857632
O O13 0.827187 0.279124 0.745004
O O14 0.718440 0.344985 0.694977
O O15 0.401667 0.735013 0.375956
O O16 0.344740 0.000000 0.292486
O O17 0.842342 0.747197 0.663414
O O18 0.918824 0.000000 0.745212
O O19 0.292008 0.000000 0.642009
O O20 0.938123 0.000000 0.473299
#
# Coordination Sequence:
#
# PCOD8082360 Si02
#       8
#     8   8   8   8   8   8   8   8
#     4   9  19  37  56  76 107 144 180 218 261 310
#     4  11  21  32  51  79 108 140 178 219 265 316
#     4  10  21  39  57  77 109 141 175 221 269 319
#     4   9  18  33  53  79 109 142 174 211 263 318
#     4   9  19  34  51  75 109 144 178 216 261 314
#     4  10  22  38  58  80 102 138 184 225 265 312
#     4  10  20  36  57  80 109 138 170 218 274 324
#     4  10  18  31  51  77 111 144 176 215 262 318
#
# _framework density 19.236183
#
# number of rings (size 3 to 8) (size 9 to 14) (size 15 to 20)
#    0.000    2.250    1.250    1.500    0.000    5.500 
#    0.000    3.125    0.000    0.000    0.000    0.000 
#    0.000    0.000    0.000    0.000    0.000    0.000 
#
# Total GULP energy -396810.435019 kJ/mol
# GULP energy per Si atom -12400.326094 kJ/mol
# Density = 1.919240 g / cm^3
# Si number density = 19.236183 Si / 1000 Ang^3
#
#
#
# Elastic Constant Matrix: (Units=GPa)
#
#
# Indices 1 2 3 4 5 6 
#
# 1 78.5538 33.1091 13.7112 0.0000 -11.6159 0.0000
# 2 33.1091 62.4241 18.9012 0.0000 -4.7777 0.0000
# 3 13.7112 18.9012 54.4889 0.0000 -16.7865 0.0000
# 4 0.0000 0.0000 0.0000 19.0703 0.0000 -3.6671
# 5 -11.6159 -4.7777 -16.7865 0.0000 22.7746 0.0000
# 6 0.0000 0.0000 0.0000 -3.6671 0.0000 35.7413
#
#
#
# Elastic Compliance Matrix: (Units=1/GPa)
#
#
# Indices 1 2 3 4 5 6 
#
# 1 0.017499 -0.009028 0.001157 0.000000 0.007884 0.000000
# 2 -0.009028 0.022577 -0.007141 0.000000 -0.005132 0.000000
# 3 0.001157 -0.007141 0.026210 0.000000 0.018411 0.000000
# 4 0.000000 0.000000 0.000000 0.053493 0.000000 0.005488
# 5 0.007884 -0.005132 0.018411 0.000000 0.060424 0.000000
# 6 0.000000 0.000000 0.000000 0.005488 0.000000 0.028542
#
#
# Mechanical properties :
#
#
# Convention : Reuss Voigt Hill
#
# Bulk Modulus (GPa) = 27.57630 36.32331 31.94980
# Shear Modulus (GPa) = 19.93168 24.16692 22.04930
#
# Velocity S-wave (km/s) = 3.22243 3.54831 3.38929
# Velocity P-wave (km/s) = 5.31151 5.97588 5.65347
#
# Compressibility (1/GPa) = 0.03626303
#
# Stress axis : x y z
#
# Youngs Moduli (GPa) = 57.14501 44.29205 38.15330
#
# Poissons Ratio (x) = 0.39989 -0.04416
# Poissons Ratio (y) = 0.51593 0.27244
# Poissons Ratio (z) = -0.06614 0.31628
#
# Static dielectric constant tensor:
#      x y z
#    x 3.644730 0.000000 -0.021630 
#    y 0.000000 3.602800 0.000000 
#    z -0.021630 0.000000 3.395440 
# 
# 
# High freq. dielectric constant tensor:
#      x y z
#    x 1.756670 0.000000 0.003780 
#    y 0.000000 1.744850 0.000000 
#    z 0.003780 0.000000 1.727780 
# 
# From -- ./inp_files/243887.got.cif
#   From: 2010.06.25/outbox.cif.g09.slc.cpg/sg12_122_cif.got.tgz:243887.got - 2010.06.28 00:19:55.
