data_PCOD8082296
_publ_section_title
;
Structure prediction by ZEFSAII (Michael W. Deem and Ramdas Pophale) SiO2 
 PCOD8082296
Probable space group: C 2/M
;
_chemical_formula_sum "Si O2"
_cell_formula_units_Z 64
_cell_length_a 12.558749
_cell_length_b 13.723841
_cell_length_c 21.797407
_cell_angle_alpha 90.000000
_cell_angle_beta 114.099865
_cell_angle_gamma 90.000000
_cell_volume 3429.408672
_symmetry_space_group_name_H-M "C 2/M"
_symmetry_group_IT_number 12
_symmetry_cell_setting 'monoclinic'
loop_
_space_group_symop_operation_xyz
x,y,z
-x,y,-z
-x,-y,-z
x,-y,z
1/2+x,1/2+y,z
1/2-x,1/2+y,-z
1/2-x,1/2-y,-z
1/2+x,1/2-y,z
loop_
_atom_site_type_symbol
_atom_site_label
_atom_site_fract_x
_atom_site_fract_y
_atom_site_fract_z
Si Si1 0.852796 0.890787 0.253511
Si Si2 0.267439 0.888933 0.502709
Si Si3 0.672982 0.743834 0.576887
Si Si4 0.697106 0.112789 0.823915
Si Si5 0.040015 0.781696 0.826226
Si Si6 0.994976 0.108449 0.597028
Si Si7 0.042570 0.112281 0.077464
Si Si8 0.279725 0.721138 0.728175
O O1 0.876614 0.855882 0.190182
O O2 0.967001 0.877469 0.323332
O O3 0.746558 0.831147 0.257363
O O4 0.807936 0.000000 0.239937
O O5 0.355809 0.828865 0.479517
O O6 0.260268 0.836843 0.567335
O O7 0.142894 0.880210 0.439596
O O8 0.310100 0.000000 0.520559
O O9 0.554548 0.688840 0.567726
O O10 0.735136 0.795476 0.648938
O O11 0.596121 0.173807 0.835048
O O12 0.819322 0.131496 0.887100
O O13 0.711343 0.145588 0.756397
O O14 0.660204 0.000000 0.817178
O O15 0.027619 0.816414 0.893388
O O16 0.917297 0.790622 0.763053
O O17 0.032877 0.000000 0.583252
O O18 0.015018 0.000000 0.088075
O O19 0.000000 0.139108 0.000000
#
# Coordination Sequence:
#
# PCOD8082296 Si02
#       8
#     8   8   8   8   8   8   8   8
#     4   9  17  29  47  72  95 118 157 203 242 281
#     4  10  20  32  48  69  90 119 159 198 241 291
#     4  10  19  31  49  68  93 121 155 200 242 285
#     4   9  19  34  51  73  99 127 160 194 230 276
#     4  10  18  31  51  72  98 130 161 193 230 275
#     4   9  17  31  51  70  89 118 157 200 244 288
#     4   9  18  33  53  77 103 129 157 191 231 272
#     4   9  19  32  47  69  95 125 158 195 240 283
#
# _framework density 18.662108
#
# number of rings (size 3 to 8) (size 9 to 14) (size 15 to 20)
#    0.000    2.625    0.000    1.875    0.000    3.500 
#    0.000    0.000    0.000    7.125    0.000    0.000 
#    0.000    0.000    0.000    0.000    0.000    0.000 
#
# Total GULP energy -396732.584466 kJ/mol
# GULP energy per Si atom -12397.893265 kJ/mol
# Density = 1.861963 g / cm^3
# Si number density = 18.662108 Si / 1000 Ang^3
#
#
#
# Elastic Constant Matrix: (Units=GPa)
#
#
# Indices 1 2 3 4 5 6 
#
# 1 46.5163 23.8706 6.4598 0.0000 -16.6385 0.0000
# 2 23.8706 108.4973 18.5428 0.0000 -18.2220 0.0000
# 3 6.4598 18.5428 71.5457 0.0000 -15.9730 0.0000
# 4 0.0000 0.0000 0.0000 23.6578 0.0000 -1.3625
# 5 -16.6385 -18.2220 -15.9730 0.0000 18.7521 0.0000
# 6 0.0000 0.0000 0.0000 -1.3625 0.0000 27.0595
#
#
#
# Elastic Compliance Matrix: (Units=1/GPa)
#
#
# Indices 1 2 3 4 5 6 
#
# 1 0.033331 -0.002981 0.004592 0.000000 0.030590 0.000000
# 2 -0.002981 0.011300 -0.000986 0.000000 0.007496 0.000000
# 3 0.004592 -0.000986 0.017922 0.000000 0.018383 0.000000
# 4 0.000000 0.000000 0.000000 0.042392 0.000000 0.002135
# 5 0.030590 0.007496 0.018383 0.000000 0.103412 0.000000
# 6 0.000000 0.000000 0.000000 0.002135 0.000000 0.037063
#
#
# Mechanical properties :
#
#
# Convention : Reuss Voigt Hill
#
# Bulk Modulus (GPa) = 15.67267 36.03394 25.85331
# Shear Modulus (GPa) = 18.83682 25.73964 22.28823
#
# Velocity S-wave (km/s) = 3.18049 3.71785 3.45962
# Velocity P-wave (km/s) = 4.68014 6.14658 5.46279
#
# Compressibility (1/GPa) = 0.06380532
#
# Stress axis : x y z
#
# Youngs Moduli (GPa) = 30.00170 88.49512 55.79726
#
# Poissons Ratio (x) = 0.26377 -0.25625
# Poissons Ratio (y) = 0.08942 0.05502
# Poissons Ratio (z) = -0.13778 0.08726
#
# Static dielectric constant tensor:
#      x y z
#    x 3.205900 0.000000 -0.087100 
#    y 0.000000 3.551540 0.000000 
#    z -0.087100 0.000000 3.330640 
# 
# 
# High freq. dielectric constant tensor:
#      x y z
#    x 1.708740 0.000000 -0.013180 
#    y 0.000000 1.727800 0.000000 
#    z -0.013180 0.000000 1.712600 
# 
# From -- ./inp_files/305439.got.cif
#   From: 2010.06.25/outbox.cif.g09.slc.cpg/sg12_153_cif.got.tgz:305439.got - 2010.06.28 00:19:55.
