data_PCOD8082714
_publ_section_title
;
Structure prediction by ZEFSAII (Michael W. Deem and Ramdas Pophale) SiO2 
 PCOD8082714
Probable space group: C 2/M
;
_chemical_formula_sum "Si O2"
_cell_formula_units_Z 64
_cell_length_a 24.664282
_cell_length_b 9.056921
_cell_length_c 31.511879
_cell_angle_alpha 90.000000
_cell_angle_beta 152.325210
_cell_angle_gamma 90.000000
_cell_volume 3269.373938
_symmetry_space_group_name_H-M "C 2/M"
_symmetry_group_IT_number 12
_symmetry_cell_setting 'monoclinic'
loop_
_space_group_symop_operation_xyz
x,y,z
-x,y,-z
-x,-y,-z
x,-y,z
1/2+x,1/2+y,z
1/2-x,1/2+y,-z
1/2-x,1/2-y,-z
1/2+x,1/2-y,z
loop_
_atom_site_type_symbol
_atom_site_label
_atom_site_fract_x
_atom_site_fract_y
_atom_site_fract_z
Si Si1 0.129099 0.340172 0.580641
Si Si2 0.270057 0.672640 0.274504
Si Si3 0.894261 0.670050 0.200604
Si Si4 0.339773 0.171155 0.491585
Si Si5 0.190343 0.169824 0.997340
Si Si6 0.430067 0.670796 0.822538
Si Si7 0.445092 0.325048 0.322122
Si Si8 0.407683 0.669808 0.709822
O O1 0.200013 0.500000 0.633720
O O2 0.167363 0.211306 0.638357
O O3 0.131833 0.274947 0.535740
O O4 0.000000 0.386513 0.500000
O O5 0.249807 0.500000 0.255843
O O6 0.143898 0.751439 0.191013
O O7 0.351717 0.731520 0.292615
O O8 0.920397 0.500000 0.229940
O O9 0.765427 0.689753 0.092034
O O10 0.898626 0.769294 0.245207
O O11 0.987649 0.723655 0.230582
O O12 0.422454 0.265224 0.579825
O O13 0.199940 0.199816 0.397625
O O14 0.369283 0.000000 0.519777
O O15 0.179922 0.000000 0.976689
O O16 0.250000 0.250000 0.000000
O O17 0.061134 0.236202 0.915110
O O18 0.433774 0.500000 0.836709
O O19 0.374445 0.700547 0.736588
O O20 0.452774 0.500000 0.327510
O O21 0.448765 0.500000 0.734052
#
# Coordination Sequence:
#
# PCOD8082714 Si02
#       8
#     8   8   8   8   8   8   8   8
#     4  10  18  31  54  82 113 152 196 239 289 345
#     4  11  23  36  55  86 121 155 198 248 294 341
#     4  11  24  41  62  88 116 152 198 243 290 351
#     4  10  20  35  57  86 117 154 200 240 284 345
#     4  10  21  38  64  95 121 147 188 239 296 353
#     4  10  20  37  61  91 123 154 188 235 296 358
#     4  11  25  42  58  80 116 164 205 241 291 344
#     4  10  20  36  60  89 121 155 189 236 295 349
#
# _framework density 19.575613000000001
#
# number of rings (size 3 to 8) (size 9 to 14) (size 15 to 20)
#    0.000    1.625    3.750    1.125    0.000    4.750 
#    0.000    0.625    0.000    3.750    0.000    0.000 
#    0.000    0.000    0.000    0.000    0.000    0.000 
#
# Total GULP energy -396612.621512 kJ/mol
# GULP energy per Si atom -12394.144422 kJ/mol
# Density = 1.953106 g / cm^3
# Si number density = 19.575613 Si / 1000 Ang^3
#
#
#
# Elastic Constant Matrix: (Units=GPa)
#
#
# Indices 1 2 3 4 5 6 
#
# 1 56.4312 25.2536 25.1680 -0.0026 4.0001 0.0002
# 2 25.2536 61.6244 35.1121 -0.0019 4.1919 0.0004
# 3 25.1680 35.1121 112.5585 -0.0063 11.7685 -0.0003
# 4 -0.0026 -0.0019 -0.0063 25.9713 -0.0017 2.6414
# 5 4.0001 4.1919 11.7685 -0.0017 31.7680 0.0001
# 6 0.0002 0.0004 -0.0003 2.6414 0.0001 32.1309
#
#
#
# Elastic Compliance Matrix: (Units=1/GPa)
#
#
# Indices 1 2 3 4 5 6 
#
# 1 0.022331 -0.007660 -0.002513 0.000001 -0.000870 0.000000
# 2 -0.007660 0.022366 -0.005260 0.000000 -0.000038 0.000000
# 3 -0.002513 -0.005260 0.011424 0.000002 -0.003221 0.000000
# 4 0.000001 0.000000 0.000002 0.038829 0.000001 -0.003192
# 5 -0.000870 -0.000038 -0.003221 0.000001 0.032786 0.000000
# 6 0.000000 0.000000 0.000000 -0.003192 0.000000 0.031385
#
#
# Mechanical properties :
#
#
# Convention : Reuss Voigt Hill
#
# Bulk Modulus (GPa) = 39.59657 44.63128 42.11393
# Shear Modulus (GPa) = 25.20085 27.64606 26.42345
#
# Velocity S-wave (km/s) = 3.59187 3.76210 3.67797
# Velocity P-wave (km/s) = 6.12156 6.45911 6.29260
#
# Compressibility (1/GPa) = 0.02525471
#
# Stress axis : x y z
#
# Youngs Moduli (GPa) = 44.78059 44.71013 87.53663
#
# Poissons Ratio (x) = 0.34250 0.21994
# Poissons Ratio (y) = 0.34304 0.46046
# Poissons Ratio (z) = 0.11251 0.23518
#
# Static dielectric constant tensor:
#      x y z
#    x 3.588510 0.000000 0.249970 
#    y 0.000000 3.407820 0.000000 
#    z 0.249970 0.000000 3.761690 
# 
# 
# High freq. dielectric constant tensor:
#      x y z
#    x 1.756610 0.000000 0.018090 
#    y 0.000000 1.754140 0.000000 
#    z 0.018090 0.000000 1.764840 
# 
# From -- ./inp_files/382437.got.cif
#   From: 2010.06.25/outbox.cif.g09.slc.cpg/sg12_192_cif.got.tgz:382437.got - 2010.06.28 00:19:55.
