data_PCOD8082855
_publ_section_title
;
Structure prediction by ZEFSAII (Michael W. Deem and Ramdas Pophale) SiO2 
 PCOD8082855
Probable space group: C 2/M
;
_chemical_formula_sum "Si O2"
_cell_formula_units_Z 64
_cell_length_a 15.285488
_cell_length_b 22.477430
_cell_length_c 11.343314
_cell_angle_alpha 90.000000
_cell_angle_beta 68.754268
_cell_angle_gamma 90.000000
_cell_volume 3632.436868
_symmetry_space_group_name_H-M "C 2/M"
_symmetry_group_IT_number 12
_symmetry_cell_setting 'monoclinic'
loop_
_space_group_symop_operation_xyz
x,y,z
-x,y,-z
-x,-y,-z
x,-y,z
1/2+x,1/2+y,z
1/2-x,1/2+y,-z
1/2-x,1/2-y,-z
1/2+x,1/2-y,z
loop_
_atom_site_type_symbol
_atom_site_label
_atom_site_fract_x
_atom_site_fract_y
_atom_site_fract_z
Si Si1 0.402620 0.260810 0.890869
Si Si2 0.229190 0.239962 0.645631
Si Si3 0.709392 0.432632 0.141862
Si Si4 0.050593 0.119090 0.362193
Si Si5 0.575412 0.758587 0.369442
Si Si6 0.433019 0.656345 0.211977
Si Si7 0.288588 0.813392 0.122704
Si Si8 0.388839 0.435537 0.056809
O O1 0.448028 0.225273 0.755995
O O2 0.481387 0.308217 0.895446
O O3 0.310214 0.294342 0.887610
O O4 0.375728 0.217405 0.011504
O O5 0.250000 0.250000 0.500000
O O6 0.324632 0.211019 0.650275
O O7 0.138929 0.199126 0.688613
O O8 0.205504 0.296395 0.741905
O O9 0.748544 0.500000 0.129722
O O10 0.640860 0.420413 0.285852
O O11 0.795257 0.385220 0.106667
O O12 0.652457 0.420674 0.049970
O O13 0.082248 0.186677 0.375222
O O14 0.000000 0.090434 0.500000
O O15 0.977343 0.114961 0.290485
O O16 0.500000 0.783699 0.500000
O O17 0.366704 0.618229 0.156552
O O18 0.349700 0.500000 0.119274
O O19 0.500000 0.438792 0.000000
#
# Coordination Sequence:
#
# PCOD8082855 Si02
#       8
#     8   8   8   8   8   8   8   8
#     4   9  18  31  49  74  99 137 163 202 256 305
#     4  11  21  30  49  76 100 134 166 208 261 303
#     4  11  21  34  51  68  96 141 181 211 247 299
#     4  10  18  32  48  66 103 139 168 206 240 304
#     4   9  17  32  49  68 103 137 160 199 251 305
#     4  11  21  30  52  77 106 131 167 206 263 304
#     4  10  20  33  49  69 103 131 175 210 246 303
#     4  10  20  32  47  70 103 134 166 205 251 298
#
# _framework density 17.619025000000001
#
# number of rings (size 3 to 8) (size 9 to 14) (size 15 to 20)
#    0.000    1.875    5.000    2.250    7.000    0.250 
#    0.000    0.000    0.000    0.000    0.000    1.750 
#    0.000    4.000    0.000    0.000    0.000    0.000 
#
# Total GULP energy -396419.370048 kJ/mol
# GULP energy per Si atom -12388.105314 kJ/mol
# Density = 1.757892 g / cm^3
# Si number density = 17.619025 Si / 1000 Ang^3
#
#
#
# Elastic Constant Matrix: (Units=GPa)
#
#
# Indices 1 2 3 4 5 6 
#
# 1 30.3132 17.1897 22.6748 0.0000 -3.6909 0.0000
# 2 17.1897 82.8133 54.1664 0.0000 -0.7726 0.0000
# 3 22.6748 54.1664 132.1812 0.0000 2.7237 0.0000
# 4 0.0000 0.0000 0.0000 11.7744 0.0000 7.6646
# 5 -3.6909 -0.7726 2.7237 0.0000 23.2102 0.0000
# 6 0.0000 0.0000 0.0000 7.6646 0.0000 10.1038
#
#
#
# Elastic Compliance Matrix: (Units=1/GPa)
#
#
# Indices 1 2 3 4 5 6 
#
# 1 0.040434 -0.005055 -0.005006 0.000000 0.006849 0.000000
# 2 -0.005055 0.017171 -0.006180 0.000000 0.000493 0.000000
# 3 -0.005006 -0.006180 0.011004 0.000000 -0.002293 0.000000
# 4 0.000000 0.000000 0.000000 0.167781 0.000000 -0.127277
# 5 0.006849 0.000493 -0.002293 0.000000 0.044459 0.000000
# 6 0.000000 0.000000 0.000000 -0.127277 0.000000 0.195523
#
#
# Mechanical properties :
#
#
# Convention : Reuss Voigt Hill
#
# Bulk Modulus (GPa) = 27.67933 48.15215 37.91574
# Shear Modulus (GPa) = 9.59886 19.10279 14.35083
#
# Velocity S-wave (km/s) = 2.33663 3.29631 2.85705
# Velocity P-wave (km/s) = 4.79831 6.47121 5.69650
#
# Compressibility (1/GPa) = 0.03612805
#
# Stress axis : x y z
#
# Youngs Moduli (GPa) = 24.73186 58.23736 90.87877
#
# Poissons Ratio (x) = 0.29438 0.45493
# Poissons Ratio (y) = 0.12501 0.56159
# Poissons Ratio (z) = 0.12380 0.35988
#
# Static dielectric constant tensor:
#      x y z
#    x 3.244780 0.000000 0.045870 
#    y 0.000000 3.271140 0.000000 
#    z 0.045870 0.000000 3.670150 
# 
# 
# High freq. dielectric constant tensor:
#      x y z
#    x 1.656620 0.000000 0.010170 
#    y 0.000000 1.636140 0.000000 
#    z 0.010170 0.000000 1.696270 
# 
# From -- ./inp_files/148632.got.cif
#   From: 2010.06.25/outbox.cif.g09.slc.cpg/sg12_75_cif.got.tgz:148632.got - 2010.06.28 00:19:55.
