data_PCOD8082323
_publ_section_title
;
Structure prediction by ZEFSAII (Michael W. Deem and Ramdas Pophale) SiO2 
 PCOD8082323
Probable space group: C 2/M
;
_chemical_formula_sum "Si O2"
_cell_formula_units_Z 64
_cell_length_a 35.351075
_cell_length_b 13.721089
_cell_length_c 12.370078
_cell_angle_alpha 90.000000
_cell_angle_beta 141.278636
_cell_angle_gamma 90.000000
_cell_volume 3753.308793
_symmetry_space_group_name_H-M "C 2/M"
_symmetry_group_IT_number 12
_symmetry_cell_setting 'monoclinic'
loop_
_space_group_symop_operation_xyz
x,y,z
-x,y,-z
-x,-y,-z
x,-y,z
1/2+x,1/2+y,z
1/2-x,1/2+y,-z
1/2-x,1/2-y,-z
1/2+x,1/2-y,z
loop_
_atom_site_type_symbol
_atom_site_label
_atom_site_fract_x
_atom_site_fract_y
_atom_site_fract_z
Si Si1 0.204863 0.388954 0.890628
Si Si2 0.020634 0.386095 0.164480
Si Si3 0.429514 0.612527 0.332751
Si Si4 0.144787 0.615606 0.369104
Si Si5 0.602426 0.884153 0.037136
Si Si6 0.785390 0.711973 0.302561
Si Si7 0.670751 0.610316 0.719455
Si Si8 0.347060 0.238040 0.041565
O O1 0.186792 0.500000 0.872296
O O2 0.190725 0.362690 0.735433
O O3 0.162606 0.321130 0.869512
O O4 0.276006 0.369767 0.074024
O O5 0.021657 0.500000 0.183066
O O6 0.089576 0.349107 0.326431
O O7 0.000000 0.358355 0.000000
O O8 0.967859 0.345496 0.125446
O O9 0.500000 0.641778 0.500000
O O10 0.423444 0.500000 0.282285
O O11 0.393904 0.628081 0.366949
O O12 0.398876 0.680633 0.173574
O O13 0.154643 0.500000 0.396617
O O14 0.133710 0.647404 0.220484
O O15 0.201022 0.672632 0.546594
O O16 0.605538 0.000000 0.033913
O O17 0.636083 0.838240 0.012614
O O18 0.817175 0.817433 0.354068
O O19 0.713583 0.712464 0.135229
O O20 0.674683 0.500000 0.683349
#
# Coordination Sequence:
#
# PCOD8082323 Si02
#       8
#     8   8   8   8   8   8   8   8
#     4  10  18  31  51  74  98 127 156 197 254 307
#     4   7  12  27  48  67  89 121 160 191 226 285
#     4  10  20  34  51  70  96 131 170 207 242 286
#     4   9  18  31  50  75 100 130 166 201 241 295
#     4   9  18  33  51  72 102 136 163 196 246 300
#     4  11  19  30  50  75  99 128 166 205 246 292
#     4   9  17  32  49  67  93 125 167 206 242 289
#     4  11  20  33  50  73 101 130 166 203 248 299
#
# _framework density 17.051621000000001
#
# number of rings (size 3 to 8) (size 9 to 14) (size 15 to 20)
#    0.000    2.500    2.500    3.000    0.000    2.500 
#    0.000    0.000    0.000    1.500    0.000    0.000 
#    0.000    6.000    0.000    0.000    0.000    0.000 
#
# Total GULP energy -396469.383610 kJ/mol
# GULP energy per Si atom -12389.668238 kJ/mol
# Density = 1.701281 g / cm^3
# Si number density = 17.051621 Si / 1000 Ang^3
#
#
#
# Elastic Constant Matrix: (Units=GPa)
#
#
# Indices 1 2 3 4 5 6 
#
# 1 68.9966 23.3997 32.5969 0.0000 9.4290 0.0000
# 2 23.3997 63.9018 34.2114 0.0000 10.6528 0.0000
# 3 32.5969 34.2114 67.6624 0.0000 16.3169 0.0000
# 4 0.0000 0.0000 0.0000 20.0794 0.0000 -1.5957
# 5 9.4290 10.6528 16.3169 0.0000 15.0151 0.0000
# 6 0.0000 0.0000 0.0000 -1.5957 0.0000 25.1662
#
#
#
# Elastic Compliance Matrix: (Units=1/GPa)
#
#
# Indices 1 2 3 4 5 6 
#
# 1 0.019182 -0.002738 -0.007345 0.000000 -0.002121 0.000000
# 2 -0.002738 0.022091 -0.008789 0.000000 -0.004403 0.000000
# 3 -0.007345 -0.008789 0.027300 0.000000 -0.018819 0.000000
# 4 0.000000 0.000000 0.000000 0.050055 0.000000 0.003174
# 5 -0.002121 -0.004403 -0.018819 0.000000 0.091505 0.000000
# 6 0.000000 0.000000 0.000000 0.003174 0.000000 0.039937
#
#
# Mechanical properties :
#
#
# Convention : Reuss Voigt Hill
#
# Bulk Modulus (GPa) = 32.43730 42.33076 37.38403
# Shear Modulus (GPa) = 16.77345 19.40899 18.09122
#
# Velocity S-wave (km/s) = 3.13978 3.37745 3.26078
# Velocity P-wave (km/s) = 5.67526 6.33155 6.01237
#
# Compressibility (1/GPa) = 0.03082871
#
# Stress axis : x y z
#
# Youngs Moduli (GPa) = 52.13193 45.26753 36.63039
#
# Poissons Ratio (x) = 0.12395 0.26906
# Poissons Ratio (y) = 0.14274 0.32194
# Poissons Ratio (z) = 0.38292 0.39785
#
# Static dielectric constant tensor:
#      x y z
#    x 3.178640 0.000000 0.269450 
#    y 0.000000 3.101160 0.000000 
#    z 0.269450 0.000000 3.139990 
# 
# 
# High freq. dielectric constant tensor:
#      x y z
#    x 1.647090 0.000000 0.017100 
#    y 0.000000 1.647230 0.000000 
#    z 0.017100 0.000000 1.642340 
# 
# From -- ./inp_files/189476.got.cif
#   From: 2010.06.25/outbox.cif.g09.slc.cpg/sg12_95_cif.got.tgz:189476.got - 2010.06.28 00:19:55.
