data_PCOD8082218
_publ_section_title
;
Structure prediction by ZEFSAII (Michael W. Deem and Ramdas Pophale) SiO2 
 PCOD8082218
Probable space group: C 2/M
;
_chemical_formula_sum "Si O2"
_cell_formula_units_Z 48
_cell_length_a 21.229036
_cell_length_b 13.549763
_cell_length_c 14.797578
_cell_angle_alpha 90.000000
_cell_angle_beta 40.800043
_cell_angle_gamma 90.000000
_cell_volume 2781.287044
_symmetry_space_group_name_H-M "C 2/M"
_symmetry_group_IT_number 12
_symmetry_cell_setting 'monoclinic'
loop_
_space_group_symop_operation_xyz
x,y,z
-x,y,-z
-x,-y,-z
x,-y,z
1/2+x,1/2+y,z
1/2-x,1/2+y,-z
1/2-x,1/2-y,-z
1/2+x,1/2-y,z
loop_
_atom_site_type_symbol
_atom_site_label
_atom_site_fract_x
_atom_site_fract_y
_atom_site_fract_z
Si Si1 0.055051 0.713802 0.525089
Si Si2 0.840912 0.227594 0.960420
Si Si3 0.501350 0.113264 0.763881
Si Si4 0.906936 0.386409 0.151472
Si Si5 0.414788 0.385471 0.724043
Si Si6 0.762284 0.782527 0.762835
O O1 0.047355 0.642956 0.618820
O O2 0.167220 0.721159 0.378244
O O3 0.000000 0.664159 0.500000
O O4 0.008099 0.821710 0.594194
O O5 0.894412 0.135817 0.853287
O O6 0.907276 0.324337 0.889684
O O7 0.750000 0.250000 0.000000
O O8 0.802485 0.208401 0.104173
O O9 0.582124 0.129852 0.752977
O O10 0.467870 0.000000 0.797131
O O11 0.901117 0.500000 0.130524
O O12 0.807423 0.339585 0.228613
O O13 0.000000 0.339142 0.000000
O O14 0.439609 0.500000 0.684420
O O15 0.323492 0.356137 0.760854
#
# Coordination Sequence:
#
# PCOD8082218 Si02
#       6
#     8   8   8   8   8   8
#     4   9  20  35  50  74 103 134 170 204 247 304
#     4   9  18  31  48  72  98 127 165 204 244 297
#     4  10  20  35  52  73 105 135 164 207 253 298
#     4  10  19  30  49  78 102 128 169 209 252 299
#     4   9  18  32  50  72 100 132 165 206 253 292
#     4  10  18  31  50  73 103 130 164 208 251 293
#
# _framework density 17.258196999999999
#
# number of rings (size 3 to 8) (size 9 to 14) (size 15 to 20)
#    0.000    2.500    1.667    1.500    0.000    7.333 
#    0.000    0.833    0.000    0.000    0.000    9.333 
#    0.000    0.000    0.000    0.000    0.000    0.000 
#
# Total GULP energy -297437.154846 kJ/mol
# GULP energy per Si atom -12393.214785 kJ/mol
# Density = 1.721892 g / cm^3
# Si number density = 17.258197 Si / 1000 Ang^3
#
#
#
# Elastic Constant Matrix: (Units=GPa)
#
#
# Indices 1 2 3 4 5 6 
#
# 1 94.6177 27.8614 43.7769 0.0000 -0.5774 0.0000
# 2 27.8614 40.0697 11.4090 0.0000 1.3040 0.0000
# 3 43.7769 11.4090 120.1687 0.0000 4.9707 0.0000
# 4 0.0000 0.0000 0.0000 14.3645 0.0000 3.3904
# 5 -0.5774 1.3040 4.9707 0.0000 28.0204 0.0000
# 6 0.0000 0.0000 0.0000 3.3904 0.0000 20.8674
#
#
#
# Elastic Compliance Matrix: (Units=1/GPa)
#
#
# Indices 1 2 3 4 5 6 
#
# 1 0.015636 -0.009542 -0.004858 0.000000 0.001628 0.000000
# 2 -0.009542 0.031489 0.000559 0.000000 -0.001761 0.000000
# 3 -0.004858 0.000559 0.010118 0.000000 -0.001921 0.000000
# 4 0.000000 0.000000 0.000000 0.072392 0.000000 -0.011762
# 5 0.001628 -0.001761 -0.001921 0.000000 0.036145 0.000000
# 6 0.000000 0.000000 0.000000 -0.011762 0.000000 0.049833
#
#
# Mechanical properties :
#
#
# Convention : Reuss Voigt Hill
#
# Bulk Modulus (GPa) = 33.82666 46.77231 40.29949
# Shear Modulus (GPa) = 19.75140 24.10439 21.92789
#
# Velocity S-wave (km/s) = 3.38666 3.74129 3.56838
# Velocity P-wave (km/s) = 5.91063 6.76929 6.35448
#
# Compressibility (1/GPa) = 0.02956248
#
# Stress axis : x y z
#
# Youngs Moduli (GPa) = 63.95508 31.75680 98.83803
#
# Poissons Ratio (x) = 0.30302 0.48011
# Poissons Ratio (y) = 0.61026 -0.05528
# Poissons Ratio (z) = 0.31066 -0.01776
#
# Static dielectric constant tensor:
#      x y z
#    x 3.280820 0.000000 0.271100 
#    y 0.000000 2.922470 0.000000 
#    z 0.271100 0.000000 3.590010 
# 
# 
# High freq. dielectric constant tensor:
#      x y z
#    x 1.663270 0.000000 0.008990 
#    y 0.000000 1.626830 0.000000 
#    z 0.008990 0.000000 1.681950 
# 
# From -- ./inp_files/165465.got.cif
#   From: 2010.06.25/outbox.cif.g09.slc.cpg/sg12_83_cif.got.tgz:165465.got - 2010.06.28 00:19:55.
