data_PCOD8082130
_publ_section_title
;
Structure prediction by ZEFSAII (Michael W. Deem and Ramdas Pophale) SiO2 
 PCOD8082130
Probable space group: C 2/M
;
_chemical_formula_sum "Si O2"
_cell_formula_units_Z 64
_cell_length_a 24.777765
_cell_length_b 9.149900
_cell_length_c 23.608315
_cell_angle_alpha 90.000000
_cell_angle_beta 134.404906
_cell_angle_gamma 90.000000
_cell_volume 3823.778052
_symmetry_space_group_name_H-M "C 2/M"
_symmetry_group_IT_number 12
_symmetry_cell_setting 'monoclinic'
loop_
_space_group_symop_operation_xyz
x,y,z
-x,y,-z
-x,-y,-z
x,-y,z
1/2+x,1/2+y,z
1/2-x,1/2+y,-z
1/2-x,1/2-y,-z
1/2+x,1/2-y,z
loop_
_atom_site_type_symbol
_atom_site_label
_atom_site_fract_x
_atom_site_fract_y
_atom_site_fract_z
Si Si1 0.830916 0.828861 0.344061
Si Si2 0.041677 0.832550 0.652669
Si Si3 0.698177 0.332100 0.191140
Si Si4 0.222542 0.330431 0.093155
Si Si5 0.024805 0.167142 0.079521
Si Si6 0.920052 0.669478 0.087687
Si Si7 0.935789 0.335225 0.499949
Si Si8 0.112531 0.830548 0.823596
O O1 0.883974 0.795104 0.329216
O O2 0.750584 0.755786 0.273006
O O3 0.864758 0.758411 0.426050
O O4 0.820111 0.000000 0.346364
O O5 0.059537 0.800077 0.730836
O O6 0.970103 0.734743 0.582182
O O7 0.019037 0.000000 0.625496
O O8 0.724722 0.500000 0.207511
O O9 0.700770 0.265829 0.130627
O O10 0.614072 0.319007 0.153399
O O11 0.226039 0.500000 0.114644
O O12 0.302605 0.278381 0.127478
O O13 0.161226 0.301563 0.999774
O O14 0.986395 0.261969 0.099564
O O15 0.997194 0.000000 0.064999
O O16 0.000000 0.228756 0.000000
O O17 0.937608 0.500000 0.106504
O O18 0.921896 0.738717 0.150907
O O19 0.909344 0.500000 0.493394
O O20 0.000000 0.330853 0.500000
O O21 0.112399 0.000000 0.840425
#
# Coordination Sequence:
#
# PCOD8082130 Si02
#       8
#     8   8   8   8   8   8   8   8
#     4  10  18  31  49  71 103 135 168 205 249 306
#     4   9  17  30  48  70  98 138 172 198 245 304
#     4  11  21  32  52  77 100 131 172 214 256 302
#     4  10  20  35  51  72 102 136 171 208 256 306
#     4  10  21  38  55  72  97 133 173 212 261 310
#     4  11  23  35  52  76 100 131 175 221 259 296
#     4   9  17  28  44  70 102 133 166 205 247 293
#     4  10  20  35  52  71 103 141 174 206 249 309
#
# _framework density 16.737373999999999
#
# number of rings (size 3 to 8) (size 9 to 14) (size 15 to 20)
#    0.000    2.000    2.500    1.875    0.000    4.750 
#    0.000    0.000    0.000    0.000    0.000    0.875 
#    0.000    0.000    0.000    0.000    0.000    0.000 
#
# Total GULP energy -396923.645306 kJ/mol
# GULP energy per Si atom -12403.863916 kJ/mol
# Density = 1.669928 g / cm^3
# Si number density = 16.737374 Si / 1000 Ang^3
#
#
#
# Elastic Constant Matrix: (Units=GPa)
#
#
# Indices 1 2 3 4 5 6 
#
# 1 75.2301 44.0331 34.8571 0.0000 -11.6966 0.0000
# 2 44.0331 102.3628 56.7958 0.0000 -3.9267 0.0000
# 3 34.8571 56.7958 100.4521 0.0000 -1.7313 0.0000
# 4 0.0000 0.0000 0.0000 33.1079 0.0000 1.8816
# 5 -11.6966 -3.9267 -1.7313 0.0000 14.5789 0.0000
# 6 0.0000 0.0000 0.0000 1.8816 0.0000 20.3773
#
#
#
# Elastic Compliance Matrix: (Units=1/GPa)
#
#
# Indices 1 2 3 4 5 6 
#
# 1 0.020975 -0.006648 -0.003267 0.000000 0.014650 0.000000
# 2 -0.006648 0.016464 -0.007032 0.000000 -0.001734 0.000000
# 3 -0.003267 -0.007032 0.015017 0.000000 -0.002732 0.000000
# 4 0.000000 0.000000 0.000000 0.030364 0.000000 -0.002804
# 5 0.014650 -0.001734 -0.002732 0.000000 0.079554 0.000000
# 6 0.000000 0.000000 0.000000 -0.002804 0.000000 0.049333
#
#
# Mechanical properties :
#
#
# Convention : Reuss Voigt Hill
#
# Bulk Modulus (GPa) = 53.87164 61.04633 57.45899
# Shear Modulus (GPa) = 19.85792 23.10344 21.48068
#
# Velocity S-wave (km/s) = 3.44821 3.71934 3.58634
# Velocity P-wave (km/s) = 6.93613 7.41599 7.18007
#
# Compressibility (1/GPa) = 0.01856264
#
# Stress axis : x y z
#
# Youngs Moduli (GPa) = 47.67526 60.73859 66.58960
#
# Poissons Ratio (x) = 0.40380 0.21755
# Poissons Ratio (y) = 0.31695 0.46824
# Poissons Ratio (z) = 0.15576 0.42710
#
# Static dielectric constant tensor:
#      x y z
#    x 2.818790 0.000000 0.061790 
#    y 0.000000 3.252650 0.000000 
#    z 0.061790 0.000000 3.222070 
# 
# 
# High freq. dielectric constant tensor:
#      x y z
#    x 1.605440 0.000000 0.003680 
#    y 0.000000 1.655160 0.000000 
#    z 0.003680 0.000000 1.651810 
# 
# From -- ./inp_files/324187.got.cif
#   From: 2010.06.25/outbox.cif.g09.slc.cpg/sg12_163_cif.got.tgz:324187.got - 2010.06.28 00:19:55.
