data_PCOD8082100
_publ_section_title
;
Structure prediction by ZEFSAII (Michael W. Deem and Ramdas Pophale) SiO2 
 PCOD8082100
Probable space group: C 2/M
;
_chemical_formula_sum "Si O2"
_cell_formula_units_Z 64
_cell_length_a 28.645250
_cell_length_b 9.240633
_cell_length_c 14.696041
_cell_angle_alpha 90.000000
_cell_angle_beta 107.673530
_cell_angle_gamma 90.000000
_cell_volume 3706.442618
_symmetry_space_group_name_H-M "C 2/M"
_symmetry_group_IT_number 12
_symmetry_cell_setting 'monoclinic'
loop_
_space_group_symop_operation_xyz
x,y,z
-x,y,-z
-x,-y,-z
x,-y,z
1/2+x,1/2+y,z
1/2-x,1/2+y,-z
1/2-x,1/2-y,-z
1/2+x,1/2-y,z
loop_
_atom_site_type_symbol
_atom_site_label
_atom_site_fract_x
_atom_site_fract_y
_atom_site_fract_z
Si Si1 0.403560 0.827790 0.140641
Si Si2 0.752755 0.336383 0.092900
Si Si3 0.305312 0.830169 0.626472
Si Si4 0.391983 0.832766 0.808827
Si Si5 0.206520 0.670436 0.585633
Si Si6 0.499915 0.832278 0.897551
Si Si7 0.659501 0.170889 0.736121
Si Si8 0.643764 0.335181 0.044427
O O1 0.457021 0.767932 0.141750
O O2 0.389814 0.781905 0.237570
O O3 0.399278 0.000000 0.127615
O O4 0.362934 0.753418 0.052903
O O5 0.767286 0.500000 0.076850
O O6 0.792836 0.267217 0.183530
O O7 0.699968 0.328965 0.110066
O O8 0.750000 0.250000 0.000000
O O9 0.354760 0.781328 0.708072
O O10 0.258177 0.747568 0.637729
O O11 0.313431 0.787713 0.525681
O O12 0.295761 0.000000 0.632167
O O13 0.448704 0.808893 0.813410
O O14 0.387843 0.738723 0.896457
O O15 0.382263 0.000000 0.827792
O O16 0.216461 0.500000 0.599792
O O17 0.165058 0.723748 0.634345
O O18 0.511797 0.000000 0.917223
O O19 0.500000 0.762913 0.000000
O O20 0.661952 0.000000 0.735944
O O21 0.626127 0.500000 0.019768
#
# Coordination Sequence:
#
# PCOD8082100 Si02
#       8
#     8   8   8   8   8   8   8   8
#     4  10  18  31  49  65  87 124 165 192 224 279
#     4  10  19  29  41  61  89 120 151 181 216 264
#     4   9  18  31  50  74  95 121 154 193 236 275
#     4  10  19  32  49  68  92 122 160 198 234 278
#     4   9  17  32  51  71  98 124 151 188 233 286
#     4   9  16  28  48  69  87 119 164 203 231 265
#     4   9  17  29  47  66  88 123 157 184 224 276
#     4  11  21  30  43  68  97 123 153 192 237 276
#
# _framework density 17.267230000000001
#
# number of rings (size 3 to 8) (size 9 to 14) (size 15 to 20)
#    0.000    2.375    2.500    1.125    0.000    2.000 
#    0.000    2.500    0.000    0.750    0.000    5.250 
#    0.000    0.000    0.000    8.500    0.000    9.000 
#
# Total GULP energy -396503.459378 kJ/mol
# GULP energy per Si atom -12390.733106 kJ/mol
# Density = 1.722793 g / cm^3
# Si number density = 17.267230 Si / 1000 Ang^3
#
#
#
# Elastic Constant Matrix: (Units=GPa)
#
#
# Indices 1 2 3 4 5 6 
#
# 1 115.5028 15.7523 53.9862 0.0000 -19.5035 0.0000
# 2 15.7523 31.1566 15.0856 0.0000 -3.9575 0.0000
# 3 53.9862 15.0856 91.0507 0.0000 -17.9724 0.0000
# 4 0.0000 0.0000 0.0000 15.3643 0.0000 0.0253
# 5 -19.5035 -3.9575 -17.9724 0.0000 33.5795 0.0000
# 6 0.0000 0.0000 0.0000 0.0253 0.0000 17.1564
#
#
#
# Elastic Compliance Matrix: (Units=1/GPa)
#
#
# Indices 1 2 3 4 5 6 
#
# 1 0.012594 -0.002868 -0.006278 0.000000 0.003617 0.000000
# 2 -0.002868 0.035587 -0.004133 0.000000 0.000316 0.000000
# 3 -0.006278 -0.004133 0.016296 0.000000 0.004588 0.000000
# 4 0.000000 0.000000 0.000000 0.065086 0.000000 -0.000096
# 5 0.003617 0.000316 0.004588 0.000000 0.034374 0.000000
# 6 0.000000 0.000000 0.000000 -0.000096 0.000000 0.058287
#
#
# Mechanical properties :
#
#
# Convention : Reuss Voigt Hill
#
# Bulk Modulus (GPa) = 26.37260 45.26200 35.81730
# Shear Modulus (GPa) = 19.12607 23.41246 21.26926
#
# Velocity S-wave (km/s) = 3.33175 3.68624 3.51347
# Velocity P-wave (km/s) = 5.48699 6.66238 6.10305
#
# Compressibility (1/GPa) = 0.03791814
#
# Stress axis : x y z
#
# Youngs Moduli (GPa) = 79.40211 28.09978 61.36509
#
# Poissons Ratio (x) = 0.08059 0.38527
# Poissons Ratio (y) = 0.22774 0.25364
# Poissons Ratio (z) = 0.49851 0.11614
#
# Static dielectric constant tensor:
#      x y z
#    x 3.515330 0.000000 -0.178550 
#    y 0.000000 3.031950 0.000000 
#    z -0.178550 0.000000 3.327870 
# 
# 
# High freq. dielectric constant tensor:
#      x y z
#    x 1.666700 0.000000 -0.012900 
#    y 0.000000 1.637790 0.000000 
#    z -0.012900 0.000000 1.649350 
# 
# From -- ./inp_files/248311.got.cif
#   From: 2010.06.25/outbox.cif.g09.slc.cpg/sg12_125_cif.got.tgz:248311.got - 2010.06.28 00:19:55.
