data_PCOD8082026
_publ_section_title
;
Structure prediction by ZEFSAII (Michael W. Deem and Ramdas Pophale) SiO2 
 PCOD8082026
Probable space group: C 2/M
;
_chemical_formula_sum "Si O2"
_cell_formula_units_Z 56
_cell_length_a 11.541958
_cell_length_b 16.554371
_cell_length_c 14.669964
_cell_angle_alpha 90.000000
_cell_angle_beta 58.461694
_cell_angle_gamma 90.000000
_cell_volume 2388.960369
_symmetry_space_group_name_H-M "C 2/M"
_symmetry_group_IT_number 12
_symmetry_cell_setting 'monoclinic'
loop_
_space_group_symop_operation_xyz
x,y,z
-x,y,-z
-x,-y,-z
x,-y,z
1/2+x,1/2+y,z
1/2-x,1/2+y,-z
1/2-x,1/2-y,-z
1/2+x,1/2-y,z
loop_
_atom_site_type_symbol
_atom_site_label
_atom_site_fract_x
_atom_site_fract_y
_atom_site_fract_z
Si Si1 0.411888 0.341995 0.286024
Si Si2 0.384299 0.246170 0.120452
Si Si3 0.427351 0.407753 0.622795
Si Si4 0.464072 0.500000 0.155942
Si Si5 0.120845 0.406097 0.781355
Si Si6 0.856893 0.591942 0.594963
Si Si7 0.856667 0.635069 0.800921
Si Si8 0.788477 0.000000 0.050396
O O1 0.432029 0.271584 0.203480
O O2 0.525376 0.343652 0.318738
O O3 0.414373 0.423324 0.228635
O O4 0.260438 0.346914 0.393928
O O5 0.372457 0.148158 0.128448
O O6 0.235589 0.283498 0.158151
O O7 0.500000 0.272999 0.000000
O O8 0.500000 0.382891 0.500000
O O9 0.466057 0.500000 0.635744
O O10 0.266884 0.400843 0.672557
O O11 0.397262 0.500000 0.085599
O O12 0.628825 0.500000 0.078605
O O13 0.082718 0.500000 0.817922
O O14 0.016577 0.358849 0.757287
O O15 0.837444 0.500000 0.567172
O O16 0.849301 0.591549 0.707365
O O17 0.000000 0.626728 0.500000
O O18 0.802172 0.579807 0.905906
#
# Coordination Sequence:
#
# PCOD8082026 Si02
#       8
#     8   8   8   4   8   8   8   4
#     4  11  20  40  63 102 137 181 238 291 341 425
#     4  11  26  46  73 102 140 188 234 297 364 416
#     4  10  23  44  70  99 139 195 239 275 345 430
#     4  11  18  32  62  97 139 171 235 286 348 404
#     4  11  26  48  69  99 143 188 238 291 348 430
#     4  10  18  30  59  98 137 178 226 292 356 407
#     4  11  21  42  65 100 139 176 237 291 348 412
#     4  11  18  34  61  99 132 181 222 295 346 407
#
# _framework density 23.441158000000001
#
# number of rings (size 3 to 8) (size 9 to 14) (size 15 to 20)
#    0.000    1.286    5.714    0.857    4.000    0.857 
#    2.571    3.571    0.000    0.000    0.000    0.000 
#    0.000    0.000    0.000    0.000    0.000    0.000 
#
# Total GULP energy -346916.199426 kJ/mol
# GULP energy per Si atom -12389.864265 kJ/mol
# Density = 2.338781 g / cm^3
# Si number density = 23.441158 Si / 1000 Ang^3
#
#
#
# Elastic Constant Matrix: (Units=GPa)
#
#
# Indices 1 2 3 4 5 6 
#
# 1 141.8303 42.4092 46.7417 0.0000 -17.0139 0.0000
# 2 42.4092 99.3856 27.5267 0.0000 1.0234 0.0000
# 3 46.7417 27.5267 103.0119 0.0000 -25.5507 0.0000
# 4 0.0000 0.0000 0.0000 21.9849 0.0000 7.0923
# 5 -17.0139 1.0234 -25.5507 0.0000 28.8391 0.0000
# 6 0.0000 0.0000 0.0000 7.0923 0.0000 26.4408
#
#
#
# Elastic Compliance Matrix: (Units=1/GPa)
#
#
# Indices 1 2 3 4 5 6 
#
# 1 0.009261 -0.003299 -0.002482 0.000000 0.003382 0.000000
# 2 -0.003299 0.012375 -0.003078 0.000000 -0.005112 0.000000
# 3 -0.002482 -0.003078 0.014508 0.000000 0.011499 0.000000
# 4 0.000000 0.000000 0.000000 0.049795 0.000000 -0.013357
# 5 0.003382 -0.005112 0.011499 0.000000 0.047040 0.000000
# 6 0.000000 0.000000 0.000000 -0.013357 0.000000 0.041403
#
#
# Mechanical properties :
#
#
# Convention : Reuss Voigt Hill
#
# Bulk Modulus (GPa) = 54.26957 64.17589 59.22273
# Shear Modulus (GPa) = 25.22191 30.62299 27.92245
#
# Velocity S-wave (km/s) = 3.28375 3.61830 3.45508
# Velocity P-wave (km/s) = 6.13017 6.70023 6.42153
#
# Compressibility (1/GPa) = 0.01842653
#
# Stress axis : x y z
#
# Youngs Moduli (GPa) = 107.98315 80.80989 68.92603
#
# Poissons Ratio (x) = 0.26660 0.17105
# Poissons Ratio (y) = 0.35625 0.21214
# Poissons Ratio (z) = 0.26797 0.24872
#
# Static dielectric constant tensor:
#      x y z
#    x 4.532860 0.000000 -0.458440 
#    y 0.000000 4.055070 0.000000 
#    z -0.458440 0.000000 4.273290 
# 
# 
# High freq. dielectric constant tensor:
#      x y z
#    x 1.927490 0.000000 -0.030140 
#    y 0.000000 1.916580 0.000000 
#    z -0.030140 0.000000 1.914630 
# 
# From -- ./inp_files/206608.got.cif
#   From: 2010.06.25/outbox.cif.g09.slc.cpg/sg12_104_cif.got.tgz:206608.got - 2010.06.28 00:19:55.
