data_PCOD8082208
_publ_section_title
;
Structure prediction by ZEFSAII (Michael W. Deem and Ramdas Pophale) SiO2 
 PCOD8082208
Probable space group: C 2/M
;
_chemical_formula_sum "Si O2"
_cell_formula_units_Z 64
_cell_length_a 29.600199
_cell_length_b 13.186968
_cell_length_c 15.000024
_cell_angle_alpha 90.000000
_cell_angle_beta 141.669749
_cell_angle_gamma 90.000000
_cell_volume 3631.270497
_symmetry_space_group_name_H-M "C 2/M"
_symmetry_group_IT_number 12
_symmetry_cell_setting 'monoclinic'
loop_
_space_group_symop_operation_xyz
x,y,z
-x,y,-z
-x,-y,-z
x,-y,z
1/2+x,1/2+y,z
1/2-x,1/2+y,-z
1/2-x,1/2-y,-z
1/2+x,1/2-y,z
loop_
_atom_site_type_symbol
_atom_site_label
_atom_site_fract_x
_atom_site_fract_y
_atom_site_fract_z
Si Si1 0.831753 0.881837 0.249210
Si Si2 0.786981 0.381572 0.796058
Si Si3 0.892095 0.116737 0.164082
Si Si4 0.081577 0.244164 0.967265
Si Si5 0.579153 0.268757 0.301563
Si Si6 0.444443 0.385748 0.560003
Si Si7 0.127429 0.117734 0.198532
Si Si8 0.268645 0.775165 0.428926
O O1 0.752953 0.862374 0.171043
O O2 0.836082 0.841856 0.153581
O O3 0.893506 0.828995 0.408120
O O4 0.849401 0.000000 0.267241
O O5 0.789797 0.500000 0.775752
O O6 0.743310 0.324719 0.650203
O O7 0.868883 0.339951 0.930740
O O8 0.886469 0.190558 0.071187
O O9 0.970947 0.125206 0.333482
O O10 0.876788 0.000000 0.110306
O O11 0.998930 0.287418 0.829692
O O12 0.081034 0.160180 0.044192
O O13 0.568026 0.352728 0.358634
O O14 0.602622 0.323060 0.247428
O O15 0.645004 0.194349 0.437371
O O16 0.417009 0.500000 0.516585
O O17 0.214145 0.135620 0.312613
O O18 0.111034 0.000000 0.184160
O O19 0.250000 0.750000 0.500000
#
# Coordination Sequence:
#
# PCOD8082208 Si02
#       8
#     8   8   8   8   8   8   8   8
#     4   9  16  27  46  70  98 131 165 200 246 296
#     4  10  20  35  52  71  99 135 171 205 242 286
#     4   9  17  28  44  71 105 132 159 201 251 298
#     4  10  21  33  48  72 103 134 165 202 242 295
#     4  10  18  31  50  72  99 127 164 203 244 291
#     4   9  15  24  43  72 101 126 155 200 253 297
#     4  10  20  33  50  72  99 130 160 196 246 301
#     4   9  19  33  51  73  96 122 160 205 241 288
#
# _framework density 17.624686000000001
#
# number of rings (size 3 to 8) (size 9 to 14) (size 15 to 20)
#    0.000    2.500    1.250    1.500    0.000    6.000 
#    0.000    0.625    0.000    9.750    0.000    0.000 
#    0.000    2.250    0.000    0.000    0.000    0.000 
#
# Total GULP energy -396459.090512 kJ/mol
# GULP energy per Si atom -12389.346578 kJ/mol
# Density = 1.758457 g / cm^3
# Si number density = 17.624686 Si / 1000 Ang^3
#
#
#
# Elastic Constant Matrix: (Units=GPa)
#
#
# Indices 1 2 3 4 5 6 
#
# 1 96.7386 17.0728 33.3128 0.0000 -5.3672 0.0000
# 2 17.0728 27.8337 11.4510 0.0000 -1.5810 0.0000
# 3 33.3128 11.4510 87.6068 0.0000 10.8529 0.0000
# 4 0.0000 0.0000 0.0000 14.8174 0.0000 -1.8250
# 5 -5.3672 -1.5810 10.8529 0.0000 30.5698 0.0000
# 6 0.0000 0.0000 0.0000 -1.8250 0.0000 17.8933
#
#
#
# Elastic Compliance Matrix: (Units=1/GPa)
#
#
# Indices 1 2 3 4 5 6 
#
# 1 0.013212 -0.005961 -0.004701 0.000000 0.003680 0.000000
# 2 -0.005961 0.041108 -0.003389 0.000000 0.002283 0.000000
# 3 -0.004701 -0.003389 0.014402 0.000000 -0.006114 0.000000
# 4 0.000000 0.000000 0.000000 0.068347 0.000000 0.006971
# 5 0.003680 0.002283 -0.006114 0.000000 0.035647 0.000000
# 6 0.000000 0.000000 0.000000 0.006971 0.000000 0.056598
#
#
# Mechanical properties :
#
#
# Convention : Reuss Voigt Hill
#
# Bulk Modulus (GPa) = 24.61807 37.31692 30.96749
# Shear Modulus (GPa) = 18.45314 22.67893 20.56603
#
# Velocity S-wave (km/s) = 3.23926 3.59105 3.41968
# Velocity P-wave (km/s) = 5.29043 6.19784 5.76203
#
# Compressibility (1/GPa) = 0.04062057
#
# Stress axis : x y z
#
# Youngs Moduli (GPa) = 75.68828 24.32607 69.43251
#
# Poissons Ratio (x) = 0.14501 0.32638
# Poissons Ratio (y) = 0.45119 0.23532
# Poissons Ratio (z) = 0.35579 0.08245
#
# Static dielectric constant tensor:
#      x y z
#    x 3.608190 0.000000 0.156060 
#    y 0.000000 2.839630 0.000000 
#    z 0.156060 0.000000 3.606160 
# 
# 
# High freq. dielectric constant tensor:
#      x y z
#    x 1.696590 0.000000 -0.002600 
#    y 0.000000 1.620910 0.000000 
#    z -0.002600 0.000000 1.692100 
# 
# From -- ./inp_files/250846.got.cif
#   From: 2010.06.25/outbox.cif.g09.slc.cpg/sg12_126_cif.got.tgz:250846.got - 2010.06.28 00:19:55.
