data_PCOD8082069
_publ_section_title
;
Structure prediction by ZEFSAII (Michael W. Deem and Ramdas Pophale) SiO2 
 PCOD8082069
Probable space group: C 2/M
;
_chemical_formula_sum "Si O2"
_cell_formula_units_Z 48
_cell_length_a 23.856479
_cell_length_b 9.081118
_cell_length_c 13.966049
_cell_angle_alpha 90.000000
_cell_angle_beta 109.543765
_cell_angle_gamma 90.000000
_cell_volume 2851.334460
_symmetry_space_group_name_H-M "C 2/M"
_symmetry_group_IT_number 12
_symmetry_cell_setting 'monoclinic'
loop_
_space_group_symop_operation_xyz
x,y,z
-x,y,-z
-x,-y,-z
x,-y,z
1/2+x,1/2+y,z
1/2-x,1/2+y,-z
1/2-x,1/2-y,-z
1/2+x,1/2-y,z
loop_
_atom_site_type_symbol
_atom_site_label
_atom_site_fract_x
_atom_site_fract_y
_atom_site_fract_z
Si Si1 0.834561 0.671254 0.482951
Si Si2 0.487980 0.172962 0.772021
Si Si3 0.725200 0.169145 0.350757
Si Si4 0.878755 0.330291 0.844810
Si Si5 0.943198 0.166324 0.035515
Si Si6 0.455877 0.668540 0.562867
O O1 0.845933 0.500000 0.470678
O O2 0.783045 0.727752 0.382010
O O3 0.815660 0.703438 0.580945
O O4 0.894286 0.758856 0.495098
O O5 0.426815 0.210503 0.791300
O O6 0.543902 0.240336 0.861631
O O7 0.485788 0.245418 0.667207
O O8 0.497833 0.000000 0.766029
O O9 0.686557 0.203461 0.234247
O O10 0.746119 0.000000 0.365256
O O11 0.886134 0.500000 0.877772
O O12 0.887670 0.234941 0.945859
O O13 0.927417 0.000000 0.055825
O O14 0.000000 0.173966 0.000000
O O15 0.500000 0.679774 0.500000
O O16 0.444459 0.500000 0.586698
#
# Coordination Sequence:
#
# PCOD8082069 Si02
#       6
#     8   8   8   8   8   8
#     4  10  19  32  48  70  95 126 164 199 240 286
#     4  10  18  31  48  67  93 126 162 200 240 283
#     4   9  17  30  47  70  99 129 158 194 241 288
#     4   9  16  28  45  68  97 128 159 191 235 287
#     4   9  17  27  41  66  96 126 158 192 236 286
#     4  11  23  36  50  69  95 129 166 204 245 285
#
# _framework density 16.834223000000001
#
# number of rings (size 3 to 8) (size 9 to 14) (size 15 to 20)
#    0.000    2.333    1.667    2.000    0.000    5.333 
#    0.000    0.000    0.000    0.000    0.000    1.167 
#    0.000    0.000    0.000    0.000    0.000    0.000 
#
# Total GULP energy -297634.000570 kJ/mol
# GULP energy per Si atom -12401.416690 kJ/mol
# Density = 1.679591 g / cm^3
# Si number density = 16.834223 Si / 1000 Ang^3
#
#
#
# Elastic Constant Matrix: (Units=GPa)
#
#
# Indices 1 2 3 4 5 6 
#
# 1 51.0291 41.8950 35.7524 0.0000 13.5058 0.0000
# 2 41.8950 120.8853 65.8517 0.0000 10.6476 0.0000
# 3 35.7524 65.8517 114.4731 0.0000 23.1997 0.0000
# 4 0.0000 0.0000 0.0000 35.2542 0.0000 6.2372
# 5 13.5058 10.6476 23.1997 0.0000 20.0928 0.0000
# 6 0.0000 0.0000 0.0000 6.2372 0.0000 20.8076
#
#
#
# Elastic Compliance Matrix: (Units=1/GPa)
#
#
# Indices 1 2 3 4 5 6 
#
# 1 0.032028 -0.008703 -0.002047 0.000000 -0.014552 0.000000
# 2 -0.008703 0.014481 -0.006844 0.000000 0.006078 0.000000
# 3 -0.002047 -0.006844 0.016056 0.000000 -0.013535 0.000000
# 4 0.000000 0.000000 0.000000 0.029954 0.000000 -0.008979
# 5 -0.014552 0.006078 -0.013535 0.000000 0.071957 0.000000
# 6 0.000000 0.000000 0.000000 -0.008979 0.000000 0.050751
#
#
# Mechanical properties :
#
#
# Convention : Reuss Voigt Hill
#
# Bulk Modulus (GPa) = 36.52896 63.70952 50.11924
# Shear Modulus (GPa) = 19.26480 24.75681 22.01080
#
# Velocity S-wave (km/s) = 3.38654 3.83903 3.61986
# Velocity P-wave (km/s) = 6.08588 7.58804 6.87809
#
# Compressibility (1/GPa) = 0.02737554
#
# Stress axis : x y z
#
# Youngs Moduli (GPa) = 31.22313 69.05379 62.28388
#
# Poissons Ratio (x) = 0.60095 0.12752
# Poissons Ratio (y) = 0.27172 0.42630
# Poissons Ratio (z) = 0.06393 0.47264
#
# Static dielectric constant tensor:
#      x y z
#    x 2.744520 0.000000 0.269010 
#    y 0.000000 3.304900 0.000000 
#    z 0.269010 0.000000 3.228460 
# 
# 
# High freq. dielectric constant tensor:
#      x y z
#    x 1.596300 0.000000 0.029030 
#    y 0.000000 1.663190 0.000000 
#    z 0.029030 0.000000 1.651030 
# 
# From -- ./inp_files/172157.got.cif
#   From: 2010.06.25/outbox.cif.g09.slc.cpg/sg12_87_cif.got.tgz:172157.got - 2010.06.28 00:19:55.
