data_PCOD8082508
_publ_section_title
;
Structure prediction by ZEFSAII (Michael W. Deem and Ramdas Pophale) SiO2 
 PCOD8082508
Probable space group: C 2/M
;
_chemical_formula_sum "Si O2"
_cell_formula_units_Z 64
_cell_length_a 23.067822
_cell_length_b 13.797120
_cell_length_c 12.177035
_cell_angle_alpha 90.000000
_cell_angle_beta 68.899838
_cell_angle_gamma 90.000000
_cell_volume 3615.731128
_symmetry_space_group_name_H-M "C 2/M"
_symmetry_group_IT_number 12
_symmetry_cell_setting 'monoclinic'
loop_
_space_group_symop_operation_xyz
x,y,z
-x,y,-z
-x,-y,-z
x,-y,z
1/2+x,1/2+y,z
1/2-x,1/2+y,-z
1/2-x,1/2-y,-z
1/2+x,1/2-y,z
loop_
_atom_site_type_symbol
_atom_site_label
_atom_site_fract_x
_atom_site_fract_y
_atom_site_fract_z
Si Si1 0.053415 0.776497 0.289659
Si Si2 0.928111 0.887702 0.353273
Si Si3 0.522877 0.105620 0.607766
Si Si4 0.624912 0.239436 0.463474
Si Si5 0.632742 0.610349 0.828622
Si Si6 0.349861 0.290550 0.964208
Si Si7 0.726634 0.109271 0.301132
Si Si8 0.221587 0.610009 0.048487
O O1 0.091111 0.774919 0.376584
O O2 0.096905 0.808458 0.160825
O O3 0.996462 0.851408 0.340578
O O4 0.025635 0.668856 0.287677
O O5 0.873532 0.833638 0.459200
O O6 0.917930 0.868712 0.230426
O O7 0.921974 0.000000 0.385932
O O8 0.500000 0.094723 0.500000
O O9 0.589020 0.157657 0.557492
O O10 0.528776 0.000000 0.659654
O O11 0.691913 0.193136 0.392898
O O12 0.627875 0.500000 0.876045
O O13 0.700685 0.626800 0.730351
O O14 0.621168 0.683120 0.937390
O O15 0.326383 0.179261 0.983023
O O16 0.292435 0.360742 0.973635
O O17 0.708266 0.121796 0.186505
O O18 0.707726 0.000000 0.351827
O O19 0.210838 0.500000 0.016275
#
# Coordination Sequence:
#
# PCOD8082508 Si02
#       8
#     8   8   8   8   8   8   8   8
#     4  10  20  31  50  79 104 134 171 210 263 308
#     4  10  22  38  51  68 103 146 181 211 245 300
#     4   8  15  27  44  71 103 128 159 205 248 301
#     4  10  18  31  52  79 104 130 171 210 268 309
#     4   9  20  37  55  74  98 137 182 215 252 302
#     4  10  18  32  53  77 106 132 169 218 255 301
#     4   9  16  30  55  82 104 127 164 215 262 308
#     4   9  18  31  51  79 108 135 163 206 265 313
#
# _framework density 17.700430999999998
#
# number of rings (size 3 to 8) (size 9 to 14) (size 15 to 20)
#    0.000    2.625    1.250    2.625    0.000    4.000 
#    0.000    1.250    0.000    3.750    0.000    4.375 
#    0.000    0.000    0.000    0.000    0.000    0.000 
#
# Total GULP energy -396674.505279 kJ/mol
# GULP energy per Si atom -12396.078290 kJ/mol
# Density = 1.766014 g / cm^3
# Si number density = 17.700431 Si / 1000 Ang^3
#
#
#
# Elastic Constant Matrix: (Units=GPa)
#
#
# Indices 1 2 3 4 5 6 
#
# 1 30.1386 14.9228 15.7297 0.0000 -0.4327 0.0000
# 2 14.9228 118.3237 43.1331 0.0000 -1.9196 0.0000
# 3 15.7297 43.1331 76.9816 0.0000 -16.7162 0.0000
# 4 0.0000 0.0000 0.0000 29.4651 0.0000 0.1950
# 5 -0.4327 -1.9196 -16.7162 0.0000 22.4459 0.0000
# 6 0.0000 0.0000 0.0000 0.1950 0.0000 19.3316
#
#
#
# Elastic Compliance Matrix: (Units=1/GPa)
#
#
# Indices 1 2 3 4 5 6 
#
# 1 0.038189 -0.002064 -0.007784 0.000000 -0.005238 0.000000
# 2 -0.002064 0.011075 -0.006665 0.000000 -0.004056 0.000000
# 3 -0.007784 -0.006665 0.021662 0.000000 0.015412 0.000000
# 4 0.000000 0.000000 0.000000 0.033941 0.000000 -0.000342
# 5 -0.005238 -0.004056 0.015412 0.000000 0.055582 0.000000
# 6 0.000000 0.000000 0.000000 -0.000342 0.000000 0.051732
#
#
# Mechanical properties :
#
#
# Convention : Reuss Voigt Hill
#
# Bulk Modulus (GPa) = 26.38447 41.44611 33.91529
# Shear Modulus (GPa) = 19.39189 24.35907 21.87548
#
# Velocity S-wave (km/s) = 3.31352 3.71372 3.51931
# Velocity P-wave (km/s) = 5.43853 6.46955 5.97632
#
# Compressibility (1/GPa) = 0.03790108
#
# Stress axis : x y z
#
# Youngs Moduli (GPa) = 26.18534 90.29062 46.16476
#
# Poissons Ratio (x) = 0.18634 0.35936
# Poissons Ratio (y) = 0.05404 0.30767
# Poissons Ratio (z) = 0.20383 0.60175
#
# Static dielectric constant tensor:
#      x y z
#    x 3.128510 0.000000 -0.110360 
#    y 0.000000 3.506090 0.000000 
#    z -0.110360 0.000000 3.125340 
# 
# 
# High freq. dielectric constant tensor:
#      x y z
#    x 1.666430 0.000000 -0.015090 
#    y 0.000000 1.689150 0.000000 
#    z -0.015090 0.000000 1.664010 
# 
# From -- ./inp_files/176118.got.cif
#   From: 2010.06.25/outbox.cif.g09.slc.cpg/sg12_89_cif.got.tgz:176118.got - 2010.06.28 00:19:55.
