data_PCOD8082842
_publ_section_title
;
Structure prediction by ZEFSAII (Michael W. Deem and Ramdas Pophale) SiO2 
 PCOD8082842
Probable space group: C 2/M
;
_chemical_formula_sum "Si O2"
_cell_formula_units_Z 48
_cell_length_a 13.698285
_cell_length_b 29.504922
_cell_length_c 7.639265
_cell_angle_alpha 90.000000
_cell_angle_beta 140.398644
_cell_angle_gamma 90.000000
_cell_volume 1968.126788
_symmetry_space_group_name_H-M "C 2/M"
_symmetry_group_IT_number 12
_symmetry_cell_setting 'monoclinic'
loop_
_space_group_symop_operation_xyz
x,y,z
-x,y,-z
-x,-y,-z
x,-y,z
1/2+x,1/2+y,z
1/2-x,1/2+y,-z
1/2-x,1/2-y,-z
1/2+x,1/2-y,z
loop_
_atom_site_type_symbol
_atom_site_label
_atom_site_fract_x
_atom_site_fract_y
_atom_site_fract_z
Si Si1 0.113230 0.949485 0.320661
Si Si2 0.321299 0.692919 0.766246
Si Si3 0.673911 0.790520 0.195038
Si Si4 0.887487 0.382580 0.008751
Si Si5 0.675666 0.447696 0.873075
Si Si6 0.325229 0.102550 0.391009
O O1 0.248380 0.913140 0.472035
O O2 0.183092 0.000000 0.439692
O O3 0.000000 0.948685 0.000000
O O4 0.006311 0.938274 0.344539
O O5 0.271643 0.740402 0.794549
O O6 0.264830 0.693557 0.489657
O O7 0.241435 0.651533 0.757920
O O8 0.500000 0.683060 0.000000
O O9 0.500000 0.781066 0.000000
O O10 0.684995 0.831886 0.071578
O O11 0.747445 0.418888 0.809109
O O12 0.991094 0.393171 0.324836
O O13 0.000000 0.384754 0.000000
O O14 0.704066 0.500000 0.871148
O O15 0.777360 0.434545 0.182636
#
# Coordination Sequence:
#
# PCOD8082842 Si02
#       6
#     8   8   8   8   8   8
#     4   8  16  33  57  86 119 152 199 257 299 348
#     4  10  18  31  63  92 115 160 210 254 301 375
#     4   9  18  36  55  89 127 160 198 253 319 369
#     4  11  22  39  59  86 129 168 201 254 317 373
#     4  10  22  39  61  92 126 164 213 261 304 366
#     4  11  19  35  64  94 121 162 209 255 307 371
#
# _framework density 24.388673000000001
#
# number of rings (size 3 to 8) (size 9 to 14) (size 15 to 20)
#    0.000    2.167    3.333    3.500    0.000    2.333 
#    0.000    1.667    0.000    2.000    0.000    0.000 
#    0.000    0.000    0.000    0.000    0.000    0.000 
#
# Total GULP energy -297422.338101 kJ/mol
# GULP energy per Si atom -12392.597421 kJ/mol
# Density = 2.433316 g / cm^3
# Si number density = 24.388673 Si / 1000 Ang^3
#
#
#
# Elastic Constant Matrix: (Units=GPa)
#
#
# Indices 1 2 3 4 5 6 
#
# 1 66.8792 48.6963 -7.1551 0.0000 5.8067 0.0000
# 2 48.6963 198.2084 18.3690 0.0000 27.6818 0.0000
# 3 -7.1551 18.3690 78.8502 0.0000 26.9641 0.0000
# 4 0.0000 0.0000 0.0000 19.3116 0.0000 -15.0368
# 5 5.8067 27.6818 26.9641 0.0000 31.5204 0.0000
# 6 0.0000 0.0000 0.0000 -15.0368 0.0000 17.2644
#
#
#
# Elastic Compliance Matrix: (Units=1/GPa)
#
#
# Indices 1 2 3 4 5 6 
#
# 1 0.018944 -0.004637 0.003675 0.000000 -0.002561 0.000000
# 2 -0.004637 0.006902 -0.000351 0.000000 -0.004908 0.000000
# 3 0.003675 -0.000351 0.018692 0.000000 -0.016359 0.000000
# 4 0.000000 0.000000 0.000000 0.160903 0.000000 0.140142
# 5 -0.002561 -0.004908 -0.016359 0.000000 0.050502 0.000000
# 6 0.000000 0.000000 0.000000 0.140142 0.000000 0.179982
#
#
# Mechanical properties :
#
#
# Convention : Reuss Voigt Hill
#
# Bulk Modulus (GPa) = 23.85862 51.52868 37.69365
# Shear Modulus (GPa) = 11.04922 32.55445 21.80183
#
# Velocity S-wave (km/s) = 2.13080 3.65748 2.99311
# Velocity P-wave (km/s) = 3.98217 6.24581 5.23774
#
# Compressibility (1/GPa) = 0.04191357
#
# Stress axis : x y z
#
# Youngs Moduli (GPa) = 52.78619 144.87814 53.49985
#
# Poissons Ratio (x) = 0.67182 -0.19663
# Poissons Ratio (y) = 0.24478 0.01875
# Poissons Ratio (z) = -0.19400 0.05078
#
# Static dielectric constant tensor:
#      x y z
#    x 4.585820 0.000000 0.097620 
#    y 0.000000 4.908000 0.000000 
#    z 0.097620 0.000000 4.428160 
# 
# 
# High freq. dielectric constant tensor:
#      x y z
#    x 1.945580 0.000000 -0.000200 
#    y 0.000000 1.979830 0.000000 
#    z -0.000200 0.000000 1.989810 
# 
# From -- ./inp_files/68369.got.cif
#   From: 2010.06.25/outbox.cif.g09.slc.cpg/sg12_35_cif.got.tgz:68369.got - 2010.06.28 00:19:55.
