data_PCOD8082979
_publ_section_title
;
Structure prediction by ZEFSAII (Michael W. Deem and Ramdas Pophale) SiO2 
 PCOD8082979
Probable space group: C 2/M
;
_chemical_formula_sum "Si O2"
_cell_formula_units_Z 64
_cell_length_a 25.075268
_cell_length_b 9.403495
_cell_length_c 14.520210
_cell_angle_alpha 90.000000
_cell_angle_beta 90.501775
_cell_angle_gamma 90.000000
_cell_volume 3423.663906
_symmetry_space_group_name_H-M "C 2/M"
_symmetry_group_IT_number 12
_symmetry_cell_setting 'monoclinic'
loop_
_space_group_symop_operation_xyz
x,y,z
-x,y,-z
-x,-y,-z
x,-y,z
1/2+x,1/2+y,z
1/2-x,1/2+y,-z
1/2-x,1/2-y,-z
1/2+x,1/2-y,z
loop_
_atom_site_type_symbol
_atom_site_label
_atom_site_fract_x
_atom_site_fract_y
_atom_site_fract_z
Si Si1 0.148765 0.663057 0.335328
Si Si2 0.343085 0.834740 0.280898
Si Si3 0.728820 0.658016 0.231511
Si Si4 0.058240 0.335522 0.833108
Si Si5 0.804189 0.333323 0.476914
Si Si6 0.439991 0.836125 0.806085
Si Si7 0.583798 0.669365 0.009074
Si Si8 0.798401 0.156986 0.971534
O O1 0.156133 0.500000 0.310636
O O2 0.202502 0.737478 0.302839
O O3 0.149259 0.689074 0.445278
O O4 0.095249 0.717392 0.282291
O O5 0.291137 0.802029 0.216768
O O6 0.395393 0.768696 0.231772
O O7 0.330515 0.773774 0.382791
O O8 0.355519 0.000000 0.290815
O O9 0.726549 0.500000 0.274459
O O10 0.695362 0.665199 0.137931
O O11 0.070580 0.500000 0.859821
O O12 0.051112 0.244160 0.926820
O O13 0.002104 0.323475 0.778370
O O14 0.789348 0.500000 0.467889
O O15 0.750000 0.250000 0.500000
O O16 0.426396 0.000000 0.831746
O O17 0.429766 0.736221 0.892995
O O18 0.572440 0.500000 0.011938
O O19 0.645391 0.704172 0.985648
O O20 0.783823 0.000000 0.004709
O O21 0.750000 0.250000 0.000000
#
# Coordination Sequence:
#
# PCOD8082979 Si02
#       8
#     8   8   8   8   8   8   8   8
#     4  10  20  33  52  81 109 133 171 222 264 306
#     4   9  18  33  55  79 106 140 177 217 263 319
#     4  10  18  32  52  74 103 139 174 208 258 322
#     4  10  21  38  57  76 104 147 188 222 266 320
#     4  10  19  33  55  82 110 139 173 216 268 322
#     4  10  21  37  56  78 107 145 187 224 264 317
#     4  11  22  36  55  81 109 139 181 229 273 316
#     4  10  21  33  48  74 107 142 178 215 263 321
#
# _framework density 18.693422000000002
#
# number of rings (size 3 to 8) (size 9 to 14) (size 15 to 20)
#    0.000    2.000    2.500    1.500    0.000    4.500 
#    0.000    1.875    0.000    3.750    0.000    0.000 
#    0.000    4.000    0.000    0.000    0.000    0.000 
#
# Total GULP energy -396587.688504 kJ/mol
# GULP energy per Si atom -12393.365266 kJ/mol
# Density = 1.865088 g / cm^3
# Si number density = 18.693422 Si / 1000 Ang^3
#
#
#
# Elastic Constant Matrix: (Units=GPa)
#
#
# Indices 1 2 3 4 5 6 
#
# 1 95.0832 33.4763 42.9550 0.0000 11.7833 0.0000
# 2 33.4763 48.0135 24.1746 0.0000 1.6542 0.0000
# 3 42.9550 24.1746 82.0960 0.0000 13.9581 0.0000
# 4 0.0000 0.0000 0.0000 18.0855 0.0000 -2.7137
# 5 11.7833 1.6542 13.9581 0.0000 26.1517 0.0000
# 6 0.0000 0.0000 0.0000 -2.7137 0.0000 23.9645
#
#
#
# Elastic Compliance Matrix: (Units=1/GPa)
#
#
# Indices 1 2 3 4 5 6 
#
# 1 0.016499 -0.008643 -0.005407 0.000000 -0.004001 0.000000
# 2 -0.008643 0.029133 -0.004845 0.000000 0.004637 0.000000
# 3 -0.005407 -0.004845 0.017564 0.000000 -0.006632 0.000000
# 4 0.000000 0.000000 0.000000 0.056249 0.000000 0.006369
# 5 -0.004001 0.004637 -0.006632 0.000000 0.043288 0.000000
# 6 0.000000 0.000000 0.000000 0.006369 0.000000 0.042450
#
#
# Mechanical properties :
#
#
# Convention : Reuss Voigt Hill
#
# Bulk Modulus (GPa) = 39.36099 47.37828 43.36963
# Shear Modulus (GPa) = 19.88536 21.94613 20.91574
#
# Velocity S-wave (km/s) = 3.26508 3.43009 3.34860
# Velocity P-wave (km/s) = 5.94273 6.40993 6.18075
#
# Compressibility (1/GPa) = 0.02540587
#
# Stress axis : x y z
#
# Youngs Moduli (GPa) = 60.61077 34.32504 56.93348
#
# Poissons Ratio (x) = 0.29667 0.30785
# Poissons Ratio (y) = 0.52386 0.27584
# Poissons Ratio (z) = 0.32774 0.16630
#
# Static dielectric constant tensor:
#      x y z
#    x 3.582840 0.000000 0.140870 
#    y 0.000000 3.350940 0.000000 
#    z 0.140870 0.000000 3.194650 
# 
# 
# High freq. dielectric constant tensor:
#      x y z
#    x 1.729080 0.000000 0.014820 
#    y 0.000000 1.708250 0.000000 
#    z 0.014820 0.000000 1.718980 
# 
# From -- ./inp_files/238749.got.cif
#   From: 2010.06.25/outbox.cif.g09.slc.cpg/sg12_120_cif.got.tgz:238749.got - 2010.06.28 00:19:55.
