data_PCOD8082289
_publ_section_title
;
Structure prediction by ZEFSAII (Michael W. Deem and Ramdas Pophale) SiO2 
 PCOD8082289
Probable space group: C 2/M
;
_chemical_formula_sum "Si O2"
_cell_formula_units_Z 56
_cell_length_a 15.240594
_cell_length_b 22.929757
_cell_length_c 10.191173
_cell_angle_alpha 90.000000
_cell_angle_beta 95.325696
_cell_angle_gamma 90.000000
_cell_volume 3546.064961
_symmetry_space_group_name_H-M "C 2/M"
_symmetry_group_IT_number 12
_symmetry_cell_setting 'monoclinic'
loop_
_space_group_symop_operation_xyz
x,y,z
-x,y,-z
-x,-y,-z
x,-y,z
1/2+x,1/2+y,z
1/2-x,1/2+y,-z
1/2-x,1/2-y,-z
1/2+x,1/2-y,z
loop_
_atom_site_type_symbol
_atom_site_label
_atom_site_fract_x
_atom_site_fract_y
_atom_site_fract_z
Si Si1 0.674284 0.066597 0.376954
Si Si2 0.436028 0.789420 0.112178
Si Si3 0.000558 0.365454 0.351686
Si Si4 0.911570 0.840763 0.059404
Si Si5 0.764173 0.635625 0.080115
Si Si6 0.298434 0.567346 0.158183
Si Si7 0.826728 0.566768 0.327073
O O1 0.594639 0.108473 0.325441
O O2 0.756012 0.079267 0.293625
O O3 0.706471 0.078699 0.529701
O O4 0.641551 0.000000 0.358512
O O5 0.478838 0.812864 0.251504
O O6 0.425551 0.720533 0.133904
O O7 0.341651 0.817993 0.070235
O O8 0.500000 0.803400 0.000000
O O9 0.929575 0.417228 0.328694
O O10 0.000000 0.340731 0.500000
O O11 0.885556 0.891697 0.159640
O O12 0.831260 0.832792 0.943357
O O13 0.000000 0.861360 0.000000
O O14 0.768389 0.606127 0.223083
O O15 0.770424 0.586191 0.966455
O O16 0.325093 0.500000 0.144080
O O17 0.814992 0.500000 0.284592
#
# Coordination Sequence:
#
# PCOD8082289 Si02
#       7
#     8   8   8   8   8   8   8
#     4   9  16  28  46  72 103 131 154 182 229 288
#     4  10  18  31  51  71  97 127 155 192 238 285
#     4   9  17  28  46  71 103 131 157 183 223 285
#     4   9  20  34  51  67  90 122 167 204 242 281
#     4   9  18  30  49  71  96 119 160 198 233 280
#     4   9  18  30  48  69  93 119 156 201 239 274
#     4   9  16  27  46  71 101 132 156 184 229 285
#
# _framework density 15.792152
#
# number of rings (size 3 to 8) (size 9 to 14) (size 15 to 20)
#    0.857    2.000    0.000    2.143    0.000    2.000 
#    0.000    0.000    6.286    9.429    0.000    3.000 
#    0.000    0.000    0.000    0.000    0.000    0.000 
#
# Total GULP energy -347056.693969 kJ/mol
# GULP energy per Si atom -12394.881927 kJ/mol
# Density = 1.575621 g / cm^3
# Si number density = 15.792152 Si / 1000 Ang^3
#
#
#
# Elastic Constant Matrix: (Units=GPa)
#
#
# Indices 1 2 3 4 5 6 
#
# 1 94.7710 50.9922 45.1679 0.0000 -13.5261 0.0000
# 2 50.9922 99.3079 50.8247 0.0000 -15.7057 0.0000
# 3 45.1679 50.8247 94.0162 0.0000 -10.4102 0.0000
# 4 0.0000 0.0000 0.0000 23.9480 0.0000 -2.2182
# 5 -13.5261 -15.7057 -10.4102 0.0000 21.5346 0.0000
# 6 0.0000 0.0000 0.0000 -2.2182 0.0000 24.7932
#
#
#
# Elastic Compliance Matrix: (Units=1/GPa)
#
#
# Indices 1 2 3 4 5 6 
#
# 1 0.016122 -0.005392 -0.004379 0.000000 0.004077 0.000000
# 2 -0.005392 0.016763 -0.005803 0.000000 0.006033 0.000000
# 3 -0.004379 -0.005803 0.015958 0.000000 0.000732 0.000000
# 4 0.000000 0.000000 0.000000 0.042106 0.000000 0.003767
# 5 0.004077 0.006033 0.000732 0.000000 0.053751 0.000000
# 6 0.000000 0.000000 0.000000 0.003767 0.000000 0.040671
#
#
# Mechanical properties :
#
#
# Convention : Reuss Voigt Hill
#
# Bulk Modulus (GPa) = 56.51597 64.67385 60.59491
# Shear Modulus (GPa) = 22.48018 23.46252 22.97135
#
# Velocity S-wave (km/s) = 3.77703 3.85867 3.81807
# Velocity P-wave (km/s) = 7.40853 7.80349 7.60857
#
# Compressibility (1/GPa) = 0.01769411
#
# Stress axis : x y z
#
# Youngs Moduli (GPa) = 62.02685 59.65630 62.66306
#
# Poissons Ratio (x) = 0.32169 0.27440
# Poissons Ratio (y) = 0.33448 0.36364
# Poissons Ratio (z) = 0.27161 0.34619
#
# Static dielectric constant tensor:
#      x y z
#    x 2.833260 0.000000 -0.023110 
#    y 0.000000 2.886190 0.000000 
#    z -0.023110 0.000000 3.004260 
# 
# 
# High freq. dielectric constant tensor:
#      x y z
#    x 1.591970 0.000000 -0.005870 
#    y 0.000000 1.602540 0.000000 
#    z -0.005870 0.000000 1.602480 
# 
# From -- ./inp_files/78460.got.cif
#   From: 2010.06.25/outbox.cif.g09.slc.cpg/sg12_40_cif.got.tgz:78460.got - 2010.06.28 00:19:55.
