data_PCOD8082795
_publ_section_title
;
Structure prediction by ZEFSAII (Michael W. Deem and Ramdas Pophale) SiO2 
 PCOD8082795
Probable space group: C 2/M
;
_chemical_formula_sum "Si O2"
_cell_formula_units_Z 48
_cell_length_a 8.862664
_cell_length_b 22.596486
_cell_length_c 22.010386
_cell_angle_alpha 90.000000
_cell_angle_beta 146.229001
_cell_angle_gamma 90.000000
_cell_volume 2450.247410
_symmetry_space_group_name_H-M "C 2/M"
_symmetry_group_IT_number 12
_symmetry_cell_setting 'monoclinic'
loop_
_space_group_symop_operation_xyz
x,y,z
-x,y,-z
-x,-y,-z
x,-y,z
1/2+x,1/2+y,z
1/2-x,1/2+y,-z
1/2-x,1/2-y,-z
1/2+x,1/2-y,z
loop_
_atom_site_type_symbol
_atom_site_label
_atom_site_fract_x
_atom_site_fract_y
_atom_site_fract_z
Si Si1 0.881129 0.834900 0.831941
Si Si2 0.445803 0.126639 0.052001
Si Si3 0.422032 0.432038 0.538375
Si Si4 0.867886 0.068715 0.267122
Si Si5 0.240132 0.261953 0.124948
Si Si6 0.305779 0.931800 0.316891
O O1 0.684873 0.795681 0.809573
O O2 0.709717 0.888699 0.746544
O O3 0.999453 0.788853 0.821750
O O4 0.125274 0.864148 0.953030
O O5 0.563510 0.079301 0.139570
O O6 0.608362 0.186632 0.122714
O O7 0.500000 0.107215 0.000000
O O8 0.500000 0.400964 0.500000
O O9 0.514786 0.500000 0.564385
O O10 0.580600 0.402412 0.648860
O O11 0.102740 0.426373 0.445156
O O12 0.087041 0.092701 0.291857
O O13 0.923452 0.000000 0.293102
O O14 0.000000 0.241645 0.000000
O O15 0.246839 0.000000 0.277429
#
# Coordination Sequence:
#
# PCOD8082795 Si02
#       6
#     8   8   8   8   8   8
#     4  10  19  34  54  83 109 147 175 228 264 316
#     4   9  16  30  49  79 111 134 175 219 263 308
#     4   9  19  36  54  76 107 141 182 223 265 324
#     4  10  18  31  56  81 107 145 179 218 269 323
#     4   9  17  33  52  74 106 143 190 217 254 308
#     4  10  19  34  56  83 109 138 178 222 271 321
#
# _framework density 19.589856999999999
#
# number of rings (size 3 to 8) (size 9 to 14) (size 15 to 20)
#    0.000    2.833    3.333    2.500    0.000    3.000 
#    6.000    0.000    0.000    1.500    0.000    0.000 
#    0.000    0.000    0.000    0.000    0.000    0.000 
#
# Total GULP energy -297356.581609 kJ/mol
# GULP energy per Si atom -12389.857567 kJ/mol
# Density = 1.954527 g / cm^3
# Si number density = 19.589857 Si / 1000 Ang^3
#
#
#
# Elastic Constant Matrix: (Units=GPa)
#
#
# Indices 1 2 3 4 5 6 
#
# 1 44.6820 22.0277 31.7523 0.0007 -10.5604 0.0023
# 2 22.0277 50.7203 35.2647 0.0050 -18.1344 0.0014
# 3 31.7523 35.2647 104.9355 0.0116 -17.8659 0.0087
# 4 0.0007 0.0050 0.0116 15.2145 0.0073 -9.6626
# 5 -10.5604 -18.1344 -17.8659 0.0073 23.3349 0.0071
# 6 0.0023 0.0014 0.0087 -9.6626 0.0071 21.8319
#
#
#
# Elastic Compliance Matrix: (Units=1/GPa)
#
#
# Indices 1 2 3 4 5 6 
#
# 1 0.031647 -0.008283 -0.006267 0.000005 0.003087 0.000001
# 2 -0.008283 0.033796 -0.005770 -0.000025 0.018098 -0.000016
# 3 -0.006267 -0.005770 0.013935 -0.000019 0.003349 -0.000014
# 4 0.000005 -0.000025 -0.000019 0.091425 -0.000073 0.040464
# 5 0.003087 0.018098 0.003349 -0.000073 0.060880 -0.000055
# 6 0.000001 -0.000016 -0.000014 0.040464 -0.000055 0.063714
#
#
# Mechanical properties :
#
#
# Convention : Reuss Voigt Hill
#
# Bulk Modulus (GPa) = 25.81451 42.04749 33.93100
# Shear Modulus (GPa) = 14.32876 19.49578 16.91227
#
# Velocity S-wave (km/s) = 2.70744 3.15810 2.94141
# Velocity P-wave (km/s) = 4.79372 5.89988 5.37533
#
# Compressibility (1/GPa) = 0.03873790
#
# Stress axis : x y z
#
# Youngs Moduli (GPa) = 31.59873 29.58968 71.76127
#
# Poissons Ratio (x) = 0.24510 0.44971
# Poissons Ratio (y) = 0.26174 0.41404
# Poissons Ratio (z) = 0.19802 0.17072
#
# Static dielectric constant tensor:
#      x y z
#    x 3.470710 0.000000 -0.236340 
#    y 0.000000 3.349540 -0.000010 
#    z -0.236340 -0.000010 3.464510 
# 
# 
# High freq. dielectric constant tensor:
#      x y z
#    x 1.746580 0.000000 -0.010630 
#    y 0.000000 1.729480 0.000000 
#    z -0.010630 0.000000 1.746370 
# 
# From -- ./inp_files/302185.got.cif
#   From: 2010.06.25/outbox.cif.g09.slc.cpg/sg12_152_cif.got.tgz:302185.got - 2010.06.28 00:19:55.
