data_PCOD8082412
_publ_section_title
;
Structure prediction by ZEFSAII (Michael W. Deem and Ramdas Pophale) SiO2 
 PCOD8082412
Probable space group: C 2/M
;
_chemical_formula_sum "Si O2"
_cell_formula_units_Z 48
_cell_length_a 19.295323
_cell_length_b 9.087441
_cell_length_c 21.748686
_cell_angle_alpha 90.000000
_cell_angle_beta 135.102912
_cell_angle_gamma 90.000000
_cell_volume 2691.722100
_symmetry_space_group_name_H-M "C 2/M"
_symmetry_group_IT_number 12
_symmetry_cell_setting 'monoclinic'
loop_
_space_group_symop_operation_xyz
x,y,z
-x,y,-z
-x,-y,-z
x,-y,z
1/2+x,1/2+y,z
1/2-x,1/2+y,-z
1/2-x,1/2-y,-z
1/2+x,1/2-y,z
loop_
_atom_site_type_symbol
_atom_site_label
_atom_site_fract_x
_atom_site_fract_y
_atom_site_fract_z
Si Si1 0.540317 0.172461 0.742164
Si Si2 0.723758 0.826834 0.777342
Si Si3 0.679804 0.168934 0.409485
Si Si4 0.476600 0.672794 0.145765
Si Si5 0.681656 0.828155 0.270826
Si Si6 0.903200 0.172344 0.970399
O O1 0.616567 0.210783 0.736510
O O2 0.432336 0.224981 0.653101
O O3 0.571095 0.257413 0.823445
O O4 0.539656 0.000000 0.758119
O O5 0.734641 0.739862 0.720249
O O6 0.804613 0.766060 0.876682
O O7 0.734968 0.000000 0.771995
O O8 0.750000 0.250000 0.500000
O O9 0.715457 0.197284 0.362257
O O10 0.685467 0.000000 0.430957
O O11 0.493486 0.500000 0.165874
O O12 0.580403 0.744979 0.193926
O O13 0.402408 0.705732 0.042768
O O14 0.666720 0.000000 0.247747
O O15 0.905834 0.000000 0.959570
O O16 0.000000 0.244102 0.000000
#
# Coordination Sequence:
#
# PCOD8082412 Si02
#       6
#     8   8   8   8   8   8
#     4   9  20  36  52  75 108 135 165 213 261 300
#     4  10  19  34  54  74 103 144 174 204 255 302
#     4   9  19  36  56  77  99 127 164 208 254 307
#     4  10  18  31  52  74 100 140 182 212 247 299
#     4  10  20  34  52  77 107 132 166 215 256 297
#     4   9  16  28  48  75 103 132 178 221 242 283
#
# _framework density 17.832450000000001
#
# number of rings (size 3 to 8) (size 9 to 14) (size 15 to 20)
#    0.000    2.500    1.667    2.000    0.000    4.667 
#    0.000    3.333    0.000    5.000    0.000    0.000 
#    0.000    0.000    0.000    0.000    0.000    0.000 
#
# Total GULP energy -297567.697514 kJ/mol
# GULP energy per Si atom -12398.654063 kJ/mol
# Density = 1.779186 g / cm^3
# Si number density = 17.832450 Si / 1000 Ang^3
#
#
#
# Elastic Constant Matrix: (Units=GPa)
#
#
# Indices 1 2 3 4 5 6 
#
# 1 130.4789 47.7663 54.1796 0.0000 -5.4150 0.0000
# 2 47.7663 62.9589 38.1544 0.0000 -7.7565 0.0000
# 3 54.1796 38.1544 109.3645 0.0000 -4.1451 0.0000
# 4 0.0000 0.0000 0.0000 24.9032 0.0000 -6.7396
# 5 -5.4150 -7.7565 -4.1451 0.0000 18.6221 0.0000
# 6 0.0000 0.0000 0.0000 -6.7396 0.0000 30.2014
#
#
#
# Elastic Compliance Matrix: (Units=1/GPa)
#
#
# Indices 1 2 3 4 5 6 
#
# 1 0.011514 -0.006719 -0.003367 0.000000 -0.000200 0.000000
# 2 -0.006719 0.024978 -0.005108 0.000000 0.007313 0.000000
# 3 -0.003367 -0.005108 0.012582 0.000000 -0.000306 0.000000
# 4 0.000000 0.000000 0.000000 0.042737 0.000000 0.009537
# 5 -0.000200 0.007313 -0.000306 0.000000 0.056619 0.000000
# 6 0.000000 0.000000 0.000000 0.009537 0.000000 0.035239
#
#
# Mechanical properties :
#
#
# Convention : Reuss Voigt Hill
#
# Bulk Modulus (GPa) = 53.52076 64.77810 59.14943
# Shear Modulus (GPa) = 22.69761 25.59213 24.14487
#
# Velocity S-wave (km/s) = 3.57154 3.79244 3.68365
# Velocity P-wave (km/s) = 6.86193 7.45531 7.16477
#
# Compressibility (1/GPa) = 0.01868434
#
# Stress axis : x y z
#
# Youngs Moduli (GPa) = 86.85143 40.03534 79.47591
#
# Poissons Ratio (x) = 0.26902 0.26763
# Poissons Ratio (y) = 0.58360 0.40597
# Poissons Ratio (z) = 0.29246 0.20451
#
# Static dielectric constant tensor:
#      x y z
#    x 3.369440 0.000000 -0.050980 
#    y 0.000000 3.181070 0.000000 
#    z -0.050980 0.000000 3.223180 
# 
# 
# High freq. dielectric constant tensor:
#      x y z
#    x 1.688770 0.000000 -0.010030 
#    y 0.000000 1.676520 0.000000 
#    z -0.010030 0.000000 1.678070 
# 
# From -- ./inp_files/313628.got.cif
#   From: 2010.06.25/outbox.cif.g09.slc.cpg/sg12_157_cif.got.tgz:313628.got - 2010.06.28 00:19:55.
