data_PCOD8082641
_publ_section_title
;
Structure prediction by ZEFSAII (Michael W. Deem and Ramdas Pophale) SiO2 
 PCOD8082641
Probable space group: C 2/M
;
_chemical_formula_sum "Si O2"
_cell_formula_units_Z 48
_cell_length_a 23.725035
_cell_length_b 14.378260
_cell_length_c 13.592859
_cell_angle_alpha 90.000000
_cell_angle_beta 147.256852
_cell_angle_gamma 90.000000
_cell_volume 2507.956627
_symmetry_space_group_name_H-M "C 2/M"
_symmetry_group_IT_number 12
_symmetry_cell_setting 'monoclinic'
loop_
_space_group_symop_operation_xyz
x,y,z
-x,y,-z
-x,-y,-z
x,-y,z
1/2+x,1/2+y,z
1/2-x,1/2+y,-z
1/2-x,1/2-y,-z
1/2+x,1/2-y,z
loop_
_atom_site_type_symbol
_atom_site_label
_atom_site_fract_x
_atom_site_fract_y
_atom_site_fract_z
Si Si1 0.607925 0.196671 0.717068
Si Si2 0.041359 0.500000 0.860435
Si Si3 0.071489 0.500000 0.698649
Si Si4 0.493573 0.306350 0.702398
Si Si5 0.282978 0.500000 0.191666
Si Si6 0.550504 0.803330 0.969864
Si Si7 0.538966 0.500000 0.673421
Si Si8 0.790842 0.193506 0.294647
O O1 0.500000 0.200454 0.500000
O O2 0.587305 0.251510 0.787176
O O3 0.700248 0.243370 0.790319
O O4 0.642428 0.092713 0.797842
O O5 0.992087 0.500000 0.677999
O O6 0.014613 0.406661 0.881044
O O7 0.160433 0.500000 0.997401
O O8 0.000000 0.500000 0.500000
O O9 0.508063 0.279412 0.837935
O O10 0.505566 0.413896 0.692108
O O11 0.376590 0.273469 0.500343
O O12 0.336241 0.500000 0.161640
O O13 0.319545 0.588022 0.309321
O O14 0.500000 0.784361 0.000000
O O15 0.674828 0.797978 0.166476
O O16 0.500000 0.500000 0.500000
#
# Coordination Sequence:
#
# PCOD8082641 Si02
#       8
#     8   4   4   8   4   8   4   8
#     4   9  17  30  53  86 116 145 171 222 291 356
#     4  10  21  38  59  83 113 155 192 241 287 333
#     4  10  18  31  53  86 124 146 169 218 297 368
#     4  11  20  35  62  86 117 151 183 240 294 334
#     4  10  18  31  58  90 118 142 185 229 284 356
#     4  11  25  41  58  81 113 159 208 240 272 328
#     4  12  18  34  61  93 120 145 182 229 298 366
#     4  10  20  36  58  88 118 145 191 237 289 350
#
# _framework density 19.139087
#
# number of rings (size 3 to 8) (size 9 to 14) (size 15 to 20)
#    0.000    1.667    5.000    0.750    0.000    2.667 
#    0.000    0.417    0.000    0.000    0.000    0.000 
#    0.000    0.000    0.000    0.000    0.000    0.000 
#
# Total GULP energy -297416.619821 kJ/mol
# GULP energy per Si atom -12392.359159 kJ/mol
# Density = 1.909553 g / cm^3
# Si number density = 19.139087 Si / 1000 Ang^3
#
#
#
# Elastic Constant Matrix: (Units=GPa)
#
#
# Indices 1 2 3 4 5 6 
#
# 1 154.8734 62.2570 49.2523 0.0000 -8.6113 0.0000
# 2 62.2570 151.5061 27.6332 0.0000 -7.4087 0.0000
# 3 49.2523 27.6332 66.0230 0.0000 -2.8826 0.0000
# 4 0.0000 0.0000 0.0000 18.6001 0.0000 -0.6012
# 5 -8.6113 -7.4087 -2.8826 0.0000 28.7107 0.0000
# 6 0.0000 0.0000 0.0000 -0.6012 0.0000 23.9809
#
#
#
# Elastic Compliance Matrix: (Units=1/GPa)
#
#
# Indices 1 2 3 4 5 6 
#
# 1 0.009525 -0.002766 -0.005880 0.000000 0.001553 0.000000
# 2 -0.002766 0.008018 -0.001244 0.000000 0.001115 0.000000
# 3 -0.005880 -0.001244 0.020050 0.000000 -0.000072 0.000000
# 4 0.000000 0.000000 0.000000 0.053807 0.000000 0.001349
# 5 0.001553 0.001115 -0.000072 0.000000 0.035576 0.000000
# 6 0.000000 0.000000 0.000000 0.001349 0.000000 0.041734
#
#
# Mechanical properties :
#
#
# Convention : Reuss Voigt Hill
#
# Bulk Modulus (GPa) = 56.13662 72.29861 64.21761
# Shear Modulus (GPa) = 25.71644 29.80903 27.76274
#
# Velocity S-wave (km/s) = 3.66957 3.95079 3.81278
# Velocity P-wave (km/s) = 6.88106 7.65957 7.28073
#
# Compressibility (1/GPa) = 0.01781368
#
# Stress axis : x y z
#
# Youngs Moduli (GPa) = 104.98745 124.71532 49.87426
#
# Poissons Ratio (x) = 0.34491 0.29327
# Poissons Ratio (y) = 0.29035 0.06205
# Poissons Ratio (z) = 0.61735 0.15517
#
# Static dielectric constant tensor:
#      x y z
#    x 3.288310 0.000000 -0.046940 
#    y 0.000000 3.911470 0.000000 
#    z -0.046940 0.000000 3.469020 
# 
# 
# High freq. dielectric constant tensor:
#      x y z
#    x 1.713660 0.000000 -0.004680 
#    y 0.000000 1.753410 0.000000 
#    z -0.004680 0.000000 1.739640 
# 
# From -- ./inp_files/233510.got.cif
#   From: 2010.06.25/outbox.cif.g09.slc.cpg/sg12_117_cif.got.tgz:233510.got - 2010.06.28 00:19:55.
