data_PCOD8082358
_publ_section_title
;
Structure prediction by ZEFSAII (Michael W. Deem and Ramdas Pophale) SiO2 
 PCOD8082358
Probable space group: C 2/M
;
_chemical_formula_sum "Si O2"
_cell_formula_units_Z 56
_cell_length_a 19.774598
_cell_length_b 22.428083
_cell_length_c 12.239585
_cell_angle_alpha 90.000000
_cell_angle_beta 149.253659
_cell_angle_gamma 90.000000
_cell_volume 2775.171390
_symmetry_space_group_name_H-M "C 2/M"
_symmetry_group_IT_number 12
_symmetry_cell_setting 'monoclinic'
loop_
_space_group_symop_operation_xyz
x,y,z
-x,y,-z
-x,-y,-z
x,-y,z
1/2+x,1/2+y,z
1/2-x,1/2+y,-z
1/2-x,1/2-y,-z
1/2+x,1/2-y,z
loop_
_atom_site_type_symbol
_atom_site_label
_atom_site_fract_x
_atom_site_fract_y
_atom_site_fract_z
Si Si1 0.590480 0.567190 0.371762
Si Si2 0.873241 0.159147 0.401907
Si Si3 0.117148 0.279936 0.469348
Si Si4 0.146013 0.280167 0.973920
Si Si5 0.853711 0.136884 0.765314
Si Si6 0.707125 0.433380 0.106575
Si Si7 0.835052 0.318954 0.239029
O O1 0.645898 0.500000 0.446107
O O2 0.631042 0.595815 0.543986
O O3 0.652341 0.603401 0.358012
O O4 0.432585 0.567105 0.147132
O O5 0.874235 0.209481 0.497256
O O6 0.000000 0.165232 0.500000
O O7 0.738188 0.166011 0.144060
O O8 0.255833 0.306731 0.621591
O O9 0.070121 0.312239 0.521219
O O10 0.011146 0.289807 0.222245
O O11 0.133633 0.280365 0.823980
O O12 0.199743 0.216404 0.093394
O O13 0.803898 0.088740 0.784466
O O14 0.000000 0.159692 0.000000
O O15 0.767725 0.500000 0.189514
O O16 0.803749 0.388450 0.174121
#
# Coordination Sequence:
#
# PCOD8082358 Si02
#       7
#     8   8   8   8   8   8   8
#     4  10  20  35  54  76 106 143 182 222 260 303
#     4  11  22  35  54  82 112 140 174 215 260 318
#     4  10  19  33  56  81 106 137 172 217 270 317
#     4  10  18  31  51  77 109 142 174 209 258 320
#     4   9  19  35  56  81 105 133 176 225 268 310
#     4   9  16  29  53  80 102 130 173 225 273 310
#     4   9  17  30  51  77 108 137 170 214 264 318
#
# _framework density 20.178934000000002
#
# number of rings (size 3 to 8) (size 9 to 14) (size 15 to 20)
#    0.000    2.286    0.000    5.143    0.000    3.714 
#    0.000    1.429    0.000   12.857    0.000    0.000 
#    0.000    0.000    0.000    0.000    0.000    0.000 
#
# Total GULP energy -346970.434847 kJ/mol
# GULP energy per Si atom -12391.801245 kJ/mol
# Density = 2.013301 g / cm^3
# Si number density = 20.178934 Si / 1000 Ang^3
#
#
#
# Elastic Constant Matrix: (Units=GPa)
#
#
# Indices 1 2 3 4 5 6 
#
# 1 26.7653 21.7350 13.2302 0.0000 -6.1177 0.0000
# 2 21.7350 102.6623 32.7151 0.0000 -6.6057 0.0000
# 3 13.2302 32.7151 131.7588 0.0000 -5.2362 0.0000
# 4 0.0000 0.0000 0.0000 24.1758 0.0000 0.2927
# 5 -6.1177 -6.6057 -5.2362 0.0000 14.3704 0.0000
# 6 0.0000 0.0000 0.0000 0.2927 0.0000 28.1708
#
#
#
# Elastic Compliance Matrix: (Units=1/GPa)
#
#
# Indices 1 2 3 4 5 6 
#
# 1 0.049167 -0.008689 -0.002138 0.000000 0.016159 0.000000
# 2 -0.008689 0.012340 -0.002144 0.000000 0.001192 0.000000
# 3 -0.002138 -0.002144 0.008383 0.000000 0.001159 0.000000
# 4 0.000000 0.000000 0.000000 0.041369 0.000000 -0.000430
# 5 0.016159 0.001192 0.001159 0.000000 0.077437 0.000000
# 6 0.000000 0.000000 0.000000 -0.000430 0.000000 0.035502
#
#
# Mechanical properties :
#
#
# Convention : Reuss Voigt Hill
#
# Bulk Modulus (GPa) = 22.75326 44.06078 33.40702
# Shear Modulus (GPa) = 18.88299 26.24381 22.56340
#
# Velocity S-wave (km/s) = 3.06237 3.61023 3.34753
# Velocity P-wave (km/s) = 4.87897 6.26585 5.61539
#
# Compressibility (1/GPa) = 0.04394974
#
# Stress axis : x y z
#
# Youngs Moduli (GPa) = 20.33869 81.03631 119.29327
#
# Poissons Ratio (x) = 0.70409 0.25499
# Poissons Ratio (y) = 0.17671 0.25579
# Poissons Ratio (z) = 0.04347 0.17376
#
# Static dielectric constant tensor:
#      x y z
#    x 3.476470 0.000000 0.052490 
#    y 0.000000 3.604720 0.000000 
#    z 0.052490 0.000000 3.931240 
# 
# 
# High freq. dielectric constant tensor:
#      x y z
#    x 1.765110 0.000000 -0.003530 
#    y 0.000000 1.769260 0.000000 
#    z -0.003530 0.000000 1.795890 
# 
# From -- ./inp_files/170315.got.cif
#   From: 2010.06.25/outbox.cif.g09.slc.cpg/sg12_86_cif.got.tgz:170315.got - 2010.06.28 00:19:55.
