data_PCOD8082504
_publ_section_title
;
Structure prediction by ZEFSAII (Michael W. Deem and Ramdas Pophale) SiO2 
 PCOD8082504
Probable space group: C 2/M
;
_chemical_formula_sum "Si O2"
_cell_formula_units_Z 44
_cell_length_a 12.655506
_cell_length_b 23.545567
_cell_length_c 10.205579
_cell_angle_alpha 90.000000
_cell_angle_beta 128.166275
_cell_angle_gamma 90.000000
_cell_volume 2390.951811
_symmetry_space_group_name_H-M "C 2/M"
_symmetry_group_IT_number 12
_symmetry_cell_setting 'monoclinic'
loop_
_space_group_symop_operation_xyz
x,y,z
-x,y,-z
-x,-y,-z
x,-y,z
1/2+x,1/2+y,z
1/2-x,1/2+y,-z
1/2-x,1/2-y,-z
1/2+x,1/2-y,z
loop_
_atom_site_type_symbol
_atom_site_label
_atom_site_fract_x
_atom_site_fract_y
_atom_site_fract_z
Si Si1 0.273787 0.388236 0.056898
Si Si2 0.760601 0.772022 0.154762
Si Si3 0.141630 0.000000 0.536685
Si Si4 0.086650 0.112183 0.361021
Si Si5 0.000000 0.195947 0.500000
Si Si6 0.846864 0.500000 0.927065
Si Si7 0.150816 0.161461 0.148451
O O1 0.220938 0.338831 0.116797
O O2 0.430708 0.399255 0.206594
O O3 0.186450 0.444530 0.011371
O O4 0.255707 0.367400 0.891892
O O5 0.667034 0.730266 0.168602
O O6 0.910100 0.766138 0.332362
O O7 0.750000 0.750000 0.000000
O O8 0.157066 0.054318 0.456767
O O9 0.000000 0.000000 0.500000
O O10 0.260080 0.000000 0.730622
O O11 0.177925 0.135247 0.311674
O O12 0.098740 0.156814 0.488837
O O13 0.000000 0.500000 0.000000
O O14 0.000000 0.146365 0.000000
#
# Coordination Sequence:
#
# PCOD8082504 Si02
#       7
#     8   8   4   8   4   4   8
#     4   9  18  36  56  77 109 144 178 231 278 324
#     4   9  18  34  53  76 109 148 182 221 278 326
#     4  12  18  35  59  79 105 144 181 231 277 322
#     4  10  18  32  57  84 103 135 192 236 272 316
#     4  10  18  31  52  78 110 147 184 230 272 326
#     4  12  24  37  55  83 109 141 184 224 277 344
#     4   9  19  33  54  83 110 139 185 233 273 325
#
# _framework density 18.402712000000001
#
# number of rings (size 3 to 8) (size 9 to 14) (size 15 to 20)
#    0.000    2.182    2.727    2.182    0.000    2.182 
#    0.000    6.364    0.000    1.091    0.000    0.000 
#    0.000    0.000    0.000    0.000    0.000    0.000 
#
# Total GULP energy -272609.568219 kJ/mol
# GULP energy per Si atom -12391.344010 kJ/mol
# Density = 1.836083 g / cm^3
# Si number density = 18.402712 Si / 1000 Ang^3
#
#
#
# Elastic Constant Matrix: (Units=GPa)
#
#
# Indices 1 2 3 4 5 6 
#
# 1 96.1256 65.3158 36.8016 0.0000 -18.3275 0.0000
# 2 65.3158 136.3231 38.2499 0.0000 -16.0544 0.0000
# 3 36.8016 38.2499 92.9880 0.0000 -18.6056 0.0000
# 4 0.0000 0.0000 0.0000 25.6363 0.0000 -7.6713
# 5 -18.3275 -16.0544 -18.6056 0.0000 27.3471 0.0000
# 6 0.0000 0.0000 0.0000 -7.6713 0.0000 35.7613
#
#
#
# Elastic Compliance Matrix: (Units=1/GPa)
#
#
# Indices 1 2 3 4 5 6 
#
# 1 0.017164 -0.006754 -0.002901 0.000000 0.005564 0.000000
# 2 -0.006754 0.011161 -0.001751 0.000000 0.000834 0.000000
# 3 -0.002901 -0.001751 0.013923 0.000000 0.006500 0.000000
# 4 0.000000 0.000000 0.000000 0.041683 0.000000 0.008942
# 5 0.005564 0.000834 0.006500 0.000000 0.045208 0.000000
# 6 0.000000 0.000000 0.000000 0.008942 0.000000 0.029881
#
#
# Mechanical properties :
#
#
# Convention : Reuss Voigt Hill
#
# Bulk Modulus (GPa) = 51.45334 67.35235 59.40284
# Shear Modulus (GPa) = 26.55154 30.08689 28.31922
#
# Velocity S-wave (km/s) = 3.80255 4.04780 3.92709
# Velocity P-wave (km/s) = 6.87746 7.65015 7.27407
#
# Compressibility (1/GPa) = 0.01943509
#
# Stress axis : x y z
#
# Youngs Moduli (GPa) = 58.26064 89.59521 71.82252
#
# Poissons Ratio (x) = 0.60517 0.20838
# Poissons Ratio (y) = 0.39352 0.12576
# Poissons Ratio (z) = 0.16904 0.15688
#
# Static dielectric constant tensor:
#      x y z
#    x 3.361710 0.000000 -0.396070 
#    y 0.000000 3.836840 0.000000 
#    z -0.396070 0.000000 3.366610 
# 
# 
# High freq. dielectric constant tensor:
#      x y z
#    x 1.683110 0.000000 -0.030320 
#    y 0.000000 1.721200 0.000000 
#    z -0.030320 0.000000 1.702940 
# 
# From -- ./inp_files/147819.got.cif
#   From: 2010.06.25/outbox.cif.g09.slc.cpg/sg12_74_cif.got.tgz:147819.got - 2010.06.28 00:19:55.
