data_PCOD8082258
_publ_section_title
;
Structure prediction by ZEFSAII (Michael W. Deem and Ramdas Pophale) SiO2 
 PCOD8082258
Probable space group: C 2/M
;
_chemical_formula_sum "Si O2"
_cell_formula_units_Z 56
_cell_length_a 23.698998
_cell_length_b 8.844987
_cell_length_c 15.219789
_cell_angle_alpha 90.000000
_cell_angle_beta 119.541233
_cell_angle_gamma 90.000000
_cell_volume 2775.591924
_symmetry_space_group_name_H-M "C 2/M"
_symmetry_group_IT_number 12
_symmetry_cell_setting 'monoclinic'
loop_
_space_group_symop_operation_xyz
x,y,z
-x,y,-z
-x,-y,-z
x,-y,z
1/2+x,1/2+y,z
1/2-x,1/2+y,-z
1/2-x,1/2-y,-z
1/2+x,1/2-y,z
loop_
_atom_site_type_symbol
_atom_site_label
_atom_site_fract_x
_atom_site_fract_y
_atom_site_fract_z
Si Si1 0.192204 0.677641 0.512376
Si Si2 0.428709 0.323182 0.669472
Si Si3 0.264467 0.669355 0.288338
Si Si4 0.380810 0.168286 0.797238
Si Si5 0.068958 0.830942 0.008308
Si Si6 0.211711 0.821428 0.888402
Si Si7 0.568059 0.321326 0.813329
O O1 0.200031 0.500000 0.509688
O O2 0.250000 0.750000 0.500000
O O3 0.120932 0.724927 0.425010
O O4 0.192980 0.724917 0.615608
O O5 0.417170 0.500000 0.641899
O O6 0.416181 0.289843 0.762690
O O7 0.503842 0.272515 0.708027
O O8 0.294622 0.500000 0.309153
O O9 0.195042 0.664807 0.282245
O O10 0.260100 0.731006 0.184523
O O11 0.385395 0.220496 0.901358
O O12 0.410333 0.000000 0.807009
O O13 0.099229 0.000000 0.027890
O O14 0.063798 0.755840 0.908588
O O15 0.000000 0.835304 0.000000
O O16 0.136336 0.767511 0.825508
O O17 0.216945 0.000000 0.905677
O O18 0.250000 0.750000 0.000000
O O19 0.564422 0.500000 0.817994
#
# Coordination Sequence:
#
# PCOD8082258 Si02
#       7
#     8   8   8   8   8   8   8
#     4  12  24  39  61  90 121 155 196 245 302 361
#     4  11  21  37  59  84 116 154 193 240 296 353
#     4  10  22  39  59  85 119 157 200 247 296 353
#     4  11  21  32  50  81 117 150 189 240 296 354
#     4  10  18  31  50  76 111 149 191 236 288 353
#     4  10  21  40  64  89 120 159 205 251 292 348
#     4   9  19  36  58  83 114 156 202 245 294 352
#
# _framework density 20.175875000000001
#
# number of rings (size 3 to 8) (size 9 to 14) (size 15 to 20)
#    0.000    1.571    2.857    3.000    0.000    1.429 
#    0.000    2.143    0.000    4.286    0.000    0.000 
#    0.000    0.000    0.000    0.000    0.000    0.000 
#
# Total GULP energy -347041.880301 kJ/mol
# GULP energy per Si atom -12394.352868 kJ/mol
# Density = 2.012995 g / cm^3
# Si number density = 20.175875 Si / 1000 Ang^3
#
#
#
# Elastic Constant Matrix: (Units=GPa)
#
#
# Indices 1 2 3 4 5 6 
#
# 1 90.8460 24.8883 36.7034 0.0000 12.4102 0.0000
# 2 24.8883 87.5026 47.2117 0.0000 5.6937 0.0000
# 3 36.7034 47.2117 128.7163 0.0000 11.3199 0.0000
# 4 0.0000 0.0000 0.0000 32.1645 0.0000 0.1608
# 5 12.4102 5.6937 11.3199 0.0000 34.4115 0.0000
# 6 0.0000 0.0000 0.0000 0.1608 0.0000 16.6964
#
#
#
# Elastic Compliance Matrix: (Units=1/GPa)
#
#
# Indices 1 2 3 4 5 6 
#
# 1 0.013135 -0.002061 -0.002680 0.000000 -0.003514 0.000000
# 2 -0.002061 0.014586 -0.004753 0.000000 -0.000107 0.000000
# 3 -0.002680 -0.004753 0.010424 0.000000 -0.001676 0.000000
# 4 0.000000 0.000000 0.000000 0.031092 0.000000 -0.000299
# 5 -0.003514 -0.000107 -0.001676 0.000000 0.030896 0.000000
# 6 0.000000 0.000000 0.000000 -0.000299 0.000000 0.059896
#
#
# Mechanical properties :
#
#
# Convention : Reuss Voigt Hill
#
# Bulk Modulus (GPa) = 52.20211 58.29685 55.24948
# Shear Modulus (GPa) = 26.96817 29.87190 28.42003
#
# Velocity S-wave (km/s) = 3.65999 3.85200 3.75722
# Velocity P-wave (km/s) = 6.61744 6.98147 6.80189
#
# Compressibility (1/GPa) = 0.01915631
#
# Stress axis : x y z
#
# Youngs Moduli (GPa) = 76.13031 68.55996 95.93232
#
# Poissons Ratio (x) = 0.14131 0.25714
# Poissons Ratio (y) = 0.15692 0.45595
# Poissons Ratio (z) = 0.20406 0.32585
#
# Static dielectric constant tensor:
#      x y z
#    x 3.699860 0.000000 0.103180 
#    y 0.000000 3.553450 0.000000 
#    z 0.103180 0.000000 3.846190 
# 
# 
# High freq. dielectric constant tensor:
#      x y z
#    x 1.773590 0.000000 0.011220 
#    y 0.000000 1.768450 0.000000 
#    z 0.011220 0.000000 1.793250 
# 
# From -- ./inp_files/237878.got.cif
#   From: 2010.06.25/outbox.cif.g09.slc.cpg/sg12_119_cif.got.tgz:237878.got - 2010.06.28 00:19:55.
