data_PCOD8082248
_publ_section_title
;
Structure prediction by ZEFSAII (Michael W. Deem and Ramdas Pophale) SiO2 
 PCOD8082248
Probable space group: C 2/M
;
_chemical_formula_sum "Si O2"
_cell_formula_units_Z 56
_cell_length_a 26.399364
_cell_length_b 8.920088
_cell_length_c 13.391128
_cell_angle_alpha 90.000000
_cell_angle_beta 117.934595
_cell_angle_gamma 90.000000
_cell_volume 2785.979583
_symmetry_space_group_name_H-M "C 2/M"
_symmetry_group_IT_number 12
_symmetry_cell_setting 'monoclinic'
loop_
_space_group_symop_operation_xyz
x,y,z
-x,y,-z
-x,-y,-z
x,-y,z
1/2+x,1/2+y,z
1/2-x,1/2+y,-z
1/2-x,1/2-y,-z
1/2+x,1/2-y,z
loop_
_atom_site_type_symbol
_atom_site_label
_atom_site_fract_x
_atom_site_fract_y
_atom_site_fract_z
Si Si1 0.467126 0.177423 0.871607
Si Si2 0.324914 0.329937 0.531278
Si Si3 0.379035 0.172340 0.281444
Si Si4 0.932486 0.833630 0.509347
Si Si5 0.768714 0.676214 0.290513
Si Si6 0.836665 0.323043 0.745509
Si Si7 0.030095 0.828517 0.746741
O O1 0.401631 0.234827 0.819489
O O2 0.499057 0.238642 0.804609
O O3 0.467880 0.000000 0.863405
O O4 0.500000 0.234572 0.000000
O O5 0.304354 0.500000 0.533927
O O6 0.392612 0.327076 0.570663
O O7 0.291057 0.264594 0.406890
O O8 0.313153 0.225873 0.615482
O O9 0.413396 0.206550 0.415025
O O10 0.311526 0.209776 0.236687
O O11 0.405513 0.266945 0.213897
O O12 0.387951 0.000000 0.263012
O O13 0.996748 0.807120 0.609896
O O14 0.927318 0.000000 0.454726
O O15 0.766887 0.500000 0.310742
O O16 0.704706 0.741526 0.210661
O O17 0.832049 0.500000 0.754746
O O18 0.033308 0.000000 0.782914
#
# Coordination Sequence:
#
# PCOD8082248 Si02
#       7
#     8   8   8   8   8   8   8
#     4  10  23  42  62  84 109 139 180 232 286 335
#     4  10  18  31  50  75 111 149 185 222 264 320
#     4  10  21  34  51  78 111 150 188 221 262 320
#     4   9  18  31  48  75 111 148 183 221 267 319
#     4  10  21  35  51  76 112 150 187 222 263 319
#     4  11  21  34  55  79 106 141 181 226 277 327
#     4  11  21  35  56  81 110 144 181 227 278 326
#
# _framework density 20.100649000000001
#
# number of rings (size 3 to 8) (size 9 to 14) (size 15 to 20)
#    0.000    1.857    1.429    3.000    0.000    6.000 
#    0.000    0.000    0.000    0.857    0.000    0.000 
#    0.000    0.000    0.000    0.000    0.000    0.000 
#
# Total GULP energy -347135.207961 kJ/mol
# GULP energy per Si atom -12397.685999 kJ/mol
# Density = 2.005490 g / cm^3
# Si number density = 20.100649 Si / 1000 Ang^3
#
#
#
# Elastic Constant Matrix: (Units=GPa)
#
#
# Indices 1 2 3 4 5 6 
#
# 1 166.3478 42.2210 18.8149 0.0000 -2.4274 0.0000
# 2 42.2210 54.2270 10.3390 0.0000 1.7907 0.0000
# 3 18.8149 10.3390 32.9250 0.0000 4.6107 0.0000
# 4 0.0000 0.0000 0.0000 13.0524 0.0000 0.6752
# 5 -2.4274 1.7907 4.6107 0.0000 9.0494 0.0000
# 6 0.0000 0.0000 0.0000 0.6752 0.0000 31.9421
#
#
#
# Elastic Compliance Matrix: (Units=1/GPa)
#
#
# Indices 1 2 3 4 5 6 
#
# 1 0.007913 -0.005670 -0.003441 0.000000 0.004998 0.000000
# 2 -0.005670 0.023683 -0.003583 0.000000 -0.004382 0.000000
# 3 -0.003441 -0.003583 0.036067 0.000000 -0.018591 0.000000
# 4 0.000000 0.000000 0.000000 0.076698 0.000000 -0.001621
# 5 0.004998 -0.004382 -0.018591 0.000000 0.122185 0.000000
# 6 0.000000 0.000000 0.000000 -0.001621 0.000000 0.031341
#
#
# Mechanical properties :
#
#
# Convention : Reuss Voigt Hill
#
# Bulk Modulus (GPa) = 23.65490 44.02771 33.84130
# Shear Modulus (GPa) = 14.82065 22.95043 18.88554
#
# Velocity S-wave (km/s) = 2.71831 3.38268 3.06853
# Velocity P-wave (km/s) = 4.65253 6.09983 5.42466
#
# Compressibility (1/GPa) = 0.04227454
#
# Stress axis : x y z
#
# Youngs Moduli (GPa) = 126.37927 42.22375 27.72606
#
# Poissons Ratio (x) = 0.23940 0.09541
# Poissons Ratio (y) = 0.71654 0.09935
# Poissons Ratio (z) = 0.43489 0.15131
#
# Static dielectric constant tensor:
#      x y z
#    x 4.411430 0.000000 0.043180 
#    y 0.000000 3.614030 0.000000 
#    z 0.043180 0.000000 3.108410 
# 
# 
# High freq. dielectric constant tensor:
#      x y z
#    x 1.821090 0.000000 -0.007930 
#    y 0.000000 1.788700 0.000000 
#    z -0.007930 0.000000 1.716110 
# 
# From -- ./inp_files/181108.got.cif
#   From: 2010.06.25/outbox.cif.g09.slc.cpg/sg12_91_cif.got.tgz:181108.got - 2010.06.28 00:19:55.
