data_PCOD8082515
_publ_section_title
;
Structure prediction by ZEFSAII (Michael W. Deem and Ramdas Pophale) SiO2 
 PCOD8082515
Probable space group: C 2/M
;
_chemical_formula_sum "Si O2"
_cell_formula_units_Z 56
_cell_length_a 28.083310
_cell_length_b 8.702008
_cell_length_c 12.386442
_cell_angle_alpha 90.000000
_cell_angle_beta 121.915101
_cell_angle_gamma 90.000000
_cell_volume 2569.427006
_symmetry_space_group_name_H-M "C 2/M"
_symmetry_group_IT_number 12
_symmetry_cell_setting 'monoclinic'
loop_
_space_group_symop_operation_xyz
x,y,z
-x,y,-z
-x,-y,-z
x,-y,z
1/2+x,1/2+y,z
1/2-x,1/2+y,-z
1/2-x,1/2-y,-z
1/2+x,1/2-y,z
loop_
_atom_site_type_symbol
_atom_site_label
_atom_site_fract_x
_atom_site_fract_y
_atom_site_fract_z
Si Si1 0.293257 0.667955 0.125560
Si Si2 0.563907 0.319613 0.219514
Si Si3 0.758829 0.333891 0.706979
Si Si4 0.946128 0.818595 0.178429
Si Si5 0.099360 0.320979 0.674181
Si Si6 0.141250 0.817620 0.508365
Si Si7 0.378947 0.182562 0.908526
O O1 0.312783 0.500000 0.103578
O O2 0.264464 0.638120 0.203278
O O3 0.343932 0.786391 0.193787
O O4 0.250000 0.750000 0.000000
O O5 0.564823 0.500000 0.195254
O O6 0.504318 0.267180 0.194222
O O7 0.612395 0.272911 0.361950
O O8 0.573541 0.228421 0.120405
O O9 0.770042 0.500000 0.664910
O O10 0.706009 0.250190 0.581990
O O11 0.819036 0.247623 0.791641
O O12 0.947661 0.751805 0.302876
O O13 0.940824 0.000000 0.179294
O O14 0.894944 0.753226 0.044071
O O15 0.087877 0.500000 0.647286
O O16 0.102820 0.247504 0.559297
O O17 0.144145 0.000000 0.529936
O O18 0.374221 0.000000 0.916425
#
# Coordination Sequence:
#
# PCOD8082515 Si02
#       7
#     8   8   8   8   8   8   8
#     4  10  18  31  52  79 114 154 193 234 284 343
#     4  10  23  41  61  83 111 152 199 243 286 343
#     4   8  17  33  54  80 111 146 183 226 276 336
#     4  11  23  40  60  83 113 152 198 241 287 347
#     4  11  22  36  56  85 118 149 188 239 295 351
#     4   9  19  40  63  83 113 153 194 234 285 349
#     4  11  22  37  59  88 119 150 188 237 292 344
#
# _framework density 21.794743
#
# number of rings (size 3 to 8) (size 9 to 14) (size 15 to 20)
#    0.000    2.000    0.000    4.714    0.000    5.714 
#    0.000    9.286    0.000    0.000    0.000    0.000 
#    0.000    0.000    0.000    0.000    0.000    0.000 
#
# Total GULP energy -346951.670698 kJ/mol
# GULP energy per Si atom -12391.131096 kJ/mol
# Density = 2.174514 g / cm^3
# Si number density = 21.794743 Si / 1000 Ang^3
#
#
#
# Elastic Constant Matrix: (Units=GPa)
#
#
# Indices 1 2 3 4 5 6 
#
# 1 77.8091 12.6828 -14.2359 0.0000 3.2812 0.0000
# 2 12.6828 66.8795 9.9917 0.0000 -5.3474 0.0000
# 3 -14.2359 9.9917 47.9777 0.0000 8.5682 0.0000
# 4 0.0000 0.0000 0.0000 26.8902 0.0000 -4.9497
# 5 3.2812 -5.3474 8.5682 0.0000 31.7246 0.0000
# 6 0.0000 0.0000 0.0000 -4.9497 0.0000 21.9798
#
#
#
# Elastic Compliance Matrix: (Units=1/GPa)
#
#
# Indices 1 2 3 4 5 6 
#
# 1 0.014734 -0.003974 0.005875 0.000000 -0.003780 0.000000
# 2 -0.003974 0.016916 -0.005553 0.000000 0.004762 0.000000
# 3 0.005875 -0.005553 0.025235 0.000000 -0.008359 0.000000
# 4 0.000000 0.000000 0.000000 0.038796 0.000000 0.008737
# 5 -0.003780 0.004762 -0.008359 0.000000 0.034973 0.000000
# 6 0.000000 0.000000 0.000000 0.008737 0.000000 0.047464
#
#
# Mechanical properties :
#
#
# Convention : Reuss Voigt Hill
#
# Bulk Modulus (GPa) = 20.16881 23.28261 21.72571
# Shear Modulus (GPa) = 24.75872 28.40077 26.57975
#
# Velocity S-wave (km/s) = 3.37411 3.61377 3.49599
# Velocity P-wave (km/s) = 4.94505 5.30267 5.12698
#
# Compressibility (1/GPa) = 0.04958152
#
# Stress axis : x y z
#
# Youngs Moduli (GPa) = 67.87047 59.11500 39.62708
#
# Poissons Ratio (x) = 0.23492 -0.23279
# Poissons Ratio (y) = 0.26972 0.22003
# Poissons Ratio (z) = -0.39871 0.32824
#
# Static dielectric constant tensor:
#      x y z
#    x 4.149720 0.000000 0.128480 
#    y 0.000000 3.650420 0.000000 
#    z 0.128480 0.000000 3.681880 
# 
# 
# High freq. dielectric constant tensor:
#      x y z
#    x 1.863200 0.000000 0.003960 
#    y 0.000000 1.833060 0.000000 
#    z 0.003960 0.000000 1.858250 
# 
# From -- ./inp_files/181073.got.cif
#   From: 2010.06.25/outbox.cif.g09.slc.cpg/sg12_91_cif.got.tgz:181073.got - 2010.06.28 00:19:55.
