data_PCOD8082084
_publ_section_title
;
Structure prediction by ZEFSAII (Michael W. Deem and Ramdas Pophale) SiO2 
 PCOD8082084
Probable space group: C 2/M
;
_chemical_formula_sum "Si O2"
_cell_formula_units_Z 48
_cell_length_a 15.154371
_cell_length_b 25.937572
_cell_length_c 11.985582
_cell_angle_alpha 90.000000
_cell_angle_beta 32.270053
_cell_angle_gamma 90.000000
_cell_volume 2515.329059
_symmetry_space_group_name_H-M "C 2/M"
_symmetry_group_IT_number 12
_symmetry_cell_setting 'monoclinic'
loop_
_space_group_symop_operation_xyz
x,y,z
-x,y,-z
-x,-y,-z
x,-y,z
1/2+x,1/2+y,z
1/2-x,1/2+y,-z
1/2-x,1/2-y,-z
1/2+x,1/2-y,z
loop_
_atom_site_type_symbol
_atom_site_label
_atom_site_fract_x
_atom_site_fract_y
_atom_site_fract_z
Si Si1 0.123193 0.316859 0.777586
Si Si2 0.181976 0.862566 0.954720
Si Si3 0.696635 0.364388 0.597334
Si Si4 0.683628 0.059586 0.347595
Si Si5 0.394019 0.790674 0.828296
Si Si6 0.189027 0.718650 0.363354
O O1 0.229968 0.363069 0.607124
O O2 0.243146 0.276578 0.712185
O O3 0.017387 0.285812 0.798730
O O4 0.000000 0.341893 0.000000
O O5 0.202406 0.917117 0.871581
O O6 0.312706 0.848942 0.913533
O O7 0.222853 0.814817 0.828057
O O8 0.999804 0.865775 0.198060
O O9 0.779925 0.411754 0.575155
O O10 0.749248 0.309795 0.590975
O O11 0.500000 0.069435 0.500000
O O12 0.725797 0.000000 0.318727
O O13 0.486505 0.780227 0.606686
O O14 0.250000 0.750000 0.000000
#
# Coordination Sequence:
#
# PCOD8082084 Si02
#       6
#     8   8   8   8   8   8
#     4  11  21  33  48  67  99 140 181 214 247 294
#     4  11  20  33  52  76 106 136 167 212 265 312
#     4  10  20  33  50  72 102 133 165 206 254 303
#     4  10  20  35  57  83 106 129 161 204 260 319
#     4  11  20  30  47  71 101 138 180 213 251 302
#     4  10  18  31  48  69  99 134 170 209 257 304
#
# _framework density 19.082989999999999
#
# number of rings (size 3 to 8) (size 9 to 14) (size 15 to 20)
#    0.000    1.500    0.000   11.500    0.000    1.333 
#    0.000    2.500    0.000    0.500    0.000    0.000 
#    0.000    5.333    0.000    0.000    0.000    0.000 
#
# Total GULP energy -297334.227611 kJ/mol
# GULP energy per Si atom -12388.926150 kJ/mol
# Density = 1.903956 g / cm^3
# Si number density = 19.082990 Si / 1000 Ang^3
#
#
#
# Elastic Constant Matrix: (Units=GPa)
#
#
# Indices 1 2 3 4 5 6 
#
# 1 29.6455 28.6248 44.9230 -0.0002 -2.0627 0.0000
# 2 28.6248 92.1836 50.7621 0.0003 -2.2572 -0.0002
# 3 44.9230 50.7621 178.9896 -0.0010 2.2496 -0.0005
# 4 -0.0002 0.0003 -0.0010 17.8837 0.0006 -6.3406
# 5 -2.0627 -2.2572 2.2496 0.0006 28.7879 0.0001
# 6 0.0000 -0.0002 -0.0005 -6.3406 0.0001 24.2510
#
#
#
# Elastic Compliance Matrix: (Units=1/GPa)
#
#
# Indices 1 2 3 4 5 6 
#
# 1 0.066746 -0.013453 -0.012996 0.000000 0.004743 0.000000
# 2 -0.013453 0.015616 -0.001056 0.000000 0.000343 0.000000
# 3 -0.012996 -0.001056 0.009170 0.000001 -0.001731 0.000000
# 4 0.000000 0.000000 0.000001 0.061630 -0.000001 0.016114
# 5 0.004743 0.000343 -0.001731 -0.000001 0.035239 -0.000001
# 6 0.000000 0.000000 0.000000 0.016114 -0.000001 0.045448
#
#
# Mechanical properties :
#
#
# Convention : Reuss Voigt Hill
#
# Bulk Modulus (GPa) = 27.38249 61.04872 44.21560
# Shear Modulus (GPa) = 16.60949 25.95177 21.28063
#
# Velocity S-wave (km/s) = 2.95342 3.69174 3.34303
# Velocity P-wave (km/s) = 5.10006 7.08749 6.17427
#
# Compressibility (1/GPa) = 0.03651969
#
# Stress axis : x y z
#
# Youngs Moduli (GPa) = 14.98228 64.03884 109.05051
#
# Poissons Ratio (x) = 0.86152 1.41723
# Poissons Ratio (y) = 0.20156 0.11521
# Poissons Ratio (z) = 0.19471 0.06765
#
# Static dielectric constant tensor:
#      x y z
#    x 3.875770 0.000000 0.094480 
#    y 0.000000 3.195900 0.000000 
#    z 0.094480 0.000000 4.059940 
# 
# 
# High freq. dielectric constant tensor:
#      x y z
#    x 1.741300 0.000000 -0.013890 
#    y 0.000000 1.687590 0.000000 
#    z -0.013890 0.000000 1.771020 
# 
# From -- ./inp_files/150185.got.cif
#   From: 2010.06.25/outbox.cif.g09.slc.cpg/sg12_76_cif.got.tgz:150185.got - 2010.06.28 00:19:55.
