data_PCOD8082410
_publ_section_title
;
Structure prediction by ZEFSAII (Michael W. Deem and Ramdas Pophale) SiO2 
 PCOD8082410
Probable space group: C 2/M
;
_chemical_formula_sum "Si O2"
_cell_formula_units_Z 64
_cell_length_a 28.913004
_cell_length_b 8.856465
_cell_length_c 15.721567
_cell_angle_alpha 90.000000
_cell_angle_beta 61.993627
_cell_angle_gamma 90.000000
_cell_volume 3554.337767
_symmetry_space_group_name_H-M "C 2/M"
_symmetry_group_IT_number 12
_symmetry_cell_setting 'monoclinic'
loop_
_space_group_symop_operation_xyz
x,y,z
-x,y,-z
-x,-y,-z
x,-y,z
1/2+x,1/2+y,z
1/2-x,1/2+y,-z
1/2-x,1/2-y,-z
1/2+x,1/2-y,z
loop_
_atom_site_type_symbol
_atom_site_label
_atom_site_fract_x
_atom_site_fract_y
_atom_site_fract_z
Si Si1 0.867235 0.320951 0.340044
Si Si2 0.913432 0.676578 0.553721
Si Si3 0.330387 0.174683 0.894336
Si Si4 0.458491 0.673035 0.353775
Si Si5 0.221599 0.175227 0.905390
Si Si6 0.296244 0.678977 0.272318
Si Si7 0.075424 0.826996 0.277698
Si Si8 0.308765 0.823197 0.555781
O O1 0.868592 0.500000 0.333867
O O2 0.925526 0.264443 0.311817
O O3 0.848442 0.252487 0.266730
O O4 0.827446 0.260963 0.447963
O O5 0.924843 0.500000 0.532380
O O6 0.950176 0.764006 0.455932
O O7 0.925961 0.724874 0.637735
O O8 0.852749 0.714835 0.587786
O O9 0.282989 0.205224 0.869609
O O10 0.380088 0.272487 0.824822
O O11 0.346375 0.000000 0.880925
O O12 0.313814 0.223316 0.002983
O O13 0.440201 0.500000 0.367377
O O14 0.519737 0.689557 0.278124
O O15 0.208309 0.226682 0.821657
O O16 0.208364 0.000000 0.932904
O O17 0.299279 0.500000 0.278287
O O18 0.246074 0.748100 0.366184
O O19 0.085816 0.000000 0.294844
O O20 0.300890 0.000000 0.555323
#
# Coordination Sequence:
#
# PCOD8082410 Si02
#       8
#     8   8   8   8   8   8   8   8
#     4  10  20  33  49  72 102 134 172 216 254 290
#     4  10  19  32  51  76 106 137 171 210 251 296
#     4  10  20  35  56  79 104 134 167 206 252 301
#     4  10  21  36  51  70 100 138 176 211 252 300
#     4   9  19  35  54  78 107 136 165 202 251 306
#     4  10  18  31  52  73  99 136 171 203 246 301
#     4  11  22  34  51  75 103 135 172 211 251 303
#     4   8  16  30  47  71 103 136 168 203 244 292
#
# _framework density 18.006167999999999
#
# number of rings (size 3 to 8) (size 9 to 14) (size 15 to 20)
#    0.000    2.250    0.000    4.125    0.000    6.500 
#    0.000    4.375    0.000    0.750    0.000    5.250 
#    0.000    0.000    0.000    0.000    0.000    0.000 
#
# Total GULP energy -396839.132071 kJ/mol
# GULP energy per Si atom -12401.222877 kJ/mol
# Density = 1.796519 g / cm^3
# Si number density = 18.006168 Si / 1000 Ang^3
#
#
#
# Elastic Constant Matrix: (Units=GPa)
#
#
# Indices 1 2 3 4 5 6 
#
# 1 106.6223 38.0331 58.6203 0.0000 10.1395 0.0000
# 2 38.0331 59.7629 31.9773 0.0000 4.7389 0.0000
# 3 58.6203 31.9773 73.2179 0.0000 6.5147 0.0000
# 4 0.0000 0.0000 0.0000 27.1413 0.0000 1.4508
# 5 10.1395 4.7389 6.5147 0.0000 29.3859 0.0000
# 6 0.0000 0.0000 0.0000 1.4508 0.0000 28.8919
#
#
#
# Elastic Compliance Matrix: (Units=1/GPa)
#
#
# Indices 1 2 3 4 5 6 
#
# 1 0.017973 -0.004765 -0.012064 0.000000 -0.002759 0.000000
# 2 -0.004765 0.023158 -0.006236 0.000000 -0.000708 0.000000
# 3 -0.012064 -0.006236 0.026095 0.000000 -0.000617 0.000000
# 4 0.000000 0.000000 0.000000 0.036943 0.000000 -0.001855
# 5 -0.002759 -0.000708 -0.000617 0.000000 0.035233 0.000000
# 6 0.000000 0.000000 0.000000 -0.001855 0.000000 0.034705
#
#
# Mechanical properties :
#
#
# Convention : Reuss Voigt Hill
#
# Bulk Modulus (GPa) = 47.39995 55.20716 51.30355
# Shear Modulus (GPa) = 22.00039 24.48199 23.24119
#
# Velocity S-wave (km/s) = 3.49925 3.69134 3.59658
# Velocity P-wave (km/s) = 6.53512 6.99247 6.76766
#
# Compressibility (1/GPa) = 0.02109707
#
# Stress axis : x y z
#
# Youngs Moduli (GPa) = 55.63817 43.18155 38.32177
#
# Poissons Ratio (x) = 0.20574 0.46230
# Poissons Ratio (y) = 0.26509 0.23899
# Poissons Ratio (z) = 0.67119 0.26930
#
# Static dielectric constant tensor:
#      x y z
#    x 3.427940 0.000000 -0.024120 
#    y 0.000000 3.256740 0.000000 
#    z -0.024120 0.000000 3.215200 
# 
# 
# High freq. dielectric constant tensor:
#      x y z
#    x 1.698640 0.000000 0.000250 
#    y 0.000000 1.696930 0.000000 
#    z 0.000250 0.000000 1.673700 
# 
# From -- ./inp_files/249006.got.cif
#   From: 2010.06.25/outbox.cif.g09.slc.cpg/sg12_125_cif.got.tgz:249006.got - 2010.06.28 00:19:55.
