data_PCOD8082816
_publ_section_title
;
Structure prediction by ZEFSAII (Michael W. Deem and Ramdas Pophale) SiO2 
 PCOD8082816
Probable space group: C 2/M
;
_chemical_formula_sum "Si O2"
_cell_formula_units_Z 40
_cell_length_a 23.600783
_cell_length_b 13.752002
_cell_length_c 9.187503
_cell_angle_alpha 90.000000
_cell_angle_beta 48.179230
_cell_angle_gamma 90.000000
_cell_volume 2222.197656
_symmetry_space_group_name_H-M "C 2/M"
_symmetry_group_IT_number 12
_symmetry_cell_setting 'monoclinic'
loop_
_space_group_symop_operation_xyz
x,y,z
-x,y,-z
-x,-y,-z
x,-y,z
1/2+x,1/2+y,z
1/2-x,1/2+y,-z
1/2-x,1/2-y,-z
1/2+x,1/2-y,z
loop_
_atom_site_type_symbol
_atom_site_label
_atom_site_fract_x
_atom_site_fract_y
_atom_site_fract_z
Si Si1 0.415520 0.719447 0.161561
Si Si2 0.797600 0.388280 0.836906
Si Si3 0.190688 0.729840 0.910425
Si Si4 0.137325 0.608720 0.577711
Si Si5 0.219746 0.888525 0.471264
O O1 0.382978 0.747969 0.059632
O O2 0.421597 0.815996 0.251462
O O3 0.363595 0.639087 0.328739
O O4 0.500000 0.676287 0.000000
O O5 0.774007 0.500000 0.901933
O O6 0.721024 0.329396 0.929225
O O7 0.859199 0.379412 0.602028
O O8 0.835222 0.344145 0.917958
O O9 0.257961 0.678962 0.702551
O O10 0.111253 0.500000 0.665354
O O11 0.221618 0.630513 0.497270
O O12 0.219640 0.000000 0.420626
#
# Coordination Sequence:
#
# PCOD8082816 Si02
#       5
#     8   8   8   8   8
#     4  11  21  34  50  76 110 142 168 205 255 310
#     4  10  18  31  57  82 100 126 172 224 259 294
#     4  10  19  34  54  80 104 133 171 214 258 302
#     4   9  17  33  55  75  99 132 174 216 254 296
#     4  10  18  33  54  77 102 133 177 216 250 295
#
# _framework density 18.0002
#
# number of rings (size 3 to 8) (size 9 to 14) (size 15 to 20)
#    0.000    2.000    4.000    1.800    0.000    1.600 
#    0.000    1.000    0.000    2.400    0.000    4.200 
#    0.000    0.000    0.000    0.000    0.000    0.000 
#
# Total GULP energy -248029.219082 kJ/mol
# GULP energy per Si atom -12401.460954 kJ/mol
# Density = 1.795923 g / cm^3
# Si number density = 18.000200 Si / 1000 Ang^3
#
#
#
# Elastic Constant Matrix: (Units=GPa)
#
#
# Indices 1 2 3 4 5 6 
#
# 1 69.8515 22.7621 36.3909 0.0000 9.7887 0.0000
# 2 22.7621 81.0813 5.9774 0.0000 8.7891 0.0000
# 3 36.3909 5.9774 49.2619 0.0000 1.3057 0.0000
# 4 0.0000 0.0000 0.0000 26.2302 0.0000 7.2268
# 5 9.7887 8.7891 1.3057 0.0000 35.9340 0.0000
# 6 0.0000 0.0000 0.0000 7.2268 0.0000 20.6963
#
#
#
# Elastic Compliance Matrix: (Units=1/GPa)
#
#
# Indices 1 2 3 4 5 6 
#
# 1 0.026712 -0.005536 -0.018922 0.000000 -0.005235 0.000000
# 2 -0.005536 0.013922 0.002453 0.000000 -0.001986 0.000000
# 3 -0.018922 0.002453 0.033892 0.000000 0.003323 0.000000
# 4 0.000000 0.000000 0.000000 0.042182 0.000000 -0.014729
# 5 -0.005235 -0.001986 0.003323 0.000000 0.029620 0.000000
# 6 0.000000 0.000000 0.000000 -0.014729 0.000000 0.053461
#
#
# Mechanical properties :
#
#
# Convention : Reuss Voigt Hill
#
# Bulk Modulus (GPa) = 32.77039 36.71726 34.74383
# Shear Modulus (GPa) = 19.68730 25.57639 22.63184
#
# Velocity S-wave (km/s) = 3.31074 3.77357 3.54970
# Velocity P-wave (km/s) = 5.73234 6.27925 6.01202
#
# Compressibility (1/GPa) = 0.03051535
#
# Stress axis : x y z
#
# Youngs Moduli (GPa) = 37.43683 71.82885 29.50550
#
# Poissons Ratio (x) = 0.39768 0.55830
# Poissons Ratio (y) = 0.20727 -0.07238
# Poissons Ratio (z) = 0.70838 -0.17621
#
# Static dielectric constant tensor:
#      x y z
#    x 3.084220 0.000000 0.361560 
#    y 0.000000 3.474530 0.000000 
#    z 0.361560 0.000000 3.168600 
# 
# 
# High freq. dielectric constant tensor:
#      x y z
#    x 1.665140 0.000000 0.032470 
#    y 0.000000 1.712080 0.000000 
#    z 0.032470 0.000000 1.681380 
# 
# From -- ./inp_files/58943.got.cif
#   From: 2010.06.25/outbox.cif.g09.slc.cpg/sg12_30_cif.got.tgz:58943.got - 2010.06.28 00:19:55.
