data_PCOD8082541
_publ_section_title
;
Structure prediction by ZEFSAII (Michael W. Deem and Ramdas Pophale) SiO2 
 PCOD8082541
Probable space group: C 2/M
;
_chemical_formula_sum "Si O2"
_cell_formula_units_Z 64
_cell_length_a 20.737810
_cell_length_b 8.838252
_cell_length_c 21.770424
_cell_angle_alpha 90.000000
_cell_angle_beta 61.661874
_cell_angle_gamma 90.000000
_cell_volume 3512.033256
_symmetry_space_group_name_H-M "C 2/M"
_symmetry_group_IT_number 12
_symmetry_cell_setting 'monoclinic'
loop_
_space_group_symop_operation_xyz
x,y,z
-x,y,-z
-x,-y,-z
x,-y,z
1/2+x,1/2+y,z
1/2-x,1/2+y,-z
1/2-x,1/2-y,-z
1/2+x,1/2-y,z
loop_
_atom_site_type_symbol
_atom_site_label
_atom_site_fract_x
_atom_site_fract_y
_atom_site_fract_z
Si Si1 0.416452 0.321177 0.655874
Si Si2 0.079115 0.823251 0.949328
Si Si3 0.678953 0.675518 0.650456
Si Si4 0.774181 0.179022 0.052674
Si Si5 0.166777 0.173885 0.793891
Si Si6 0.705215 0.323533 0.197058
Si Si7 0.920316 0.180052 0.414815
Si Si8 0.664475 0.679629 0.427381
O O1 0.420464 0.500000 0.645573
O O2 0.373057 0.280812 0.737920
O O3 0.497746 0.251614 0.623203
O O4 0.375327 0.252993 0.614930
O O5 0.144967 0.760910 0.963122
O O6 0.098046 0.789247 0.869427
O O7 0.073048 0.000000 0.965039
O O8 0.000000 0.746650 0.000000
O O9 0.696472 0.500000 0.631503
O O10 0.644320 0.702589 0.733662
O O11 0.620539 0.737344 0.627861
O O12 0.752801 0.766417 0.607696
O O13 0.715311 0.228020 0.130550
O O14 0.773564 0.000000 0.046909
O O15 0.750000 0.250000 0.000000
O O16 0.233773 0.283078 0.779945
O O17 0.191636 0.000000 0.793605
O O18 0.710556 0.500000 0.178633
O O19 0.878187 0.241561 0.493672
O O20 0.923847 0.000000 0.414143
O O21 0.664285 0.500000 0.426612
#
# Coordination Sequence:
#
# PCOD8082541 Si02
#       8
#     8   8   8   8   8   8   8   8
#     4   9  17  30  49  75  99 126 170 215 252 293
#     4   8  15  30  51  75  98 124 165 209 244 283
#     4  10  19  31  48  72 100 130 164 205 256 306
#     4  10  20  35  55  80 108 136 167 204 249 295
#     4   9  17  30  49  72  98 131 164 202 250 300
#     4  10  18  31  53  78 100 130 171 209 246 293
#     4   9  18  31  47  72 102 129 165 215 261 298
#     4  10  18  31  53  73  94 130 171 212 255 301
#
# _framework density 18.223063
#
# number of rings (size 3 to 8) (size 9 to 14) (size 15 to 20)
#    0.000    2.625    1.250    2.250    0.000    1.500 
#    2.250    0.000    0.000   14.625    0.000    0.000 
#    0.000    0.000    0.000    0.000    0.000    0.000 
#
# Total GULP energy -396702.679157 kJ/mol
# GULP energy per Si atom -12396.958724 kJ/mol
# Density = 1.818159 g / cm^3
# Si number density = 18.223063 Si / 1000 Ang^3
#
#
#
# Elastic Constant Matrix: (Units=GPa)
#
#
# Indices 1 2 3 4 5 6 
#
# 1 137.1735 19.3833 91.2520 0.0001 1.9919 0.0016
# 2 19.3833 27.5397 28.7047 0.0002 1.9368 0.0025
# 3 91.2520 28.7047 154.6731 -0.0001 -0.0582 0.0002
# 4 0.0001 0.0002 -0.0001 22.5664 0.0000 0.0801
# 5 1.9919 1.9368 -0.0582 0.0000 36.3369 0.0001
# 6 0.0016 0.0025 0.0002 0.0801 0.0001 20.6334
#
#
#
# Elastic Compliance Matrix: (Units=1/GPa)
#
#
# Indices 1 2 3 4 5 6 
#
# 1 0.012052 -0.001276 -0.006874 0.000000 -0.000604 -0.000001
# 2 -0.001276 0.045367 -0.007668 0.000000 -0.002361 -0.000005
# 3 -0.006874 -0.007668 0.011944 0.000000 0.000805 0.000001
# 4 0.000000 0.000000 0.000000 0.044314 0.000000 -0.000172
# 5 -0.000604 -0.002361 0.000805 0.000000 0.027680 0.000000
# 6 -0.000001 -0.000005 0.000001 -0.000172 0.000000 0.048466
#
#
# Mechanical properties :
#
#
# Convention : Reuss Voigt Hill
#
# Bulk Modulus (GPa) = 26.50496 66.45182 46.47839
# Shear Modulus (GPa) = 21.36456 27.91043 24.63749
#
# Velocity S-wave (km/s) = 3.42773 3.91781 3.68094
# Velocity P-wave (km/s) = 5.49928 7.55054 6.60503
#
# Compressibility (1/GPa) = 0.03772878
#
# Stress axis : x y z
#
# Youngs Moduli (GPa) = 82.97717 22.04241 83.72627
#
# Poissons Ratio (x) = 0.02812 0.57549
# Poissons Ratio (y) = 0.10584 0.64199
# Poissons Ratio (z) = 0.57034 0.16901
#
# Static dielectric constant tensor:
#      x y z
#    x 3.519710 0.000000 -0.022440 
#    y 0.000000 3.008560 0.000000 
#    z -0.022440 0.000000 3.654330 
# 
# 
# High freq. dielectric constant tensor:
#      x y z
#    x 1.698690 0.000000 0.002600 
#    y 0.000000 1.667330 0.000000 
#    z 0.002600 0.000000 1.720940 
# 
# From -- ./inp_files/345524.got.cif
#   From: 2010.06.25/outbox.cif.g09.slc.cpg/sg12_173_cif.got.tgz:345524.got - 2010.06.28 00:19:55.
