data_PCOD8082460
_publ_section_title
;
Structure prediction by ZEFSAII (Michael W. Deem and Ramdas Pophale) SiO2 
 PCOD8082460
Probable space group: C 2/M
;
_chemical_formula_sum "Si O2"
_cell_formula_units_Z 48
_cell_length_a 28.317284
_cell_length_b 8.747767
_cell_length_c 17.511188
_cell_angle_alpha 90.000000
_cell_angle_beta 143.667001
_cell_angle_gamma 90.000000
_cell_volume 2570.017564
_symmetry_space_group_name_H-M "C 2/M"
_symmetry_group_IT_number 12
_symmetry_cell_setting 'monoclinic'
loop_
_space_group_symop_operation_xyz
x,y,z
-x,y,-z
-x,-y,-z
x,-y,z
1/2+x,1/2+y,z
1/2-x,1/2+y,-z
1/2-x,1/2-y,-z
1/2+x,1/2-y,z
loop_
_atom_site_type_symbol
_atom_site_label
_atom_site_fract_x
_atom_site_fract_y
_atom_site_fract_z
Si Si1 0.970115 0.823072 0.237567
Si Si2 0.699057 0.820118 0.000215
Si Si3 0.945808 0.818234 0.499029
Si Si4 0.484628 0.323327 0.870235
Si Si5 0.618894 0.180289 0.145660
Si Si6 0.768244 0.181300 0.248314
O O1 0.892166 0.722420 0.128906
O O2 0.018948 0.763463 0.374249
O O3 0.023387 0.799100 0.231078
O O4 0.945677 0.000000 0.215935
O O5 0.708475 0.000000 0.010512
O O6 0.750000 0.750000 0.000000
O O7 0.732640 0.752507 0.123298
O O8 0.856441 0.750006 0.376328
O O9 0.000000 0.754852 0.500000
O O10 0.942817 0.000000 0.491361
O O11 0.498137 0.500000 0.908226
O O12 0.403476 0.264072 0.804313
O O13 0.559166 0.228858 0.000119
O O14 0.708792 0.228444 0.239707
O O15 0.611229 0.000000 0.147156
O O16 0.773004 0.000000 0.249157
#
# Coordination Sequence:
#
# PCOD8082460 Si02
#       6
#     8   8   8   8   8   8
#     4  10  20  34  54  79 105 137 174 216 265 314
#     4  11  21  34  53  78 106 134 173 222 266 309
#     4   9  17  32  54  76 102 137 179 219 256 308
#     4  10  19  31  49  77 109 136 167 210 268 321
#     4  10  18  31  52  77 103 135 177 216 258 307
#     4   9  18  32  52  78 103 134 177 221 258 303
#
# _framework density 18.676914
#
# number of rings (size 3 to 8) (size 9 to 14) (size 15 to 20)
#    0.000    2.167    1.667    3.500    0.000    3.333 
#    0.000    0.833    0.000    7.500    0.000    0.000 
#    0.000    0.000    0.000    0.000    0.000    0.000 
#
# Total GULP energy -297569.986948 kJ/mol
# GULP energy per Si atom -12398.749456 kJ/mol
# Density = 1.863440 g / cm^3
# Si number density = 18.676914 Si / 1000 Ang^3
#
#
#
# Elastic Constant Matrix: (Units=GPa)
#
#
# Indices 1 2 3 4 5 6 
#
# 1 175.3759 29.1255 82.8137 0.0000 3.3154 0.0000
# 2 29.1255 38.0862 16.6513 0.0000 -0.9264 0.0000
# 3 82.8137 16.6513 135.5365 0.0000 3.7776 0.0000
# 4 0.0000 0.0000 0.0000 16.3169 0.0000 1.1094
# 5 3.3154 -0.9264 3.7776 0.0000 38.6084 0.0000
# 6 0.0000 0.0000 0.0000 1.1094 0.0000 22.9700
#
#
#
# Elastic Compliance Matrix: (Units=1/GPa)
#
#
# Indices 1 2 3 4 5 6 
#
# 1 0.008716 -0.004598 -0.004750 0.000000 -0.000394 0.000000
# 2 -0.004598 0.030211 -0.000936 0.000000 0.001211 0.000000
# 3 -0.004750 -0.000936 0.010413 0.000000 -0.000633 0.000000
# 4 0.000000 0.000000 0.000000 0.061488 0.000000 -0.002970
# 5 -0.000394 0.001211 -0.000633 0.000000 0.026026 0.000000
# 6 0.000000 0.000000 0.000000 -0.002970 0.000000 0.043678
#
#
# Mechanical properties :
#
#
# Convention : Reuss Voigt Hill
#
# Bulk Modulus (GPa) = 34.75530 67.35328 51.05429
# Shear Modulus (GPa) = 23.73149 30.27296 27.00222
#
# Velocity S-wave (km/s) = 3.56846 4.03038 3.80643
# Velocity P-wave (km/s) = 5.96889 7.60258 6.83472
#
# Compressibility (1/GPa) = 0.02877259
#
# Stress axis : x y z
#
# Youngs Moduli (GPa) = 114.73228 33.10023 96.03636
#
# Poissons Ratio (x) = 0.15221 0.45613
# Poissons Ratio (y) = 0.52758 0.08986
# Poissons Ratio (z) = 0.54493 0.03097
#
# Static dielectric constant tensor:
#      x y z
#    x 3.722260 0.000000 -0.079810 
#    y 0.000000 3.156260 0.000000 
#    z -0.079810 0.000000 3.390120 
# 
# 
# High freq. dielectric constant tensor:
#      x y z
#    x 1.746570 0.000000 0.001040 
#    y 0.000000 1.698120 0.000000 
#    z 0.001040 0.000000 1.706100 
# 
# From -- ./inp_files/274041.got.cif
#   From: 2010.06.25/outbox.cif.g09.slc.cpg/sg12_138_cif.got.tgz:274041.got - 2010.06.28 00:19:55.
