data_PCOD8082264
_publ_section_title
;
Structure prediction by ZEFSAII (Michael W. Deem and Ramdas Pophale) SiO2 
 PCOD8082264
Probable space group: C 2/M
;
_chemical_formula_sum "Si O2"
_cell_formula_units_Z 60
_cell_length_a 11.746922
_cell_length_b 21.365406
_cell_length_c 13.999682
_cell_angle_alpha 90.000000
_cell_angle_beta 85.624297
_cell_angle_gamma 90.000000
_cell_volume 3503.367318
_symmetry_space_group_name_H-M "C 2/M"
_symmetry_group_IT_number 12
_symmetry_cell_setting 'monoclinic'
loop_
_space_group_symop_operation_xyz
x,y,z
-x,y,-z
-x,-y,-z
x,-y,z
1/2+x,1/2+y,z
1/2-x,1/2+y,-z
1/2-x,1/2-y,-z
1/2+x,1/2-y,z
loop_
_atom_site_type_symbol
_atom_site_label
_atom_site_fract_x
_atom_site_fract_y
_atom_site_fract_z
Si Si1 0.422217 0.211613 0.680176
Si Si2 0.570955 0.652309 0.401172
Si Si3 0.553470 0.226082 0.851434
Si Si4 0.340120 0.801860 0.976734
Si Si5 0.280393 0.659924 0.185155
Si Si6 0.761403 0.428381 0.481979
Si Si7 0.619053 0.428624 0.678943
Si Si8 0.500000 0.129565 0.500000
O O1 0.404030 0.284562 0.657879
O O2 0.528140 0.200262 0.746892
O O3 0.303197 0.188902 0.730481
O O4 0.450660 0.173415 0.584776
O O5 0.500000 0.669394 0.500000
O O6 0.690215 0.617870 0.417683
O O7 0.496536 0.606920 0.340160
O O8 0.433457 0.237208 0.910917
O O9 0.619167 0.291179 0.841136
O O10 0.617207 0.175879 0.919918
O O11 0.286934 0.855550 0.910477
O O12 0.250000 0.750000 0.000000
O O13 0.332266 0.596378 0.223603
O O14 0.743507 0.500000 0.449097
O O15 0.715853 0.420233 0.592450
O O16 0.896075 0.412996 0.468496
O O17 0.584999 0.500000 0.695906
#
# Coordination Sequence:
#
# PCOD8082264 Si02
#       8
#     8   8   8   8   8   8   8   4
#     4  11  21  30  48  78 111 136 168 214 277 316
#     4  10  20  33  51  71 100 138 175 222 258 309
#     4   9  17  31  49  74 108 132 164 202 265 319
#     4   8  16  30  51  76 103 131 163 204 259 319
#     4  10  18  31  50  78 108 132 171 217 259 318
#     4  10  22  37  51  67  96 145 194 222 250 297
#     4  10  19  34  52  73 101 140 184 221 254 302
#     4  12  23  34  50  74 109 142 176 222 264 312
#
# _framework density 17.126379
#
# number of rings (size 3 to 8) (size 9 to 14) (size 15 to 20)
#    0.000    2.133    3.333    0.600    1.867    2.133 
#    0.000    0.000    0.000    0.000    0.000   16.800 
#    0.000    0.000    0.000    0.000    0.000    0.000 
#
# Total GULP energy -371666.001740 kJ/mol
# GULP energy per Si atom -12388.866725 kJ/mol
# Density = 1.708740 g / cm^3
# Si number density = 17.126379 Si / 1000 Ang^3
#
#
#
# Elastic Constant Matrix: (Units=GPa)
#
#
# Indices 1 2 3 4 5 6 
#
# 1 86.2729 18.6259 23.2662 0.0000 15.1593 0.0000
# 2 18.6259 68.7977 31.8378 0.0000 15.0423 0.0000
# 3 23.2662 31.8378 87.3431 0.0000 28.1290 0.0000
# 4 0.0000 0.0000 0.0000 17.1770 0.0000 3.8781
# 5 15.1593 15.0423 28.1290 0.0000 25.7239 0.0000
# 6 0.0000 0.0000 0.0000 3.8781 0.0000 17.9253
#
#
#
# Elastic Compliance Matrix: (Units=1/GPa)
#
#
# Indices 1 2 3 4 5 6 
#
# 1 0.013259 -0.001887 -0.001054 0.000000 -0.005558 0.000000
# 2 -0.001887 0.018184 -0.004723 0.000000 -0.004358 0.000000
# 3 -0.001054 -0.004723 0.019082 0.000000 -0.017483 0.000000
# 4 0.000000 0.000000 0.000000 0.061207 0.000000 -0.013242
# 5 -0.005558 -0.004358 -0.017483 0.000000 0.063815 0.000000
# 6 0.000000 0.000000 0.000000 -0.013242 0.000000 0.058652
#
#
# Mechanical properties :
#
#
# Convention : Reuss Voigt Hill
#
# Bulk Modulus (GPa) = 28.41049 43.31930 35.86490
# Shear Modulus (GPa) = 19.13805 23.41083 21.27444
#
# Velocity S-wave (km/s) = 3.34647 3.70123 3.52831
# Velocity P-wave (km/s) = 5.61752 6.60411 6.13070
#
# Compressibility (1/GPa) = 0.03519827
#
# Stress axis : x y z
#
# Youngs Moduli (GPa) = 75.41851 54.99224 52.40589
#
# Poissons Ratio (x) = 0.10375 0.05526
# Poissons Ratio (y) = 0.14229 0.24749
# Poissons Ratio (z) = 0.07953 0.25970
#
# Static dielectric constant tensor:
#      x y z
#    x 3.474310 0.000000 0.458200 
#    y 0.000000 2.916080 0.000000 
#    z 0.458200 0.000000 3.755820 
# 
# 
# High freq. dielectric constant tensor:
#      x y z
#    x 1.678000 0.000000 0.014230 
#    y 0.000000 1.620920 0.000000 
#    z 0.014230 0.000000 1.663810 
# 
# From -- ./inp_files/207280.got.cif
#   From: 2010.06.25/outbox.cif.g09.slc.cpg/sg12_104_cif.got.tgz:207280.got - 2010.06.28 00:19:55.
