data_PCOD8082954
_publ_section_title
;
Structure prediction by ZEFSAII (Michael W. Deem and Ramdas Pophale) SiO2 
 PCOD8082954
Probable space group: C 2/M
;
_chemical_formula_sum "Si O2"
_cell_formula_units_Z 48
_cell_length_a 16.521373
_cell_length_b 18.948773
_cell_length_c 15.892640
_cell_angle_alpha 90.000000
_cell_angle_beta 35.538191
_cell_angle_gamma 90.000000
_cell_volume 2891.897300
_symmetry_space_group_name_H-M "C 2/M"
_symmetry_group_IT_number 12
_symmetry_cell_setting 'monoclinic'
loop_
_space_group_symop_operation_xyz
x,y,z
-x,y,-z
-x,-y,-z
x,-y,z
1/2+x,1/2+y,z
1/2-x,1/2+y,-z
1/2-x,1/2-y,-z
1/2+x,1/2-y,z
loop_
_atom_site_type_symbol
_atom_site_label
_atom_site_fract_x
_atom_site_fract_y
_atom_site_fract_z
Si Si1 0.932822 0.083029 0.800907
Si Si2 0.734898 0.821264 0.066283
Si Si3 0.343299 0.738858 0.141572
Si Si4 0.580228 0.329963 0.349359
Si Si5 0.056804 0.290553 0.642357
Si Si6 0.329778 0.677524 0.332492
O O1 0.919858 0.104551 0.714390
O O2 0.073320 0.112350 0.724250
O O3 0.933416 0.000000 0.808717
O O4 0.799401 0.113300 0.962564
O O5 0.814208 0.811088 0.086710
O O6 0.572197 0.838905 0.219170
O O7 0.750000 0.750000 0.000000
O O8 0.238029 0.805264 0.235712
O O9 0.325432 0.687626 0.236482
O O10 0.500000 0.768986 0.000000
O O11 0.500000 0.355857 0.500000
O O12 0.496013 0.264970 0.381782
O O13 0.175433 0.338685 0.499362
O O14 0.115245 0.250688 0.674686
#
# Coordination Sequence:
#
# PCOD8082954 Si02
#       6
#     8   8   8   8   8   8
#     4  11  23  38  53  76 118 154 177 214 277 341
#     4  11  18  34  53  80 106 141 189 223 266 320
#     4  11  18  28  55  87 107 128 178 240 274 300
#     4  10  19  33  54  83 108 139 180 228 275 319
#     4   9  18  30  54  79 109 132 180 236 269 308
#     4  10  18  32  51  83 106 136 179 228 277 307
#
# _framework density 16.598099999999999
#
# number of rings (size 3 to 8) (size 9 to 14) (size 15 to 20)
#    0.000    1.667    8.333    0.000    0.000    0.333 
#    0.000    2.500    0.000    0.500    0.000    3.500 
#    0.000    0.000    0.000    0.000    0.000    0.000 
#
# Total GULP energy -297605.861288 kJ/mol
# GULP energy per Si atom -12400.244220 kJ/mol
# Density = 1.656032 g / cm^3
# Si number density = 16.598100 Si / 1000 Ang^3
#
#
#
# Elastic Constant Matrix: (Units=GPa)
#
#
# Indices 1 2 3 4 5 6 
#
# 1 100.0124 35.3712 67.1731 -0.0018 8.6877 0.0010
# 2 35.3712 96.3793 57.8527 -0.0024 1.9312 0.0017
# 3 67.1731 57.8527 153.3192 -0.0025 -6.9859 0.0020
# 4 -0.0018 -0.0024 -0.0025 16.7150 0.0020 -0.9546
# 5 8.6877 1.9312 -6.9859 0.0020 41.3390 -0.0013
# 6 0.0010 0.0017 0.0020 -0.9546 -0.0013 11.1691
#
#
#
# Elastic Compliance Matrix: (Units=1/GPa)
#
#
# Indices 1 2 3 4 5 6 
#
# 1 0.015108 -0.001779 -0.006136 0.000001 -0.004129 0.000000
# 2 -0.001779 0.013715 -0.004442 0.000001 -0.001018 -0.000001
# 3 -0.006136 -0.004442 0.011040 0.000000 0.003363 0.000000
# 4 0.000001 0.000001 0.000000 0.060120 -0.000003 0.005139
# 5 -0.004129 -0.001018 0.003363 -0.000003 0.025674 0.000003
# 6 0.000000 -0.000001 0.000000 0.005139 0.000003 0.089972
#
#
# Mechanical properties :
#
#
# Convention : Reuss Voigt Hill
#
# Bulk Modulus (GPa) = 66.01013 74.50054 70.25534
# Shear Modulus (GPa) = 20.37545 26.46553 23.42049
#
# Velocity S-wave (km/s) = 3.50748 3.99744 3.76045
# Velocity P-wave (km/s) = 7.50062 8.14177 7.82776
#
# Compressibility (1/GPa) = 0.01514919
#
# Stress axis : x y z
#
# Youngs Moduli (GPa) = 66.19119 72.91068 90.57769
#
# Poissons Ratio (x) = 0.12967 0.55580
# Poissons Ratio (y) = 0.11772 0.40239
# Poissons Ratio (z) = 0.40616 0.32390
#
# Static dielectric constant tensor:
#      x y z
#    x 3.371760 0.000000 -0.127470 
#    y 0.000000 2.533620 0.000000 
#    z -0.127470 0.000000 3.838240 
# 
# 
# High freq. dielectric constant tensor:
#      x y z
#    x 1.655240 0.000000 0.001280 
#    y 0.000000 1.569700 0.000000 
#    z 0.001280 0.000000 1.666890 
# 
# From -- ./inp_files/216234.got.cif
#   From: 2010.06.25/outbox.cif.g09.slc.cpg/sg12_109_cif.got.tgz:216234.got - 2010.06.28 00:19:55.
