data_PCOD8082048
_publ_section_title
;
Structure prediction by ZEFSAII (Michael W. Deem and Ramdas Pophale) SiO2 
 PCOD8082048
Probable space group: C 2/M
;
_chemical_formula_sum "Si O2"
_cell_formula_units_Z 48
_cell_length_a 18.951139
_cell_length_b 13.230027
_cell_length_c 11.878790
_cell_angle_alpha 90.000000
_cell_angle_beta 66.096050
_cell_angle_gamma 90.000000
_cell_volume 2722.838176
_symmetry_space_group_name_H-M "C 2/M"
_symmetry_group_IT_number 12
_symmetry_cell_setting 'monoclinic'
loop_
_space_group_symop_operation_xyz
x,y,z
-x,y,-z
-x,-y,-z
x,-y,z
1/2+x,1/2+y,z
1/2-x,1/2+y,-z
1/2-x,1/2-y,-z
1/2+x,1/2-y,z
loop_
_atom_site_type_symbol
_atom_site_label
_atom_site_fract_x
_atom_site_fract_y
_atom_site_fract_z
Si Si1 0.517333 0.197727 0.663735
Si Si2 0.983286 0.883725 0.191885
Si Si3 0.274887 0.114622 0.833404
Si Si4 0.084302 0.613962 0.089190
Si Si5 0.107573 0.382054 0.420117
Si Si6 0.110285 0.192363 0.953734
O O1 0.525413 0.316074 0.690402
O O2 0.494440 0.134517 0.790208
O O3 0.450585 0.184886 0.615490
O O4 0.597571 0.155407 0.556411
O O5 0.916736 0.850001 0.148233
O O6 0.971769 0.000000 0.233619
O O7 0.067598 0.868914 0.081309
O O8 0.342611 0.136418 0.878175
O O9 0.306741 0.135492 0.685574
O O10 0.202189 0.184771 0.905999
O O11 0.246036 0.000000 0.862089
O O12 0.083971 0.500000 0.043373
O O13 0.088408 0.689092 0.979983
O O14 0.085096 0.500000 0.422461
#
# Coordination Sequence:
#
# PCOD8082048 Si02
#       6
#     8   8   8   8   8   8
#     4   9  16  29  47  67  90 116 144 181 224 262
#     4  10  20  32  46  64  88 120 156 187 215 257
#     4   9  16  27  47  70  90 116 148 182 220 260
#     4   9  17  28  45  71  95 114 142 184 228 266
#     4   9  16  29  50  72  92 113 143 184 224 267
#     4  10  18  31  47  64  90 123 153 182 217 263
#
# _framework density 17.628664000000001
#
# number of rings (size 3 to 8) (size 9 to 14) (size 15 to 20)
#    0.000    2.667    0.000    5.500    0.000    0.000 
#    0.000   10.833    0.000    1.000    0.000    0.000 
#    0.000    0.000    0.000    0.000    0.000    0.000 
#
# Total GULP energy -297427.218773 kJ/mol
# GULP energy per Si atom -12392.800782 kJ/mol
# Density = 1.758854 g / cm^3
# Si number density = 17.628664 Si / 1000 Ang^3
#
#
#
# Elastic Constant Matrix: (Units=GPa)
#
#
# Indices 1 2 3 4 5 6 
#
# 1 30.9078 23.1101 19.3802 0.0000 -6.4907 0.0000
# 2 23.1101 138.4506 42.3622 0.0000 7.8569 0.0000
# 3 19.3802 42.3622 68.1696 0.0000 -4.1856 0.0000
# 4 0.0000 0.0000 0.0000 27.2641 0.0000 3.5891
# 5 -6.4907 7.8569 -4.1856 0.0000 17.3432 0.0000
# 6 0.0000 0.0000 0.0000 3.5891 0.0000 19.9244
#
#
#
# Elastic Compliance Matrix: (Units=1/GPa)
#
#
# Indices 1 2 3 4 5 6 
#
# 1 0.045837 -0.006205 -0.008069 0.000000 0.018018 0.000000
# 2 -0.006205 0.010298 -0.005141 0.000000 -0.008228 0.000000
# 3 -0.008069 -0.005141 0.020418 0.000000 0.004237 0.000000
# 4 0.000000 0.000000 0.000000 0.037569 0.000000 -0.006768
# 5 0.018018 -0.008228 0.004237 0.000000 0.069153 0.000000
# 6 0.000000 0.000000 0.000000 -0.006768 0.000000 0.051409
#
#
# Mechanical properties :
#
#
# Convention : Reuss Voigt Hill
#
# Bulk Modulus (GPa) = 26.50829 45.24810 35.87820
# Shear Modulus (GPa) = 17.47712 23.08471 20.28091
#
# Velocity S-wave (km/s) = 3.15207 3.62262 3.39551
# Velocity P-wave (km/s) = 5.32138 6.57426 5.98072
#
# Compressibility (1/GPa) = 0.03772404
#
# Stress axis : x y z
#
# Youngs Moduli (GPa) = 21.81649 97.10248 48.97608
#
# Poissons Ratio (x) = 0.60248 0.39519
# Poissons Ratio (y) = 0.13536 0.25178
# Poissons Ratio (z) = 0.17604 0.49920
#
# Static dielectric constant tensor:
#      x y z
#    x 2.944830 0.000000 -0.169870 
#    y 0.000000 3.252350 0.000000 
#    z -0.169870 0.000000 3.568050 
# 
# 
# High freq. dielectric constant tensor:
#      x y z
#    x 1.647190 0.000000 -0.014470 
#    y 0.000000 1.678210 0.000000 
#    z -0.014470 0.000000 1.675010 
# 
# From -- ./inp_files/164703.got.cif
#   From: 2010.06.25/outbox.cif.g09.slc.cpg/sg12_83_cif.got.tgz:164703.got - 2010.06.28 00:19:55.
