data_PCOD8082840
_publ_section_title
;
Structure prediction by ZEFSAII (Michael W. Deem and Ramdas Pophale) SiO2 
 PCOD8082840
Probable space group: C 2/M
;
_chemical_formula_sum "Si O2"
_cell_formula_units_Z 40
_cell_length_a 26.448870
_cell_length_b 17.553244
_cell_length_c 9.033600
_cell_angle_alpha 90.000000
_cell_angle_beta 149.779193
_cell_angle_gamma 90.000000
_cell_volume 2110.966991
_symmetry_space_group_name_H-M "C 2/M"
_symmetry_group_IT_number 12
_symmetry_cell_setting 'monoclinic'
loop_
_space_group_symop_operation_xyz
x,y,z
-x,y,-z
-x,-y,-z
x,-y,z
1/2+x,1/2+y,z
1/2-x,1/2+y,-z
1/2-x,1/2-y,-z
1/2+x,1/2-y,z
loop_
_atom_site_type_symbol
_atom_site_label
_atom_site_fract_x
_atom_site_fract_y
_atom_site_fract_z
Si Si1 0.895188 0.224290 0.934439
Si Si2 0.895021 0.723914 0.430277
Si Si3 0.892036 0.862552 0.208413
Si Si4 0.218436 0.414196 0.966154
Si Si5 0.719993 0.308771 0.630299
O O1 0.816386 0.290876 0.774482
O O2 0.876668 0.190052 0.723294
O O3 0.877392 0.152135 0.997039
O O4 0.003239 0.265257 0.218574
O O5 0.898391 0.778915 0.298429
O O6 0.876070 0.638438 0.322186
O O7 0.799944 0.744409 0.294388
O O8 0.000000 0.904397 0.500000
O O9 0.805115 0.913414 0.060163
O O10 0.178388 0.500000 0.881183
O O11 0.264620 0.387696 0.241314
#
# Coordination Sequence:
#
# PCOD8082840 Si02
#       5
#     8   8   8   8   8
#     4  10  18  31  60  81 101 133 190 242 264 297
#     4  10  18  34  55  82 107 138 187 227 269 316
#     4   9  17  33  58  79 100 139 197 237 255 309
#     4  11  21  35  53  80 121 150 170 217 286 342
#     4  10  19  34  54  82 105 141 192 231 265 310
#
# _framework density 18.948661999999999
#
# number of rings (size 3 to 8) (size 9 to 14) (size 15 to 20)
#    0.000    2.000    4.000    1.800    0.000    0.400 
#    0.000    3.000    0.000   18.000    0.000    0.000 
#    0.000    0.000    0.000    0.000    0.000    0.000 
#
# Total GULP energy -247897.420907 kJ/mol
# GULP energy per Si atom -12394.871045 kJ/mol
# Density = 1.890553 g / cm^3
# Si number density = 18.948662 Si / 1000 Ang^3
#
#
#
# Elastic Constant Matrix: (Units=GPa)
#
#
# Indices 1 2 3 4 5 6 
#
# 1 58.3162 14.6195 16.7482 0.0000 -9.3164 0.0000
# 2 14.6195 96.2505 32.8986 0.0000 -10.5281 0.0000
# 3 16.7482 32.8986 101.3201 0.0000 -11.6075 0.0000
# 4 0.0000 0.0000 0.0000 16.4994 0.0000 1.2780
# 5 -9.3164 -10.5281 -11.6075 0.0000 39.4485 0.0000
# 6 0.0000 0.0000 0.0000 1.2780 0.0000 12.5479
#
#
#
# Elastic Compliance Matrix: (Units=1/GPa)
#
#
# Indices 1 2 3 4 5 6 
#
# 1 0.018734 -0.001747 -0.002148 0.000000 0.003326 0.000000
# 2 -0.001747 0.012016 -0.003407 0.000000 0.001791 0.000000
# 3 -0.002148 -0.003407 0.011559 0.000000 0.001984 0.000000
# 4 0.000000 0.000000 0.000000 0.061090 0.000000 -0.006222
# 5 0.003326 0.001791 0.001984 0.000000 0.027197 0.000000
# 6 0.000000 0.000000 0.000000 -0.006222 0.000000 0.080329
#
#
# Mechanical properties :
#
#
# Convention : Reuss Voigt Hill
#
# Bulk Modulus (GPa) = 36.09839 42.71327 39.40583
# Shear Modulus (GPa) = 21.29794 26.47385 23.88590
#
# Velocity S-wave (km/s) = 3.35622 3.74188 3.55429
# Velocity P-wave (km/s) = 5.84046 6.42335 6.13883
#
# Compressibility (1/GPa) = 0.02770206
#
# Stress axis : x y z
#
# Youngs Moduli (GPa) = 53.37803 83.22529 86.51622
#
# Poissons Ratio (x) = 0.14543 0.18587
# Poissons Ratio (y) = 0.09328 0.29479
# Poissons Ratio (z) = 0.11467 0.28358
#
# Static dielectric constant tensor:
#      x y z
#    x 3.586680 0.000000 0.006390 
#    y 0.000000 2.873950 0.000000 
#    z 0.006390 0.000000 3.734710 
# 
# 
# High freq. dielectric constant tensor:
#      x y z
#    x 1.747850 0.000000 0.002060 
#    y 0.000000 1.673780 0.000000 
#    z 0.002060 0.000000 1.746770 
# 
# From -- ./inp_files/58969.got.cif
#   From: 2010.06.25/outbox.cif.g09.slc.cpg/sg12_30_cif.got.tgz:58969.got - 2010.06.28 00:19:55.
