data_PCOD8082451
_publ_section_title
;
Structure prediction by ZEFSAII (Michael W. Deem and Ramdas Pophale) SiO2 
 PCOD8082451
Probable space group: C 2/M
;
_chemical_formula_sum "Si O2"
_cell_formula_units_Z 48
_cell_length_a 28.413974
_cell_length_b 21.650738
_cell_length_c 12.569492
_cell_angle_alpha 90.000000
_cell_angle_beta 18.240113
_cell_angle_gamma 90.000000
_cell_volume 2420.285713
_symmetry_space_group_name_H-M "C 2/M"
_symmetry_group_IT_number 12
_symmetry_cell_setting 'monoclinic'
loop_
_space_group_symop_operation_xyz
x,y,z
-x,y,-z
-x,-y,-z
x,-y,z
1/2+x,1/2+y,z
1/2-x,1/2+y,-z
1/2-x,1/2-y,-z
1/2+x,1/2-y,z
loop_
_atom_site_type_symbol
_atom_site_label
_atom_site_fract_x
_atom_site_fract_y
_atom_site_fract_z
Si Si1 0.368525 0.260380 0.021935
Si Si2 0.583331 0.184783 0.710274
Si Si3 0.324253 0.804231 0.908818
Si Si4 0.634037 0.647592 0.143481
Si Si5 0.628865 0.935129 0.140110
Si Si6 0.386091 0.928881 0.493721
O O1 0.245138 0.282188 0.373400
O O2 0.495826 0.221116 0.805609
O O3 0.286056 0.220967 0.107463
O O4 0.432091 0.320986 0.822151
O O5 0.607110 0.113339 0.626576
O O6 0.500000 0.188868 0.000000
O O7 0.500000 0.797401 0.500000
O O8 0.275110 0.876864 0.028196
O O9 0.209738 0.793280 0.051158
O O10 0.500000 0.617866 0.500000
O O11 0.757208 0.596210 0.850894
O O12 0.500000 0.948240 0.500000
O O13 0.548333 0.922112 0.199702
O O14 0.723728 0.000000 0.927931
O O15 0.349551 0.000000 0.541633
#
# Coordination Sequence:
#
# PCOD8082451 Si02
#       6
#     8   8   8   8   8   8
#     4  10  21  36  53  81 115 143 182 230 285 334
#     4  11  22  38  59  80 106 144 190 244 291 327
#     4  10  19  30  52  79 113 145 178 220 268 336
#     4  10  20  32  50  80 116 149 174 209 271 341
#     4  10  18  31  52  76 108 144 181 218 264 329
#     4  10  21  36  54  78 109 146 184 228 273 326
#
# _framework density 19.832370999999998
#
# number of rings (size 3 to 8) (size 9 to 14) (size 15 to 20)
#    0.000    1.833    3.333    1.500    0.000    4.667 
#    0.000    0.000    0.000    0.000    0.000    0.000 
#    0.000   10.333    0.000    0.000    0.000    0.000 
#
# Total GULP energy -297344.373726 kJ/mol
# GULP energy per Si atom -12389.348905 kJ/mol
# Density = 1.978723 g / cm^3
# Si number density = 19.832371 Si / 1000 Ang^3
#
#
#
# Elastic Constant Matrix: (Units=GPa)
#
#
# Indices 1 2 3 4 5 6 
#
# 1 58.0589 21.1517 21.7233 -0.0012 8.1951 0.0005
# 2 21.1517 74.3381 23.5984 -0.0018 8.4846 0.0011
# 3 21.7233 23.5984 79.1962 0.0012 20.2361 0.0005
# 4 -0.0012 -0.0018 0.0012 16.3086 -0.0004 -0.7193
# 5 8.1951 8.4846 20.2361 -0.0004 32.4185 -0.0011
# 6 0.0005 0.0011 0.0005 -0.7193 -0.0011 23.2034
#
#
#
# Elastic Compliance Matrix: (Units=1/GPa)
#
#
# Indices 1 2 3 4 5 6 
#
# 1 0.020519 -0.004417 -0.003905 0.000001 -0.001593 0.000000
# 2 -0.004417 0.015857 -0.003258 0.000002 -0.001000 -0.000001
# 3 -0.003905 -0.003258 0.016893 -0.000002 -0.008705 -0.000001
# 4 0.000001 0.000002 -0.000002 0.061401 0.000001 0.001903
# 5 -0.001593 -0.001000 -0.008705 0.000001 0.036945 0.000002
# 6 0.000000 -0.000001 -0.000001 0.001903 0.000002 0.043156
#
#
# Mechanical properties :
#
#
# Convention : Reuss Voigt Hill
#
# Bulk Modulus (GPa) = 33.21209 38.28223 35.74716
# Shear Modulus (GPa) = 21.93293 24.06077 22.99685
#
# Velocity S-wave (km/s) = 3.32914 3.48689 3.40893
# Velocity P-wave (km/s) = 5.61786 5.96289 5.79294
#
# Compressibility (1/GPa) = 0.03010952
#
# Stress axis : x y z
#
# Youngs Moduli (GPa) = 48.73526 63.06298 59.19568
#
# Poissons Ratio (x) = 0.27854 0.23116
# Poissons Ratio (y) = 0.21526 0.19286
# Poissons Ratio (z) = 0.19031 0.20546
#
# Static dielectric constant tensor:
#      x y z
#    x 3.464740 0.000000 -0.094780 
#    y 0.000000 4.246210 0.000010 
#    z -0.094780 0.000010 3.301170 
# 
# 
# High freq. dielectric constant tensor:
#      x y z
#    x 1.755240 0.000000 -0.005130 
#    y 0.000000 1.794810 0.000000 
#    z -0.005130 0.000000 1.740920 
# 
# From -- ./inp_files/121842.got.cif
#   From: 2010.06.25/outbox.cif.g09.slc.cpg/sg12_61_cif.got.tgz:121842.got - 2010.06.28 00:19:55.
