data_PCOD8082715
_publ_section_title
;
Structure prediction by ZEFSAII (Michael W. Deem and Ramdas Pophale) SiO2 
 PCOD8082715
Probable space group: C 2/M
;
_chemical_formula_sum "Si O2"
_cell_formula_units_Z 48
_cell_length_a 15.005682
_cell_length_b 9.167645
_cell_length_c 18.140910
_cell_angle_alpha 90.000000
_cell_angle_beta 68.619794
_cell_angle_gamma 90.000000
_cell_volume 2323.844591
_symmetry_space_group_name_H-M "C 2/M"
_symmetry_group_IT_number 12
_symmetry_cell_setting 'monoclinic'
loop_
_space_group_symop_operation_xyz
x,y,z
-x,y,-z
-x,-y,-z
x,-y,z
1/2+x,1/2+y,z
1/2-x,1/2+y,-z
1/2-x,1/2-y,-z
1/2+x,1/2-y,z
loop_
_atom_site_type_symbol
_atom_site_label
_atom_site_fract_x
_atom_site_fract_y
_atom_site_fract_z
Si Si1 0.792189 0.166882 0.700073
Si Si2 0.309659 0.827170 0.419084
Si Si3 0.497657 0.667245 0.331492
Si Si4 0.815782 0.167603 0.146509
Si Si5 0.520593 0.333472 0.157778
Si Si6 0.896830 0.664832 0.993507
O O1 0.735249 0.220529 0.645483
O O2 0.766539 0.262692 0.778690
O O3 0.905533 0.182754 0.649954
O O4 0.765619 0.000000 0.726559
O O5 0.250000 0.750000 0.500000
O O6 0.418357 0.771234 0.391027
O O7 0.306392 0.000000 0.431525
O O8 0.460450 0.500000 0.342686
O O9 0.521278 0.719066 0.241636
O O10 0.914530 0.188235 0.159525
O O11 0.790982 0.000000 0.139545
O O12 0.820527 0.247537 0.066067
O O13 0.554265 0.500000 0.140223
O O14 0.596198 0.236407 0.089514
O O15 0.860681 0.500000 0.995949
O O16 0.000000 0.672950 0.000000
#
# Coordination Sequence:
#
# PCOD8082715 Si02
#       6
#     8   8   8   8   8   8
#     4  10  22  39  61  88 119 154 193 237 289 347
#     4  11  24  42  65  91 119 152 189 235 288 348
#     4  10  21  40  63  88 119 155 193 237 290 347
#     4  10  18  31  54  82 114 152 196 244 290 339
#     4   9  17  31  53  80 111 150 193 240 289 338
#     4   9  17  28  47  77 113 153 196 242 288 337
#
# _framework density 20.655425999999999
#
# number of rings (size 3 to 8) (size 9 to 14) (size 15 to 20)
#    0.000    2.167    1.667    1.500    0.000    5.333 
#    0.000    4.167    0.000    0.000    0.000    0.000 
#    0.000    0.000    0.000    0.000    0.000    0.000 
#
# Total GULP energy -297687.618039 kJ/mol
# GULP energy per Si atom -12403.650752 kJ/mol
# Density = 2.060841 g / cm^3
# Si number density = 20.655426 Si / 1000 Ang^3
#
#
#
# Elastic Constant Matrix: (Units=GPa)
#
#
# Indices 1 2 3 4 5 6 
#
# 1 45.0896 30.5470 29.2186 0.0000 -19.3794 0.0000
# 2 30.5470 118.9840 68.3844 0.0000 -18.4219 0.0000
# 3 29.2186 68.3844 119.0096 0.0000 -23.4117 0.0000
# 4 0.0000 0.0000 0.0000 43.4369 0.0000 -7.6792
# 5 -19.3794 -18.4219 -23.4117 0.0000 16.4308 0.0000
# 6 0.0000 0.0000 0.0000 -7.6792 0.0000 23.8251
#
#
#
# Elastic Compliance Matrix: (Units=1/GPa)
#
#
# Indices 1 2 3 4 5 6 
#
# 1 0.046791 -0.004841 0.001505 0.000000 0.051904 0.000000
# 2 -0.004841 0.013387 -0.006495 0.000000 0.000045 0.000000
# 3 0.001505 -0.006495 0.014842 0.000000 0.015641 0.000000
# 4 0.000000 0.000000 0.000000 0.024413 0.000000 0.007869
# 5 0.051904 0.000045 0.015641 0.000000 0.144417 0.000000
# 6 0.000000 0.000000 0.000000 0.007869 0.000000 0.044509
#
#
# Mechanical properties :
#
#
# Convention : Reuss Voigt Hill
#
# Bulk Modulus (GPa) = 18.06446 59.93146 38.99796
# Shear Modulus (GPa) = 15.31508 27.06746 21.19127
#
# Velocity S-wave (km/s) = 2.72592 3.62391 3.20651
# Velocity P-wave (km/s) = 4.32113 6.82555 5.71228
#
# Compressibility (1/GPa) = 0.05535731
#
# Stress axis : x y z
#
# Youngs Moduli (GPa) = 21.37147 74.69749 67.37486
#
# Poissons Ratio (x) = 0.36164 -0.10138
# Poissons Ratio (y) = 0.10347 0.43761
# Poissons Ratio (z) = -0.03216 0.48517
#
# Static dielectric constant tensor:
#      x y z
#    x 3.613700 0.000000 0.011050 
#    y 0.000000 3.746350 0.000000 
#    z 0.011050 0.000000 3.716010 
# 
# 
# High freq. dielectric constant tensor:
#      x y z
#    x 1.797350 0.000000 -0.002490 
#    y 0.000000 1.806990 0.000000 
#    z -0.002490 0.000000 1.805910 
# 
# From -- ./inp_files/274055.got.cif
#   From: 2010.06.25/outbox.cif.g09.slc.cpg/sg12_138_cif.got.tgz:274055.got - 2010.06.28 00:19:55.
