data_PCOD8082369
_publ_section_title
;
Structure prediction by ZEFSAII (Michael W. Deem and Ramdas Pophale) SiO2 
 PCOD8082369
Probable space group: C 2/M
;
_chemical_formula_sum "Si O2"
_cell_formula_units_Z 52
_cell_length_a 20.581948
_cell_length_b 13.914586
_cell_length_c 21.566315
_cell_angle_alpha 90.000000
_cell_angle_beta 153.913324
_cell_angle_gamma 90.000000
_cell_volume 2715.933461
_symmetry_space_group_name_H-M "C 2/M"
_symmetry_group_IT_number 12
_symmetry_cell_setting 'monoclinic'
loop_
_space_group_symop_operation_xyz
x,y,z
-x,y,-z
-x,-y,-z
x,-y,z
1/2+x,1/2+y,z
1/2-x,1/2+y,-z
1/2-x,1/2-y,-z
1/2+x,1/2-y,z
loop_
_atom_site_type_symbol
_atom_site_label
_atom_site_fract_x
_atom_site_fract_y
_atom_site_fract_z
Si Si1 0.771448 0.176608 0.313078
Si Si2 0.106473 0.891186 0.458876
Si Si3 0.597249 0.106416 0.711479
Si Si4 0.000000 0.340626 0.500000
Si Si5 0.798926 0.191807 0.198076
Si Si6 0.595385 0.111497 0.338907
Si Si7 0.527565 0.886902 0.893965
O O1 0.856240 0.109338 0.435239
O O2 0.781393 0.141491 0.250308
O O3 0.597138 0.177256 0.178943
O O4 0.851510 0.279519 0.385585
O O5 0.243333 0.842919 0.537978
O O6 0.965888 0.827883 0.319530
O O7 0.072060 0.000000 0.409981
O O8 0.523594 0.095035 0.580876
O O9 0.720676 0.191211 0.816754
O O10 0.470820 0.139251 0.651612
O O11 0.662228 0.000000 0.784931
O O12 0.686792 0.145518 0.053996
O O13 0.477759 0.136882 0.183838
O O14 0.630013 0.000000 0.364779
O O15 0.501140 0.000000 0.885002
#
# Coordination Sequence:
#
# PCOD8082369 Si02
#       7
#     8   8   8   4   8   8   8
#     4  10  18  34  49  78 114 137 173 216 255 311
#     4  10  18  31  51  78 112 142 171 214 263 315
#     4  10  20  37  59  77 103 138 179 231 277 302
#     4  10  19  36  57  86 100 130 183 234 259 314
#     4  11  21  32  51  81 108 141 184 218 249 317
#     4   8  18  35  54  77 106 141 177 214 264 322
#     4  10  21  35  52  79 116 149 170 204 261 324
#
# _framework density 19.146272
#
# number of rings (size 3 to 8) (size 9 to 14) (size 15 to 20)
#    0.000    2.154    3.077    2.538    0.000    4.923 
#    0.000    0.000    0.000    8.308    0.000    0.000 
#    0.000    0.000    0.000    0.000    0.000    0.000 
#
# Total GULP energy -322129.117590 kJ/mol
# GULP energy per Si atom -12389.581446 kJ/mol
# Density = 1.910269 g / cm^3
# Si number density = 19.146272 Si / 1000 Ang^3
#
#
#
# Elastic Constant Matrix: (Units=GPa)
#
#
# Indices 1 2 3 4 5 6 
#
# 1 106.0014 25.4471 40.0310 -0.0247 -5.8492 0.0000
# 2 25.4471 70.0248 21.9660 -0.0151 1.7185 -0.0009
# 3 40.0310 21.9660 112.2746 -0.0331 9.4946 -0.0015
# 4 -0.0247 -0.0151 -0.0331 -74.2015 -0.0103 7.1039
# 5 -5.8492 1.7185 9.4946 -0.0103 15.0924 -0.0004
# 6 0.0000 -0.0009 -0.0015 7.1039 -0.0004 21.3927
#
#
#
# Elastic Compliance Matrix: (Units=1/GPa)
#
#
# Indices 1 2 3 4 5 6 
#
# 1 0.012332 -0.003288 -0.004425 -0.000003 0.007938 0.000001
# 2 -0.003288 0.016092 -0.001809 -0.000001 -0.001968 0.000001
# 3 -0.004425 -0.001809 0.011582 -0.000002 -0.008795 0.000001
# 4 -0.000003 -0.000001 -0.000002 -0.013062 -0.000008 0.004337
# 5 0.007938 -0.001968 -0.008795 -0.000008 0.075092 0.000003
# 6 0.000001 0.000001 0.000001 0.004337 0.000003 0.045305
#
#
# Mechanical properties :
#
#
# Convention : Reuss Voigt Hill
#
# Bulk Modulus (GPa) = 47.70806 51.46545 49.58675
# Shear Modulus (GPa) = 28.83948 5.84715 17.34332
#
# Velocity S-wave (km/s) = 3.88528 1.74945 3.01297
# Velocity P-wave (km/s) = 6.71558 5.56949 6.16921
#
# Compressibility (1/GPa) = 0.02096082
#
# Stress axis : x y z
#
# Youngs Moduli (GPa) = 81.08777 62.14459 86.33947
#
# Poissons Ratio (x) = 0.20435 0.38205
# Poissons Ratio (y) = 0.26664 0.15622
# Poissons Ratio (z) = 0.35881 0.11244
#
# Static dielectric constant tensor:
#      x y z
#    x 3.701540 0.000000 -0.091800 
#    y 0.000000 3.277710 0.000000 
#    z -0.091800 0.000000 3.361540 
# 
# 
# High freq. dielectric constant tensor:
#      x y z
#    x 1.746000 0.000000 -0.007530 
#    y 0.000000 1.729060 0.000000 
#    z -0.007530 0.000000 1.726280 
# 
# From -- ./inp_files/321961.got.cif
#   From: 2010.06.25/outbox.cif.g09.slc.cpg/sg12_161_cif.got.tgz:321961.got - 2010.06.28 00:19:55.
