data_PCOD8082051
_publ_section_title
;
Structure prediction by ZEFSAII (Michael W. Deem and Ramdas Pophale) SiO2 
 PCOD8082051
Probable space group: C 2/M
;
_chemical_formula_sum "Si O2"
_cell_formula_units_Z 48
_cell_length_a 23.855683
_cell_length_b 8.912996
_cell_length_c 15.271950
_cell_angle_alpha 90.000000
_cell_angle_beta 61.987818
_cell_angle_gamma 90.000000
_cell_volume 2866.789978
_symmetry_space_group_name_H-M "C 2/M"
_symmetry_group_IT_number 12
_symmetry_cell_setting 'monoclinic'
loop_
_space_group_symop_operation_xyz
x,y,z
-x,y,-z
-x,-y,-z
x,-y,z
1/2+x,1/2+y,z
1/2-x,1/2+y,-z
1/2-x,1/2-y,-z
1/2+x,1/2-y,z
loop_
_atom_site_type_symbol
_atom_site_label
_atom_site_fract_x
_atom_site_fract_y
_atom_site_fract_z
Si Si1 0.182368 0.176120 0.535450
Si Si2 0.926222 0.173452 0.068093
Si Si3 0.197659 0.827457 0.149699
Si Si4 0.353815 0.177962 0.273818
Si Si5 0.214433 0.824774 0.326645
Si Si6 0.158062 0.671759 0.011766
O O1 0.250000 0.250000 0.500000
O O2 0.132675 0.253781 0.638594
O O3 0.166710 0.206249 0.443599
O O4 0.185711 0.000000 0.552280
O O5 0.906878 0.265265 0.168441
O O6 0.890186 0.230554 0.008884
O O7 0.909737 0.000000 0.094780
O O8 0.000000 0.200963 0.000000
O O9 0.184824 0.763090 0.257478
O O10 0.272264 0.808237 0.078611
O O11 0.176729 0.000000 0.153854
O O12 0.156563 0.728974 0.112956
O O13 0.285086 0.240165 0.292606
O O14 0.356658 0.000000 0.278087
O O15 0.225114 0.000000 0.304281
O O16 0.135862 0.500000 0.025529
#
# Coordination Sequence:
#
# PCOD8082051 Si02
#       6
#     8   8   8   8   8   8
#     4   9  16  26  42  66  95 127 160 194 235 283
#     4  11  23  36  50  69  93 125 165 204 241 285
#     4   9  16  29  47  68  97 129 157 191 233 281
#     4  10  18  31  47  66  94 126 160 198 240 286
#     4   8  14  26  44  67  95 126 156 187 228 280
#     4  10  19  31  47  69  95 125 160 197 237 283
#
# _framework density 16.743465
#
# number of rings (size 3 to 8) (size 9 to 14) (size 15 to 20)
#    0.000    2.500    1.667    3.000    0.000    2.000 
#    0.000    1.667    0.000    0.000    0.000    1.167 
#    0.000    9.333    0.000    0.000    0.000    0.000 
#
# Total GULP energy -297443.712485 kJ/mol
# GULP energy per Si atom -12393.488020 kJ/mol
# Density = 1.670536 g / cm^3
# Si number density = 16.743465 Si / 1000 Ang^3
#
#
#
# Elastic Constant Matrix: (Units=GPa)
#
#
# Indices 1 2 3 4 5 6 
#
# 1 39.9875 27.8039 42.6233 0.0000 8.6108 0.0000
# 2 27.8039 81.3639 55.1080 0.0000 4.9489 0.0000
# 3 42.6233 55.1080 150.2673 0.0000 31.2532 0.0000
# 4 0.0000 0.0000 0.0000 28.3965 0.0000 2.9154
# 5 8.6108 4.9489 31.2532 0.0000 21.6285 0.0000
# 6 0.0000 0.0000 0.0000 2.9154 0.0000 18.6786
#
#
#
# Elastic Compliance Matrix: (Units=1/GPa)
#
#
# Indices 1 2 3 4 5 6 
#
# 1 0.039371 -0.008139 -0.007591 0.000000 -0.002842 0.000000
# 2 -0.008139 0.018821 -0.006250 0.000000 0.007965 0.000000
# 3 -0.007591 -0.006250 0.014546 0.000000 -0.016566 0.000000
# 4 0.000000 0.000000 0.000000 0.035789 0.000000 -0.005586
# 5 -0.002842 0.007965 -0.016566 0.000000 0.069482 0.000000
# 6 0.000000 0.000000 0.000000 -0.005586 0.000000 0.054409
#
#
# Mechanical properties :
#
#
# Convention : Reuss Voigt Hill
#
# Bulk Modulus (GPa) = 34.75162 58.07656 46.41409
# Shear Modulus (GPa) = 17.48423 23.47962 20.48192
#
# Velocity S-wave (km/s) = 3.23498 3.74881 3.50133
# Velocity P-wave (km/s) = 5.89524 7.31434 6.64279
#
# Compressibility (1/GPa) = 0.02877564
#
# Stress axis : x y z
#
# Youngs Moduli (GPa) = 25.39926 53.13326 68.74870
#
# Poissons Ratio (x) = 0.43247 0.52190
# Poissons Ratio (y) = 0.20674 0.42968
# Poissons Ratio (z) = 0.19282 0.33209
#
# Static dielectric constant tensor:
#      x y z
#    x 2.800560 0.000000 0.384590 
#    y 0.000000 3.189010 0.000000 
#    z 0.384590 0.000000 3.650770 
# 
# 
# High freq. dielectric constant tensor:
#      x y z
#    x 1.587510 0.000000 0.030760 
#    y 0.000000 1.646340 0.000000 
#    z 0.030760 0.000000 1.658450 
# 
# From -- ./inp_files/229928.got.cif
#   From: 2010.06.25/outbox.cif.g09.slc.cpg/sg12_115_cif.got.tgz:229928.got - 2010.06.28 00:19:55.
