data_PCOD8082696
_publ_section_title
;
Structure prediction by ZEFSAII (Michael W. Deem and Ramdas Pophale) SiO2 
 PCOD8082696
Probable space group: C 2/M
;
_chemical_formula_sum "Si O2"
_cell_formula_units_Z 40
_cell_length_a 18.593733
_cell_length_b 10.421264
_cell_length_c 16.464078
_cell_angle_alpha 90.000000
_cell_angle_beta 135.987229
_cell_angle_gamma 90.000000
_cell_volume 2216.643726
_symmetry_space_group_name_H-M "C 2/M"
_symmetry_group_IT_number 12
_symmetry_cell_setting 'monoclinic'
loop_
_space_group_symop_operation_xyz
x,y,z
-x,y,-z
-x,-y,-z
x,-y,z
1/2+x,1/2+y,z
1/2-x,1/2+y,-z
1/2-x,1/2-y,-z
1/2+x,1/2-y,z
loop_
_atom_site_type_symbol
_atom_site_label
_atom_site_fract_x
_atom_site_fract_y
_atom_site_fract_z
Si Si1 0.541962 0.646845 0.317647
Si Si2 0.192065 0.146159 0.899137
Si Si3 0.813128 0.858750 0.710778
Si Si4 0.904883 0.726256 0.472988
Si Si5 0.246040 0.856759 0.757444
O O1 0.557734 0.500000 0.356555
O O2 0.429658 0.668316 0.187281
O O3 0.626488 0.688407 0.319818
O O4 0.554538 0.732809 0.406696
O O5 0.221306 0.171999 0.830135
O O6 0.222270 0.000000 0.948860
O O7 0.250000 0.250000 0.000000
O O8 0.690202 0.872431 0.591237
O O9 0.829376 0.750153 0.793877
O O10 0.853152 0.000000 0.771315
O O11 0.859554 0.844726 0.381789
O O12 0.000000 0.663023 0.500000
O O13 0.291320 0.000000 0.782800
#
# Coordination Sequence:
#
# PCOD8082696 Si02
#       5
#     8   8   8   8   8
#     4  10  18  33  55  79 108 140 177 213 258 319
#     4  10  21  38  58  80 101 135 182 226 262 307
#     4   9  20  33  49  80 115 141 168 210 264 317
#     4  10  18  31  54  81 108 139 172 212 258 310
#     4   9  19  34  55  78 102 136 179 214 256 315
#
# _framework density 18.045299
#
# number of rings (size 3 to 8) (size 9 to 14) (size 15 to 20)
#    1.200    1.200    2.000    1.200    0.000    2.000 
#    0.000    3.000    0.000    6.000    0.000    0.000 
#    0.000    0.000    0.000    0.000    0.000    0.000 
#
# Total GULP energy -247776.091433 kJ/mol
# GULP energy per Si atom -12388.804572 kJ/mol
# Density = 1.800423 g / cm^3
# Si number density = 18.045299 Si / 1000 Ang^3
#
#
#
# Elastic Constant Matrix: (Units=GPa)
#
#
# Indices 1 2 3 4 5 6 
#
# 1 145.5036 53.4724 36.8704 0.0000 -4.3453 0.0000
# 2 53.4724 92.5188 39.9688 0.0000 -10.2687 0.0000
# 3 36.8704 39.9688 66.2515 0.0000 -7.8057 0.0000
# 4 0.0000 0.0000 0.0000 25.4282 0.0000 -3.2982
# 5 -4.3453 -10.2687 -7.8057 0.0000 12.9305 0.0000
# 6 0.0000 0.0000 0.0000 -3.2982 0.0000 24.9097
#
#
#
# Elastic Compliance Matrix: (Units=1/GPa)
#
#
# Indices 1 2 3 4 5 6 
#
# 1 0.009077 -0.004306 -0.002689 0.000000 -0.001992 0.000000
# 2 -0.004306 0.017232 -0.007060 0.000000 0.007976 0.000000
# 3 -0.002689 -0.007060 0.021620 0.000000 0.006541 0.000000
# 4 0.000000 0.000000 0.000000 0.040014 0.000000 0.005298
# 5 -0.001992 0.007976 0.006541 0.000000 0.086950 0.000000
# 6 0.000000 0.000000 0.000000 0.005298 0.000000 0.040846
#
#
# Mechanical properties :
#
#
# Convention : Reuss Voigt Hill
#
# Bulk Modulus (GPa) = 50.45250 62.76633 56.60942
# Shear Modulus (GPa) = 19.96363 24.25117 22.10740
#
# Velocity S-wave (km/s) = 3.32973 3.66991 3.50395
# Velocity P-wave (km/s) = 6.54235 7.26745 6.91441
#
# Compressibility (1/GPa) = 0.01982062
#
# Stress axis : x y z
#
# Youngs Moduli (GPa) = 110.17095 58.02994 46.25290
#
# Poissons Ratio (x) = 0.24986 0.12435
# Poissons Ratio (y) = 0.47436 0.32656
# Poissons Ratio (z) = 0.29620 0.40970
#
# Static dielectric constant tensor:
#      x y z
#    x 3.450410 0.000000 0.028830 
#    y 0.000000 3.200520 0.000000 
#    z 0.028830 0.000000 2.976090 
# 
# 
# High freq. dielectric constant tensor:
#      x y z
#    x 1.712360 0.000000 -0.005440 
#    y 0.000000 1.687470 0.000000 
#    z -0.005440 0.000000 1.665090 
# 
# From -- ./inp_files/223543.got.cif
#   From: 2010.06.25/outbox.cif.g09.slc.cpg/sg12_112_cif.got.tgz:223543.got - 2010.06.28 00:19:55.
