data_PCOD8082441
_publ_section_title
;
Structure prediction by ZEFSAII (Michael W. Deem and Ramdas Pophale) SiO2 
 PCOD8082441
Probable space group: C 2/M
;
_chemical_formula_sum "Si O2"
_cell_formula_units_Z 48
_cell_length_a 22.983952
_cell_length_b 8.368538
_cell_length_c 19.900524
_cell_angle_alpha 90.000000
_cell_angle_beta 43.670493
_cell_angle_gamma 90.000000
_cell_volume 2643.070699
_symmetry_space_group_name_H-M "C 2/M"
_symmetry_group_IT_number 12
_symmetry_cell_setting 'monoclinic'
loop_
_space_group_symop_operation_xyz
x,y,z
-x,y,-z
-x,-y,-z
x,-y,z
1/2+x,1/2+y,z
1/2-x,1/2+y,-z
1/2-x,1/2-y,-z
1/2+x,1/2-y,z
loop_
_atom_site_type_symbol
_atom_site_label
_atom_site_fract_x
_atom_site_fract_y
_atom_site_fract_z
Si Si1 0.557652 0.183870 0.540649
Si Si2 0.943849 0.674663 0.981058
Si Si3 0.700761 0.190890 0.812635
Si Si4 0.112045 0.186095 0.357429
Si Si5 0.843988 0.186037 0.417548
Si Si6 0.095686 0.691412 0.772900
O O1 0.457667 0.219481 0.627243
O O2 0.599998 0.289835 0.447190
O O3 0.598474 0.222167 0.577524
O O4 0.572099 0.000000 0.510396
O O5 0.919317 0.500000 0.973919
O O6 0.002594 0.755329 0.874670
O O7 0.857113 0.762943 0.077516
O O8 0.000000 0.654667 0.000000
O O9 0.796183 0.252473 0.740730
O O10 0.664852 0.244321 0.770267
O O11 0.696120 0.000000 0.819878
O O12 0.103793 0.000000 0.347942
O O13 0.750000 0.250000 0.500000
O O14 0.882624 0.216903 0.312643
O O15 0.844557 0.000000 0.434068
O O16 0.096075 0.500000 0.762242
#
# Coordination Sequence:
#
# PCOD8082441 Si02
#       6
#     8   8   8   8   8   8
#     4  11  22  36  51  70  98 131 168 205 246 292
#     4   7  11  22  43  72 101 128 160 196 234 281
#     4   8  14  25  47  77 103 128 161 199 238 285
#     4  10  18  31  52  76 102 131 165 205 247 289
#     4  12  24  37  52  72  99 129 163 200 244 296
#     4   9  16  29  50  75 103 133 163 196 238 288
#
# _framework density 18.160696000000002
#
# number of rings (size 3 to 8) (size 9 to 14) (size 15 to 20)
#    0.000    2.500    0.000    7.500    0.000    1.333 
#    0.000    0.833    0.000    7.500    0.000    0.000 
#    0.000    0.000    0.000    0.000    0.000    0.000 
#
# Total GULP energy -297383.843144 kJ/mol
# GULP energy per Si atom -12390.993464 kJ/mol
# Density = 1.811936 g / cm^3
# Si number density = 18.160696 Si / 1000 Ang^3
#
#
#
# Elastic Constant Matrix: (Units=GPa)
#
#
# Indices 1 2 3 4 5 6 
#
# 1 102.1937 13.9610 64.3580 0.0022 -15.7791 -0.0006
# 2 13.9610 44.6343 7.9697 0.0107 -4.1291 -0.0096
# 3 64.3580 7.9697 139.3480 0.0019 -24.6981 -0.0018
# 4 0.0022 0.0107 0.0019 16.3266 -0.0036 2.6222
# 5 -15.7791 -4.1291 -24.6981 -0.0036 31.8771 0.0021
# 6 -0.0006 -0.0096 -0.0018 2.6222 0.0021 21.4914
#
#
#
# Elastic Compliance Matrix: (Units=1/GPa)
#
#
# Indices 1 2 3 4 5 6 
#
# 1 0.014375 -0.003224 -0.006106 0.000002 0.001967 -0.000002
# 2 -0.003224 0.023497 0.000466 -0.000017 0.001809 0.000012
# 3 -0.006106 0.000466 0.010948 0.000000 0.005520 0.000000
# 4 0.000002 -0.000017 0.000000 0.062474 0.000006 -0.007623
# 5 0.001967 0.001809 0.005520 0.000006 0.036856 -0.000003
# 6 -0.000002 0.000012 0.000000 -0.007623 -0.000003 0.047460
#
#
# Mechanical properties :
#
#
# Convention : Reuss Voigt Hill
#
# Bulk Modulus (GPa) = 32.16338 50.97258 41.56798
# Shear Modulus (GPa) = 22.35118 27.26486 24.80802
#
# Velocity S-wave (km/s) = 3.51200 3.87888 3.69999
# Velocity P-wave (km/s) = 5.84760 6.94186 6.41809
#
# Compressibility (1/GPa) = 0.03109126
#
# Stress axis : x y z
#
# Youngs Moduli (GPa) = 69.56601 42.55883 91.33960
#
# Poissons Ratio (x) = 0.13721 0.55772
# Poissons Ratio (y) = 0.22428 -0.04254
# Poissons Ratio (z) = 0.42477 -0.01982
#
# Static dielectric constant tensor:
#      x y z
#    x 3.246980 0.000000 -0.332270 
#    y 0.000000 3.057810 -0.000010 
#    z -0.332270 -0.000010 3.828940 
# 
# 
# High freq. dielectric constant tensor:
#      x y z
#    x 1.677050 0.000000 -0.020210 
#    y 0.000000 1.677000 0.000000 
#    z -0.020210 0.000000 1.714740 
# 
# From -- ./inp_files/280777.got.cif
#   From: 2010.06.25/outbox.cif.g09.slc.cpg/sg12_141_cif.got.tgz:280777.got - 2010.06.28 00:19:55.
