data_PCOD8082780
_publ_section_title
;
Structure prediction by ZEFSAII (Michael W. Deem and Ramdas Pophale) SiO2 
 PCOD8082780
Probable space group: C 2/M
;
_chemical_formula_sum "Si O2"
_cell_formula_units_Z 64
_cell_length_a 14.934059
_cell_length_b 28.700073
_cell_length_c 12.155615
_cell_angle_alpha 90.000000
_cell_angle_beta 140.234274
_cell_angle_gamma 90.000000
_cell_volume 3332.577105
_symmetry_space_group_name_H-M "C 2/M"
_symmetry_group_IT_number 12
_symmetry_cell_setting 'monoclinic'
loop_
_space_group_symop_operation_xyz
x,y,z
-x,y,-z
-x,-y,-z
x,-y,z
1/2+x,1/2+y,z
1/2-x,1/2+y,-z
1/2-x,1/2-y,-z
1/2+x,1/2-y,z
loop_
_atom_site_type_symbol
_atom_site_label
_atom_site_fract_x
_atom_site_fract_y
_atom_site_fract_z
Si Si1 0.340237 0.279570 0.873415
Si Si2 0.145651 0.580031 0.592431
Si Si3 0.287278 0.665135 0.621533
Si Si4 0.305407 0.821029 0.901504
Si Si5 0.732115 0.551419 0.071771
Si Si6 0.968429 0.550926 0.736842
Si Si7 0.894279 0.146088 0.103917
Si Si8 0.605846 0.852288 0.245767
O O1 0.270128 0.291542 0.689297
O O2 0.269384 0.233874 0.858311
O O3 0.500000 0.266943 0.000000
O O4 0.324030 0.322885 0.941482
O O5 0.250812 0.620132 0.657362
O O6 0.222345 0.549981 0.757775
O O7 0.109835 0.547992 0.454219
O O8 0.000000 0.602114 0.500000
O O9 0.445157 0.659566 0.727849
O O10 0.185080 0.672000 0.422041
O O11 0.182680 0.844957 0.853901
O O12 0.307584 0.844031 0.783174
O O13 0.454254 0.828442 0.101248
O O14 0.669280 0.500000 0.985418
O O15 0.867362 0.561518 0.124019
O O16 0.618784 0.591582 0.940677
O O17 0.947664 0.500000 0.773566
O O18 0.904465 0.591768 0.751234
#
# Coordination Sequence:
#
# PCOD8082780 Si02
#       8
#     8   8   8   8   8   8   8   8
#     4  10  20  38  61  84 113 151 191 241 295 347
#     4   9  17  32  55  86 120 153 185 240 292 345
#     4  10  22  37  62  87 119 150 188 242 295 347
#     4  11  22  41  61  81 115 157 200 239 291 340
#     4  10  18  31  55  85 119 156 191 231 292 358
#     4   9  17  32  56  89 116 149 199 246 288 331
#     4  11  22  38  57  84 123 155 188 234 294 351
#     4  10  21  39  62  85 114 155 196 248 282 340
#
# _framework density 19.204356000000001
#
# number of rings (size 3 to 8) (size 9 to 14) (size 15 to 20)
#    0.000    2.000    3.750    0.750    0.000    2.500 
#    0.000    5.625    2.750    0.000    0.000    4.375 
#    0.000    0.000    0.000    0.000    0.000    0.000 
#
# Total GULP energy -396743.423694 kJ/mol
# GULP energy per Si atom -12398.231990 kJ/mol
# Density = 1.916065 g / cm^3
# Si number density = 19.204356 Si / 1000 Ang^3
#
#
#
# Elastic Constant Matrix: (Units=GPa)
#
#
# Indices 1 2 3 4 5 6 
#
# 1 89.2165 35.9913 25.2772 0.0000 -5.9261 0.0000
# 2 35.9913 125.1653 40.7700 0.0000 -9.5497 0.0000
# 3 25.2772 40.7700 87.7199 0.0000 -14.6624 0.0000
# 4 0.0000 0.0000 0.0000 18.3952 0.0000 -1.9248
# 5 -5.9261 -9.5497 -14.6624 0.0000 19.4930 0.0000
# 6 0.0000 0.0000 0.0000 -1.9248 0.0000 19.5332
#
#
#
# Elastic Compliance Matrix: (Units=1/GPa)
#
#
# Indices 1 2 3 4 5 6 
#
# 1 0.013101 -0.002969 -0.002256 0.000000 0.000831 0.000000
# 2 -0.002969 0.010127 -0.003629 0.000000 0.001329 0.000000
# 3 -0.002256 -0.003629 0.015241 0.000000 0.009000 0.000000
# 4 0.000000 0.000000 0.000000 0.054928 0.000000 0.005413
# 5 0.000831 0.001329 0.009000 0.000000 0.058974 0.000000
# 6 0.000000 0.000000 0.000000 0.005413 0.000000 0.051728
#
#
# Mechanical properties :
#
#
# Convention : Reuss Voigt Hill
#
# Bulk Modulus (GPa) = 48.16871 56.24207 52.20539
# Shear Modulus (GPa) = 21.86002 24.82181 23.34091
#
# Velocity S-wave (km/s) = 3.37751 3.59905 3.49004
# Velocity P-wave (km/s) = 6.35191 6.82792 6.59421
#
# Compressibility (1/GPa) = 0.02076037
#
# Stress axis : x y z
#
# Youngs Moduli (GPa) = 76.33107 98.75021 65.61159
#
# Poissons Ratio (x) = 0.29317 0.14804
# Poissons Ratio (y) = 0.22661 0.23810
# Poissons Ratio (z) = 0.17223 0.35836
#
# Static dielectric constant tensor:
#      x y z
#    x 3.430560 0.000000 -0.106290 
#    y 0.000000 3.551450 0.000000 
#    z -0.106290 0.000000 3.365540 
# 
# 
# High freq. dielectric constant tensor:
#      x y z
#    x 1.736580 0.000000 -0.008910 
#    y 0.000000 1.751180 0.000000 
#    z -0.008910 0.000000 1.727320 
# 
# From -- ./inp_files/150291.got.cif
#   From: 2010.06.25/outbox.cif.g09.slc.cpg/sg12_76_cif.got.tgz:150291.got - 2010.06.28 00:19:55.
