data_PCOD8082578
_publ_section_title
;
Structure prediction by ZEFSAII (Michael W. Deem and Ramdas Pophale) SiO2 
 PCOD8082578
Probable space group: C 2/M
;
_chemical_formula_sum "Si O2"
_cell_formula_units_Z 56
_cell_length_a 26.467474
_cell_length_b 9.109504
_cell_length_c 13.478114
_cell_angle_alpha 90.000000
_cell_angle_beta 61.619460
_cell_angle_gamma 90.000000
_cell_volume 2859.073214
_symmetry_space_group_name_H-M "C 2/M"
_symmetry_group_IT_number 12
_symmetry_cell_setting 'monoclinic'
loop_
_space_group_symop_operation_xyz
x,y,z
-x,y,-z
-x,-y,-z
x,-y,z
1/2+x,1/2+y,z
1/2-x,1/2+y,-z
1/2-x,1/2-y,-z
1/2+x,1/2-y,z
loop_
_atom_site_type_symbol
_atom_site_label
_atom_site_fract_x
_atom_site_fract_y
_atom_site_fract_z
Si Si1 0.940886 0.164193 0.961955
Si Si2 0.767771 0.825448 0.224227
Si Si3 0.472990 0.173152 0.242700
Si Si4 0.379421 0.329988 0.225905
Si Si5 0.175624 0.833403 0.025112
Si Si6 0.835451 0.174320 0.748582
Si Si7 0.533588 0.669248 0.367489
O O1 0.893092 0.175014 0.921408
O O2 0.990980 0.277716 0.888020
O O3 0.967439 0.000000 0.938532
O O4 0.913231 0.202003 0.092838
O O5 0.812461 0.784314 0.270763
O O6 0.705200 0.750427 0.296998
O O7 0.761613 0.000000 0.225446
O O8 0.793053 0.757254 0.097237
O O9 0.408012 0.234706 0.287391
O O10 0.501433 0.236623 0.314762
O O11 0.470776 0.000000 0.253035
O O12 0.383060 0.500000 0.252353
O O13 0.188123 0.766029 0.122066
O O14 0.196392 0.000000 0.005302
O O15 0.901286 0.224271 0.673991
O O16 0.830398 0.000000 0.743501
O O17 0.500000 0.692376 0.500000
O O18 0.533452 0.500000 0.332981
#
# Coordination Sequence:
#
# PCOD8082578 Si02
#       7
#     8   8   8   8   8   8   8
#     4   9  16  31  52  73 104 147 188 218 251 309
#     4   9  18  31  49  76 108 143 179 209 250 311
#     4  12  23  33  51  79 111 140 171 224 280 319
#     4   9  19  34  53  75 106 150 189 216 248 308
#     4   8  14  27  47  72 104 140 177 212 248 305
#     4  10  18  31  53  77 104 135 170 219 270 312
#     4  10  22  41  63  81  99 134 184 227 267 323
#
# _framework density 19.586766999999998
#
# number of rings (size 3 to 8) (size 9 to 14) (size 15 to 20)
#    0.000    2.429    1.429    3.857    0.000    3.714 
#    0.000    2.143    0.000    0.857    0.000    0.000 
#    0.000    0.000    0.000    0.000    0.000    0.000 
#
# Total GULP energy -346957.662301 kJ/mol
# GULP energy per Si atom -12391.345082 kJ/mol
# Density = 1.954219 g / cm^3
# Si number density = 19.586767 Si / 1000 Ang^3
#
#
#
# Elastic Constant Matrix: (Units=GPa)
#
#
# Indices 1 2 3 4 5 6 
#
# 1 192.5619 75.5843 33.2425 0.0000 -7.5252 0.0000
# 2 75.5843 83.7552 23.3840 0.0000 0.6826 0.0000
# 3 33.2425 23.3840 27.1105 0.0000 -5.4308 0.0000
# 4 0.0000 0.0000 0.0000 7.8495 0.0000 -4.6013
# 5 -7.5252 0.6826 -5.4308 0.0000 12.3523 0.0000
# 6 0.0000 0.0000 0.0000 -4.6013 0.0000 34.1206
#
#
#
# Elastic Compliance Matrix: (Units=1/GPa)
#
#
# Indices 1 2 3 4 5 6 
#
# 1 0.008693 -0.006741 -0.004068 0.000000 0.003880 0.000000
# 2 -0.006741 0.021613 -0.012543 0.000000 -0.010816 0.000000
# 3 -0.004068 -0.012543 0.057390 0.000000 0.023447 0.000000
# 4 0.000000 0.000000 0.000000 0.138331 0.000000 0.018654
# 5 0.003880 -0.010816 0.023447 0.000000 0.094227 0.000000
# 6 0.000000 0.000000 0.000000 0.018654 0.000000 0.031823
#
#
# Mechanical properties :
#
#
# Convention : Reuss Voigt Hill
#
# Bulk Modulus (GPa) = 24.39482 63.09434 43.74458
# Shear Modulus (GPa) = 12.12285 22.27895 17.20090
#
# Velocity S-wave (km/s) = 2.49053 3.37627 2.96664
# Velocity P-wave (km/s) = 4.55545 6.89069 5.84096
#
# Compressibility (1/GPa) = 0.04099230
#
# Stress axis : x y z
#
# Youngs Moduli (GPa) = 115.03713 46.26872 17.42470
#
# Poissons Ratio (x) = 0.31189 0.07088
# Poissons Ratio (y) = 0.77544 0.21856
# Poissons Ratio (z) = 0.46792 0.58036
#
# Static dielectric constant tensor:
#      x y z
#    x 3.984970 0.000000 -0.050470 
#    y 0.000000 3.198050 0.000000 
#    z -0.050470 0.000000 3.212190 
# 
# 
# High freq. dielectric constant tensor:
#      x y z
#    x 1.791460 0.000000 -0.002520 
#    y 0.000000 1.727790 0.000000 
#    z -0.002520 0.000000 1.713940 
# 
# From -- ./inp_files/243605.got.cif
#   From: 2010.06.25/outbox.cif.g09.slc.cpg/sg12_122_cif.got.tgz:243605.got - 2010.06.28 00:19:55.
