data_PCOD8082763
_publ_section_title
;
Structure prediction by ZEFSAII (Michael W. Deem and Ramdas Pophale) SiO2 
 PCOD8082763
Probable space group: C 2/M
;
_chemical_formula_sum "Si O2"
_cell_formula_units_Z 48
_cell_length_a 15.349448
_cell_length_b 7.802852
_cell_length_c 18.898949
_cell_angle_alpha 90.000000
_cell_angle_beta 89.656752
_cell_angle_gamma 90.000000
_cell_volume 2263.476506
_symmetry_space_group_name_H-M "C 2/M"
_symmetry_group_IT_number 12
_symmetry_cell_setting 'monoclinic'
loop_
_space_group_symop_operation_xyz
x,y,z
-x,y,-z
-x,-y,-z
x,-y,z
1/2+x,1/2+y,z
1/2-x,1/2+y,-z
1/2-x,1/2-y,-z
1/2+x,1/2-y,z
loop_
_atom_site_type_symbol
_atom_site_label
_atom_site_fract_x
_atom_site_fract_y
_atom_site_fract_z
Si Si1 0.894811 0.000000 0.422429
Si Si2 0.599369 0.804428 0.320722
Si Si3 0.004111 0.194659 0.922656
Si Si4 0.847353 0.696701 0.835162
Si Si5 0.895140 0.310145 0.327251
Si Si6 0.897598 0.000000 0.580916
Si Si7 0.153401 0.799864 0.822161
O O1 0.859614 0.830253 0.382823
O O2 0.857703 0.000000 0.502301
O O3 0.998616 0.000000 0.423269
O O4 0.641997 0.750063 0.246484
O O5 0.496672 0.781592 0.312225
O O6 0.635417 0.672259 0.379346
O O7 0.624028 0.000000 0.342198
O O8 0.910226 0.196480 0.885638
O O9 0.078957 0.280956 0.873437
O O10 0.033837 0.000000 0.934267
O O11 0.000000 0.285495 0.000000
O O12 0.874302 0.500000 0.844540
O O13 0.747407 0.730838 0.857972
O O14 0.877471 0.500000 0.358742
O O15 0.846541 0.294267 0.252949
O O16 0.136031 0.000000 0.807568
#
# Coordination Sequence:
#
# PCOD8082763 Si02
#       7
#     4   8   8   8   8   4   8
#     4   9  18  32  50  84 118 151 190 241 299 354
#     4   9  18  32  53  82 113 146 196 248 285 348
#     4  10  22  38  58  85 119 155 191 239 299 354
#     4  10  21  36  57  85 112 152 200 244 292 346
#     4  10  18  31  55  82 111 150 196 244 290 347
#     4   9  18  30  54  82 114 157 190 231 311 352
#     4  10  20  36  58  82 115 155 199 244 292 351
#
# _framework density 21.206318
#
# number of rings (size 3 to 8) (size 9 to 14) (size 15 to 20)
#    0.000    2.333    2.500    0.000    1.167    2.333 
#    0.000    3.333    0.000    1.000    0.000    0.000 
#    0.000    0.000    0.000    0.000    0.000    0.000 
#
# Total GULP energy -297587.491375 kJ/mol
# GULP energy per Si atom -12399.478807 kJ/mol
# Density = 2.115805 g / cm^3
# Si number density = 21.206318 Si / 1000 Ang^3
#
#
#
# Elastic Constant Matrix: (Units=GPa)
#
#
# Indices 1 2 3 4 5 6 
#
# 1 77.0864 24.1473 45.0459 0.0000 5.4566 0.0000
# 2 24.1473 97.8031 53.7217 0.0000 0.7021 0.0000
# 3 45.0459 53.7217 156.4868 0.0000 1.4953 0.0000
# 4 0.0000 0.0000 0.0000 14.7139 0.0000 3.3329
# 5 5.4566 0.7021 1.4953 0.0000 8.4592 0.0000
# 6 0.0000 0.0000 0.0000 3.3329 0.0000 17.6289
#
#
#
# Elastic Compliance Matrix: (Units=1/GPa)
#
#
# Indices 1 2 3 4 5 6 
#
# 1 0.016611 -0.001794 -0.004072 0.000000 -0.009846 0.000000
# 2 -0.001794 0.012795 -0.003884 0.000000 0.000782 0.000000
# 3 -0.004072 -0.003884 0.008882 0.000000 0.001379 0.000000
# 4 0.000000 0.000000 0.000000 0.071004 0.000000 -0.013424
# 5 -0.009846 0.000782 0.001379 0.000000 0.124257 0.000000
# 6 0.000000 0.000000 0.000000 -0.013424 0.000000 0.059263
#
#
# Mechanical properties :
#
#
# Convention : Reuss Voigt Hill
#
# Bulk Modulus (GPa) = 53.22015 64.13400 58.67707
# Shear Modulus (GPa) = 15.69497 22.05783 18.87640
#
# Velocity S-wave (km/s) = 2.72344 3.22864 2.98674
# Velocity P-wave (km/s) = 5.91949 6.64886 6.29475
#
# Compressibility (1/GPa) = 0.01878988
#
# Stress axis : x y z
#
# Youngs Moduli (GPa) = 60.20257 78.15461 112.58217
#
# Poissons Ratio (x) = 0.14021 0.45838
# Poissons Ratio (y) = 0.10800 0.43723
# Poissons Ratio (z) = 0.24512 0.30352
#
# Static dielectric constant tensor:
#      x y z
#    x 3.588140 0.000000 -0.147440 
#    y 0.000000 3.803860 0.000000 
#    z -0.147440 0.000000 3.876290 
# 
# 
# High freq. dielectric constant tensor:
#      x y z
#    x 1.813860 0.000000 -0.002580 
#    y 0.000000 1.825050 0.000000 
#    z -0.002580 0.000000 1.818420 
# 
# From -- ./inp_files/267736.got.cif
#   From: 2010.06.25/outbox.cif.g09.slc.cpg/sg12_134_cif.got.tgz:267736.got - 2010.06.28 00:19:55.
