data_PCOD8082104
_publ_section_title
;
Structure prediction by ZEFSAII (Michael W. Deem and Ramdas Pophale) SiO2 
 PCOD8082104
Probable space group: C 2/M
;
_chemical_formula_sum "Si O2"
_cell_formula_units_Z 64
_cell_length_a 27.615653
_cell_length_b 8.656143
_cell_length_c 20.621859
_cell_angle_alpha 90.000000
_cell_angle_beta 127.656956
_cell_angle_gamma 90.000000
_cell_volume 3902.642063
_symmetry_space_group_name_H-M "C 2/M"
_symmetry_group_IT_number 12
_symmetry_cell_setting 'monoclinic'
loop_
_space_group_symop_operation_xyz
x,y,z
-x,y,-z
-x,-y,-z
x,-y,z
1/2+x,1/2+y,z
1/2-x,1/2+y,-z
1/2-x,1/2-y,-z
1/2+x,1/2-y,z
loop_
_atom_site_type_symbol
_atom_site_label
_atom_site_fract_x
_atom_site_fract_y
_atom_site_fract_z
Si Si1 0.776758 0.322344 0.437780
Si Si2 0.896053 0.176438 0.771908
Si Si3 0.872151 0.818905 0.026310
Si Si4 0.491846 0.179125 0.067713
Si Si5 0.692371 0.182905 0.914970
Si Si6 0.241457 0.320000 0.140575
Si Si7 0.157338 0.325060 0.388065
Si Si8 0.234322 0.174803 0.269046
O O1 0.753742 0.500000 0.430069
O O2 0.839490 0.294389 0.530831
O O3 0.726437 0.201106 0.420512
O O4 0.785330 0.298355 0.367277
O O5 0.889133 0.215059 0.689332
O O6 0.832291 0.209076 0.755605
O O7 0.945666 0.288513 0.843593
O O8 0.917215 0.000000 0.796564
O O9 0.822025 0.752347 0.935843
O O10 0.861898 0.000000 0.023181
O O11 0.938902 0.783280 0.054348
O O12 0.866667 0.745240 0.094259
O O13 0.474160 0.000000 0.060009
O O14 0.500000 0.227401 0.000000
O O15 0.699268 0.246276 0.847273
O O16 0.691892 0.000000 0.914031
O O17 0.750000 0.250000 0.000000
O O18 0.239642 0.500000 0.124342
O O19 0.248759 0.291001 0.222845
O O20 0.137519 0.500000 0.357135
O O21 0.237000 0.000000 0.244484
#
# Coordination Sequence:
#
# PCOD8082104 Si02
#       8
#     8   8   8   8   8   8   8   8
#     4   8  15  26  40  59  84 114 146 180 220 265
#     4  10  20  32  45  62  87 120 154 187 223 264
#     4  11  21  34  50  66  87 116 149 185 225 265
#     4  11  23  36  49  66  88 116 153 192 224 257
#     4  10  18  31  49  67  87 112 144 181 222 265
#     4  11  20  30  45  67  92 117 148 183 222 266
#     4   9  15  25  42  61  82 111 147 185 221 259
#     4   9  17  29  43  62  90 121 151 182 221 267
#
# _framework density 16.399146999999999
#
# number of rings (size 3 to 8) (size 9 to 14) (size 15 to 20)
#    0.000    2.125    0.000    7.500    0.000    6.000 
#    0.000    0.000    0.000    0.000    0.000    0.000 
#    0.000    1.000    0.000   10.750    0.000    5.000 
#
# Total GULP energy -396614.597356 kJ/mol
# GULP energy per Si atom -12394.206167 kJ/mol
# Density = 1.636182 g / cm^3
# Si number density = 16.399147 Si / 1000 Ang^3
#
#
#
# Elastic Constant Matrix: (Units=GPa)
#
#
# Indices 1 2 3 4 5 6 
#
# 1 74.0514 35.4326 36.5182 0.0000 -15.8307 0.0000
# 2 35.4326 100.2708 27.1355 0.0000 -10.6938 0.0000
# 3 36.5182 27.1355 98.6251 0.0000 -19.1077 0.0000
# 4 0.0000 0.0000 0.0000 23.4629 0.0000 -2.5882
# 5 -15.8307 -10.6938 -19.1077 0.0000 17.6619 0.0000
# 6 0.0000 0.0000 0.0000 -2.5882 0.0000 23.9763
#
#
#
# Elastic Compliance Matrix: (Units=1/GPa)
#
#
# Indices 1 2 3 4 5 6 
#
# 1 0.020115 -0.004874 -0.004031 0.000000 0.010718 0.000000
# 2 -0.004874 0.012208 -0.001225 0.000000 0.001697 0.000000
# 3 -0.004031 -0.001225 0.014075 0.000000 0.010873 0.000000
# 4 0.000000 0.000000 0.000000 0.043134 0.000000 0.004656
# 5 0.010718 0.001697 0.010873 0.000000 0.079017 0.000000
# 6 0.000000 0.000000 0.000000 0.004656 0.000000 0.042211
#
#
# Mechanical properties :
#
#
# Convention : Reuss Voigt Hill
#
# Bulk Modulus (GPa) = 38.25753 52.34663 45.30208
# Shear Modulus (GPa) = 20.85651 24.61095 22.73373
#
# Velocity S-wave (km/s) = 3.57011 3.87815 3.72731
# Velocity P-wave (km/s) = 6.35404 7.21409 6.79768
#
# Compressibility (1/GPa) = 0.02613865
#
# Stress axis : x y z
#
# Youngs Moduli (GPa) = 49.71319 81.91351 71.04543
#
# Poissons Ratio (x) = 0.39927 0.28635
# Poissons Ratio (y) = 0.24232 0.08705
# Poissons Ratio (z) = 0.20037 0.10036
#
# Static dielectric constant tensor:
#      x y z
#    x 3.118650 0.000000 -0.372260 
#    y 0.000000 3.161110 0.000000 
#    z -0.372260 0.000000 3.229400 
# 
# 
# High freq. dielectric constant tensor:
#      x y z
#    x 1.589400 0.000000 -0.030330 
#    y 0.000000 1.647760 0.000000 
#    z -0.030330 0.000000 1.619720 
# 
# From -- ./inp_files/326969.got.cif
#   From: 2010.06.25/outbox.cif.g09.slc.cpg/sg12_164_cif.got.tgz:326969.got - 2010.06.28 00:19:55.
