data_PCOD8082470
_publ_section_title
;
Structure prediction by ZEFSAII (Michael W. Deem and Ramdas Pophale) SiO2 
 PCOD8082470
Probable space group: C 2/M
;
_chemical_formula_sum "Si O2"
_cell_formula_units_Z 56
_cell_length_a 27.536593
_cell_length_b 8.727968
_cell_length_c 12.758625
_cell_angle_alpha 90.000000
_cell_angle_beta 67.423262
_cell_angle_gamma 90.000000
_cell_volume 2831.399689
_symmetry_space_group_name_H-M "C 2/M"
_symmetry_group_IT_number 12
_symmetry_cell_setting 'monoclinic'
loop_
_space_group_symop_operation_xyz
x,y,z
-x,y,-z
-x,-y,-z
x,-y,z
1/2+x,1/2+y,z
1/2-x,1/2+y,-z
1/2-x,1/2-y,-z
1/2+x,1/2-y,z
loop_
_atom_site_type_symbol
_atom_site_label
_atom_site_fract_x
_atom_site_fract_y
_atom_site_fract_z
Si Si1 0.361840 0.181637 0.767414
Si Si2 0.054965 0.182336 0.914141
Si Si3 0.403456 0.682014 0.337219
Si Si4 0.940129 0.181703 0.531634
Si Si5 0.287794 0.681981 0.384099
Si Si6 0.754751 0.818254 0.185280
Si Si7 0.140746 0.181570 0.010520
O O1 0.402098 0.245352 0.648904
O O2 0.302789 0.246472 0.796113
O O3 0.362909 0.000000 0.761114
O O4 0.379278 0.237988 0.867362
O O5 0.061891 0.241886 0.789280
O O6 0.102837 0.237581 0.948038
O O7 0.053821 0.000000 0.916310
O O8 0.000000 0.251319 0.000000
O O9 0.404491 0.500000 0.339567
O O10 0.424722 0.746300 0.429741
O O11 0.345113 0.743652 0.365933
O O12 0.000000 0.233172 0.500000
O O13 0.933928 0.000000 0.544350
O O14 0.285824 0.500000 0.386848
O O15 0.250000 0.750000 0.500000
O O16 0.270929 0.746764 0.285175
O O17 0.799403 0.765659 0.065225
O O18 0.753457 0.000000 0.190245
O O19 0.137011 0.000000 0.028634
#
# Coordination Sequence:
#
# PCOD8082470 Si02
#       7
#     8   8   8   8   8   8   8
#     4  11  23  37  54  78 113 150 182 220 273 330
#     4   9  17  29  54  87 110 133 173 225 276 318
#     4   9  17  32  53  80 110 135 170 223 272 314
#     4  10  22  38  58  83 109 140 184 231 269 316
#     4  10  18  31  52  77 106 140 176 216 265 318
#     4   9  18  34  54  78 108 144 183 221 267 325
#     4  10  19  35  59  84 109 141 185 229 269 318
#
# _framework density 19.778203999999999
#
# number of rings (size 3 to 8) (size 9 to 14) (size 15 to 20)
#    0.000    2.286    1.429    1.714    2.000    0.286 
#    0.000    2.143    0.000    1.286    0.000    0.000 
#    0.000    0.000    0.000    0.000    0.000    0.000 
#
# Total GULP energy -347157.036410 kJ/mol
# GULP energy per Si atom -12398.465586 kJ/mol
# Density = 1.973319 g / cm^3
# Si number density = 19.778204 Si / 1000 Ang^3
#
#
#
# Elastic Constant Matrix: (Units=GPa)
#
#
# Indices 1 2 3 4 5 6 
#
# 1 126.0445 21.3040 82.1056 0.0000 -8.1784 0.0000
# 2 21.3040 20.0911 24.1276 0.0000 -1.9516 0.0000
# 3 82.1056 24.1276 200.9860 0.0000 -3.7240 0.0000
# 4 0.0000 0.0000 0.0000 25.4152 0.0000 -2.5354
# 5 -8.1784 -1.9516 -3.7240 0.0000 44.1032 0.0000
# 6 0.0000 0.0000 0.0000 -2.5354 0.0000 14.3469
#
#
#
# Elastic Compliance Matrix: (Units=1/GPa)
#
#
# Indices 1 2 3 4 5 6 
#
# 1 0.011883 -0.007777 -0.003892 0.000000 0.001531 0.000000
# 2 -0.007777 0.063422 -0.004418 0.000000 0.000991 0.000000
# 3 -0.003892 -0.004418 0.007090 0.000000 -0.000319 0.000000
# 4 0.000000 0.000000 0.000000 0.040053 0.000000 0.007078
# 5 0.001531 0.000991 -0.000319 0.000000 0.022975 0.000000
# 6 0.000000 0.000000 0.000000 0.007078 0.000000 0.070952
#
#
# Mechanical properties :
#
#
# Convention : Reuss Voigt Hill
#
# Bulk Modulus (GPa) = 19.91256 66.91066 43.41161
# Shear Modulus (GPa) = 18.84727 31.41202 25.12964
#
# Velocity S-wave (km/s) = 3.09031 3.98956 3.56838
# Velocity P-wave (km/s) = 4.77735 7.42470 6.24297
#
# Compressibility (1/GPa) = 0.05021956
#
# Stress axis : x y z
#
# Youngs Moduli (GPa) = 84.15338 15.76740 141.04287
#
# Poissons Ratio (x) = 0.12263 0.54900
# Poissons Ratio (y) = 0.65449 0.62314
# Poissons Ratio (z) = 0.32756 0.06966
#
# Static dielectric constant tensor:
#      x y z
#    x 3.729930 0.000000 -0.003990 
#    y 0.000000 3.043390 0.000000 
#    z -0.003990 0.000000 3.793180 
# 
# 
# High freq. dielectric constant tensor:
#      x y z
#    x 1.783300 0.000000 0.000560 
#    y 0.000000 1.714970 0.000000 
#    z 0.000560 0.000000 1.791560 
# 
# From -- ./inp_files/180862.got.cif
#   From: 2010.06.25/outbox.cif.g09.slc.cpg/sg12_91_cif.got.tgz:180862.got - 2010.06.28 00:19:55.
