data_PCOD8082977
_publ_section_title
;
Structure prediction by ZEFSAII (Michael W. Deem and Ramdas Pophale) SiO2 
 PCOD8082977
Probable space group: C 2/M
;
_chemical_formula_sum "Si O2"
_cell_formula_units_Z 48
_cell_length_a 13.054124
_cell_length_b 19.429742
_cell_length_c 10.813565
_cell_angle_alpha 90.000000
_cell_angle_beta 89.101062
_cell_angle_gamma 90.000000
_cell_volume 2742.396259
_symmetry_space_group_name_H-M "C 2/M"
_symmetry_group_IT_number 12
_symmetry_cell_setting 'monoclinic'
loop_
_space_group_symop_operation_xyz
x,y,z
-x,y,-z
-x,-y,-z
x,-y,z
1/2+x,1/2+y,z
1/2-x,1/2+y,-z
1/2-x,1/2-y,-z
1/2+x,1/2-y,z
loop_
_atom_site_type_symbol
_atom_site_label
_atom_site_fract_x
_atom_site_fract_y
_atom_site_fract_z
Si Si1 0.016912 0.500000 0.200233
Si Si2 0.769564 0.280086 0.633929
Si Si3 0.048428 0.373975 0.372812
Si Si4 0.122553 0.761310 0.138766
Si Si5 0.415823 0.770076 0.228850
Si Si6 0.340189 0.000000 0.034800
Si Si7 0.211909 0.652242 0.969190
O O1 0.047112 0.433029 0.273378
O O2 0.896662 0.500000 0.167060
O O3 0.077403 0.500000 0.073042
O O4 0.750000 0.250000 0.500000
O O5 0.832154 0.351265 0.615412
O O6 0.837297 0.229647 0.720672
O O7 0.659044 0.286272 0.705582
O O8 0.000000 0.402670 0.500000
O O9 0.978478 0.309892 0.333247
O O10 0.172969 0.817064 0.045752
O O11 0.999077 0.768518 0.139440
O O12 0.157696 0.684309 0.092389
O O13 0.354111 0.825371 0.148645
O O14 0.274239 0.930051 0.023800
#
# Coordination Sequence:
#
# PCOD8082977 Si02
#       7
#     4   8   8   8   8   4   8
#     4  11  23  32  48  77 103 140 164 203 264 311
#     4  10  19  31  49  73  99 136 169 210 253 302
#     4  11  20  34  50  72 106 133 171 208 256 308
#     4   9  20  31  50  74 105 132 172 216 258 299
#     4  10  18  32  52  74 102 131 170 213 257 303
#     4  11  20  32  54  71 108 136 170 209 255 319
#     4  10  19  34  50  78 102 136 172 212 260 307
#
# _framework density 17.502941
#
# number of rings (size 3 to 8) (size 9 to 14) (size 15 to 20)
#    0.000    1.833    3.333    2.750    2.333    0.000 
#    0.000    0.000    0.000    1.000    0.000   16.333 
#    0.000    7.333    0.000    0.167    0.000    0.000 
#
# Total GULP energy -297393.295311 kJ/mol
# GULP energy per Si atom -12391.387305 kJ/mol
# Density = 1.746310 g / cm^3
# Si number density = 17.502941 Si / 1000 Ang^3
#
#
#
# Elastic Constant Matrix: (Units=GPa)
#
#
# Indices 1 2 3 4 5 6 
#
# 1 97.3725 50.0465 26.5597 0.0000 -28.9738 0.0000
# 2 50.0465 105.2808 27.7954 0.0000 -9.4002 0.0000
# 3 26.5597 27.7954 81.5359 0.0000 -8.5470 0.0000
# 4 0.0000 0.0000 0.0000 31.7051 0.0000 4.9772
# 5 -28.9738 -9.4002 -8.5470 0.0000 32.1558 0.0000
# 6 0.0000 0.0000 0.0000 4.9772 0.0000 23.1337
#
#
#
# Elastic Compliance Matrix: (Units=1/GPa)
#
#
# Indices 1 2 3 4 5 6 
#
# 1 0.018729 -0.007050 -0.002206 0.000000 0.014228 0.000000
# 2 -0.007050 0.013241 -0.002548 0.000000 -0.003159 0.000000
# 3 -0.002206 -0.002548 0.013954 0.000000 0.000976 0.000000
# 4 0.000000 0.000000 0.000000 0.032643 0.000000 -0.007023
# 5 0.014228 -0.003159 0.000976 0.000000 0.043255 0.000000
# 6 0.000000 0.000000 0.000000 -0.007023 0.000000 0.044738
#
#
# Mechanical properties :
#
#
# Convention : Reuss Voigt Hill
#
# Bulk Modulus (GPa) = 44.81347 54.77693 49.79520
# Shear Modulus (GPa) = 25.30282 29.38476 27.34379
#
# Velocity S-wave (km/s) = 3.80627 4.10182 3.95681
# Velocity P-wave (km/s) = 6.70641 7.33464 7.02755
#
# Compressibility (1/GPa) = 0.02231472
#
# Stress axis : x y z
#
# Youngs Moduli (GPa) = 53.39370 75.52581 71.66328
#
# Poissons Ratio (x) = 0.53247 0.15808
# Poissons Ratio (y) = 0.37644 0.18262
# Poissons Ratio (z) = 0.11778 0.19246
#
# Static dielectric constant tensor:
#      x y z
#    x 3.479150 0.000000 -0.096290 
#    y 0.000000 3.096410 0.000000 
#    z -0.096290 0.000000 3.456600 
# 
# 
# High freq. dielectric constant tensor:
#      x y z
#    x 1.672390 0.000000 -0.000700 
#    y 0.000000 1.630370 0.000000 
#    z -0.000700 0.000000 1.697330 
# 
# From -- ./inp_files/132537.got.cif
#   From: 2010.06.25/outbox.cif.g09.slc.cpg/sg12_67_cif.got.tgz:132537.got - 2010.06.28 00:19:55.
