data_PCOD8082170
_publ_section_title
;
Structure prediction by ZEFSAII (Michael W. Deem and Ramdas Pophale) SiO2 
 PCOD8082170
Probable space group: C 2/M
;
_chemical_formula_sum "Si O2"
_cell_formula_units_Z 56
_cell_length_a 30.524200
_cell_length_b 8.615834
_cell_length_c 12.668889
_cell_angle_alpha 90.000000
_cell_angle_beta 93.979890
_cell_angle_gamma 90.000000
_cell_volume 3323.774613
_symmetry_space_group_name_H-M "C 2/M"
_symmetry_group_IT_number 12
_symmetry_cell_setting 'monoclinic'
loop_
_space_group_symop_operation_xyz
x,y,z
-x,y,-z
-x,-y,-z
x,-y,z
1/2+x,1/2+y,z
1/2-x,1/2+y,-z
1/2-x,1/2-y,-z
1/2+x,1/2-y,z
loop_
_atom_site_type_symbol
_atom_site_label
_atom_site_fract_x
_atom_site_fract_y
_atom_site_fract_z
Si Si1 0.132627 0.320385 0.371997
Si Si2 0.298602 0.683810 0.017907
Si Si3 0.452823 0.321268 0.384462
Si Si4 0.805439 0.316394 0.805134
Si Si5 0.709343 0.817994 0.771375
Si Si6 0.962748 0.322632 0.609779
Si Si7 0.856360 0.817850 0.398707
O O1 0.142720 0.500000 0.398162
O O2 0.162352 0.258105 0.281741
O O3 0.081314 0.298836 0.328125
O O4 0.143701 0.223253 0.477958
O O5 0.298996 0.500000 0.023884
O O6 0.323911 0.741835 0.917430
O O7 0.250000 0.750000 0.000000
O O8 0.317415 0.753179 0.130678
O O9 0.459993 0.500000 0.360006
O O10 0.490922 0.226433 0.325967
O O11 0.458428 0.289439 0.509214
O O12 0.402673 0.272227 0.349539
O O13 0.806232 0.500000 0.817487
O O14 0.756541 0.262513 0.768888
O O15 0.681791 0.779669 0.662834
O O16 0.716689 0.000000 0.784093
O O17 0.965965 0.500000 0.572463
O O18 0.847073 0.000000 0.385114
#
# Coordination Sequence:
#
# PCOD8082170 Si02
#       7
#     8   8   8   8   8   8   8
#     4   9  19  32  46  67  95 126 156 186 222 270
#     4  10  18  31  50  70  90 113 149 192 232 269
#     4   9  16  26  41  62  87 116 149 185 225 265
#     4  10  19  33  50  68  93 122 154 190 227 266
#     4  11  21  33  49  68  91 120 155 191 230 272
#     4   9  15  25  42  63  87 116 150 185 221 261
#     4  10  20  32  46  66  94 125 156 189 226 272
#
# _framework density 16.848316000000001
#
# number of rings (size 3 to 8) (size 9 to 14) (size 15 to 20)
#    0.000    2.286    0.000    6.857    0.000    4.000 
#    0.000    0.000    0.000    0.000    0.000    1.000 
#    0.000    8.000    0.000    0.000    0.000    0.000 
#
# Total GULP energy -346938.049515 kJ/mol
# GULP energy per Si atom -12390.644626 kJ/mol
# Density = 1.680997 g / cm^3
# Si number density = 16.848316 Si / 1000 Ang^3
#
#
#
# Elastic Constant Matrix: (Units=GPa)
#
#
# Indices 1 2 3 4 5 6 
#
# 1 80.1463 15.9417 43.4017 0.0000 -21.4534 0.0000
# 2 15.9417 57.8577 24.8514 0.0000 -4.3054 0.0000
# 3 43.4017 24.8514 81.0692 0.0000 -15.7907 0.0000
# 4 0.0000 0.0000 0.0000 23.0258 0.0000 0.3286
# 5 -21.4534 -4.3054 -15.7907 0.0000 8.5528 0.0000
# 6 0.0000 0.0000 0.0000 0.3286 0.0000 24.0967
#
#
#
# Elastic Compliance Matrix: (Units=1/GPa)
#
#
# Indices 1 2 3 4 5 6 
#
# 1 0.038831 -0.003023 -0.001853 0.000000 0.092460 0.000000
# 2 -0.003023 0.020161 -0.006343 0.000000 -0.009145 0.000000
# 3 -0.001853 -0.006343 0.021462 0.000000 0.031784 0.000000
# 4 0.000000 0.000000 0.000000 0.043438 0.000000 -0.000592
# 5 0.092460 -0.009145 0.031784 0.000000 0.402919 0.000000
# 6 0.000000 0.000000 0.000000 -0.000592 0.000000 0.041508
#
#
# Mechanical properties :
#
#
# Convention : Reuss Voigt Hill
#
# Bulk Modulus (GPa) = 17.23648 43.05142 30.14395
# Shear Modulus (GPa) = 8.19543 20.12697 14.16120
#
# Velocity S-wave (km/s) = 2.20790 3.46005 2.90230
# Velocity P-wave (km/s) = 4.09296 6.44751 5.40013
#
# Compressibility (1/GPa) = 0.05801647
#
# Stress axis : x y z
#
# Youngs Moduli (GPa) = 25.75237 49.60144 46.59291
#
# Poissons Ratio (x) = 0.14995 0.08634
# Poissons Ratio (y) = 0.07785 0.29554
# Poissons Ratio (z) = 0.04772 0.31462
#
# Static dielectric constant tensor:
#      x y z
#    x 3.547490 0.000000 -0.157230 
#    y 0.000000 3.208000 0.000000 
#    z -0.157230 0.000000 3.233710 
# 
# 
# High freq. dielectric constant tensor:
#      x y z
#    x 1.642110 0.000000 -0.012320 
#    y 0.000000 1.665580 0.000000 
#    z -0.012320 0.000000 1.610800 
# 
# From -- ./inp_files/247796.got.cif
#   From: 2010.06.25/outbox.cif.g09.slc.cpg/sg12_124_cif.got.tgz:247796.got - 2010.06.28 00:19:55.
