data_PCOD8082602
_publ_section_title
;
Structure prediction by ZEFSAII (Michael W. Deem and Ramdas Pophale) SiO2 
 PCOD8082602
Probable space group: C 2/M
;
_chemical_formula_sum "Si O2"
_cell_formula_units_Z 56
_cell_length_a 15.351454
_cell_length_b 8.874432
_cell_length_c 24.390072
_cell_angle_alpha 90.000000
_cell_angle_beta 62.434264
_cell_angle_gamma 90.000000
_cell_volume 2945.590303
_symmetry_space_group_name_H-M "C 2/M"
_symmetry_group_IT_number 12
_symmetry_cell_setting 'monoclinic'
loop_
_space_group_symop_operation_xyz
x,y,z
-x,y,-z
-x,-y,-z
x,-y,z
1/2+x,1/2+y,z
1/2-x,1/2+y,-z
1/2-x,1/2-y,-z
1/2+x,1/2-y,z
loop_
_atom_site_type_symbol
_atom_site_label
_atom_site_fract_x
_atom_site_fract_y
_atom_site_fract_z
Si Si1 0.802251 0.677106 0.637166
Si Si2 0.015436 0.321367 0.150150
Si Si3 0.595704 0.820769 0.710863
Si Si4 0.584022 0.177237 0.932085
Si Si5 0.340722 0.822303 0.503251
Si Si6 0.501950 0.821912 0.627054
Si Si7 0.265241 0.821012 0.936449
O O1 0.779310 0.500000 0.645098
O O2 0.707005 0.766953 0.683241
O O3 0.840935 0.728194 0.566250
O O4 0.887977 0.723462 0.654691
O O5 0.013113 0.500000 0.150073
O O6 0.964976 0.257078 0.219741
O O7 0.954100 0.263129 0.115527
O O8 0.128187 0.266687 0.115945
O O9 0.546573 0.752966 0.669979
O O10 0.594301 0.000000 0.710748
O O11 0.683879 0.264151 0.917405
O O12 0.606632 0.000000 0.925663
O O13 0.500000 0.217605 0.000000
O O14 0.250000 0.750000 0.500000
O O15 0.438495 0.763912 0.443700
O O16 0.331695 0.000000 0.501084
O O17 0.511615 0.000000 0.626846
O O18 0.259632 0.000000 0.943417
O O19 0.250000 0.750000 0.000000
#
# Coordination Sequence:
#
# PCOD8082602 Si02
#       7
#     8   8   8   8   8   8   8
#     4  10  20  34  54  79 108 139 177 227 271 312
#     4   9  20  37  56  78 109 145 178 217 271 328
#     4  10  20  37  57  76 104 145 184 215 261 328
#     4  10  19  36  58  80 109 145 178 218 275 325
#     4  10  18  31  53  79 104 136 178 222 268 315
#     4   9  18  33  54  77 105 142 178 212 265 326
#     4  11  21  36  58  86 113 142 181 224 272 325
#
# _framework density 19.011471
#
# number of rings (size 3 to 8) (size 9 to 14) (size 15 to 20)
#    0.000    2.143    2.857    0.857    0.000    3.143 
#    0.000    5.000    0.000    1.714    0.000    0.000 
#    0.000    0.000    0.000    0.000    0.000    0.000 
#
# Total GULP energy -347169.014275 kJ/mol
# GULP energy per Si atom -12398.893367 kJ/mol
# Density = 1.896820 g / cm^3
# Si number density = 19.011471 Si / 1000 Ang^3
#
#
#
# Elastic Constant Matrix: (Units=GPa)
#
#
# Indices 1 2 3 4 5 6 
#
# 1 162.5885 24.9857 75.9453 0.0000 -15.8045 0.0000
# 2 24.9857 24.8262 26.3399 0.0000 -4.1495 0.0000
# 3 75.9453 26.3399 158.8956 0.0000 -15.5908 0.0000
# 4 0.0000 0.0000 0.0000 16.5589 0.0000 -4.1831
# 5 -15.8045 -4.1495 -15.5908 0.0000 21.7159 0.0000
# 6 0.0000 0.0000 0.0000 -4.1831 0.0000 33.0131
#
#
#
# Elastic Compliance Matrix: (Units=1/GPa)
#
#
# Indices 1 2 3 4 5 6 
#
# 1 0.008617 -0.004978 -0.002981 0.000000 0.003180 0.000000
# 2 -0.004978 0.052043 -0.006054 0.000000 0.001975 0.000000
# 3 -0.002981 -0.006054 0.009032 0.000000 0.003158 0.000000
# 4 0.000000 0.000000 0.000000 0.062387 0.000000 0.007905
# 5 0.003180 0.001975 0.003158 0.000000 0.051008 0.000000
# 6 0.000000 0.000000 0.000000 0.007905 0.000000 0.031293
#
#
# Mechanical properties :
#
#
# Convention : Reuss Voigt Hill
#
# Bulk Modulus (GPa) = 24.00073 66.76134 45.38103
# Shear Modulus (GPa) = 19.50873 28.86022 24.18447
#
# Velocity S-wave (km/s) = 3.20684 3.90043 3.57052
# Velocity P-wave (km/s) = 5.13454 7.44829 6.39690
#
# Compressibility (1/GPa) = 0.04166541
#
# Stress axis : x y z
#
# Youngs Moduli (GPa) = 116.04688 19.21481 110.71888
#
# Poissons Ratio (x) = 0.09565 0.33011
# Poissons Ratio (y) = 0.57766 0.67031
# Poissons Ratio (z) = 0.34599 0.11633
#
# Static dielectric constant tensor:
#      x y z
#    x 3.761160 0.000000 0.126480 
#    y 0.000000 2.978500 0.000000 
#    z 0.126480 0.000000 3.859580 
# 
# 
# High freq. dielectric constant tensor:
#      x y z
#    x 1.755430 0.000000 -0.000370 
#    y 0.000000 1.700780 0.000000 
#    z -0.000370 0.000000 1.742830 
# 
# From -- ./inp_files/338441.got.cif
#   From: 2010.06.25/outbox.cif.g09.slc.cpg/sg12_170_cif.got.tgz:338441.got - 2010.06.28 00:19:55.
