data_PCOD8082086
_publ_section_title
;
Structure prediction by ZEFSAII (Michael W. Deem and Ramdas Pophale) SiO2 
 PCOD8082086
Probable space group: C 2/M
;
_chemical_formula_sum "Si O2"
_cell_formula_units_Z 64
_cell_length_a 18.912214
_cell_length_b 8.800190
_cell_length_c 20.765261
_cell_angle_alpha 90.000000
_cell_angle_beta 95.933449
_cell_angle_gamma 90.000000
_cell_volume 3437.469781
_symmetry_space_group_name_H-M "C 2/M"
_symmetry_group_IT_number 12
_symmetry_cell_setting 'monoclinic'
loop_
_space_group_symop_operation_xyz
x,y,z
-x,y,-z
-x,-y,-z
x,-y,z
1/2+x,1/2+y,z
1/2-x,1/2+y,-z
1/2-x,1/2-y,-z
1/2+x,1/2-y,z
loop_
_atom_site_type_symbol
_atom_site_label
_atom_site_fract_x
_atom_site_fract_y
_atom_site_fract_z
Si Si1 0.282027 0.177787 0.714094
Si Si2 0.971748 0.673906 0.229659
Si Si3 0.491599 0.177362 0.425575
Si Si4 0.680223 0.178549 0.023548
Si Si5 0.776335 0.180032 0.851142
Si Si6 0.583789 0.321864 0.326247
Si Si7 0.374390 0.821862 0.112274
Si Si8 0.360183 0.171092 0.331422
O O1 0.295490 0.261215 0.782742
O O2 0.341306 0.235643 0.669936
O O3 0.205463 0.214208 0.676317
O O4 0.288911 0.000000 0.725587
O O5 0.999206 0.500000 0.228654
O O6 0.943660 0.737732 0.157803
O O7 0.904731 0.686168 0.270493
O O8 0.036043 0.777672 0.259902
O O9 0.500000 0.226274 0.500000
O O10 0.546457 0.274288 0.389004
O O11 0.410795 0.212889 0.396456
O O12 0.508597 0.000000 0.415672
O O13 0.665692 0.256017 0.091479
O O14 0.690297 0.000000 0.034134
O O15 0.750000 0.250000 0.000000
O O16 0.618710 0.212355 0.963931
O O17 0.698936 0.244752 0.864873
O O18 0.780267 0.000000 0.851864
O O19 0.597204 0.500000 0.327163
O O20 0.370365 0.000000 0.125023
O O21 0.330330 0.000000 0.335203
#
# Coordination Sequence:
#
# PCOD8082086 Si02
#       8
#     8   8   8   8   8   8   8   8
#     4  12  23  35  53  78 108 143 183 224 266 321
#     4   9  16  32  54  76 104 141 179 219 268 320
#     4   9  19  39  65  88 112 144 177 209 253 311
#     4   9  16  26  41  68 101 137 177 220 268 320
#     4  10  18  31  48  70 102 140 176 220 277 324
#     4  11  23  37  54  80 112 143 177 220 267 313
#     4   8  14  26  47  71 100 135 173 216 266 319
#     4   9  17  32  56  83 111 140 173 216 264 309
#
# _framework density 18.618344
#
# number of rings (size 3 to 8) (size 9 to 14) (size 15 to 20)
#    0.000    2.375    1.250    4.500    0.000    2.250 
#    0.000    1.875    0.000    0.750    0.000    5.250 
#    0.000    0.000    0.000    0.000    0.000    0.000 
#
# Total GULP energy -396655.840671 kJ/mol
# GULP energy per Si atom -12395.495021 kJ/mol
# Density = 1.857597 g / cm^3
# Si number density = 18.618344 Si / 1000 Ang^3
#
#
#
# Elastic Constant Matrix: (Units=GPa)
#
#
# Indices 1 2 3 4 5 6 
#
# 1 66.1849 30.2092 33.7323 0.0000 6.7435 0.0000
# 2 30.2092 91.9388 35.5776 0.0000 4.1232 0.0000
# 3 33.7323 35.5776 119.6600 0.0000 27.3715 0.0000
# 4 0.0000 0.0000 0.0000 27.2761 0.0000 1.2480
# 5 6.7435 4.1232 27.3715 0.0000 22.0333 0.0000
# 6 0.0000 0.0000 0.0000 1.2480 0.0000 26.0958
#
#
#
# Elastic Compliance Matrix: (Units=1/GPa)
#
#
# Indices 1 2 3 4 5 6 
#
# 1 0.019353 -0.004802 -0.004022 0.000000 -0.000029 0.000000
# 2 -0.004802 0.013639 -0.003428 0.000000 0.003176 0.000000
# 3 -0.004022 -0.003428 0.014084 0.000000 -0.015624 0.000000
# 4 0.000000 0.000000 0.000000 0.036743 0.000000 -0.001757
# 5 -0.000029 0.003176 -0.015624 0.000000 0.064209 0.000000
# 6 0.000000 0.000000 0.000000 -0.001757 0.000000 0.038404
#
#
# Mechanical properties :
#
#
# Convention : Reuss Voigt Hill
#
# Bulk Modulus (GPa) = 44.29959 52.98020 48.63990
# Shear Modulus (GPa) = 22.88764 26.96535 24.92650
#
# Velocity S-wave (km/s) = 3.50995 3.80981 3.66295
# Velocity P-wave (km/s) = 6.34598 6.91886 6.63860
#
# Compressibility (1/GPa) = 0.02257357
#
# Stress axis : x y z
#
# Youngs Moduli (GPa) = 51.67052 73.32137 71.00417
#
# Poissons Ratio (x) = 0.35206 0.28554
# Poissons Ratio (y) = 0.24810 0.24340
# Poissons Ratio (z) = 0.20779 0.25134
#
# Static dielectric constant tensor:
#      x y z
#    x 3.263440 0.000000 0.333830 
#    y 0.000000 3.333870 0.000000 
#    z 0.333830 0.000000 3.689820 
# 
# 
# High freq. dielectric constant tensor:
#      x y z
#    x 1.693140 0.000000 0.021750 
#    y 0.000000 1.712570 0.000000 
#    z 0.021750 0.000000 1.723120 
# 
# From -- ./inp_files/314130.got.cif
#   From: 2010.06.25/outbox.cif.g09.slc.cpg/sg12_158_cif.got.tgz:314130.got - 2010.06.28 00:19:55.
