data_PCOD8082125
_publ_section_title
;
Structure prediction by ZEFSAII (Michael W. Deem and Ramdas Pophale) SiO2 
 PCOD8082125
Probable space group: C 2/M
;
_chemical_formula_sum "Si O2"
_cell_formula_units_Z 64
_cell_length_a 18.159861
_cell_length_b 10.185092
_cell_length_c 21.003724
_cell_angle_alpha 90.000000
_cell_angle_beta 118.703704
_cell_angle_gamma 90.000000
_cell_volume 3407.456930
_symmetry_space_group_name_H-M "C 2/M"
_symmetry_group_IT_number 12
_symmetry_cell_setting 'monoclinic'
loop_
_space_group_symop_operation_xyz
x,y,z
-x,y,-z
-x,-y,-z
x,-y,z
1/2+x,1/2+y,z
1/2-x,1/2+y,-z
1/2-x,1/2-y,-z
1/2+x,1/2-y,z
loop_
_atom_site_type_symbol
_atom_site_label
_atom_site_fract_x
_atom_site_fract_y
_atom_site_fract_z
Si Si1 0.489865 0.153100 0.565882
Si Si2 0.332897 0.154710 0.306235
Si Si3 0.787526 0.650992 0.686630
Si Si4 0.886076 0.343934 0.083184
Si Si5 0.181322 0.650639 0.446076
Si Si6 0.593591 0.731688 0.044163
Si Si7 0.270702 0.853959 0.145507
Si Si8 0.069441 0.350895 0.164611
O O1 0.500000 0.218707 0.500000
O O2 0.568320 0.180443 0.644783
O O3 0.406543 0.207702 0.564565
O O4 0.477280 0.000000 0.550754
O O5 0.289888 0.247837 0.341148
O O6 0.302039 0.209831 0.224637
O O7 0.310512 0.000000 0.307624
O O8 0.761722 0.500000 0.693850
O O9 0.824773 0.655309 0.632093
O O10 0.857308 0.714278 0.763304
O O11 0.882813 0.500000 0.076774
O O12 0.816159 0.286198 0.103112
O O13 0.977793 0.292548 0.144085
O O14 0.871021 0.290773 0.006196
O O15 0.199726 0.500000 0.476016
O O16 0.250000 0.750000 0.500000
O O17 0.669275 0.637483 0.098129
O O18 0.584997 0.841982 0.095138
O O19 0.500000 0.663641 0.000000
O O20 0.306876 0.000000 0.162186
O O21 0.069687 0.500000 0.185902
#
# Coordination Sequence:
#
# PCOD8082125 Si02
#       8
#     8   8   8   8   8   8   8   8
#     4   9  18  33  55  82 107 136 177 218 255 306
#     4  10  20  35  56  78 107 144 180 220 266 317
#     4  10  20  34  54  80 109 139 174 217 265 313
#     4   9  18  30  49  73  97 127 172 223 265 310
#     4  10  21  36  57  85 113 141 177 216 261 312
#     4  10  18  31  49  70  97 133 173 214 265 319
#     4  10  20  32  47  72 101 135 178 218 263 314
#     4   9  17  30  49  73 100 129 166 218 268 308
#
# _framework density 18.782336000000001
#
# number of rings (size 3 to 8) (size 9 to 14) (size 15 to 20)
#    0.000    2.375    1.250    1.500    1.750    3.250 
#    0.000    0.625    0.000    2.250    0.000    0.000 
#    0.000    0.000    0.000    0.000    0.000    0.000 
#
# Total GULP energy -396455.466803 kJ/mol
# GULP energy per Si atom -12389.233338 kJ/mol
# Density = 1.873959 g / cm^3
# Si number density = 18.782336 Si / 1000 Ang^3
#
#
#
# Elastic Constant Matrix: (Units=GPa)
#
#
# Indices 1 2 3 4 5 6 
#
# 1 149.0024 35.0975 60.9053 0.0000 4.6920 0.0000
# 2 35.0975 44.8812 25.3169 0.0000 4.2375 0.0000
# 3 60.9053 25.3169 110.4872 0.0000 7.3918 0.0000
# 4 0.0000 0.0000 0.0000 21.0950 0.0000 1.8345
# 5 4.6920 4.2375 7.3918 0.0000 34.7443 0.0000
# 6 0.0000 0.0000 0.0000 1.8345 0.0000 22.8222
#
#
#
# Elastic Compliance Matrix: (Units=1/GPa)
#
#
# Indices 1 2 3 4 5 6 
#
# 1 0.009618 -0.005217 -0.004121 0.000000 0.000214 0.000000
# 2 -0.005217 0.028543 -0.003529 0.000000 -0.002026 0.000000
# 3 -0.004121 -0.003529 0.012239 0.000000 -0.001617 0.000000
# 4 0.000000 0.000000 0.000000 0.047738 0.000000 -0.003837
# 5 0.000214 -0.002026 -0.001617 0.000000 0.029344 0.000000
# 6 0.000000 0.000000 0.000000 -0.003837 0.000000 0.044125
#
#
# Mechanical properties :
#
#
# Convention : Reuss Voigt Hill
#
# Bulk Modulus (GPa) = 40.54081 60.77891 50.65986
# Shear Modulus (GPa) = 24.32353 27.93570 26.12961
#
# Velocity S-wave (km/s) = 3.60254 3.86079 3.73390
# Velocity P-wave (km/s) = 6.23986 7.23216 6.75426
#
# Compressibility (1/GPa) = 0.02466650
#
# Stress axis : x y z
#
# Youngs Moduli (GPa) = 103.97448 35.03525 81.70560
#
# Poissons Ratio (x) = 0.18278 0.33668
# Poissons Ratio (y) = 0.54243 0.28833
# Poissons Ratio (z) = 0.42844 0.12363
#
# Static dielectric constant tensor:
#      x y z
#    x 3.734240 0.000000 -0.027580 
#    y 0.000000 3.039510 0.000000 
#    z -0.027580 0.000000 3.581900 
# 
# 
# High freq. dielectric constant tensor:
#      x y z
#    x 1.740550 0.000000 0.001480 
#    y 0.000000 1.677180 0.000000 
#    z 0.001480 0.000000 1.742480 
# 
# From -- ./inp_files/309912.got.cif
#   From: 2010.06.25/outbox.cif.g09.slc.cpg/sg12_155_cif.got.tgz:309912.got - 2010.06.28 00:19:55.
