data_PCOD8082771
_publ_section_title
;
Structure prediction by ZEFSAII (Michael W. Deem and Ramdas Pophale) SiO2 
 PCOD8082771
Probable space group: C 2/M
;
_chemical_formula_sum "Si O2"
_cell_formula_units_Z 64
_cell_length_a 15.405592
_cell_length_b 8.646081
_cell_length_c 27.715183
_cell_angle_alpha 90.000000
_cell_angle_beta 58.776609
_cell_angle_gamma 90.000000
_cell_volume 3156.887575
_symmetry_space_group_name_H-M "C 2/M"
_symmetry_group_IT_number 12
_symmetry_cell_setting 'monoclinic'
loop_
_space_group_symop_operation_xyz
x,y,z
-x,y,-z
-x,-y,-z
x,-y,z
1/2+x,1/2+y,z
1/2-x,1/2+y,-z
1/2-x,1/2-y,-z
1/2+x,1/2-y,z
loop_
_atom_site_type_symbol
_atom_site_label
_atom_site_fract_x
_atom_site_fract_y
_atom_site_fract_z
Si Si1 0.514151 0.817789 0.890068
Si Si2 0.340269 0.316914 0.504452
Si Si3 0.208806 0.820466 0.874301
Si Si4 0.788559 0.182630 0.625375
Si Si5 0.844740 0.819764 0.000525
Si Si6 0.510593 0.316715 0.385060
Si Si7 0.428609 0.317206 0.308081
Si Si8 0.075112 0.817793 0.180771
O O1 0.624528 0.737898 0.860611
O O2 0.455374 0.771331 0.858671
O O3 0.528775 0.000000 0.887391
O O4 0.447527 0.763864 0.954719
O O5 0.335433 0.500000 0.504989
O O6 0.250000 0.250000 0.500000
O O7 0.329712 0.256276 0.562022
O O8 0.444454 0.257825 0.449783
O O9 0.167101 0.789699 0.939659
O O10 0.311093 0.724474 0.836432
O O11 0.231500 0.000000 0.858677
O O12 0.872608 0.232426 0.640647
O O13 0.684434 0.261838 0.670551
O O14 0.771670 0.000000 0.629042
O O15 0.852922 0.000000 0.985647
O O16 0.750000 0.750000 0.000000
O O17 0.502519 0.500000 0.384791
O O18 0.468778 0.244992 0.347073
O O19 0.429481 0.500000 0.311058
O O20 0.501140 0.259980 0.244453
O O21 0.066586 0.000000 0.174083
#
# Coordination Sequence:
#
# PCOD8082771 Si02
#       8
#     8   8   8   8   8   8   8   8
#     4  12  25  41  64  93 125 164 205 249 304 361
#     4  10  18  31  55  83 114 150 188 233 290 349
#     4  11  24  42  65  94 126 161 200 248 307 363
#     4  10  20  34  57  87 114 149 194 237 287 352
#     4  11  22  38  64  95 129 162 199 246 302 364
#     4   9  18  35  57  81 115 152 188 233 288 353
#     4  10  22  40  60  83 113 153 194 242 299 346
#     4  11  24  42  63  87 119 160 210 258 304 360
#
# _framework density 20.273132
#
# number of rings (size 3 to 8) (size 9 to 14) (size 15 to 20)
#    0.000    1.500    2.500    3.000    0.000    6.500 
#    0.000    2.500    0.000    1.500    0.000    0.000 
#    0.000    0.000    0.000    0.000    0.000    0.000 
#
# Total GULP energy -396883.941027 kJ/mol
# GULP energy per Si atom -12402.623157 kJ/mol
# Density = 2.022699 g / cm^3
# Si number density = 20.273132 Si / 1000 Ang^3
#
#
#
# Elastic Constant Matrix: (Units=GPa)
#
#
# Indices 1 2 3 4 5 6 
#
# 1 118.0606 5.4007 33.6781 0.0000 -24.4982 0.0000
# 2 5.4007 42.4141 26.0004 0.0000 -0.8192 0.0000
# 3 33.6781 26.0004 110.8097 0.0000 -26.0368 0.0001
# 4 0.0000 0.0000 0.0000 18.2715 0.0000 -6.0459
# 5 -24.4982 -0.8192 -26.0368 0.0000 22.9465 0.0001
# 6 0.0000 0.0000 0.0001 -6.0459 0.0001 35.1727
#
#
#
# Elastic Compliance Matrix: (Units=1/GPa)
#
#
# Indices 1 2 3 4 5 6 
#
# 1 0.010957 -0.000858 -0.000528 0.000000 0.011068 0.000000
# 2 -0.000858 0.028927 -0.008862 0.000000 -0.009938 0.000000
# 3 -0.000528 -0.008862 0.015077 0.000000 0.016228 0.000000
# 4 0.000000 0.000000 0.000000 0.058031 0.000000 0.009975
# 5 0.011068 -0.009938 0.016228 0.000000 0.073454 0.000000
# 6 0.000000 0.000000 0.000000 0.009975 0.000000 0.030146
#
#
# Mechanical properties :
#
#
# Convention : Reuss Voigt Hill
#
# Bulk Modulus (GPa) = 29.01465 44.60476 36.80971
# Shear Modulus (GPa) = 20.11463 29.02515 24.56989
#
# Velocity S-wave (km/s) = 3.15331 3.78789 3.48507
# Velocity P-wave (km/s) = 5.25364 6.41720 5.86435
#
# Compressibility (1/GPa) = 0.03446535
#
# Stress axis : x y z
#
# Youngs Moduli (GPa) = 91.26801 34.56999 66.32451
#
# Poissons Ratio (x) = 0.02965 0.03504
# Poissons Ratio (y) = 0.07827 0.58776
# Poissons Ratio (z) = 0.04822 0.30636
#
# Static dielectric constant tensor:
#      x y z
#    x 3.814390 0.000000 0.050180 
#    y 0.000000 3.511000 0.000000 
#    z 0.050180 0.000000 4.004040 
# 
# 
# High freq. dielectric constant tensor:
#      x y z
#    x 1.807170 0.000000 -0.005410 
#    y 0.000000 1.775370 0.000000 
#    z -0.005410 0.000000 1.792330 
# 
# From -- ./inp_files/375052.got.cif
#   From: 2010.06.25/outbox.cif.g09.slc.cpg/sg12_188_cif.got.tgz:375052.got - 2010.06.28 00:19:55.
