data_PCOD8082387
_publ_section_title
;
Structure prediction by ZEFSAII (Michael W. Deem and Ramdas Pophale) SiO2 
 PCOD8082387
Probable space group: C 2/M
;
_chemical_formula_sum "Si O2"
_cell_formula_units_Z 64
_cell_length_a 24.940316
_cell_length_b 9.092404
_cell_length_c 19.258431
_cell_angle_alpha 90.000000
_cell_angle_beta 63.918193
_cell_angle_gamma 90.000000
_cell_volume 3922.462321
_symmetry_space_group_name_H-M "C 2/M"
_symmetry_group_IT_number 12
_symmetry_cell_setting 'monoclinic'
loop_
_space_group_symop_operation_xyz
x,y,z
-x,y,-z
-x,-y,-z
x,-y,z
1/2+x,1/2+y,z
1/2-x,1/2+y,-z
1/2-x,1/2-y,-z
1/2+x,1/2-y,z
loop_
_atom_site_type_symbol
_atom_site_label
_atom_site_fract_x
_atom_site_fract_y
_atom_site_fract_z
Si Si1 0.200633 0.672408 0.073649
Si Si2 0.755014 0.826862 0.184338
Si Si3 0.694965 0.671944 0.494885
Si Si4 0.039066 0.171133 0.819623
Si Si5 0.422209 0.173806 0.925061
Si Si6 0.387709 0.328909 0.082514
Si Si7 0.861054 0.170532 0.336618
Si Si8 0.735917 0.174421 0.347558
O O1 0.210197 0.500000 0.058701
O O2 0.209721 0.718704 0.148932
O O3 0.135421 0.722425 0.086633
O O4 0.250000 0.750000 0.000000
O O5 0.821151 0.763433 0.131529
O O6 0.727997 0.770337 0.272794
O O7 0.763034 0.000000 0.186616
O O8 0.708236 0.500000 0.478422
O O9 0.750000 0.750000 0.500000
O O10 0.638866 0.696663 0.579659
O O11 0.685524 0.746748 0.424665
O O12 0.074329 0.197969 0.870502
O O13 0.079678 0.235514 0.733229
O O14 0.978907 0.264513 0.851889
O O15 0.022944 0.000000 0.819258
O O16 0.427211 0.000000 0.928855
O O17 0.419768 0.241624 0.002908
O O18 0.385991 0.500000 0.062782
O O19 0.800638 0.232747 0.336083
O O20 0.861117 0.000000 0.317346
O O21 0.728390 0.000000 0.360306
#
# Coordination Sequence:
#
# PCOD8082387 Si02
#       8
#     8   8   8   8   8   8   8   8
#     4  10  20  34  51  68  89 120 159 197 239 280
#     4   9  16  29  51  71  88 118 158 197 230 270
#     4   9  16  26  42  65  95 125 150 181 223 274
#     4  10  19  32  50  69  88 121 166 197 217 266
#     4  11  23  34  44  66  98 125 150 193 246 283
#     4  10  18  31  52  70  86 119 167 198 220 270
#     4   8  14  26  44  65  89 117 149 183 218 262
#     4   9  15  27  46  68  93 117 148 190 232 274
#
# _framework density 16.316281
#
# number of rings (size 3 to 8) (size 9 to 14) (size 15 to 20)
#    0.000    2.500    2.500    1.875    0.000    2.500 
#    0.000    4.375    0.000    0.000    0.000    0.875 
#    0.000    7.000    0.000    0.000    0.000    0.000 
#
# Total GULP energy -396614.779868 kJ/mol
# GULP energy per Si atom -12394.211871 kJ/mol
# Density = 1.627914 g / cm^3
# Si number density = 16.316281 Si / 1000 Ang^3
#
#
#
# Elastic Constant Matrix: (Units=GPa)
#
#
# Indices 1 2 3 4 5 6 
#
# 1 72.4005 29.4896 53.3679 -0.0001 -6.3237 -0.0003
# 2 29.4896 47.8016 45.6266 -0.0002 -2.5025 -0.0007
# 3 53.3679 45.6266 162.7829 0.0000 3.4647 -0.0001
# 4 -0.0001 -0.0002 0.0000 24.4237 0.0000 -1.0329
# 5 -6.3237 -2.5025 3.4647 0.0000 19.3315 -0.0001
# 6 -0.0003 -0.0007 -0.0001 -1.0329 -0.0001 16.7875
#
#
#
# Elastic Compliance Matrix: (Units=1/GPa)
#
#
# Indices 1 2 3 4 5 6 
#
# 1 0.021295 -0.008166 -0.004837 0.000000 0.006776 0.000000
# 2 -0.008166 0.032213 -0.006408 0.000000 0.002647 0.000001
# 3 -0.004837 -0.006408 0.009613 0.000000 -0.004135 0.000000
# 4 0.000000 0.000000 0.000000 0.041051 0.000000 0.002526
# 5 0.006776 0.002647 -0.004135 0.000000 0.055030 0.000001
# 6 0.000000 0.000001 0.000000 0.002526 0.000001 0.059724
#
#
# Mechanical properties :
#
#
# Convention : Reuss Voigt Hill
#
# Bulk Modulus (GPa) = 41.15366 59.99480 50.57423
# Shear Modulus (GPa) = 18.80785 22.40859 20.60822
#
# Velocity S-wave (km/s) = 3.39883 3.70995 3.55779
# Velocity P-wave (km/s) = 6.37808 7.42976 6.92392
#
# Compressibility (1/GPa) = 0.02429917
#
# Stress axis : x y z
#
# Youngs Moduli (GPa) = 46.95854 31.04382 104.02456
#
# Poissons Ratio (x) = 0.25350 0.50317
# Poissons Ratio (y) = 0.38345 0.66660
# Poissons Ratio (z) = 0.22714 0.19893
#
# Static dielectric constant tensor:
#      x y z
#    x 2.949890 0.000000 0.097660 
#    y 0.000000 2.936990 0.000000 
#    z 0.097660 0.000000 3.688000 
# 
# 
# High freq. dielectric constant tensor:
#      x y z
#    x 1.590030 0.000000 0.005980 
#    y 0.000000 1.607250 0.000000 
#    z 0.005980 0.000000 1.641760 
# 
# From -- ./inp_files/287767.got.cif
#   From: 2010.06.25/outbox.cif.g09.slc.cpg/sg12_144_cif.got.tgz:287767.got - 2010.06.28 00:19:55.
