data_PCOD8082732
_publ_section_title
;
Structure prediction by ZEFSAII (Michael W. Deem and Ramdas Pophale) SiO2 
 PCOD8082732
Probable space group: C 2/M
;
_chemical_formula_sum "Si O2"
_cell_formula_units_Z 44
_cell_length_a 15.580595
_cell_length_b 17.399052
_cell_length_c 17.995987
_cell_angle_alpha 90.000000
_cell_angle_beta 25.988650
_cell_angle_gamma 90.000000
_cell_volume 2137.720008
_symmetry_space_group_name_H-M "C 2/M"
_symmetry_group_IT_number 12
_symmetry_cell_setting 'monoclinic'
loop_
_space_group_symop_operation_xyz
x,y,z
-x,y,-z
-x,-y,-z
x,-y,z
1/2+x,1/2+y,z
1/2-x,1/2+y,-z
1/2-x,1/2-y,-z
1/2+x,1/2-y,z
loop_
_atom_site_type_symbol
_atom_site_label
_atom_site_fract_x
_atom_site_fract_y
_atom_site_fract_z
Si Si1 0.500000 0.810661 0.500000
Si Si2 0.677038 0.090641 0.913008
Si Si3 0.761758 0.410655 0.970405
Si Si4 0.826003 0.910320 0.298478
Si Si5 0.531298 0.663246 0.557064
Si Si6 0.151925 0.588753 0.596039
O O1 0.693160 0.863944 0.343098
O O2 0.514207 0.756016 0.562140
O O3 0.643508 0.114938 0.024608
O O4 0.874157 0.132254 0.736585
O O5 0.705026 0.000000 0.880830
O O6 0.500000 0.121381 0.000000
O O7 0.716152 0.500000 0.011452
O O8 0.546213 0.374641 0.123278
O O9 0.918934 0.391402 0.783457
O O10 0.730659 0.895161 0.453016
O O11 0.818734 0.000000 0.282734
O O12 0.500000 0.624438 0.500000
O O13 0.742199 0.641631 0.425528
O O14 0.186637 0.500000 0.591324
#
# Coordination Sequence:
#
# PCOD8082732 Si02
#       6
#     4   8   8   8   8   8
#     4  10  25  40  55  82 116 160 196 236 293 344
#     4  10  18  31  54  85 122 157 191 232 277 341
#     4   9  18  33  58  90 112 139 191 245 287 334
#     4  10  20  41  66  82 108 149 201 253 289 330
#     4  10  21  35  52  82 122 156 181 228 287 347
#     4  10  19  35  62  90 112 146 191 237 293 345
#
# _framework density 20.582675999999999
#
# number of rings (size 3 to 8) (size 9 to 14) (size 15 to 20)
#    0.545    1.636    1.818    1.909    0.000    3.636 
#    0.000    3.636    0.000    4.364    0.000    0.000 
#    0.000    0.000    0.000    0.000    0.000    0.000 
#
# Total GULP energy -272685.381334 kJ/mol
# GULP energy per Si atom -12394.790061 kJ/mol
# Density = 2.053583 g / cm^3
# Si number density = 20.582676 Si / 1000 Ang^3
#
#
#
# Elastic Constant Matrix: (Units=GPa)
#
#
# Indices 1 2 3 4 5 6 
#
# 1 54.4238 33.7572 37.4296 0.0386 -25.8252 0.0065
# 2 33.7572 60.6629 29.3100 0.2537 -11.6680 0.0540
# 3 37.4296 29.3100 151.0379 0.2316 -20.5051 0.0599
# 4 0.0386 0.2537 0.2316 5.8213 0.0557 -13.1107
# 5 -25.8252 -11.6680 -20.5051 0.0557 38.3114 0.0089
# 6 0.0065 0.0540 0.0599 -13.1107 0.0089 24.8233
#
#
#
# Elastic Compliance Matrix: (Units=1/GPa)
#
#
# Indices 1 2 3 4 5 6 
#
# 1 0.041739 -0.017215 -0.004194 -0.002683 0.020652 -0.001388
# 2 -0.017215 0.025838 -0.001365 0.005382 -0.004474 0.002796
# 3 -0.004194 -0.001365 0.008068 0.001475 0.001073 0.000763
# 4 -0.002683 0.005382 0.001475 -0.904703 0.002046 -0.477842
# 5 0.020652 -0.004474 0.001073 0.002046 0.039231 0.001068
# 6 -0.001388 0.002796 0.000763 -0.477842 0.001068 -0.212100
#
#
# Mechanical properties :
#
#
# Convention : Reuss Voigt Hill
#
# Bulk Modulus (GPa) = 33.22642 51.90203 42.56423
# Shear Modulus (GPa) = -5.28348 24.83306 9.77479
#
# Velocity S-wave (km/s) = -1.60391 3.47724 2.18159
# Velocity P-wave (km/s) = 3.57042 6.43372 5.20292
#
# Compressibility (1/GPa) = 0.03009653
#
# Stress axis : x y z
#
# Youngs Moduli (GPa) = 23.95848 38.70248 123.94304
#
# Poissons Ratio (x) = 0.66627 0.51987
# Poissons Ratio (y) = 0.41245 0.16914
# Poissons Ratio (z) = 0.10049 0.05282
#
# Static dielectric constant tensor:
#      x y z
#    x 3.656150 -0.000080 -0.190630 
#    y -0.000080 3.437230 0.000240 
#    z -0.190630 0.000240 3.751060 
# 
# 
# High freq. dielectric constant tensor:
#      x y z
#    x 1.793290 0.000000 -0.013200 
#    y 0.000000 1.773290 0.000020 
#    z -0.013200 0.000020 1.811610 
# 
# From -- ./inp_files/317760.got.cif
#   From: 2010.06.25/outbox.cif.g09.slc.cpg/sg12_159_cif.got.tgz:317760.got - 2010.06.28 00:19:55.
