data_PCOD8082259
_publ_section_title
;
Structure prediction by ZEFSAII (Michael W. Deem and Ramdas Pophale) SiO2 
 PCOD8082259
Probable space group: C 2/M
;
_chemical_formula_sum "Si O2"
_cell_formula_units_Z 56
_cell_length_a 19.172068
_cell_length_b 8.579249
_cell_length_c 21.774269
_cell_angle_alpha 90.000000
_cell_angle_beta 124.919959
_cell_angle_gamma 90.000000
_cell_volume 2936.638727
_symmetry_space_group_name_H-M "C 2/M"
_symmetry_group_IT_number 12
_symmetry_cell_setting 'monoclinic'
loop_
_space_group_symop_operation_xyz
x,y,z
-x,y,-z
-x,-y,-z
x,-y,z
1/2+x,1/2+y,z
1/2-x,1/2+y,-z
1/2-x,1/2-y,-z
1/2+x,1/2-y,z
loop_
_atom_site_type_symbol
_atom_site_label
_atom_site_fract_x
_atom_site_fract_y
_atom_site_fract_z
Si Si1 0.459118 0.318317 0.309747
Si Si2 0.383388 0.181835 0.554865
Si Si3 0.752245 0.316969 0.593460
Si Si4 0.511292 0.182122 0.805131
Si Si5 0.670730 0.818614 0.238778
Si Si6 0.714662 0.181035 0.802211
Si Si7 0.813753 0.816498 0.081725
O O1 0.439332 0.500000 0.303466
O O2 0.526804 0.271047 0.395989
O O3 0.497063 0.275417 0.262466
O O4 0.371054 0.227454 0.277385
O O5 0.335329 0.229779 0.468025
O O6 0.326307 0.234153 0.584012
O O7 0.402419 0.000000 0.564960
O O8 0.736374 0.500000 0.580785
O O9 0.779866 0.265196 0.675098
O O10 0.429301 0.217298 0.805359
O O11 0.594706 0.236620 0.883886
O O12 0.516834 0.000000 0.791322
O O13 0.704028 0.719129 0.198442
O O14 0.687131 0.000000 0.234413
O O15 0.720913 0.278259 0.868086
O O16 0.713462 0.000000 0.818433
O O17 0.823288 0.000000 0.078623
O O18 0.750000 0.750000 0.000000
#
# Coordination Sequence:
#
# PCOD8082259 Si02
#       7
#     8   8   8   8   8   8   8
#     4  11  20  33  54  79 108 146 192 236 279 332
#     4  10  18  31  50  77 108 143 188 239 285 329
#     4   9  18  32  50  76 109 147 184 230 284 334
#     4  10  19  35  59  86 114 147 185 228 274 327
#     4  10  20  37  57  81 116 151 185 226 280 336
#     4  11  23  38  58  84 115 148 185 229 277 329
#     4  11  22  40  64  90 117 147 183 224 270 325
#
# _framework density 19.069420999999998
#
# number of rings (size 3 to 8) (size 9 to 14) (size 15 to 20)
#    0.000    1.714    1.429    6.429    0.000    2.286 
#    0.000    1.429    0.000    8.571    0.000    0.000 
#    0.000    0.000    0.000    0.000    0.000    0.000 
#
# Total GULP energy -347297.577681 kJ/mol
# GULP energy per Si atom -12403.484917 kJ/mol
# Density = 1.902602 g / cm^3
# Si number density = 19.069421 Si / 1000 Ang^3
#
#
#
# Elastic Constant Matrix: (Units=GPa)
#
#
# Indices 1 2 3 4 5 6 
#
# 1 101.0342 22.9310 41.9203 0.0000 7.2020 0.0000
# 2 22.9310 66.2428 16.3514 0.0000 5.8197 0.0000
# 3 41.9203 16.3514 108.1460 0.0000 21.0035 0.0000
# 4 0.0000 0.0000 0.0000 32.8127 0.0000 3.7821
# 5 7.2020 5.8197 21.0035 0.0000 24.0103 0.0000
# 6 0.0000 0.0000 0.0000 3.7821 0.0000 29.7910
#
#
#
# Elastic Compliance Matrix: (Units=1/GPa)
#
#
# Indices 1 2 3 4 5 6 
#
# 1 0.012448 -0.003281 -0.004528 0.000000 0.001022 0.000000
# 2 -0.003281 0.016633 -0.000784 0.000000 -0.002361 0.000000
# 3 -0.004528 -0.000784 0.013034 0.000000 -0.009854 0.000000
# 4 0.000000 0.000000 0.000000 0.030929 0.000000 -0.003927
# 5 0.001022 -0.002361 -0.009854 0.000000 0.050534 0.000000
# 6 0.000000 0.000000 0.000000 -0.003927 0.000000 0.034066
#
#
# Mechanical properties :
#
#
# Convention : Reuss Voigt Hill
#
# Bulk Modulus (GPa) = 40.11458 48.64759 44.38108
# Shear Modulus (GPa) = 27.30158 30.27082 28.78620
#
# Velocity S-wave (km/s) = 3.78788 3.98854 3.88950
# Velocity P-wave (km/s) = 6.34133 6.83941 6.59507
#
# Compressibility (1/GPa) = 0.02492859
#
# Stress axis : x y z
#
# Youngs Moduli (GPa) = 80.33378 60.12183 76.72190
#
# Poissons Ratio (x) = 0.19728 0.34736
# Poissons Ratio (y) = 0.26360 0.06018
# Poissons Ratio (z) = 0.36372 0.04716
#
# Static dielectric constant tensor:
#      x y z
#    x 3.391530 0.000000 0.226130 
#    y 0.000000 3.531860 0.000000 
#    z 0.226130 0.000000 3.471610 
# 
# 
# High freq. dielectric constant tensor:
#      x y z
#    x 1.727220 0.000000 0.018750 
#    y 0.000000 1.749510 0.000000 
#    z 0.018750 0.000000 1.731640 
# 
# From -- ./inp_files/314439.got.cif
#   From: 2010.06.25/outbox.cif.g09.slc.cpg/sg12_158_cif.got.tgz:314439.got - 2010.06.28 00:19:55.
