data_PCOD8082944
_publ_section_title
;
Structure prediction by ZEFSAII (Michael W. Deem and Ramdas Pophale) SiO2 
 PCOD8082944
Probable space group: C 2/M
;
_chemical_formula_sum "Si O2"
_cell_formula_units_Z 64
_cell_length_a 20.161179
_cell_length_b 9.210655
_cell_length_c 19.101008
_cell_angle_alpha 90.000000
_cell_angle_beta 87.757751
_cell_angle_gamma 90.000000
_cell_volume 3544.296757
_symmetry_space_group_name_H-M "C 2/M"
_symmetry_group_IT_number 12
_symmetry_cell_setting 'monoclinic'
loop_
_space_group_symop_operation_xyz
x,y,z
-x,y,-z
-x,-y,-z
x,-y,z
1/2+x,1/2+y,z
1/2-x,1/2+y,-z
1/2-x,1/2-y,-z
1/2+x,1/2-y,z
loop_
_atom_site_type_symbol
_atom_site_label
_atom_site_fract_x
_atom_site_fract_y
_atom_site_fract_z
Si Si1 0.630490 0.830097 0.692123
Si Si2 0.084232 0.828451 0.566013
Si Si3 0.203834 0.327474 0.946216
Si Si4 0.053942 0.327789 0.943626
Si Si5 0.243030 0.672241 0.790729
Si Si6 0.492160 0.829973 0.205784
Si Si7 0.886116 0.172712 0.735578
Si Si8 0.565402 0.328511 0.414117
O O1 0.634109 0.750936 0.617016
O O2 0.689436 0.766870 0.737817
O O3 0.560919 0.794605 0.732114
O O4 0.639756 0.000000 0.678986
O O5 0.101488 0.781542 0.485139
O O6 0.009956 0.771110 0.585321
O O7 0.091020 0.000000 0.576506
O O8 0.211655 0.500000 0.953080
O O9 0.127833 0.277178 0.962005
O O10 0.226070 0.271848 0.868865
O O11 0.250000 0.250000 0.000000
O O12 0.051529 0.500000 0.944783
O O13 0.036950 0.273286 0.866538
O O14 0.000000 0.262396 0.000000
O O15 0.239020 0.500000 0.790070
O O16 0.315292 0.728569 0.765452
O O17 0.559032 0.742701 0.217127
O O18 0.508744 0.000000 0.202072
O O19 0.894546 0.228388 0.655085
O O20 0.892677 0.000000 0.740116
O O21 0.561098 0.500000 0.413771
#
# Coordination Sequence:
#
# PCOD8082944 Si02
#       8
#     8   8   8   8   8   8   8   8
#     4  10  18  32  51  73  98 131 166 199 243 295
#     4   9  16  29  49  72  98 127 163 206 244 284
#     4  10  20  36  54  74 101 133 166 200 242 294
#     4   9  18  33  53  74  98 132 168 198 238 295
#     4   9  19  35  53  71 100 136 165 195 242 302
#     4  10  19  32  52  75 100 127 164 210 245 282
#     4  10  19  33  53  74  97 131 169 202 241 294
#     4   8  15  28  47  71  98 128 163 199 241 294
#
# _framework density 18.057178
#
# number of rings (size 3 to 8) (size 9 to 14) (size 15 to 20)
#    0.000    2.625    2.500    0.750    1.750    0.000 
#    0.000    4.375    0.000    0.750    0.000    0.000 
#    0.000    0.000    0.000    0.000    0.000    0.000 
#
# Total GULP energy -396708.240028 kJ/mol
# GULP energy per Si atom -12397.132501 kJ/mol
# Density = 1.801608 g / cm^3
# Si number density = 18.057178 Si / 1000 Ang^3
#
#
#
# Elastic Constant Matrix: (Units=GPa)
#
#
# Indices 1 2 3 4 5 6 
#
# 1 137.8928 30.2059 75.1830 0.0000 10.0865 0.0000
# 2 30.2059 25.1386 29.5213 0.0000 7.3175 0.0000
# 3 75.1830 29.5213 146.1977 0.0000 19.7923 0.0000
# 4 0.0000 0.0000 0.0000 24.9643 0.0000 9.4500
# 5 10.0865 7.3175 19.7923 0.0000 36.1473 0.0000
# 6 0.0000 0.0000 0.0000 9.4500 0.0000 21.2087
#
#
#
# Elastic Compliance Matrix: (Units=1/GPa)
#
#
# Indices 1 2 3 4 5 6 
#
# 1 0.011463 -0.009143 -0.004176 0.000000 0.000939 0.000000
# 2 -0.009143 0.060349 -0.006670 0.000000 -0.006013 0.000000
# 3 -0.004176 -0.006670 0.010794 0.000000 -0.003395 0.000000
# 4 0.000000 0.000000 0.000000 0.048184 0.000000 -0.021470
# 5 0.000939 -0.006013 -0.003395 0.000000 0.030479 0.000000
# 6 0.000000 0.000000 0.000000 -0.021470 0.000000 0.056717
#
#
# Mechanical properties :
#
#
# Convention : Reuss Voigt Hill
#
# Bulk Modulus (GPa) = 23.45877 64.33883 43.89880
# Shear Modulus (GPa) = 18.37068 28.08531 23.22800
#
# Velocity S-wave (km/s) = 3.19307 3.94808 3.59047
# Velocity P-wave (km/s) = 5.15886 7.51605 6.44612
#
# Compressibility (1/GPa) = 0.04262799
#
# Stress axis : x y z
#
# Youngs Moduli (GPa) = 87.23809 16.57027 92.64497
#
# Poissons Ratio (x) = 0.15150 0.38686
# Poissons Ratio (y) = 0.79762 0.61795
# Poissons Ratio (z) = 0.36428 0.11053
#
# Static dielectric constant tensor:
#      x y z
#    x 3.382460 0.000000 -0.092150 
#    y 0.000000 2.855780 0.000000 
#    z -0.092150 0.000000 3.674070 
# 
# 
# High freq. dielectric constant tensor:
#      x y z
#    x 1.693050 0.000000 0.005100 
#    y 0.000000 1.651590 0.000000 
#    z 0.005100 0.000000 1.716260 
# 
# From -- ./inp_files/281411.got.cif
#   From: 2010.06.25/outbox.cif.g09.slc.cpg/sg12_141_cif.got.tgz:281411.got - 2010.06.28 00:19:55.
