data_PCOD8082775
_publ_section_title
;
Structure prediction by ZEFSAII (Michael W. Deem and Ramdas Pophale) SiO2 
 PCOD8082775
Probable space group: C 2/M
;
_chemical_formula_sum "Si O2"
_cell_formula_units_Z 48
_cell_length_a 24.657903
_cell_length_b 18.292624
_cell_length_c 18.293939
_cell_angle_alpha 90.000000
_cell_angle_beta 164.312095
_cell_angle_gamma 90.000000
_cell_volume 2231.215885
_symmetry_space_group_name_H-M "C 2/M"
_symmetry_group_IT_number 12
_symmetry_cell_setting 'monoclinic'
loop_
_space_group_symop_operation_xyz
x,y,z
-x,y,-z
-x,-y,-z
x,-y,z
1/2+x,1/2+y,z
1/2-x,1/2+y,-z
1/2-x,1/2-y,-z
1/2+x,1/2-y,z
loop_
_atom_site_type_symbol
_atom_site_label
_atom_site_fract_x
_atom_site_fract_y
_atom_site_fract_z
Si Si1 0.427821 0.413869 0.037684
Si Si2 0.222266 0.202288 0.258477
Si Si3 0.813283 0.681818 0.530845
Si Si4 0.127057 0.150574 0.594120
Si Si5 0.012174 0.582806 0.139598
Si Si6 0.548299 0.416767 0.350218
O O1 0.423487 0.500000 0.012906
O O2 0.641427 0.379180 0.296086
O O3 0.398425 0.401096 0.087084
O O4 0.266952 0.371483 0.777534
O O5 0.368563 0.203522 0.519388
O O6 0.297885 0.266328 0.303788
O O7 0.000000 0.219838 0.000000
O O8 0.750000 0.750000 0.500000
O O9 0.003268 0.639906 0.812519
O O10 0.994822 0.134278 0.349907
O O11 0.000000 0.130486 0.500000
O O12 0.320969 0.097035 0.840283
O O13 0.012022 0.500000 0.167829
O O14 0.221828 0.601247 0.372564
O O15 0.525294 0.500000 0.345029
#
# Coordination Sequence:
#
# PCOD8082775 Si02
#       6
#     8   8   8   8   8   8
#     4   9  18  33  57  87 112 137 176 225 273 320
#     4  10  20  35  58  82 109 142 179 221 266 322
#     4  10  18  31  55  84 113 141 174 217 264 318
#     4  12  24  36  52  77 110 145 185 228 269 319
#     4  10  20  35  56  82 110 140 176 219 271 326
#     4   9  18  35  58  81 108 141 176 218 271 330
#
# _framework density 21.512933
#
# number of rings (size 3 to 8) (size 9 to 14) (size 15 to 20)
#    0.000    2.000    0.000    7.500    0.000    6.333 
#    0.000    3.333    0.000    0.500    0.000    0.000 
#    0.000    0.000    0.000    0.000    0.000    0.000 
#
# Total GULP energy -297378.656027 kJ/mol
# GULP energy per Si atom -12390.777334 kJ/mol
# Density = 2.146397 g / cm^3
# Si number density = 21.512933 Si / 1000 Ang^3
#
#
#
# Elastic Constant Matrix: (Units=GPa)
#
#
# Indices 1 2 3 4 5 6 
#
# 1 123.7038 58.1520 35.4200 0.0018 -32.4983 0.0010
# 2 58.1520 135.1301 28.0262 0.0005 -18.9513 0.0003
# 3 35.4200 28.0262 30.7716 0.0054 -25.3325 0.0034
# 4 0.0018 0.0005 0.0054 21.7620 0.0031 -15.6110
# 5 -32.4983 -18.9513 -25.3325 0.0031 29.6243 0.0018
# 6 0.0010 0.0003 0.0034 -15.6110 0.0018 31.5945
#
#
#
# Elastic Compliance Matrix: (Units=1/GPa)
#
#
# Indices 1 2 3 4 5 6 
#
# 1 0.013394 -0.003416 -0.006786 -0.000001 0.006705 0.000000
# 2 -0.003416 0.010159 -0.010322 0.000007 -0.006075 0.000005
# 3 -0.006786 -0.010322 0.128857 -0.000090 0.096142 -0.000064
# 4 -0.000001 0.000007 -0.000090 0.071182 -0.000083 0.035171
# 5 0.006705 -0.006075 0.096142 -0.000083 0.119439 -0.000058
# 6 0.000000 0.000005 -0.000064 0.035171 -0.000058 0.049029
#
#
# Mechanical properties :
#
#
# Convention : Reuss Voigt Hill
#
# Bulk Modulus (GPa) = 8.97965 59.20022 34.08993
# Shear Modulus (GPa) = 10.63310 27.79666 19.21488
#
# Velocity S-wave (km/s) = 2.22562 3.59847 2.99185
# Velocity P-wave (km/s) = 3.28446 6.69652 5.27404
#
# Compressibility (1/GPa) = 0.11136287
#
# Stress axis : x y z
#
# Youngs Moduli (GPa) = 74.65765 98.43306 7.76053
#
# Poissons Ratio (x) = 0.33628 0.05266
# Poissons Ratio (y) = 0.25506 0.08010
# Poissons Ratio (z) = 0.50664 1.01598
#
# Static dielectric constant tensor:
#      x y z
#    x 4.102940 0.000000 -0.829160 
#    y 0.000000 4.031550 0.000000 
#    z -0.829160 0.000000 3.831980 
# 
# 
# High freq. dielectric constant tensor:
#      x y z
#    x 1.831150 0.000000 -0.051770 
#    y 0.000000 1.857710 0.000000 
#    z -0.051770 0.000000 1.798210 
# 
# From -- ./inp_files/272053.got.cif
#   From: 2010.06.25/outbox.cif.g09.slc.cpg/sg12_137_cif.got.tgz:272053.got - 2010.06.28 00:19:55.
