data_PCOD8082960
_publ_section_title
;
Structure prediction by ZEFSAII (Michael W. Deem and Ramdas Pophale) SiO2 
 PCOD8082960
Probable space group: C 2/M
;
_chemical_formula_sum "Si O2"
_cell_formula_units_Z 64
_cell_length_a 20.767373
_cell_length_b 9.062547
_cell_length_c 26.132765
_cell_angle_alpha 90.000000
_cell_angle_beta 134.273268
_cell_angle_gamma 90.000000
_cell_volume 3521.611532
_symmetry_space_group_name_H-M "C 2/M"
_symmetry_group_IT_number 12
_symmetry_cell_setting 'monoclinic'
loop_
_space_group_symop_operation_xyz
x,y,z
-x,y,-z
-x,-y,-z
x,-y,z
1/2+x,1/2+y,z
1/2-x,1/2+y,-z
1/2-x,1/2-y,-z
1/2+x,1/2-y,z
loop_
_atom_site_type_symbol
_atom_site_label
_atom_site_fract_x
_atom_site_fract_y
_atom_site_fract_z
Si Si1 0.932428 0.674912 0.778506
Si Si2 0.645897 0.174747 0.081790
Si Si3 0.808849 0.325370 0.217667
Si Si4 0.903569 0.324878 0.462358
Si Si5 0.344217 0.824471 0.540944
Si Si6 0.746460 0.825437 0.699664
Si Si7 0.504523 0.173909 0.924234
Si Si8 0.495013 0.175034 0.703242
O O1 0.918855 0.500000 0.770727
O O2 0.836514 0.747882 0.731974
O O3 0.997769 0.724853 0.861475
O O4 0.976595 0.731749 0.750526
O O5 0.741518 0.254757 0.138975
O O6 0.582209 0.232331 0.092684
O O7 0.661381 0.000000 0.092336
O O8 0.598074 0.226249 0.002058
O O9 0.805357 0.500000 0.209639
O O10 0.781029 0.274689 0.258900
O O11 0.908684 0.263905 0.261752
O O12 0.908796 0.500000 0.464537
O O13 0.877658 0.269259 0.504292
O O14 0.830649 0.268853 0.381269
O O15 0.000000 0.257816 0.500000
O O16 0.250000 0.750000 0.500000
O O17 0.416683 0.766837 0.622479
O O18 0.332798 0.000000 0.536667
O O19 0.759766 0.000000 0.703908
O O20 0.501361 0.000000 0.927763
O O21 0.496451 0.000000 0.702056
#
# Coordination Sequence:
#
# PCOD8082960 Si02
#       8
#     8   8   8   8   8   8   8   8
#     4  10  18  32  52  71  92 125 163 194 229 281
#     4   9  16  30  50  72  95 122 161 199 232 275
#     4  10  19  32  48  71 101 129 156 192 241 288
#     4   9  17  30  49  70  92 124 163 195 228 279
#     4  10  19  33  52  72  95 126 162 199 237 281
#     4  10  19  30  48  73  97 120 154 202 242 272
#     4   8  15  28  49  72  94 122 159 198 230 275
#     4   9  19  33  50  71  98 130 160 191 235 291
#
# _framework density 18.173499
#
# number of rings (size 3 to 8) (size 9 to 14) (size 15 to 20)
#    0.000    2.625    1.250    2.250    0.000    3.000 
#    0.000    3.750    0.000    3.000    0.000    0.000 
#    0.000    0.000    0.000    0.000    0.000    0.000 
#
# Total GULP energy -396725.690593 kJ/mol
# GULP energy per Si atom -12397.677831 kJ/mol
# Density = 1.813213 g / cm^3
# Si number density = 18.173499 Si / 1000 Ang^3
#
#
#
# Elastic Constant Matrix: (Units=GPa)
#
#
# Indices 1 2 3 4 5 6 
#
# 1 135.8731 21.4353 78.6277 0.0000 6.0891 0.0000
# 2 21.4353 16.0820 22.3567 0.0000 2.8691 0.0000
# 3 78.6277 22.3567 175.7326 0.0000 7.1845 0.0000
# 4 0.0000 0.0000 0.0000 21.7658 0.0000 7.3307
# 5 6.0891 2.8691 7.1845 0.0000 31.9942 0.0000
# 6 0.0000 0.0000 0.0000 7.3307 0.0000 21.8650
#
#
#
# Elastic Compliance Matrix: (Units=1/GPa)
#
#
# Indices 1 2 3 4 5 6 
#
# 1 0.011016 -0.009452 -0.003709 0.000000 -0.000416 0.000000
# 2 -0.009452 0.084346 -0.006324 0.000000 -0.004345 0.000000
# 3 -0.003709 -0.006324 0.008178 0.000000 -0.000563 0.000000
# 4 0.000000 0.000000 0.000000 0.051792 0.000000 -0.017364
# 5 -0.000416 -0.004345 -0.000563 0.000000 0.031851 0.000000
# 6 0.000000 0.000000 0.000000 -0.017364 0.000000 0.051557
#
#
# Mechanical properties :
#
#
# Convention : Reuss Voigt Hill
#
# Bulk Modulus (GPa) = 15.48728 63.61411 39.55070
# Shear Modulus (GPa) = 16.70938 28.80956 22.75947
#
# Velocity S-wave (km/s) = 3.03551 3.98584 3.54269
# Velocity P-wave (km/s) = 4.56357 7.50082 6.20840
#
# Compressibility (1/GPa) = 0.06456911
#
# Stress axis : x y z
#
# Youngs Moduli (GPa) = 90.77508 11.85595 122.28382
#
# Poissons Ratio (x) = 0.11207 0.45361
# Poissons Ratio (y) = 0.85803 0.77328
# Poissons Ratio (z) = 0.33673 0.07497
#
# Static dielectric constant tensor:
#      x y z
#    x 3.440410 0.000000 -0.130390 
#    y 0.000000 2.882150 0.000000 
#    z -0.130390 0.000000 3.864330 
# 
# 
# High freq. dielectric constant tensor:
#      x y z
#    x 1.699390 0.000000 -0.000030 
#    y 0.000000 1.656550 0.000000 
#    z -0.000030 0.000000 1.725600 
# 
# From -- ./inp_files/276458.got.cif
#   From: 2010.06.25/outbox.cif.g09.slc.cpg/sg12_139_cif.got.tgz:276458.got - 2010.06.28 00:19:55.
