data_PCOD8082018
_publ_section_title
;
Structure prediction by ZEFSAII (Michael W. Deem and Ramdas Pophale) SiO2 
 PCOD8082018
Probable space group: C 2/M
;
_chemical_formula_sum "Si O2"
_cell_formula_units_Z 64
_cell_length_a 17.051534
_cell_length_b 18.405803
_cell_length_c 18.979351
_cell_angle_alpha 90.000000
_cell_angle_beta 33.235162
_cell_angle_gamma 90.000000
_cell_volume 3264.681902
_symmetry_space_group_name_H-M "C 2/M"
_symmetry_group_IT_number 12
_symmetry_cell_setting 'monoclinic'
loop_
_space_group_symop_operation_xyz
x,y,z
-x,y,-z
-x,-y,-z
x,-y,z
1/2+x,1/2+y,z
1/2-x,1/2+y,-z
1/2-x,1/2-y,-z
1/2+x,1/2-y,z
loop_
_atom_site_type_symbol
_atom_site_label
_atom_site_fract_x
_atom_site_fract_y
_atom_site_fract_z
Si Si1 0.140642 0.703501 0.246848
Si Si2 0.401094 0.658686 0.138046
Si Si3 0.390845 0.414749 0.293439
Si Si4 0.339673 0.178074 0.917353
Si Si5 0.310945 0.790809 0.521576
Si Si6 0.370743 0.795077 0.237908
Si Si7 0.647347 0.918931 0.853142
Si Si8 0.668975 0.366288 0.167450
O O1 0.237204 0.671021 0.236588
O O2 0.178522 0.653450 0.150101
O O3 0.171929 0.786108 0.199354
O O4 0.979603 0.699161 0.394518
O O5 0.417992 0.602950 0.190464
O O6 0.451474 0.738757 0.124722
O O7 0.500000 0.630757 0.000000
O O8 0.365463 0.500000 0.321285
O O9 0.252267 0.371907 0.424716
O O10 0.516598 0.388128 0.250715
O O11 0.510678 0.186996 0.793138
O O12 0.250000 0.250000 0.000000
O O13 0.282243 0.121278 0.018087
O O14 0.250000 0.750000 0.500000
O O15 0.265446 0.743432 0.623861
O O16 0.315502 0.866314 0.239537
O O17 0.778064 0.919237 0.810532
O O18 0.630519 0.000000 0.835504
O O19 0.500000 0.892413 0.000000
#
# Coordination Sequence:
#
# PCOD8082018 Si02
#       8
#     8   8   8   8   8   8   8   8
#     4  11  20  35  64  95 117 154 213 255 303 354
#     4  11  21  38  63  94 124 159 201 257 312 365
#     4  11  25  42  62  90 126 165 203 252 313 374
#     4  10  18  30  56  90 117 149 198 260 303 354
#     4  11  21  41  64  89 118 165 212 255 291 357
#     4  11  20  35  58  84 125 156 204 253 306 354
#     4  11  22  36  56  88 129 163 199 253 317 374
#     4  11  19  37  62  89 122 160 202 256 310 370
#
# _framework density 19.603746999999998
#
# number of rings (size 3 to 8) (size 9 to 14) (size 15 to 20)
#    0.000    1.125    5.000    5.250    0.000    2.250 
#    0.000    1.875    0.000    3.000    0.000    0.000 
#    0.000    0.000    0.000    0.000    0.000    0.000 
#
# Total GULP energy -396616.929201 kJ/mol
# GULP energy per Si atom -12394.279038 kJ/mol
# Density = 1.955913 g / cm^3
# Si number density = 19.603747 Si / 1000 Ang^3
#
#
#
# Elastic Constant Matrix: (Units=GPa)
#
#
# Indices 1 2 3 4 5 6 
#
# 1 115.1059 35.2058 25.3135 -0.0085 -9.9910 0.0064
# 2 35.2058 91.7823 25.1824 0.0143 4.7566 -0.0038
# 3 25.3135 25.1824 97.2019 0.0151 -9.5680 -0.0061
# 4 -0.0085 0.0143 0.0151 15.3823 -0.0057 1.2885
# 5 -9.9910 4.7566 -9.5680 -0.0057 31.9982 0.0023
# 6 0.0064 -0.0038 -0.0061 1.2885 0.0023 23.0439
#
#
#
# Elastic Compliance Matrix: (Units=1/GPa)
#
#
# Indices 1 2 3 4 5 6 
#
# 1 0.010455 -0.003802 -0.001402 0.000012 0.003410 -0.000005
# 2 -0.003802 0.013349 -0.002865 -0.000013 -0.004028 0.000004
# 3 -0.001402 -0.002865 0.011739 -0.000009 0.003498 0.000003
# 4 0.000012 -0.000013 -0.000009 0.065316 0.000015 -0.003652
# 5 0.003410 -0.004028 0.003498 0.000015 0.033961 -0.000005
# 6 -0.000005 0.000004 0.000003 -0.003652 -0.000005 0.043600
#
#
# Mechanical properties :
#
#
# Convention : Reuss Voigt Hill
#
# Bulk Modulus (GPa) = 51.53231 52.83262 52.18247
# Shear Modulus (GPa) = 24.87240 28.64411 26.75825
#
# Velocity S-wave (km/s) = 3.56583 3.82665 3.69854
# Velocity P-wave (km/s) = 6.58009 6.82152 6.70189
#
# Compressibility (1/GPa) = 0.01940530
#
# Stress axis : x y z
#
# Youngs Moduli (GPa) = 95.64830 74.91433 85.18298
#
# Poissons Ratio (x) = 0.28486 0.11942
# Poissons Ratio (y) = 0.36370 0.24401
# Poissons Ratio (z) = 0.13409 0.21459
#
# Static dielectric constant tensor:
#      x y z
#    x 4.263550 0.001850 0.544590 
#    y 0.001850 4.378780 0.002190 
#    z 0.544590 0.002190 4.073930 
# 
# 
# High freq. dielectric constant tensor:
#      x y z
#    x 1.787370 0.000000 -0.001030 
#    y 0.000000 1.725600 0.000000 
#    z -0.001030 0.000000 1.755060 
# 
# From -- ./inp_files/317360.got.cif
#   From: 2010.06.25/outbox.cif.g09.slc.cpg/sg12_159_cif.got.tgz:317360.got - 2010.06.28 00:19:55.
