data_PCOD8082970
_publ_section_title
;
Structure prediction by ZEFSAII (Michael W. Deem and Ramdas Pophale) SiO2 
 PCOD8082970
Probable space group: C 2/M
;
_chemical_formula_sum "Si O2"
_cell_formula_units_Z 64
_cell_length_a 20.588554
_cell_length_b 8.685283
_cell_length_c 21.817469
_cell_angle_alpha 90.000000
_cell_angle_beta 118.705750
_cell_angle_gamma 90.000000
_cell_volume 3421.860426
_symmetry_space_group_name_H-M "C 2/M"
_symmetry_group_IT_number 12
_symmetry_cell_setting 'monoclinic'
loop_
_space_group_symop_operation_xyz
x,y,z
-x,y,-z
-x,-y,-z
x,-y,z
1/2+x,1/2+y,z
1/2-x,1/2+y,-z
1/2-x,1/2-y,-z
1/2+x,1/2-y,z
loop_
_atom_site_type_symbol
_atom_site_label
_atom_site_fract_x
_atom_site_fract_y
_atom_site_fract_z
Si Si1 0.324934 0.683525 0.151737
Si Si2 0.829560 0.681551 0.549858
Si Si3 0.550519 0.324016 0.705599
Si Si4 0.530421 0.316282 0.448246
Si Si5 0.905311 0.317441 0.073827
Si Si6 0.102711 0.823226 0.302015
Si Si7 0.658254 0.817173 0.083131
Si Si8 0.926254 0.317378 0.835847
O O1 0.330004 0.500000 0.152890
O O2 0.377137 0.752184 0.230081
O O3 0.350718 0.743995 0.098046
O O4 0.242241 0.743628 0.126003
O O5 0.827444 0.500000 0.541742
O O6 0.750000 0.750000 0.500000
O O7 0.888416 0.748409 0.527616
O O8 0.850065 0.725410 0.628504
O O9 0.569217 0.500000 0.700882
O O10 0.526822 0.250938 0.629344
O O11 0.484010 0.304929 0.723367
O O12 0.500000 0.261322 0.500000
O O13 0.537249 0.500000 0.446917
O O14 0.898796 0.500000 0.074671
O O15 0.988897 0.262553 0.123661
O O16 0.880257 0.255476 0.995989
O O17 0.116572 0.758483 0.240546
O O18 0.128170 0.000000 0.318008
O O19 0.613076 0.754764 0.120800
O O20 0.657008 0.000000 0.082252
O O21 0.920122 0.500000 0.827250
#
# Coordination Sequence:
#
# PCOD8082970 Si02
#       8
#     8   8   8   8   8   8   8   8
#     4  10  18  32  52  73 100 135 178 220 265 322
#     4  11  22  38  60  86 116 148 186 227 273 325
#     4   8  15  29  51  75 100 135 175 215 257 313
#     4   9  18  35  57  83 115 150 186 224 273 329
#     4  10  19  32  52  74 101 137 179 224 269 320
#     4  10  19  35  57  80 108 140 180 224 270 321
#     4   9  19  33  49  73 105 140 176 221 273 325
#     4  10  19  33  52  76 104 138 181 221 268 325
#
# _framework density 18.703275999999999
#
# number of rings (size 3 to 8) (size 9 to 14) (size 15 to 20)
#    0.000    2.375    1.250    3.000    0.000    1.750 
#    2.250    1.250    0.000    1.500    0.000    0.000 
#    0.000    0.000    0.000    0.000    0.000    0.000 
#
# Total GULP energy -396747.848420 kJ/mol
# GULP energy per Si atom -12398.370263 kJ/mol
# Density = 1.866071 g / cm^3
# Si number density = 18.703276 Si / 1000 Ang^3
#
#
#
# Elastic Constant Matrix: (Units=GPa)
#
#
# Indices 1 2 3 4 5 6 
#
# 1 110.2224 28.4009 67.5946 0.0000 -5.5538 0.0000
# 2 28.4009 42.1591 29.9053 0.0000 0.5287 0.0000
# 3 67.5946 29.9053 138.2089 0.0000 -8.7431 0.0000
# 4 0.0000 0.0000 0.0000 23.8543 0.0000 -3.6170
# 5 -5.5538 0.5287 -8.7431 0.0000 35.7907 0.0000
# 6 0.0000 0.0000 0.0000 -3.6170 0.0000 23.1305
#
#
#
# Elastic Compliance Matrix: (Units=1/GPa)
#
#
# Indices 1 2 3 4 5 6 
#
# 1 0.013946 -0.005442 -0.005587 0.000000 0.000880 0.000000
# 2 -0.005442 0.030276 -0.004033 0.000000 -0.002277 0.000000
# 3 -0.005587 -0.004033 0.010959 0.000000 0.001870 0.000000
# 4 0.000000 0.000000 0.000000 0.042939 0.000000 0.006715
# 5 0.000880 -0.002277 0.001870 0.000000 0.028567 0.000000
# 6 0.000000 0.000000 0.000000 0.006715 0.000000 0.044283
#
#
# Mechanical properties :
#
#
# Convention : Reuss Voigt Hill
#
# Bulk Modulus (GPa) = 39.91313 60.26577 50.08945
# Shear Modulus (GPa) = 23.87243 27.53440 25.70342
#
# Velocity S-wave (km/s) = 3.57652 3.84105 3.71114
# Velocity P-wave (km/s) = 6.20015 7.20857 6.72329
#
# Compressibility (1/GPa) = 0.02505441
#
# Stress axis : x y z
#
# Youngs Moduli (GPa) = 71.70717 33.03000 91.24943
#
# Poissons Ratio (x) = 0.17976 0.50983
# Poissons Ratio (y) = 0.39026 0.36803
# Poissons Ratio (z) = 0.40064 0.13322
#
# Static dielectric constant tensor:
#      x y z
#    x 3.448170 0.000000 0.054720 
#    y 0.000000 3.127350 0.000000 
#    z 0.054720 0.000000 3.741640 
# 
# 
# High freq. dielectric constant tensor:
#      x y z
#    x 1.718650 0.000000 0.000790 
#    y 0.000000 1.696100 0.000000 
#    z 0.000790 0.000000 1.742430 
# 
# From -- ./inp_files/320045.got.cif
#   From: 2010.06.25/outbox.cif.g09.slc.cpg/sg12_161_cif.got.tgz:320045.got - 2010.06.28 00:19:55.
