data_PCOD8082626
_publ_section_title
;
Structure prediction by ZEFSAII (Michael W. Deem and Ramdas Pophale) SiO2 
 PCOD8082626
Probable space group: C 2/M
;
_chemical_formula_sum "Si O2"
_cell_formula_units_Z 56
_cell_length_a 12.223004
_cell_length_b 21.193215
_cell_length_c 12.405769
_cell_angle_alpha 90.000000
_cell_angle_beta 62.124864
_cell_angle_gamma 90.000000
_cell_volume 2840.765146
_symmetry_space_group_name_H-M "C 2/M"
_symmetry_group_IT_number 12
_symmetry_cell_setting 'monoclinic'
loop_
_space_group_symop_operation_xyz
x,y,z
-x,y,-z
-x,-y,-z
x,-y,z
1/2+x,1/2+y,z
1/2-x,1/2+y,-z
1/2-x,1/2-y,-z
1/2+x,1/2-y,z
loop_
_atom_site_type_symbol
_atom_site_label
_atom_site_fract_x
_atom_site_fract_y
_atom_site_fract_z
Si Si1 0.791310 0.150174 0.741459
Si Si2 0.663739 0.569278 0.476838
Si Si3 0.699627 0.225934 0.135313
Si Si4 0.934130 0.696234 0.264309
Si Si5 0.873073 0.373365 0.505024
Si Si6 0.340582 0.329960 0.245744
Si Si7 0.980574 0.070948 0.754745
O O1 0.846642 0.127865 0.600654
O O2 0.835129 0.218778 0.762384
O O3 0.643190 0.154776 0.788519
O O4 0.840864 0.099391 0.806780
O O5 0.663465 0.500000 0.419540
O O6 0.791051 0.571752 0.487665
O O7 0.544467 0.574308 0.608039
O O8 0.577413 0.184696 0.169884
O O9 0.806984 0.182327 0.136372
O O10 0.750000 0.250000 0.000000
O O11 0.907363 0.678095 0.399462
O O12 0.905926 0.770232 0.269417
O O13 0.789023 0.341291 0.634582
O O14 0.000000 0.400209 0.500000
O O15 0.435594 0.388427 0.202463
O O16 0.971776 0.000000 0.803680
#
# Coordination Sequence:
#
# PCOD8082626 Si02
#       7
#     8   8   8   8   8   8   8
#     4  10  20  34  55  81 111 150 188 233 286 336
#     4   9  19  33  53  84 118 153 190 228 277 350
#     4  11  23  39  59  80 111 153 198 245 291 338
#     4  10  20  36  53  85 114 146 186 234 295 347
#     4  10  18  31  53  81 120 146 179 226 293 356
#     4  10  20  35  55  84 116 149 186 232 289 345
#     4  10  19  35  59  88 122 154 189 231 283 349
#
# _framework density 19.712997999999999
#
# number of rings (size 3 to 8) (size 9 to 14) (size 15 to 20)
#    0.000    2.000    2.857    1.286    0.000    4.857 
#    5.143    0.000    0.000    2.571    0.000    9.000 
#    0.000    0.000    0.000    0.000    0.000    0.000 
#
# Total GULP energy -346903.692560 kJ/mol
# GULP energy per Si atom -12389.417591 kJ/mol
# Density = 1.966813 g / cm^3
# Si number density = 19.712998 Si / 1000 Ang^3
#
#
#
# Elastic Constant Matrix: (Units=GPa)
#
#
# Indices 1 2 3 4 5 6 
#
# 1 157.5127 58.6700 31.4657 0.0000 8.3566 0.0000
# 2 58.6700 105.6852 20.5163 0.0000 7.7398 0.0000
# 3 31.4657 20.5163 50.3329 0.0000 18.0226 0.0000
# 4 0.0000 0.0000 0.0000 11.5285 0.0000 2.0090
# 5 8.3566 7.7398 18.0226 0.0000 13.1805 0.0000
# 6 0.0000 0.0000 0.0000 2.0090 0.0000 29.5612
#
#
#
# Elastic Compliance Matrix: (Units=1/GPa)
#
#
# Indices 1 2 3 4 5 6 
#
# 1 0.008709 -0.004119 -0.005201 0.000000 0.004009 0.000000
# 2 -0.004119 0.012225 -0.001514 0.000000 -0.002497 0.000000
# 3 -0.005201 -0.001514 0.043569 0.000000 -0.055388 0.000000
# 4 0.000000 0.000000 0.000000 0.087781 0.000000 -0.005966
# 5 0.004009 -0.002497 -0.055388 0.000000 0.150530 0.000000
# 6 0.000000 0.000000 0.000000 -0.005966 0.000000 0.034234
#
#
# Mechanical properties :
#
#
# Convention : Reuss Voigt Hill
#
# Bulk Modulus (GPa) = 23.34518 59.42611 41.38564
# Shear Modulus (GPa) = 13.40503 24.37931 18.89217
#
# Velocity S-wave (km/s) = 2.61053 3.52051 3.09910
# Velocity P-wave (km/s) = 4.57763 6.83640 5.81769
#
# Compressibility (1/GPa) = 0.04283540
#
# Stress axis : x y z
#
# Youngs Moduli (GPa) = 114.82193 81.79733 22.95207
#
# Poissons Ratio (x) = 0.33690 0.11937
# Poissons Ratio (y) = 0.47292 0.03476
# Poissons Ratio (z) = 0.59719 0.12387
#
# Static dielectric constant tensor:
#      x y z
#    x 4.087050 0.000000 0.064310 
#    y 0.000000 3.531620 0.000000 
#    z 0.064310 0.000000 3.118020 
# 
# 
# High freq. dielectric constant tensor:
#      x y z
#    x 1.802780 0.000000 0.007770 
#    y 0.000000 1.747280 0.000000 
#    z 0.007770 0.000000 1.718520 
# 
# From -- ./inp_files/135257.got.cif
#   From: 2010.06.25/outbox.cif.g09.slc.cpg/sg12_68_cif.got.tgz:135257.got - 2010.06.28 00:19:55.
