data_PCOD8082973
_publ_section_title
;
Structure prediction by ZEFSAII (Michael W. Deem and Ramdas Pophale) SiO2 
 PCOD8082973
Probable space group: C 2/M
;
_chemical_formula_sum "Si O2"
_cell_formula_units_Z 64
_cell_length_a 23.866851
_cell_length_b 9.211881
_cell_length_c 17.459941
_cell_angle_alpha 90.000000
_cell_angle_beta 73.478059
_cell_angle_gamma 90.000000
_cell_volume 3680.220830
_symmetry_space_group_name_H-M "C 2/M"
_symmetry_group_IT_number 12
_symmetry_cell_setting 'monoclinic'
loop_
_space_group_symop_operation_xyz
x,y,z
-x,y,-z
-x,-y,-z
x,-y,z
1/2+x,1/2+y,z
1/2-x,1/2+y,-z
1/2-x,1/2-y,-z
1/2+x,1/2-y,z
loop_
_atom_site_type_symbol
_atom_site_label
_atom_site_fract_x
_atom_site_fract_y
_atom_site_fract_z
Si Si1 0.840359 0.332046 0.778216
Si Si2 0.117269 0.669599 0.961348
Si Si3 0.165051 0.327460 0.672206
Si Si4 0.810428 0.167697 0.479325
Si Si5 0.767224 0.830833 0.069983
Si Si6 0.436144 0.173148 0.858075
Si Si7 0.564623 0.830803 0.822670
Si Si8 0.297439 0.334733 0.653477
O O1 0.850397 0.500000 0.757711
O O2 0.782130 0.303564 0.848385
O O3 0.895614 0.269402 0.804647
O O4 0.835401 0.254681 0.698890
O O5 0.134364 0.500000 0.960216
O O6 0.174297 0.761887 0.918961
O O7 0.072297 0.698689 0.909901
O O8 0.089462 0.727669 0.050887
O O9 0.162666 0.500000 0.660734
O O10 0.148056 0.248417 0.598450
O O11 0.118269 0.267439 0.752141
O O12 0.230109 0.279366 0.673716
O O13 0.750000 0.250000 0.500000
O O14 0.831903 0.179983 0.559013
O O15 0.802502 0.000000 0.458939
O O16 0.775609 0.000000 0.048872
O O17 0.750000 0.750000 0.000000
O O18 0.501874 0.235588 0.822031
O O19 0.436370 0.000000 0.860250
O O20 0.563456 0.000000 0.806236
O O21 0.296138 0.500000 0.682005
#
# Coordination Sequence:
#
# PCOD8082973 Si02
#       8
#     8   8   8   8   8   8   8   8
#     4  10  20  32  47  70  98 126 163 203 239 283
#     4  10  18  32  52  73  96 126 166 207 248 291
#     4   9  17  30  48  75 102 124 157 197 240 290
#     4   9  17  30  49  73 100 128 155 190 238 292
#     4  11  21  33  48  70  98 129 161 199 244 290
#     4   9  17  31  48  70  97 127 168 210 241 280
#     4   9  17  29  51  75  96 127 166 207 245 284
#     4   9  18  31  48  73 101 124 153 191 237 295
#
# _framework density 17.390260999999999
#
# number of rings (size 3 to 8) (size 9 to 14) (size 15 to 20)
#    0.000    2.500    1.250    2.625    0.000    6.000 
#    0.000    0.625    0.000    4.500    0.000    5.250 
#    0.000    0.000    0.000    0.000    0.000    0.000 
#
# Total GULP energy -396655.146895 kJ/mol
# GULP energy per Si atom -12395.473340 kJ/mol
# Density = 1.735068 g / cm^3
# Si number density = 17.390261 Si / 1000 Ang^3
#
#
#
# Elastic Constant Matrix: (Units=GPa)
#
#
# Indices 1 2 3 4 5 6 
#
# 1 107.4886 21.4871 50.9808 0.0000 9.4975 0.0000
# 2 21.4871 44.3166 35.1595 0.0000 8.9267 0.0000
# 3 50.9808 35.1595 117.6365 0.0000 15.0258 0.0000
# 4 0.0000 0.0000 0.0000 28.7458 0.0000 3.9438
# 5 9.4975 8.9267 15.0258 0.0000 19.4491 0.0000
# 6 0.0000 0.0000 0.0000 3.9438 0.0000 18.0061
#
#
#
# Elastic Compliance Matrix: (Units=1/GPa)
#
#
# Indices 1 2 3 4 5 6 
#
# 1 0.011910 -0.002002 -0.004369 0.000000 -0.001522 0.000000
# 2 -0.002002 0.030931 -0.007421 0.000000 -0.007486 0.000000
# 3 -0.004369 -0.007421 0.013208 0.000000 -0.004665 0.000000
# 4 0.000000 0.000000 0.000000 0.035865 0.000000 -0.007855
# 5 -0.001522 -0.007486 -0.004665 0.000000 0.059199 0.000000
# 6 0.000000 0.000000 0.000000 -0.007855 0.000000 0.057257
#
#
# Mechanical properties :
#
#
# Convention : Reuss Voigt Hill
#
# Bulk Modulus (GPa) = 35.13026 53.85515 44.49271
# Shear Modulus (GPa) = 20.37138 24.02785 22.19961
#
# Velocity S-wave (km/s) = 3.42632 3.72113 3.57677
# Velocity P-wave (km/s) = 5.99148 7.03550 6.53438
#
# Compressibility (1/GPa) = 0.02846549
#
# Stress axis : x y z
#
# Youngs Moduli (GPa) = 83.96273 32.32999 75.71246
#
# Poissons Ratio (x) = 0.06473 0.33077
# Poissons Ratio (y) = 0.16810 0.56186
# Poissons Ratio (z) = 0.36681 0.23992
#
# Static dielectric constant tensor:
#      x y z
#    x 3.226010 0.000000 0.056720 
#    y 0.000000 3.163160 0.000000 
#    z 0.056720 0.000000 3.484230 
# 
# 
# High freq. dielectric constant tensor:
#      x y z
#    x 1.651910 0.000000 0.005820 
#    y 0.000000 1.646150 0.000000 
#    z 0.005820 0.000000 1.677330 
# 
# From -- ./inp_files/287528.got.cif
#   From: 2010.06.25/outbox.cif.g09.slc.cpg/sg12_144_cif.got.tgz:287528.got - 2010.06.28 00:19:55.
