data_PCOD8082331
_publ_section_title
;
Structure prediction by ZEFSAII (Michael W. Deem and Ramdas Pophale) SiO2 
 PCOD8082331
Probable space group: C 2/M
;
_chemical_formula_sum "Si O2"
_cell_formula_units_Z 56
_cell_length_a 29.878864
_cell_length_b 9.168165
_cell_length_c 12.578969
_cell_angle_alpha 90.000000
_cell_angle_beta 73.635972
_cell_angle_gamma 90.000000
_cell_volume 3306.225538
_symmetry_space_group_name_H-M "C 2/M"
_symmetry_group_IT_number 12
_symmetry_cell_setting 'monoclinic'
loop_
_space_group_symop_operation_xyz
x,y,z
-x,y,-z
-x,-y,-z
x,-y,z
1/2+x,1/2+y,z
1/2-x,1/2+y,-z
1/2-x,1/2-y,-z
1/2+x,1/2-y,z
loop_
_atom_site_type_symbol
_atom_site_label
_atom_site_fract_x
_atom_site_fract_y
_atom_site_fract_z
Si Si1 0.051113 0.671559 0.008054
Si Si2 0.200934 0.829387 0.409351
Si Si3 0.557574 0.170475 0.640794
Si Si4 0.453946 0.827325 0.748016
Si Si5 0.707466 0.666832 0.648515
Si Si6 0.887531 0.329373 0.609109
Si Si7 0.607848 0.669252 0.797123
O O1 0.059980 0.500000 0.990337
O O2 0.055994 0.726140 0.125811
O O3 0.090249 0.755902 0.916135
O O4 0.000000 0.713220 0.000000
O O5 0.250796 0.767966 0.337601
O O6 0.192923 0.789452 0.538245
O O7 0.160783 0.755688 0.366801
O O8 0.199688 0.000000 0.388438
O O9 0.504478 0.227811 0.675457
O O10 0.579074 0.203960 0.512233
O O11 0.585415 0.258302 0.709793
O O12 0.560247 0.000000 0.668906
O O13 0.413913 0.768717 0.696068
O O14 0.454270 0.000000 0.742918
O O15 0.724758 0.500000 0.638221
O O16 0.663552 0.690995 0.754774
O O17 0.876243 0.500000 0.624944
O O18 0.594290 0.500000 0.806894
#
# Coordination Sequence:
#
# PCOD8082331 Si02
#       7
#     8   8   8   8   8   8   8
#     4  10  19  34  54  74 100 136 177 217 249 289
#     4  10  19  32  51  75 104 132 164 207 255 309
#     4  10  18  31  51  75 103 137 175 206 244 301
#     4   9  18  33  51  74 103 137 177 213 246 291
#     4   9  19  34  50  72 102 134 166 205 255 306
#     4  10  19  31  52  77 104 138 171 207 252 305
#     4  11  21  33  51  76 107 134 165 211 260 302
#
# _framework density 16.937745
#
# number of rings (size 3 to 8) (size 9 to 14) (size 15 to 20)
#    0.000    2.143    2.857    1.286    0.000    3.714 
#    0.000    1.429    0.000    2.571    0.000    0.000 
#    0.000    0.000    0.000    0.000    0.000    0.000 
#
# Total GULP energy -347250.675948 kJ/mol
# GULP energy per Si atom -12401.809855 kJ/mol
# Density = 1.689919 g / cm^3
# Si number density = 16.937745 Si / 1000 Ang^3
#
#
#
# Elastic Constant Matrix: (Units=GPa)
#
#
# Indices 1 2 3 4 5 6 
#
# 1 129.4791 60.1058 70.9857 0.0000 2.3857 0.0000
# 2 60.1058 57.0562 43.4653 0.0000 1.5120 0.0000
# 3 70.9857 43.4653 107.0814 0.0000 4.9458 0.0000
# 4 0.0000 0.0000 0.0000 20.3567 0.0000 -5.0049
# 5 2.3857 1.5120 4.9458 0.0000 25.1311 0.0000
# 6 0.0000 0.0000 0.0000 -5.0049 0.0000 26.0201
#
#
#
# Elastic Compliance Matrix: (Units=1/GPa)
#
#
# Indices 1 2 3 4 5 6 
#
# 1 0.017371 -0.013787 -0.005935 0.000000 0.000349 0.000000
# 2 -0.013787 0.036321 -0.005614 0.000000 0.000228 0.000000
# 3 -0.005935 -0.005614 0.015653 0.000000 -0.002179 0.000000
# 4 0.000000 0.000000 0.000000 0.051562 0.000000 0.009918
# 5 0.000349 0.000228 -0.002179 0.000000 0.040173 0.000000
# 6 0.000000 0.000000 0.000000 0.009918 0.000000 0.040339
#
#
# Mechanical properties :
#
#
# Convention : Reuss Voigt Hill
#
# Bulk Modulus (GPa) = 53.55567 71.41447 62.48507
# Shear Modulus (GPa) = 19.35609 22.23891 20.79750
#
# Velocity S-wave (km/s) = 3.38417 3.62744 3.50791
# Velocity P-wave (km/s) = 6.85258 7.73297 7.30605
#
# Compressibility (1/GPa) = 0.01867216
#
# Stress axis : x y z
#
# Youngs Moduli (GPa) = 57.56751 27.53205 63.88713
#
# Poissons Ratio (x) = 0.37959 0.37918
# Poissons Ratio (y) = 0.79369 0.35866
# Poissons Ratio (z) = 0.34167 0.15456
#
# Static dielectric constant tensor:
#      x y z
#    x 3.236530 0.000000 -0.010460 
#    y 0.000000 3.042240 0.000000 
#    z -0.010460 0.000000 3.308010 
# 
# 
# High freq. dielectric constant tensor:
#      x y z
#    x 1.653540 0.000000 -0.007760 
#    y 0.000000 1.640990 0.000000 
#    z -0.007760 0.000000 1.639850 
# 
# From -- ./inp_files/186471.got.cif
#   From: 2010.06.25/outbox.cif.g09.slc.cpg/sg12_94_cif.got.tgz:186471.got - 2010.06.28 00:19:55.
