data_PCOD8082755
_publ_section_title
;
Structure prediction by ZEFSAII (Michael W. Deem and Ramdas Pophale) SiO2 
 PCOD8082755
Probable space group: C 2/M
;
_chemical_formula_sum "Si O2"
_cell_formula_units_Z 56
_cell_length_a 15.415508
_cell_length_b 8.881881
_cell_length_c 21.917897
_cell_angle_alpha 90.000000
_cell_angle_beta 108.054164
_cell_angle_gamma 90.000000
_cell_volume 2853.214261
_symmetry_space_group_name_H-M "C 2/M"
_symmetry_group_IT_number 12
_symmetry_cell_setting 'monoclinic'
loop_
_space_group_symop_operation_xyz
x,y,z
-x,y,-z
-x,-y,-z
x,-y,z
1/2+x,1/2+y,z
1/2-x,1/2+y,-z
1/2-x,1/2-y,-z
1/2+x,1/2-y,z
loop_
_atom_site_type_symbol
_atom_site_label
_atom_site_fract_x
_atom_site_fract_y
_atom_site_fract_z
Si Si1 0.179858 0.325239 0.566918
Si Si2 0.460812 0.321694 0.130217
Si Si3 0.840011 0.822293 0.994343
Si Si4 0.843142 0.177998 0.856826
Si Si5 0.157761 0.822771 0.784320
Si Si6 0.445642 0.322449 0.361132
Si Si7 0.136113 0.325320 0.417107
O O1 0.193977 0.500000 0.585128
O O2 0.101788 0.257524 0.592333
O O3 0.145440 0.300013 0.491064
O O4 0.275602 0.240392 0.598489
O O5 0.456659 0.500000 0.133745
O O6 0.565793 0.269326 0.159123
O O7 0.400734 0.253170 0.172263
O O8 0.422761 0.269450 0.056028
O O9 0.855459 0.765778 0.929024
O O10 0.829272 0.000000 0.993926
O O11 0.750000 0.750000 0.000000
O O12 0.758097 0.253425 0.805217
O O13 0.829917 0.000000 0.851601
O O14 0.109083 0.778058 0.711254
O O15 0.167365 0.000000 0.793714
O O16 0.447450 0.500000 0.373064
O O17 0.548042 0.263620 0.374723
O O18 0.126631 0.500000 0.398173
#
# Coordination Sequence:
#
# PCOD8082755 Si02
#       7
#     8   8   8   8   8   8   8
#     4  10  21  38  61  88 117 150 188 233 287 341
#     4   9  18  35  56  76 106 144 178 221 276 332
#     4  10  18  31  55  81 107 138 176 225 280 333
#     4  10  20  34  56  83 105 137 187 231 274 332
#     4  10  22  39  55  76 109 149 185 224 277 328
#     4  11  23  37  56  83 116 155 198 236 280 339
#     4  10  21  38  61  89 118 148 186 234 288 342
#
# _framework density 19.626987
#
# number of rings (size 3 to 8) (size 9 to 14) (size 15 to 20)
#    0.000    2.000    1.429    2.143    0.000    7.429 
#    0.000    2.857    0.000    1.714    0.000    0.000 
#    0.000    0.000    0.000    0.000    0.000    0.000 
#
# Total GULP energy -347240.660625 kJ/mol
# GULP energy per Si atom -12401.452165 kJ/mol
# Density = 1.958232 g / cm^3
# Si number density = 19.626987 Si / 1000 Ang^3
#
#
#
# Elastic Constant Matrix: (Units=GPa)
#
#
# Indices 1 2 3 4 5 6 
#
# 1 104.6195 16.2478 29.4193 0.0000 30.6235 0.0000
# 2 16.2478 43.5171 35.0108 0.0000 6.5145 0.0000
# 3 29.4193 35.0108 70.2551 0.0000 25.8678 0.0000
# 4 0.0000 0.0000 0.0000 21.9992 0.0000 4.8583
# 5 30.6235 6.5145 25.8678 0.0000 29.7894 0.0000
# 6 0.0000 0.0000 0.0000 4.8583 0.0000 35.5329
#
#
#
# Elastic Compliance Matrix: (Units=1/GPa)
#
#
# Indices 1 2 3 4 5 6 
#
# 1 0.014198 -0.004611 0.001992 0.000000 -0.015317 0.000000
# 2 -0.004611 0.043054 -0.026171 0.000000 0.018050 0.000000
# 3 0.001992 -0.026171 0.036880 0.000000 -0.028349 0.000000
# 4 0.000000 0.000000 0.000000 0.046871 0.000000 -0.006409
# 5 -0.015317 0.018050 -0.028349 0.000000 0.069985 0.000000
# 6 0.000000 0.000000 0.000000 -0.006409 0.000000 0.029019
#
#
# Mechanical properties :
#
#
# Convention : Reuss Voigt Hill
#
# Bulk Modulus (GPa) = 27.35772 42.19416 34.77594
# Shear Modulus (GPa) = 16.14103 26.64523 21.39313
#
# Velocity S-wave (km/s) = 2.87084 3.68853 3.30507
# Velocity P-wave (km/s) = 4.99581 6.29961 5.68521
#
# Compressibility (1/GPa) = 0.03655275
#
# Stress axis : x y z
#
# Youngs Moduli (GPa) = 70.43355 23.22668 27.11520
#
# Poissons Ratio (x) = 0.10709 -0.05401
# Poissons Ratio (y) = 0.32474 0.70962
# Poissons Ratio (z) = -0.14030 0.60786
#
# Static dielectric constant tensor:
#      x y z
#    x 3.758140 0.000000 -0.047100 
#    y 0.000000 3.410140 0.000000 
#    z -0.047100 0.000000 3.745370 
# 
# 
# High freq. dielectric constant tensor:
#      x y z
#    x 1.779840 0.000000 0.006660 
#    y 0.000000 1.747630 0.000000 
#    z 0.006660 0.000000 1.762880 
# 
# From -- ./inp_files/337900.got.cif
#   From: 2010.06.25/outbox.cif.g09.slc.cpg/sg12_169_cif.got.tgz:337900.got - 2010.06.28 00:19:55.
