data_PCOD8082114
_publ_section_title
;
Structure prediction by ZEFSAII (Michael W. Deem and Ramdas Pophale) SiO2 
 PCOD8082114
Probable space group: C 2/M
;
_chemical_formula_sum "Si O2"
_cell_formula_units_Z 64
_cell_length_a 27.957918
_cell_length_b 13.636659
_cell_length_c 9.904740
_cell_angle_alpha 90.000000
_cell_angle_beta 97.317837
_cell_angle_gamma 90.000000
_cell_volume 3745.449993
_symmetry_space_group_name_H-M "C 2/M"
_symmetry_group_IT_number 12
_symmetry_cell_setting 'monoclinic'
loop_
_space_group_symop_operation_xyz
x,y,z
-x,y,-z
-x,-y,-z
x,-y,z
1/2+x,1/2+y,z
1/2-x,1/2+y,-z
1/2-x,1/2-y,-z
1/2+x,1/2-y,z
loop_
_atom_site_type_symbol
_atom_site_label
_atom_site_fract_x
_atom_site_fract_y
_atom_site_fract_z
Si Si1 0.938619 0.612109 0.596538
Si Si2 0.915447 0.705416 0.315855
Si Si3 0.635306 0.390548 0.696201
Si Si4 0.795964 0.109552 0.029512
Si Si5 0.671520 0.887550 0.370510
Si Si6 0.222707 0.728888 0.165933
Si Si7 0.487541 0.116328 0.147775
Si Si8 0.812316 0.717718 0.363163
O O1 0.950982 0.500000 0.566718
O O2 0.946051 0.671055 0.458788
O O3 0.884961 0.624575 0.630820
O O4 0.971797 0.650898 0.730805
O O5 0.913850 0.825362 0.311580
O O6 0.859464 0.667233 0.307431
O O7 0.937949 0.664116 0.185053
O O8 0.624129 0.500000 0.638431
O O9 0.672745 0.333340 0.609037
O O10 0.659868 0.393322 0.851229
O O11 0.809319 0.187374 0.917929
O O12 0.787126 0.000000 0.969208
O O13 0.746029 0.148710 0.075212
O O14 0.685671 0.830788 0.242267
O O15 0.700124 0.836646 0.503070
O O16 0.687768 0.000000 0.366399
O O17 0.264771 0.788822 0.256961
O O18 0.481503 0.000000 0.143400
O O19 0.500000 0.153545 0.000000
#
# Coordination Sequence:
#
# PCOD8082114 Si02
#       8
#     8   8   8   8   8   8   8   8
#     4   9  18  33  51  74 105 136 167 200 249 316
#     4   9  17  31  54  74  94 134 171 207 251 300
#     4   8  16  32  52  71  93 126 171 212 249 291
#     4   9  18  32  47  66  95 134 171 206 250 303
#     4  10  19  31  49  74 104 133 165 209 254 296
#     4  10  18  31  49  69 102 130 173 211 250 298
#     4  10  20  33  51  79 108 133 163 200 254 318
#     4   8  18  32  48  74  96 133 171 209 250 301
#
# _framework density 17.087399999999999
#
# number of rings (size 3 to 8) (size 9 to 14) (size 15 to 20)
#    0.750    2.125    0.000    1.500    0.000    3.500 
#    0.000    0.625    0.000    1.875    0.000    0.000 
#    0.000    0.000    0.000    0.000    0.000    0.000 
#
# Total GULP energy -396440.687866 kJ/mol
# GULP energy per Si atom -12388.771496 kJ/mol
# Density = 1.704851 g / cm^3
# Si number density = 17.087400 Si / 1000 Ang^3
#
#
#
# Elastic Constant Matrix: (Units=GPa)
#
#
# Indices 1 2 3 4 5 6 
#
# 1 29.8470 26.2219 23.0674 0.0000 -2.7198 0.0000
# 2 26.2219 108.5886 62.0928 0.0000 -5.6414 0.0000
# 3 23.0674 62.0928 90.3251 0.0000 -15.3749 0.0000
# 4 0.0000 0.0000 0.0000 30.9155 0.0000 -2.9814
# 5 -2.7198 -5.6414 -15.3749 0.0000 25.1096 0.0000
# 6 0.0000 0.0000 0.0000 -2.9814 0.0000 19.5219
#
#
#
# Elastic Compliance Matrix: (Units=1/GPa)
#
#
# Indices 1 2 3 4 5 6 
#
# 1 0.044808 -0.006981 -0.006793 0.000000 -0.000874 0.000000
# 2 -0.006981 0.016514 -0.010122 0.000000 -0.003244 0.000000
# 3 -0.006793 -0.010122 0.021491 0.000000 0.010150 0.000000
# 4 0.000000 0.000000 0.000000 0.032830 0.000000 0.005014
# 5 -0.000874 -0.003244 0.010150 0.000000 0.045217 0.000000
# 6 0.000000 0.000000 0.000000 0.005014 0.000000 0.051990
#
#
# Mechanical properties :
#
#
# Convention : Reuss Voigt Hill
#
# Bulk Modulus (GPa) = 28.55349 50.16946 39.36147
# Shear Modulus (GPa) = 18.36109 22.93466 20.64787
#
# Velocity S-wave (km/s) = 3.28157 3.66758 3.47993
# Velocity P-wave (km/s) = 5.57717 6.88179 6.26354
#
# Compressibility (1/GPa) = 0.03502199
#
# Stress axis : x y z
#
# Youngs Moduli (GPa) = 22.31760 60.55421 46.53017
#
# Poissons Ratio (x) = 0.42275 0.31606
# Poissons Ratio (y) = 0.15581 0.47096
# Poissons Ratio (z) = 0.15159 0.61291
#
# Static dielectric constant tensor:
#      x y z
#    x 3.000470 0.000000 0.019780 
#    y 0.000000 3.262800 0.000000 
#    z 0.019780 0.000000 3.211770 
# 
# 
# High freq. dielectric constant tensor:
#      x y z
#    x 1.641990 0.000000 0.001240 
#    y 0.000000 1.646720 0.000000 
#    z 0.001240 0.000000 1.650790 
# 
# From -- ./inp_files/111235.got.cif
#   From: 2010.06.25/outbox.cif.g09.slc.cpg/sg12_56_cif.got.tgz:111235.got - 2010.06.28 00:19:55.
