data_PCOD8082135
_publ_section_title
;
Structure prediction by ZEFSAII (Michael W. Deem and Ramdas Pophale) SiO2 
 PCOD8082135
Probable space group: C 2/M
;
_chemical_formula_sum "Si O2"
_cell_formula_units_Z 64
_cell_length_a 24.644096
_cell_length_b 8.671590
_cell_length_c 23.837708
_cell_angle_alpha 90.000000
_cell_angle_beta 46.234982
_cell_angle_gamma 90.000000
_cell_volume 3678.944137
_symmetry_space_group_name_H-M "C 2/M"
_symmetry_group_IT_number 12
_symmetry_cell_setting 'monoclinic'
loop_
_space_group_symop_operation_xyz
x,y,z
-x,y,-z
-x,-y,-z
x,-y,z
1/2+x,1/2+y,z
1/2-x,1/2+y,-z
1/2-x,1/2-y,-z
1/2+x,1/2-y,z
loop_
_atom_site_type_symbol
_atom_site_label
_atom_site_fract_x
_atom_site_fract_y
_atom_site_fract_z
Si Si1 0.142256 0.319261 0.314721
Si Si2 0.693668 0.318605 0.995381
Si Si3 0.210918 0.817559 0.159909
Si Si4 0.584767 0.319194 0.164075
Si Si5 0.569475 0.681954 0.678970
Si Si6 0.472805 0.819884 0.407003
Si Si7 0.645181 0.680766 0.431810
Si Si8 0.775088 0.680822 0.423459
O O1 0.149444 0.500000 0.321110
O O2 0.202409 0.265651 0.225500
O O3 0.162426 0.226968 0.356095
O O4 0.059249 0.273833 0.353276
O O5 0.706737 0.500000 0.979183
O O6 0.709102 0.234615 0.924883
O O7 0.750000 0.250000 0.000000
O O8 0.610800 0.283488 0.081155
O O9 0.144481 0.754692 0.166775
O O10 0.209999 0.000000 0.168744
O O11 0.581896 0.500000 0.176490
O O12 0.502221 0.250464 0.235337
O O13 0.576648 0.500000 0.679534
O O14 0.562087 0.723698 0.618984
O O15 0.643319 0.757196 0.652821
O O16 0.427973 0.773636 0.495062
O O17 0.463275 0.000000 0.401413
O O18 0.628690 0.500000 0.448209
O O19 0.716998 0.730353 0.417032
O O20 0.779041 0.500000 0.427997
O O21 0.750000 0.750000 0.500000
#
# Coordination Sequence:
#
# PCOD8082135 Si02
#       8
#     8   8   8   8   8   8   8   8
#     4  11  23  36  52  77 106 137 173 216 259 306
#     4   9  16  28  45  70 102 137 172 208 249 303
#     4  10  18  31  49  72 104 140 172 207 251 308
#     4   8  16  29  47  72 103 135 169 207 249 302
#     4  11  20  33  54  78 103 138 175 211 258 308
#     4  11  22  35  52  76 105 135 171 215 259 305
#     4  11  24  39  55  73  98 137 178 216 260 311
#     4  11  23  38  55  76 100 132 174 220 265 307
#
# _framework density 17.396296
#
# number of rings (size 3 to 8) (size 9 to 14) (size 15 to 20)
#    0.000    1.750    2.500    3.750    0.000    4.500 
#    0.000    1.875    0.000    0.000    0.000    0.875 
#    0.000    7.000    0.000    0.000    0.000    0.000 
#
# Total GULP energy -396782.292309 kJ/mol
# GULP energy per Si atom -12399.446635 kJ/mol
# Density = 1.735670 g / cm^3
# Si number density = 17.396296 Si / 1000 Ang^3
#
#
#
# Elastic Constant Matrix: (Units=GPa)
#
#
# Indices 1 2 3 4 5 6 
#
# 1 54.8496 26.8561 31.7650 0.0004 3.6460 -0.0002
# 2 26.8561 53.9827 19.8774 -0.0035 -0.8192 0.0003
# 3 31.7650 19.8774 133.6136 0.0004 -0.1946 -0.0002
# 4 0.0004 -0.0035 0.0004 30.1089 0.0000 1.3511
# 5 3.6460 -0.8192 -0.1946 0.0000 19.4033 -0.0001
# 6 -0.0002 0.0003 -0.0002 1.3511 -0.0001 22.8150
#
#
#
# Elastic Compliance Matrix: (Units=1/GPa)
#
#
# Indices 1 2 3 4 5 6 
#
# 1 0.027130 -0.011854 -0.004694 -0.000002 -0.005645 0.000000
# 2 -0.011854 0.024790 -0.000865 0.000003 0.003265 -0.000001
# 3 -0.004694 -0.000865 0.008730 0.000000 0.000933 0.000000
# 4 -0.000002 0.000003 0.000000 0.033301 0.000000 -0.001972
# 5 -0.005645 0.003265 0.000933 0.000000 0.052746 0.000000
# 6 0.000000 -0.000001 0.000000 -0.001972 0.000000 0.043948
#
#
# Mechanical properties :
#
#
# Convention : Reuss Voigt Hill
#
# Bulk Modulus (GPa) = 38.72528 44.38255 41.55391
# Shear Modulus (GPa) = 21.36029 25.39526 23.37777
#
# Velocity S-wave (km/s) = 3.50789 3.82489 3.66981
# Velocity P-wave (km/s) = 6.22222 6.71375 6.47265
#
# Compressibility (1/GPa) = 0.02582293
#
# Stress axis : x y z
#
# Youngs Moduli (GPa) = 36.85987 40.33911 114.54264
#
# Poissons Ratio (x) = 0.47818 0.53772
# Poissons Ratio (y) = 0.43694 0.09908
# Poissons Ratio (z) = 0.17304 0.03489
#
# Static dielectric constant tensor:
#      x y z
#    x 3.070910 0.000000 -0.181240 
#    y 0.000000 3.248970 0.000000 
#    z -0.181240 0.000000 3.696190 
# 
# 
# High freq. dielectric constant tensor:
#      x y z
#    x 1.627900 0.000000 -0.005330 
#    y 0.000000 1.678780 0.000000 
#    z -0.005330 0.000000 1.685090 
# 
# From -- ./inp_files/320128.got.cif
#   From: 2010.06.25/outbox.cif.g09.slc.cpg/sg12_161_cif.got.tgz:320128.got - 2010.06.28 00:19:55.
