data_PCOD8082746
_publ_section_title
;
Structure prediction by ZEFSAII (Michael W. Deem and Ramdas Pophale) SiO2 
 PCOD8082746
Probable space group: C 2/M
;
_chemical_formula_sum "Si O2"
_cell_formula_units_Z 64
_cell_length_a 20.383074
_cell_length_b 8.814206
_cell_length_c 25.152479
_cell_angle_alpha 90.000000
_cell_angle_beta 50.783414
_cell_angle_gamma 90.000000
_cell_volume 3501.077317
_symmetry_space_group_name_H-M "C 2/M"
_symmetry_group_IT_number 12
_symmetry_cell_setting 'monoclinic'
loop_
_space_group_symop_operation_xyz
x,y,z
-x,y,-z
-x,-y,-z
x,-y,z
1/2+x,1/2+y,z
1/2-x,1/2+y,-z
1/2-x,1/2-y,-z
1/2+x,1/2-y,z
loop_
_atom_site_type_symbol
_atom_site_label
_atom_site_fract_x
_atom_site_fract_y
_atom_site_fract_z
Si Si1 0.030524 0.679916 0.859100
Si Si2 0.417401 0.175093 0.280735
Si Si3 0.418193 0.166783 0.004909
Si Si4 0.313493 0.819081 0.152194
Si Si5 0.324105 0.321394 0.496896
Si Si6 0.762107 0.678843 0.632012
Si Si7 0.329099 0.821605 0.711581
Si Si8 0.518670 0.175104 0.637409
O O1 0.025674 0.500000 0.869326
O O2 0.027297 0.726661 0.798844
O O3 0.119646 0.737985 0.837489
O O4 0.949939 0.749916 0.933826
O O5 0.334877 0.277957 0.328122
O O6 0.475477 0.199200 0.302278
O O7 0.388440 0.000000 0.289498
O O8 0.343827 0.245645 0.078353
O O9 0.384469 0.000000 0.007124
O O10 0.500000 0.152556 0.000000
O O11 0.222110 0.753961 0.213807
O O12 0.309725 0.000000 0.152469
O O13 0.310978 0.500000 0.503418
O O14 0.250000 0.250000 0.500000
O O15 0.320687 0.260076 0.558561
O O16 0.414819 0.280152 0.426643
O O17 0.773153 0.500000 0.620047
O O18 0.793158 0.735785 0.673628
O O19 0.426358 0.771469 0.666268
O O20 0.319498 0.000000 0.722639
O O21 0.536188 0.000000 0.613458
#
# Coordination Sequence:
#
# PCOD8082746 Si02
#       8
#     8   8   8   8   8   8   8   8
#     4   8  13  23  44  76 104 127 168 225 271 306
#     4  10  18  31  55  80 101 132 178 226 264 307
#     4   7  11  20  38  69 104 131 162 215 272 310
#     4   9  15  26  48  74 101 135 175 220 265 312
#     4  12  24  39  60  84 108 135 170 214 264 313
#     4  11  22  36  56  79 106 140 176 214 262 313
#     4  10  22  37  52  75 110 147 176 212 264 319
#     4  10  22  39  56  77 107 142 178 213 261 317
#
# _framework density 18.280087000000002
#
# number of rings (size 3 to 8) (size 9 to 14) (size 15 to 20)
#    0.000    2.375    2.500    3.000    0.000    1.500 
#    0.000    2.500    0.000    4.875    0.000    0.000 
#    0.000    0.000    0.000    0.000    0.000    0.000 
#
# Total GULP energy -396591.907227 kJ/mol
# GULP energy per Si atom -12393.497101 kJ/mol
# Density = 1.823848 g / cm^3
# Si number density = 18.280087 Si / 1000 Ang^3
#
#
#
# Elastic Constant Matrix: (Units=GPa)
#
#
# Indices 1 2 3 4 5 6 
#
# 1 66.2698 20.3395 36.4473 0.0000 -5.3098 0.0001
# 2 20.3395 51.3184 38.1283 -0.0006 -1.4590 0.0018
# 3 36.4473 38.1283 161.1345 0.0001 6.1431 -0.0001
# 4 0.0000 -0.0006 0.0001 20.8862 0.0002 -2.2759
# 5 -5.3098 -1.4590 6.1431 0.0002 23.9809 -0.0004
# 6 0.0001 0.0018 -0.0001 -2.2759 -0.0004 16.2897
#
#
#
# Elastic Compliance Matrix: (Units=1/GPa)
#
#
# Indices 1 2 3 4 5 6 
#
# 1 0.018760 -0.004873 -0.003269 0.000000 0.004695 0.000000
# 2 -0.004873 0.025110 -0.004904 0.000000 0.001705 -0.000003
# 3 -0.003269 -0.004904 0.008225 0.000000 -0.003129 0.000001
# 4 0.000000 0.000000 0.000000 0.048619 0.000000 0.006793
# 5 0.004695 0.001705 -0.003129 0.000000 0.043645 0.000001
# 6 0.000000 -0.000003 0.000001 0.006793 0.000001 0.062337
#
#
# Mechanical properties :
#
#
# Convention : Reuss Voigt Hill
#
# Bulk Modulus (GPa) = 38.45875 52.06144 45.26009
# Shear Modulus (GPa) = 20.70774 24.48519 22.59647
#
# Velocity S-wave (km/s) = 3.36937 3.66381 3.51967
# Velocity P-wave (km/s) = 6.01840 6.81467 6.42887
#
# Compressibility (1/GPa) = 0.02600189
#
# Stress axis : x y z
#
# Youngs Moduli (GPa) = 53.30617 39.82511 121.57639
#
# Poissons Ratio (x) = 0.19406 0.39746
# Poissons Ratio (y) = 0.25974 0.59626
# Poissons Ratio (z) = 0.17427 0.19532
#
# Static dielectric constant tensor:
#      x y z
#    x 3.168400 0.000000 0.178580 
#    y 0.000000 3.053140 0.000000 
#    z 0.178580 0.000000 3.910500 
# 
# 
# High freq. dielectric constant tensor:
#      x y z
#    x 1.672300 0.000000 0.011150 
#    y 0.000000 1.676480 0.000000 
#    z 0.011150 0.000000 1.734620 
# 
# From -- ./inp_files/365167.got.cif
#   From: 2010.06.25/outbox.cif.g09.slc.cpg/sg12_183_cif.got.tgz:365167.got - 2010.06.28 00:19:55.
