data_PCOD8082012
_publ_section_title
;
Structure prediction by ZEFSAII (Michael W. Deem and Ramdas Pophale) SiO2 
 PCOD8082012
Probable space group: C 2/M
;
_chemical_formula_sum "Si O2"
_cell_formula_units_Z 56
_cell_length_a 12.280483
_cell_length_b 13.420821
_cell_length_c 27.878520
_cell_angle_alpha 90.000000
_cell_angle_beta 140.793937
_cell_angle_gamma 90.000000
_cell_volume 2904.409195
_symmetry_space_group_name_H-M "C 2/M"
_symmetry_group_IT_number 12
_symmetry_cell_setting 'monoclinic'
loop_
_space_group_symop_operation_xyz
x,y,z
-x,y,-z
-x,-y,-z
x,-y,z
1/2+x,1/2+y,z
1/2-x,1/2+y,-z
1/2-x,1/2-y,-z
1/2+x,1/2-y,z
loop_
_atom_site_type_symbol
_atom_site_label
_atom_site_fract_x
_atom_site_fract_y
_atom_site_fract_z
Si Si1 0.093214 0.110840 0.078956
Si Si2 0.490365 0.110987 0.192258
Si Si3 0.536063 0.753419 0.292679
Si Si4 0.092370 0.235176 0.910864
Si Si5 0.346425 0.889162 0.304009
Si Si6 0.942196 0.112114 0.186004
Si Si7 0.347806 0.885847 0.411746
O O1 0.295338 0.105647 0.143068
O O2 0.059475 0.179802 0.112949
O O3 0.017451 0.000000 0.062827
O O4 0.000000 0.155431 0.000000
O O5 0.594112 0.170876 0.269259
O O6 0.490169 0.164609 0.140104
O O7 0.568418 0.000000 0.213092
O O8 0.432307 0.808008 0.299047
O O9 0.413581 0.669310 0.226486
O O10 0.699984 0.696263 0.371081
O O11 0.165861 0.166457 0.892585
O O12 0.250000 0.250000 0.000000
O O13 0.141419 0.877267 0.238203
O O14 0.422671 0.875084 0.383463
O O15 0.390328 0.000000 0.299135
O O16 0.878610 0.000000 0.170430
O O17 0.500000 0.861603 0.500000
O O18 0.277518 0.000000 0.394620
#
# Coordination Sequence:
#
# PCOD8082012 Si02
#       7
#     8   8   8   8   8   8   8
#     4  10  19  33  53  75  97 126 172 223 261 304
#     4  10  21  35  52  75 102 135 176 220 261 306
#     4  10  18  30  55  81 102 132 174 213 252 300
#     4  11  20  30  50  76  99 130 173 223 270 312
#     4   9  17  32  55  79 103 134 171 207 246 297
#     4   9  19  34  51  74 101 132 173 219 259 304
#     4   9  19  36  57  83 111 135 166 209 253 302
#
# _framework density 19.281030000000001
#
# number of rings (size 3 to 8) (size 9 to 14) (size 15 to 20)
#    0.000    2.286    1.429    3.000    0.000    3.429 
#    0.000    0.000    0.000   45.000    0.000    0.000 
#    0.000    0.000    0.000    0.000    0.000    0.000 
#
# Total GULP energy -347029.294509 kJ/mol
# GULP energy per Si atom -12393.903375 kJ/mol
# Density = 1.923715 g / cm^3
# Si number density = 19.281030 Si / 1000 Ang^3
#
#
#
# Elastic Constant Matrix: (Units=GPa)
#
#
# Indices 1 2 3 4 5 6 
#
# 1 59.7131 34.7344 16.6394 0.0000 -11.9714 0.0000
# 2 34.7344 139.8416 34.7036 0.0000 -10.4342 0.0000
# 3 16.6394 34.7036 105.1963 0.0000 -17.0773 0.0000
# 4 0.0000 0.0000 0.0000 28.0011 0.0000 -0.9123
# 5 -11.9714 -10.4342 -17.0773 0.0000 21.3674 0.0000
# 6 0.0000 0.0000 0.0000 -0.9123 0.0000 30.5287
#
#
#
# Elastic Compliance Matrix: (Units=1/GPa)
#
#
# Indices 1 2 3 4 5 6 
#
# 1 0.021372 -0.004513 -0.000351 0.000000 0.009490 0.000000
# 2 -0.004513 0.008818 -0.002191 0.000000 0.000026 0.000000
# 3 -0.000351 -0.002191 0.011581 0.000000 0.007990 0.000000
# 4 0.000000 0.000000 0.000000 0.035748 0.000000 0.001068
# 5 0.009490 0.000026 0.007990 0.000000 0.058515 0.000000
# 6 0.000000 0.000000 0.000000 0.001068 0.000000 0.032788
#
#
# Mechanical properties :
#
#
# Convention : Reuss Voigt Hill
#
# Bulk Modulus (GPa) = 36.15205 52.98953 44.57079
# Shear Modulus (GPa) = 26.02094 30.55768 28.28931
#
# Velocity S-wave (km/s) = 3.67762 3.98535 3.83457
# Velocity P-wave (km/s) = 6.06828 6.97995 6.54002
#
# Compressibility (1/GPa) = 0.02766095
#
# Stress axis : x y z
#
# Youngs Moduli (GPa) = 46.78918 113.40942 86.34631
#
# Poissons Ratio (x) = 0.51186 0.03032
# Poissons Ratio (y) = 0.21118 0.18916
# Poissons Ratio (z) = 0.01643 0.24845
#
# Static dielectric constant tensor:
#      x y z
#    x 3.245120 0.000000 -0.360890 
#    y 0.000000 4.000180 0.000000 
#    z -0.360890 0.000000 3.606350 
# 
# 
# High freq. dielectric constant tensor:
#      x y z
#    x 1.715200 0.000000 -0.031270 
#    y 0.000000 1.764800 0.000000 
#    z -0.031270 0.000000 1.742980 
# 
# From -- ./inp_files/375907.got.cif
#   From: 2010.06.25/outbox.cif.g09.slc.cpg/sg12_188_cif.got.tgz:375907.got - 2010.06.28 00:19:55.
