data_PCOD8082542
_publ_section_title
;
Structure prediction by ZEFSAII (Michael W. Deem and Ramdas Pophale) SiO2 
 PCOD8082542
Probable space group: C 2/M
;
_chemical_formula_sum "Si O2"
_cell_formula_units_Z 64
_cell_length_a 24.425193
_cell_length_b 17.965495
_cell_length_c 11.799438
_cell_angle_alpha 90.000000
_cell_angle_beta 44.797852
_cell_angle_gamma 90.000000
_cell_volume 3648.260512
_symmetry_space_group_name_H-M "C 2/M"
_symmetry_group_IT_number 12
_symmetry_cell_setting 'monoclinic'
loop_
_space_group_symop_operation_xyz
x,y,z
-x,y,-z
-x,-y,-z
x,-y,z
1/2+x,1/2+y,z
1/2-x,1/2+y,-z
1/2-x,1/2-y,-z
1/2+x,1/2-y,z
loop_
_atom_site_type_symbol
_atom_site_label
_atom_site_fract_x
_atom_site_fract_y
_atom_site_fract_z
Si Si1 0.584800 0.784451 0.872699
Si Si2 0.079174 0.916594 0.174606
Si Si3 0.157876 0.721025 0.521679
Si Si4 0.233701 0.354067 0.701399
Si Si5 0.161892 0.085259 0.273610
Si Si6 0.959980 0.807041 0.447629
Si Si7 0.257598 0.583246 0.430355
Si Si8 0.584401 0.380717 0.918633
O O1 0.617234 0.767318 0.700932
O O2 0.642096 0.840777 0.852716
O O3 0.578820 0.707164 0.948315
O O4 0.500000 0.822795 0.000000
O O5 0.152646 0.902241 0.151667
O O6 0.019337 0.847536 0.274364
O O7 0.045567 0.000000 0.252667
O O8 0.107983 0.917724 0.003287
O O9 0.228152 0.777752 0.399636
O O10 0.089433 0.738880 0.532174
O O11 0.196615 0.638901 0.456913
O O12 0.260600 0.378722 0.786975
O O13 0.250259 0.413394 0.577809
O O14 0.090744 0.122855 0.441598
O O15 0.161722 0.000000 0.307655
O O16 0.000000 0.771866 0.500000
O O17 0.235270 0.500000 0.424463
O O18 0.347729 0.599360 0.269299
O O19 0.500000 0.410929 0.000000
#
# Coordination Sequence:
#
# PCOD8082542 Si02
#       8
#     8   8   8   8   8   8   8   8
#     4  10  18  31  53  74 102 134 162 207 260 290
#     4  10  20  32  46  75 112 137 159 196 251 307
#     4  10  18  35  52  73 103 132 168 213 246 296
#     4  10  18  34  53  76 100 131 176 211 238 302
#     4   9  18  31  50  72 101 136 168 207 249 293
#     4   9  17  30  52  73  98 132 173 206 244 294
#     4  11  21  33  52  76 101 133 167 206 255 300
#     4  11  21  33  48  74 109 136 163 196 247 313
#
# _framework density 17.542607
#
# number of rings (size 3 to 8) (size 9 to 14) (size 15 to 20)
#    0.000    2.000    2.500    3.375    1.750    2.500 
#    0.000    0.625    2.750    9.750    0.000    0.000 
#    0.000    0.000    0.000    0.000    0.000    0.000 
#
# Total GULP energy -396529.379860 kJ/mol
# GULP energy per Si atom -12391.543121 kJ/mol
# Density = 1.750268 g / cm^3
# Si number density = 17.542607 Si / 1000 Ang^3
#
#
#
# Elastic Constant Matrix: (Units=GPa)
#
#
# Indices 1 2 3 4 5 6 
#
# 1 143.2929 53.5607 58.1524 0.0000 -8.1123 0.0000
# 2 53.5607 86.4541 32.0255 0.0000 -9.6622 0.0000
# 3 58.1524 32.0255 44.6599 0.0000 -4.3295 0.0000
# 4 0.0000 0.0000 0.0000 14.9275 0.0000 -0.2038
# 5 -8.1123 -9.6622 -4.3295 0.0000 26.0122 0.0000
# 6 0.0000 0.0000 0.0000 -0.2038 0.0000 -0.3632
#
#
#
# Elastic Compliance Matrix: (Units=1/GPa)
#
#
# Indices 1 2 3 4 5 6 
#
# 1 0.015315 -0.002782 -0.017873 0.000000 0.000768 0.000000
# 2 -0.002782 0.016684 -0.007954 0.000000 0.004006 0.000000
# 3 -0.017873 -0.007954 0.051370 0.000000 0.000022 0.000000
# 4 0.000000 0.000000 0.000000 0.066481 0.000000 -0.037297
# 5 0.000768 0.004006 0.000022 0.000000 0.040175 0.000000
# 6 0.000000 0.000000 0.000000 -0.037297 0.000000 -2.732019
#
#
# Mechanical properties :
#
#
# Convention : Reuss Voigt Hill
#
# Bulk Modulus (GPa) = 38.23736 62.43157 50.33446
# Shear Modulus (GPa) = -2.01934 16.82651 7.40359
#
# Velocity S-wave (km/s) = -1.07406 3.10042 2.05658
# Velocity P-wave (km/s) = 4.50622 6.96295 5.86467
#
# Compressibility (1/GPa) = 0.02615243
#
# Stress axis : x y z
#
# Youngs Moduli (GPa) = 65.29355 59.93695 19.46647
#
# Poissons Ratio (x) = 0.16672 0.34793
# Poissons Ratio (y) = 0.18162 0.15483
# Poissons Ratio (z) = 1.16701 0.47673
#
# Static dielectric constant tensor:
#      x y z
#    x 3.782140 0.000000 -0.048060 
#    y 0.000000 3.151240 0.000000 
#    z -0.048060 0.000000 3.075030 
# 
# 
# High freq. dielectric constant tensor:
#      x y z
#    x 1.680740 0.000000 0.002680 
#    y 0.000000 1.660340 0.000000 
#    z 0.002680 0.000000 1.655960 
# 
# From -- ./inp_files/177129.got.cif
#   From: 2010.06.25/outbox.cif.g09.slc.cpg/sg12_89_cif.got.tgz:177129.got - 2010.06.28 00:19:55.
