data_PCOD8082986
_publ_section_title
;
Structure prediction by ZEFSAII (Michael W. Deem and Ramdas Pophale) SiO2 
 PCOD8082986
Probable space group: C 2/M
;
_chemical_formula_sum "Si O2"
_cell_formula_units_Z 56
_cell_length_a 31.527337
_cell_length_b 18.059869
_cell_length_c 9.622796
_cell_angle_alpha 90.000000
_cell_angle_beta 34.677776
_cell_angle_gamma 90.000000
_cell_volume 3117.348424
_symmetry_space_group_name_H-M "C 2/M"
_symmetry_group_IT_number 12
_symmetry_cell_setting 'monoclinic'
loop_
_space_group_symop_operation_xyz
x,y,z
-x,y,-z
-x,-y,-z
x,-y,z
1/2+x,1/2+y,z
1/2-x,1/2+y,-z
1/2-x,1/2-y,-z
1/2+x,1/2-y,z
loop_
_atom_site_type_symbol
_atom_site_label
_atom_site_fract_x
_atom_site_fract_y
_atom_site_fract_z
Si Si1 0.183499 0.160162 0.766417
Si Si2 0.400077 0.087618 0.385497
Si Si3 0.712073 0.414995 0.266867
Si Si4 0.558068 0.912637 0.033714
Si Si5 0.309448 0.166703 0.212310
Si Si6 0.581270 0.414460 0.826484
Si Si7 0.238158 0.086598 0.885836
O O1 0.257301 0.138645 0.479820
O O2 0.178993 0.246404 0.809776
O O3 0.110878 0.133822 0.876414
O O4 0.185687 0.120212 0.908769
O O5 0.471475 0.111957 0.286730
O O6 0.322420 0.120522 0.652553
O O7 0.397746 0.000000 0.392036
O O8 0.413318 0.114941 0.193408
O O9 0.740104 0.500000 0.209550
O O10 0.771700 0.358197 0.170237
O O11 0.632652 0.403641 0.553105
O O12 0.702664 0.394742 0.130433
O O13 0.567521 0.000000 0.026740
O O14 0.609770 0.871679 0.005462
O O15 0.578884 0.500000 0.880418
O O16 0.500000 0.385790 0.000000
O O17 0.242010 0.000000 0.847436
#
# Coordination Sequence:
#
# PCOD8082986 Si02
#       7
#     8   8   8   8   8   8   8
#     4  10  20  32  50  75  98 130 168 202 249 295
#     4   8  15  26  45  73  97 122 159 199 237 275
#     4   9  19  33  53  76  98 129 163 201 252 296
#     4   9  15  27  47  70  96 128 164 201 235 274
#     4  10  19  32  47  73 103 131 168 202 238 293
#     4   9  18  36  57  75  96 123 162 211 255 295
#     4  10  18  32  52  75 100 127 165 207 246 294
#
# _framework density 17.963985000000001
#
# number of rings (size 3 to 8) (size 9 to 14) (size 15 to 20)
#    0.000    2.714    1.429    1.714    0.000    1.714 
#    2.571    1.429    0.000    8.571    0.000    0.000 
#    0.000    0.000    0.000    0.000    0.000    0.000 
#
# Total GULP energy -347107.146031 kJ/mol
# GULP energy per Si atom -12396.683787 kJ/mol
# Density = 1.792310 g / cm^3
# Si number density = 17.963985 Si / 1000 Ang^3
#
#
#
# Elastic Constant Matrix: (Units=GPa)
#
#
# Indices 1 2 3 4 5 6 
#
# 1 154.1830 57.7221 65.2562 0.0000 -8.3427 0.0000
# 2 57.7221 57.5330 28.9356 0.0000 0.3868 0.0000
# 3 65.2562 28.9356 72.8028 0.0000 -3.5709 0.0000
# 4 0.0000 0.0000 0.0000 11.8316 0.0000 5.7948
# 5 -8.3427 0.3868 -3.5709 0.0000 32.7292 0.0000
# 6 0.0000 0.0000 0.0000 5.7948 0.0000 13.1264
#
#
#
# Elastic Compliance Matrix: (Units=1/GPa)
#
#
# Indices 1 2 3 4 5 6 
#
# 1 0.013796 -0.009633 -0.008404 0.000000 0.002713 0.000000
# 2 -0.009633 0.028497 -0.002844 0.000000 -0.003102 0.000000
# 3 -0.008404 -0.002844 0.022416 0.000000 0.000337 0.000000
# 4 0.000000 0.000000 0.000000 0.107836 0.000000 -0.047605
# 5 0.002713 -0.003102 0.000337 0.000000 0.031319 0.000000
# 6 0.000000 0.000000 0.000000 -0.047605 0.000000 0.097198
#
#
# Mechanical properties :
#
#
# Convention : Reuss Voigt Hill
#
# Bulk Modulus (GPa) = 43.57973 65.37186 54.47579
# Shear Modulus (GPa) = 14.26648 20.37774 17.32211
#
# Velocity S-wave (km/s) = 2.82116 3.37169 3.10864
# Velocity P-wave (km/s) = 5.90966 7.18521 6.57842
#
# Compressibility (1/GPa) = 0.02294645
#
# Stress axis : x y z
#
# Youngs Moduli (GPa) = 72.48599 35.09158 44.61151
#
# Poissons Ratio (x) = 0.33802 0.37492
# Poissons Ratio (y) = 0.69823 0.12689
# Poissons Ratio (z) = 0.60918 0.09981
#
# Static dielectric constant tensor:
#      x y z
#    x 3.323840 0.000000 -0.158460 
#    y 0.000000 3.080290 0.000000 
#    z -0.158460 0.000000 3.316680 
# 
# 
# High freq. dielectric constant tensor:
#      x y z
#    x 1.696580 0.000000 -0.010600 
#    y 0.000000 1.673140 0.000000 
#    z -0.010600 0.000000 1.673320 
# 
# From -- ./inp_files/87805.got.cif
#   From: 2010.06.25/outbox.cif.g09.slc.cpg/sg12_44_cif.got.tgz:87805.got - 2010.06.28 00:19:55.
