data_PCOD8082544
_publ_section_title
;
Structure prediction by ZEFSAII (Michael W. Deem and Ramdas Pophale) SiO2 
 PCOD8082544
Probable space group: C 2/M
;
_chemical_formula_sum "Si O2"
_cell_formula_units_Z 64
_cell_length_a 20.304790
_cell_length_b 9.286104
_cell_length_c 21.234720
_cell_angle_alpha 90.000000
_cell_angle_beta 115.938418
_cell_angle_gamma 90.000000
_cell_volume 3600.527450
_symmetry_space_group_name_H-M "C 2/M"
_symmetry_group_IT_number 12
_symmetry_cell_setting 'monoclinic'
loop_
_space_group_symop_operation_xyz
x,y,z
-x,y,-z
-x,-y,-z
x,-y,z
1/2+x,1/2+y,z
1/2-x,1/2+y,-z
1/2-x,1/2-y,-z
1/2+x,1/2-y,z
loop_
_atom_site_type_symbol
_atom_site_label
_atom_site_fract_x
_atom_site_fract_y
_atom_site_fract_z
Si Si1 0.143537 0.670997 0.290811
Si Si2 0.322354 0.829027 0.553124
Si Si3 0.763876 0.666641 0.911861
Si Si4 0.984476 0.669487 0.199021
Si Si5 0.090651 0.670417 0.705833
Si Si6 0.027350 0.329279 0.444868
Si Si7 0.740284 0.669328 0.761288
Si Si8 0.357254 0.167643 0.064144
O O1 0.140405 0.500000 0.286145
O O2 0.161333 0.721166 0.368823
O O3 0.065461 0.738331 0.235849
O O4 0.204751 0.729141 0.268656
O O5 0.250000 0.750000 0.500000
O O6 0.390411 0.778051 0.537953
O O7 0.310574 0.000000 0.544350
O O8 0.744068 0.500000 0.911759
O O9 0.776565 0.705632 0.844306
O O10 0.695993 0.753981 0.909885
O O11 0.837299 0.704876 0.983178
O O12 0.994718 0.500000 0.209877
O O13 0.934984 0.723258 0.236359
O O14 0.941285 0.711514 0.116310
O O15 0.103368 0.500000 0.707632
O O16 0.165131 0.748568 0.718962
O O17 0.028654 0.723317 0.631658
O O18 0.027317 0.500000 0.447688
O O19 0.000000 0.263987 0.500000
O O20 0.725750 0.500000 0.748148
O O21 0.346421 0.000000 0.073530
#
# Coordination Sequence:
#
# PCOD8082544 Si02
#       8
#     8   8   8   8   8   8   8   8
#     4   9  18  33  50  68  97 133 161 188 234 293
#     4  10  20  35  53  72  97 128 160 193 237 290
#     4   9  17  28  42  68 101 126 151 191 243 287
#     4   9  15  28  50  72  89 120 166 201 228 272
#     4  10  18  31  53  74  93 122 166 207 234 270
#     4   9  18  32  51  75  98 121 156 204 245 276
#     4  10  20  32  47  70 102 133 157 190 241 292
#     4   9  16  27  47  71  93 120 159 201 236 275
#
# _framework density 17.775172000000001
#
# number of rings (size 3 to 8) (size 9 to 14) (size 15 to 20)
#    0.000    2.625    2.500    0.000    1.750    0.000 
#    0.000    1.250    0.000    6.750    0.000    0.000 
#    0.000    5.000    0.000    0.000    0.000    0.000 
#
# Total GULP energy -396620.830199 kJ/mol
# GULP energy per Si atom -12394.400944 kJ/mol
# Density = 1.773472 g / cm^3
# Si number density = 17.775172 Si / 1000 Ang^3
#
#
#
# Elastic Constant Matrix: (Units=GPa)
#
#
# Indices 1 2 3 4 5 6 
#
# 1 152.8674 26.3294 81.8364 0.0000 14.2832 0.0000
# 2 26.3294 21.0372 26.5996 0.0000 4.6132 0.0000
# 3 81.8364 26.5996 135.1786 0.0000 20.0203 0.0000
# 4 0.0000 0.0000 0.0000 18.0776 0.0000 4.2148
# 5 14.2832 4.6132 20.0203 0.0000 33.9776 0.0000
# 6 0.0000 0.0000 0.0000 4.2148 0.0000 20.4852
#
#
#
# Elastic Compliance Matrix: (Units=1/GPa)
#
#
# Indices 1 2 3 4 5 6 
#
# 1 0.010351 -0.006673 -0.004868 0.000000 -0.000577 0.000000
# 2 -0.006673 0.067640 -0.009121 0.000000 -0.001004 0.000000
# 3 -0.004868 -0.009121 0.012767 0.000000 -0.004238 0.000000
# 4 0.000000 0.000000 0.000000 0.058104 0.000000 -0.011955
# 5 -0.000577 -0.001004 -0.004238 0.000000 0.032307 0.000000
# 6 0.000000 0.000000 0.000000 -0.011955 0.000000 0.051276
#
#
# Mechanical properties :
#
#
# Convention : Reuss Voigt Hill
#
# Bulk Modulus (GPa) = 20.22927 64.29046 42.25986
# Shear Modulus (GPa) = 17.22671 26.12925 21.67798
#
# Velocity S-wave (km/s) = 3.11649 3.83820 3.49602
# Velocity P-wave (km/s) = 4.93511 7.47593 6.33423
#
# Compressibility (1/GPa) = 0.04943332
#
# Stress axis : x y z
#
# Youngs Moduli (GPa) = 96.61043 14.78418 78.32715
#
# Poissons Ratio (x) = 0.09866 0.38128
# Poissons Ratio (y) = 0.64472 0.71442
# Poissons Ratio (z) = 0.47028 0.13485
#
# Static dielectric constant tensor:
#      x y z
#    x 3.420260 0.000000 0.018600 
#    y 0.000000 2.882650 0.000000 
#    z 0.018600 0.000000 3.663700 
# 
# 
# High freq. dielectric constant tensor:
#      x y z
#    x 1.679780 0.000000 0.008280 
#    y 0.000000 1.640860 0.000000 
#    z 0.008280 0.000000 1.707270 
# 
# From -- ./inp_files/315334.got.cif
#   From: 2010.06.25/outbox.cif.g09.slc.cpg/sg12_158_cif.got.tgz:315334.got - 2010.06.28 00:19:55.
