data_PCOD8082744
_publ_section_title
;
Structure prediction by ZEFSAII (Michael W. Deem and Ramdas Pophale) SiO2 
 PCOD8082744
Probable space group: C 2/M
;
_chemical_formula_sum "Si O2"
_cell_formula_units_Z 64
_cell_length_a 9.280572
_cell_length_b 20.031262
_cell_length_c 24.347574
_cell_angle_alpha 90.000000
_cell_angle_beta 125.933500
_cell_angle_gamma 90.000000
_cell_volume 3664.900347
_symmetry_space_group_name_H-M "C 2/M"
_symmetry_group_IT_number 12
_symmetry_cell_setting 'monoclinic'
loop_
_space_group_symop_operation_xyz
x,y,z
-x,y,-z
-x,-y,-z
x,-y,z
1/2+x,1/2+y,z
1/2-x,1/2+y,-z
1/2-x,1/2-y,-z
1/2+x,1/2-y,z
loop_
_atom_site_type_symbol
_atom_site_label
_atom_site_fract_x
_atom_site_fract_y
_atom_site_fract_z
Si Si1 0.289701 0.077786 0.461936
Si Si2 0.048272 0.836830 0.328742
Si Si3 0.448956 0.236036 0.112248
Si Si4 0.311412 0.329262 0.176756
Si Si5 0.187376 0.577635 0.059432
Si Si6 0.147914 0.155759 0.994954
Si Si7 0.354725 0.258621 0.375578
Si Si8 0.210887 0.311505 0.452827
O O1 0.500000 0.086442 0.500000
O O2 0.176411 0.107567 0.385275
O O3 0.241547 0.118563 0.506757
O O4 0.238973 0.000000 0.458135
O O5 0.162401 0.775538 0.329775
O O6 0.940498 0.861485 0.251581
O O7 0.899294 0.812279 0.338715
O O8 0.405167 0.277658 0.156714
O O9 0.646142 0.208895 0.167037
O O10 0.435605 0.279931 0.054070
O O11 0.314856 0.174719 0.071074
O O12 0.245162 0.393946 0.130325
O O13 0.172732 0.500000 0.063650
O O14 0.320067 0.597054 0.040933
O O15 0.000000 0.610264 0.000000
O O16 0.000000 0.123571 0.000000
O O17 0.339839 0.302182 0.428829
O O18 0.497034 0.197803 0.399596
O O19 0.250000 0.250000 0.500000
#
# Coordination Sequence:
#
# PCOD8082744 Si02
#       8
#     8   8   8   8   8   8   8   8
#     4  11  22  36  56  83 110 142 185 227 273 324
#     4  11  22  35  53  83 109 147 175 226 267 331
#     4  10  19  31  51  84 109 135 169 220 279 325
#     4  11  21  35  54  78 114 140 178 218 277 321
#     4  10  21  36  55  77 101 143 190 219 257 322
#     4  10  18  31  55  79 108 136 169 228 274 315
#     4  10  20  32  57  82 109 135 184 217 270 319
#     4  11  17  33  59  81 104 140 177 228 267 315
#
# _framework density 17.462956999999999
#
# number of rings (size 3 to 8) (size 9 to 14) (size 15 to 20)
#    0.000    1.500    6.250    1.125    0.000    0.750 
#    0.000    1.250    0.000    0.000    0.000    0.000 
#    0.000    0.000    0.000    0.000    0.000    0.000 
#
# Total GULP energy -396458.780010 kJ/mol
# GULP energy per Si atom -12389.336875 kJ/mol
# Density = 1.742321 g / cm^3
# Si number density = 17.462957 Si / 1000 Ang^3
#
#
#
# Elastic Constant Matrix: (Units=GPa)
#
#
# Indices 1 2 3 4 5 6 
#
# 1 97.2072 28.1190 36.6167 0.0000 -5.4435 0.0000
# 2 28.1190 84.0011 44.9557 0.0000 -3.7186 0.0000
# 3 36.6167 44.9557 127.7268 0.0000 1.0186 0.0000
# 4 0.0000 0.0000 0.0000 17.0151 0.0000 2.3434
# 5 -5.4435 -3.7186 1.0186 0.0000 22.0532 0.0000
# 6 0.0000 0.0000 0.0000 2.3434 0.0000 20.6987
#
#
#
# Elastic Compliance Matrix: (Units=1/GPa)
#
#
# Indices 1 2 3 4 5 6 
#
# 1 0.012160 -0.002556 -0.002608 0.000000 0.002691 0.000000
# 2 -0.002556 0.015369 -0.004694 0.000000 0.002177 0.000000
# 3 -0.002608 -0.004694 0.010244 0.000000 -0.001908 0.000000
# 4 0.000000 0.000000 0.000000 0.059702 0.000000 -0.006759
# 5 0.002691 0.002177 -0.001908 0.000000 0.046465 0.000000
# 6 0.000000 0.000000 0.000000 -0.006759 0.000000 0.049077
#
#
# Mechanical properties :
#
#
# Convention : Reuss Voigt Hill
#
# Bulk Modulus (GPa) = 55.37864 58.70198 57.04031
# Shear Modulus (GPa) = 22.85707 25.23630 24.04668
#
# Velocity S-wave (km/s) = 3.62178 3.80561 3.71484
# Velocity P-wave (km/s) = 7.01931 7.28000 7.15084
#
# Compressibility (1/GPa) = 0.01805750
#
# Stress axis : x y z
#
# Youngs Moduli (GPa) = 82.23954 65.06775 97.61623
#
# Poissons Ratio (x) = 0.16628 0.25457
# Poissons Ratio (y) = 0.21017 0.45821
# Poissons Ratio (z) = 0.21447 0.30543
#
# Static dielectric constant tensor:
#      x y z
#    x 3.398890 0.000000 -0.609090 
#    y 0.000000 2.926370 0.000000 
#    z -0.609090 0.000000 5.069690 
# 
# 
# High freq. dielectric constant tensor:
#      x y z
#    x 1.688920 0.000000 0.002650 
#    y 0.000000 1.645090 0.000000 
#    z 0.002650 0.000000 1.668930 
# 
# From -- ./inp_files/333597.got.cif
#   From: 2010.06.25/outbox.cif.g09.slc.cpg/sg12_167_cif.got.tgz:333597.got - 2010.06.28 00:19:55.
