data_PCOD8082962
_publ_section_title
;
Structure prediction by ZEFSAII (Michael W. Deem and Ramdas Pophale) SiO2 
 PCOD8082962
Probable space group: C 2/M
;
_chemical_formula_sum "Si O2"
_cell_formula_units_Z 40
_cell_length_a 24.525384
_cell_length_b 8.752800
_cell_length_c 21.678644
_cell_angle_alpha 90.000000
_cell_angle_beta 29.725094
_cell_angle_gamma 90.000000
_cell_volume 2307.467901
_symmetry_space_group_name_H-M "C 2/M"
_symmetry_group_IT_number 12
_symmetry_cell_setting 'monoclinic'
loop_
_space_group_symop_operation_xyz
x,y,z
-x,y,-z
-x,-y,-z
x,-y,z
1/2+x,1/2+y,z
1/2-x,1/2+y,-z
1/2-x,1/2-y,-z
1/2+x,1/2-y,z
loop_
_atom_site_type_symbol
_atom_site_label
_atom_site_fract_x
_atom_site_fract_y
_atom_site_fract_z
Si Si1 0.154852 0.820207 0.515355
Si Si2 0.884638 0.179672 0.583184
Si Si3 0.507554 0.179953 0.082759
Si Si4 0.165585 0.819883 0.837844
Si Si5 0.604498 0.821279 0.685069
O O1 0.112835 0.763355 0.490163
O O2 0.278829 0.759146 0.403792
O O3 0.076690 0.755064 0.646523
O O4 0.149023 0.000000 0.524282
O O5 0.792236 0.270893 0.711705
O O6 0.000000 0.222700 0.500000
O O7 0.858999 0.000000 0.612740
O O8 0.399520 0.231610 0.151720
O O9 0.489518 0.219312 0.172629
O O10 0.523520 0.000000 0.056826
O O11 0.614767 0.270351 0.953842
O O12 0.152366 0.000000 0.841837
O O13 0.612326 0.000000 0.666808
#
# Coordination Sequence:
#
# PCOD8082962 Si02
#       5
#     8   8   8   8   8
#     4   9  17  30  47  72 100 127 163 202 246 293
#     4  10  20  36  55  72  97 136 175 205 239 294
#     4  10  18  32  52  72 101 134 167 203 245 301
#     4  11  21  31  47  75 105 130 164 206 256 296
#     4   9  17  29  48  73 100 129 159 199 250 296
#
# _framework density 17.335018999999999
#
# number of rings (size 3 to 8) (size 9 to 14) (size 15 to 20)
#    0.000    2.200    2.000    3.600    0.000    2.800 
#    0.000    0.000    0.000    1.200    0.000    0.000 
#    0.000    0.000    0.000    0.000    0.000    0.000 
#
# Total GULP energy -247977.718848 kJ/mol
# GULP energy per Si atom -12398.885942 kJ/mol
# Density = 1.729556 g / cm^3
# Si number density = 17.335019 Si / 1000 Ang^3
#
#
#
# Elastic Constant Matrix: (Units=GPa)
#
#
# Indices 1 2 3 4 5 6 
#
# 1 94.4273 21.3099 61.5909 0.0013 14.9193 -0.0041
# 2 21.3099 38.0423 34.2256 -0.0036 3.7606 -0.0039
# 3 61.5909 34.2256 125.5850 -0.0144 18.8272 0.0056
# 4 0.0013 -0.0036 -0.0144 28.3099 0.0073 7.4245
# 5 14.9193 3.7606 18.8272 0.0073 26.9634 -0.0005
# 6 -0.0041 -0.0039 0.0056 7.4245 -0.0005 19.1501
#
#
#
# Elastic Compliance Matrix: (Units=1/GPa)
#
#
# Indices 1 2 3 4 5 6 
#
# 1 0.016113 -0.002727 -0.006567 -0.000005 -0.003950 0.000007
# 2 -0.002727 0.035381 -0.008702 -0.000003 0.002651 0.000010
# 3 -0.006567 -0.008702 0.014328 0.000011 -0.005157 -0.000012
# 4 -0.000005 -0.000003 0.000011 0.039321 -0.000015 -0.015245
# 5 -0.003950 0.002651 -0.005157 -0.000015 0.042504 0.000008
# 6 0.000007 0.000010 -0.000012 -0.015245 0.000008 0.058130
#
#
# Mechanical properties :
#
#
# Convention : Reuss Voigt Hill
#
# Bulk Modulus (GPa) = 33.52391 54.70082 44.11236
# Shear Modulus (GPa) = 19.86379 24.27990 22.07184
#
# Velocity S-wave (km/s) = 3.38875 3.74656 3.57214
# Velocity P-wave (km/s) = 5.89002 7.09501 6.52041
#
# Compressibility (1/GPa) = 0.02982946
#
# Stress axis : x y z
#
# Youngs Moduli (GPa) = 62.06143 28.26336 69.79265
#
# Poissons Ratio (x) = 0.07709 0.45832
# Poissons Ratio (y) = 0.16927 0.60736
# Poissons Ratio (z) = 0.40755 0.24596
#
# Static dielectric constant tensor:
#      x y z
#    x 3.086300 -0.000010 0.304070 
#    y -0.000010 3.134190 0.000010 
#    z 0.304070 0.000010 3.342940 
# 
# 
# High freq. dielectric constant tensor:
#      x y z
#    x 1.635790 0.000000 0.031030 
#    y 0.000000 1.668630 0.000000 
#    z 0.031030 0.000000 1.668450 
# 
# From -- ./inp_files/179069.got.cif
#   From: 2010.06.25/outbox.cif.g09.slc.cpg/sg12_90_cif.got.tgz:179069.got - 2010.06.28 00:19:55.
