data_PCOD8082590
_publ_section_title
;
Structure prediction by ZEFSAII (Michael W. Deem and Ramdas Pophale) SiO2 
 PCOD8082590
Probable space group: C 2/M
;
_chemical_formula_sum "Si O2"
_cell_formula_units_Z 64
_cell_length_a 29.814714
_cell_length_b 9.164101
_cell_length_c 16.996365
_cell_angle_alpha 90.000000
_cell_angle_beta 133.601750
_cell_angle_gamma 90.000000
_cell_volume 3362.835143
_symmetry_space_group_name_H-M "C 2/M"
_symmetry_group_IT_number 12
_symmetry_cell_setting 'monoclinic'
loop_
_space_group_symop_operation_xyz
x,y,z
-x,y,-z
-x,-y,-z
x,-y,z
1/2+x,1/2+y,z
1/2-x,1/2+y,-z
1/2-x,1/2-y,-z
1/2+x,1/2-y,z
loop_
_atom_site_type_symbol
_atom_site_label
_atom_site_fract_x
_atom_site_fract_y
_atom_site_fract_z
Si Si1 0.555681 0.829098 0.401781
Si Si2 0.654175 0.332207 0.958424
Si Si3 0.636646 0.167907 0.642430
Si Si4 0.046153 0.165893 0.951971
Si Si5 0.763392 0.327287 0.822690
Si Si6 0.370006 0.166986 0.836504
Si Si7 0.082632 0.667361 0.745578
Si Si8 0.571845 0.833072 0.248167
O O1 0.598100 0.765053 0.522576
O O2 0.485557 0.766175 0.318490
O O3 0.588949 0.791229 0.358715
O O4 0.549923 0.000000 0.410556
O O5 0.673666 0.500000 0.968665
O O6 0.711584 0.247165 0.067177
O O7 0.595135 0.316101 0.942057
O O8 0.636065 0.260014 0.853513
O O9 0.696056 0.268352 0.723051
O O10 0.593047 0.179807 0.665375
O O11 0.657097 0.000000 0.652812
O O12 0.983054 0.233233 0.846882
O O13 0.034244 0.000000 0.960462
O O14 0.071283 0.244118 0.060317
O O15 0.761431 0.500000 0.833145
O O16 0.806006 0.281560 0.799125
O O17 0.369624 0.188360 0.740667
O O18 0.381803 0.000000 0.873801
O O19 0.087683 0.500000 0.780777
O O20 0.548643 0.000000 0.218104
#
# Coordination Sequence:
#
# PCOD8082590 Si02
#       8
#     8   8   8   8   8   8   8   8
#     4   9  18  34  57  82 108 138 174 218 265 315
#     4  10  20  34  54  81 112 142 173 216 267 318
#     4  10  21  37  57  80 105 138 181 225 265 310
#     4  10  19  30  47  76 112 142 168 208 264 319
#     4  10  21  38  56  75 106 145 184 220 260 312
#     4   9  19  33  51  75 103 139 180 217 253 306
#     4  10  19  34  58  84 108 136 174 218 267 321
#     4  10  18  31  53  78 104 137 177 215 256 311
#
# _framework density 19.031559999999999
#
# number of rings (size 3 to 8) (size 9 to 14) (size 15 to 20)
#    0.000    2.250    1.250    1.875    0.000    6.000 
#    0.000    1.875    0.000    1.500    0.000    0.000 
#    0.000    0.000    0.000    0.000    0.000    0.000 
#
# Total GULP energy -396759.579414 kJ/mol
# GULP energy per Si atom -12398.736857 kJ/mol
# Density = 1.898824 g / cm^3
# Si number density = 19.031560 Si / 1000 Ang^3
#
#
#
# Elastic Constant Matrix: (Units=GPa)
#
#
# Indices 1 2 3 4 5 6 
#
# 1 45.0121 24.2742 49.9043 0.0000 -7.6587 0.0000
# 2 24.2742 72.0887 39.0974 0.0000 0.5079 0.0000
# 3 49.9043 39.0974 126.6156 0.0000 -6.4565 0.0000
# 4 0.0000 0.0000 0.0000 21.2736 0.0000 5.6491
# 5 -7.6587 0.5079 -6.4565 0.0000 32.0951 0.0000
# 6 0.0000 0.0000 0.0000 5.6491 0.0000 20.5686
#
#
#
# Elastic Compliance Matrix: (Units=1/GPa)
#
#
# Indices 1 2 3 4 5 6 
#
# 1 0.043320 -0.006711 -0.014619 0.000000 0.007503 0.000000
# 2 -0.006711 0.017757 -0.002964 0.000000 -0.002479 0.000000
# 3 -0.014619 -0.002964 0.014549 0.000000 -0.000515 0.000000
# 4 0.000000 0.000000 0.000000 0.050704 0.000000 -0.013926
# 5 0.007503 -0.002479 -0.000515 0.000000 0.032883 0.000000
# 6 0.000000 0.000000 0.000000 -0.013926 0.000000 0.052443
#
#
# Mechanical properties :
#
#
# Convention : Reuss Voigt Hill
#
# Bulk Modulus (GPa) = 36.98709 52.25202 44.61956
# Shear Modulus (GPa) = 18.56953 23.48351 21.02652
#
# Velocity S-wave (km/s) = 3.12705 3.51654 3.32749
# Velocity P-wave (km/s) = 5.70216 6.63348 6.18538
#
# Compressibility (1/GPa) = 0.02703646
#
# Stress axis : x y z
#
# Youngs Moduli (GPa) = 23.08392 56.31639 68.73278
#
# Poissons Ratio (x) = 0.37795 1.00483
# Poissons Ratio (y) = 0.15492 0.20375
# Poissons Ratio (z) = 0.33747 0.16694
#
# Static dielectric constant tensor:
#      x y z
#    x 3.601600 0.000000 -0.217160 
#    y 0.000000 3.384710 0.000000 
#    z -0.217160 0.000000 3.489230 
# 
# 
# High freq. dielectric constant tensor:
#      x y z
#    x 1.742630 0.000000 -0.016750 
#    y 0.000000 1.725130 0.000000 
#    z -0.016750 0.000000 1.727810 
# 
# From -- ./inp_files/249983.got.cif
#   From: 2010.06.25/outbox.cif.g09.slc.cpg/sg12_125_cif.got.tgz:249983.got - 2010.06.28 00:19:55.
