data_PCOD8082458
_publ_section_title
;
Structure prediction by ZEFSAII (Michael W. Deem and Ramdas Pophale) SiO2 
 PCOD8082458
Probable space group: C 2/M
;
_chemical_formula_sum "Si O2"
_cell_formula_units_Z 64
_cell_length_a 24.441645
_cell_length_b 9.042079
_cell_length_c 21.121344
_cell_angle_alpha 90.000000
_cell_angle_beta 51.343986
_cell_angle_gamma 90.000000
_cell_volume 3645.199998
_symmetry_space_group_name_H-M "C 2/M"
_symmetry_group_IT_number 12
_symmetry_cell_setting 'monoclinic'
loop_
_space_group_symop_operation_xyz
x,y,z
-x,y,-z
-x,-y,-z
x,-y,z
1/2+x,1/2+y,z
1/2-x,1/2+y,-z
1/2-x,1/2-y,-z
1/2+x,1/2-y,z
loop_
_atom_site_type_symbol
_atom_site_label
_atom_site_fract_x
_atom_site_fract_y
_atom_site_fract_z
Si Si1 0.241550 0.173420 0.604938
Si Si2 0.505032 0.328492 0.709453
Si Si3 0.472976 0.171303 0.178434
Si Si4 0.173921 0.671258 0.770132
Si Si5 0.363779 0.175779 0.815360
Si Si6 0.849181 0.829775 0.448727
Si Si7 0.228314 0.675490 0.867326
Si Si8 0.126954 0.327336 0.048097
O O1 0.220837 0.239368 0.687215
O O2 0.184404 0.221603 0.593857
O O3 0.317543 0.234666 0.529007
O O4 0.247001 0.000000 0.609088
O O5 0.484380 0.500000 0.730295
O O6 0.534749 0.273653 0.754946
O O7 0.437942 0.234990 0.735439
O O8 0.567199 0.305335 0.613655
O O9 0.408733 0.204748 0.178167
O O10 0.545935 0.209521 0.089961
O O11 0.474308 0.000000 0.199759
O O12 0.190067 0.500000 0.747067
O O13 0.193727 0.721143 0.826170
O O14 0.303246 0.246517 0.817021
O O15 0.355004 0.230799 0.894458
O O16 0.362544 0.000000 0.810495
O O17 0.829961 0.000000 0.474728
O O18 0.237972 0.500000 0.865983
O O19 0.178444 0.743157 0.958640
O O20 0.140062 0.500000 0.036571
#
# Coordination Sequence:
#
# PCOD8082458 Si02
#       8
#     8   8   8   8   8   8   8   8
#     4  10  19  31  49  74 104 136 166 200 243 295
#     4  10  18  31  52  77 103 130 162 205 252 300
#     4   9  17  30  48  73 103 134 165 205 252 296
#     4  10  20  32  49  72 104 140 171 204 246 299
#     4  10  20  34  52  75 100 129 168 216 260 296
#     4   9  18  31  49  76 104 130 163 201 245 296
#     4  10  20  34  51  72  98 136 177 210 249 298
#     4   8  16  31  51  74  99 126 167 216 257 296
#
# _framework density 17.557334000000001
#
# number of rings (size 3 to 8) (size 9 to 14) (size 15 to 20)
#    0.000    2.500    1.250    2.250    0.000    2.500 
#    0.000    5.000    0.000    0.750    0.000   10.500 
#    0.000    0.000    0.000    0.000    0.000    0.000 
#
# Total GULP energy -396774.496318 kJ/mol
# GULP energy per Si atom -12399.203010 kJ/mol
# Density = 1.751737 g / cm^3
# Si number density = 17.557334 Si / 1000 Ang^3
#
#
#
# Elastic Constant Matrix: (Units=GPa)
#
#
# Indices 1 2 3 4 5 6 
#
# 1 116.0195 36.6790 40.8364 -0.0024 -13.4634 0.0011
# 2 36.6790 51.9017 31.9681 -0.0014 -4.9004 -0.0007
# 3 40.8364 31.9681 70.1143 -0.0005 -17.9565 -0.0003
# 4 -0.0024 -0.0014 -0.0005 23.1163 0.0000 -1.2540
# 5 -13.4634 -4.9004 -17.9565 0.0000 20.7930 -0.0003
# 6 0.0011 -0.0007 -0.0003 -1.2540 -0.0003 23.9544
#
#
#
# Elastic Compliance Matrix: (Units=1/GPa)
#
#
# Indices 1 2 3 4 5 6 
#
# 1 0.012170 -0.006198 -0.003362 0.000001 0.003516 -0.000001
# 2 -0.006198 0.030435 -0.012143 0.000001 -0.007327 0.000001
# 3 -0.003362 -0.012143 0.026278 -0.000001 0.017655 0.000000
# 4 0.000001 0.000001 -0.000001 0.043383 0.000000 0.002271
# 5 0.003516 -0.007327 0.017655 0.000000 0.063890 0.000001
# 6 -0.000001 0.000001 0.000000 0.002271 0.000001 0.041865
#
#
# Mechanical properties :
#
#
# Convention : Reuss Voigt Hill
#
# Bulk Modulus (GPa) = 39.25000 50.77803 45.01402
# Shear Modulus (GPa) = 18.52408 22.14289 20.33348
#
# Velocity S-wave (km/s) = 3.25170 3.55516 3.40681
# Velocity P-wave (km/s) = 6.04168 6.77025 6.41631
#
# Compressibility (1/GPa) = 0.02547771
#
# Stress axis : x y z
#
# Youngs Moduli (GPa) = 82.16947 32.85699 38.05393
#
# Poissons Ratio (x) = 0.20365 0.12793
# Poissons Ratio (y) = 0.50928 0.46210
# Poissons Ratio (z) = 0.27623 0.39899
#
# Static dielectric constant tensor:
#      x y z
#    x 3.187920 0.000000 -0.195300 
#    y 0.000000 3.137420 0.000010 
#    z -0.195300 0.000010 3.306030 
# 
# 
# High freq. dielectric constant tensor:
#      x y z
#    x 1.663640 0.000000 -0.023200 
#    y 0.000000 1.670560 0.000000 
#    z -0.023200 0.000000 1.671330 
# 
# From -- ./inp_files/323689.got.cif
#   From: 2010.06.25/outbox.cif.g09.slc.cpg/sg12_162_cif.got.tgz:323689.got - 2010.06.28 00:19:55.
