data_PCOD8082181
_publ_section_title
;
Structure prediction by ZEFSAII (Michael W. Deem and Ramdas Pophale) SiO2 
 PCOD8082181
Probable space group: C 2/M
;
_chemical_formula_sum "Si O2"
_cell_formula_units_Z 48
_cell_length_a 19.337938
_cell_length_b 13.016995
_cell_length_c 12.182626
_cell_angle_alpha 90.000000
_cell_angle_beta 63.022624
_cell_angle_gamma 90.000000
_cell_volume 2732.939588
_symmetry_space_group_name_H-M "C 2/M"
_symmetry_group_IT_number 12
_symmetry_cell_setting 'monoclinic'
loop_
_space_group_symop_operation_xyz
x,y,z
-x,y,-z
-x,-y,-z
x,-y,z
1/2+x,1/2+y,z
1/2-x,1/2+y,-z
1/2-x,1/2-y,-z
1/2+x,1/2-y,z
loop_
_atom_site_type_symbol
_atom_site_label
_atom_site_fract_x
_atom_site_fract_y
_atom_site_fract_z
Si Si1 0.544746 0.379743 0.271254
Si Si2 0.216144 0.385604 0.936303
Si Si3 0.319960 0.698736 0.683516
Si Si4 0.286310 0.617329 0.256735
Si Si5 0.645782 0.323360 0.008088
Si Si6 0.131586 0.121179 0.580696
O O1 0.554857 0.500000 0.292145
O O2 0.597219 0.313135 0.316407
O O3 0.568533 0.358084 0.127621
O O4 0.457308 0.341641 0.350183
O O5 0.180366 0.500000 0.971077
O O6 0.256952 0.374093 0.788055
O O7 0.279956 0.369702 0.983868
O O8 0.148739 0.301196 0.001052
O O9 0.289996 0.815926 0.716798
O O10 0.325260 0.671510 0.552587
O O11 0.259224 0.500000 0.285792
O O12 0.324291 0.657209 0.342009
O O13 0.352384 0.630086 0.115507
O O14 0.133823 0.000000 0.566316
#
# Coordination Sequence:
#
# PCOD8082181 Si02
#       6
#     8   8   8   8   8   8
#     4  10  19  31  50  73  96 122 154 195 236 276
#     4   9  16  27  46  69  92 119 155 198 232 265
#     4  10  18  31  50  71  93 122 160 197 230 269
#     4  10  20  32  48  71  98 126 154 189 234 282
#     4   9  17  28  44  69  95 121 153 189 234 279
#     4  10  20  32  48  72  99 124 151 190 240 284
#
# _framework density 17.563507000000001
#
# number of rings (size 3 to 8) (size 9 to 14) (size 15 to 20)
#    0.000    2.333    0.000    6.000    0.000    2.000 
#    0.000    2.500    0.000    3.000    0.000    4.667 
#    0.000    0.000    0.000    0.000    0.000    0.000 
#
# Total GULP energy -297571.530516 kJ/mol
# GULP energy per Si atom -12398.813771 kJ/mol
# Density = 1.752353 g / cm^3
# Si number density = 17.563507 Si / 1000 Ang^3
#
#
#
# Elastic Constant Matrix: (Units=GPa)
#
#
# Indices 1 2 3 4 5 6 
#
# 1 56.3658 40.0819 28.0041 0.0000 4.6278 0.0000
# 2 40.0819 88.5258 15.2110 0.0000 6.6473 0.0000
# 3 28.0041 15.2110 111.5136 0.0000 25.8352 0.0000
# 4 0.0000 0.0000 0.0000 21.7904 0.0000 3.1892
# 5 4.6278 6.6473 25.8352 0.0000 22.1851 0.0000
# 6 0.0000 0.0000 0.0000 3.1892 0.0000 19.9460
#
#
#
# Elastic Compliance Matrix: (Units=1/GPa)
#
#
# Indices 1 2 3 4 5 6 
#
# 1 0.029852 -0.012734 -0.007123 0.000000 0.005883 0.000000
# 2 -0.012734 0.017080 0.001970 0.000000 -0.004755 0.000000
# 3 -0.007123 0.001970 0.014078 0.000000 -0.015499 0.000000
# 4 0.000000 0.000000 0.000000 0.046991 0.000000 -0.007514
# 5 0.005883 -0.004755 -0.015499 0.000000 0.063322 0.000000
# 6 0.000000 0.000000 0.000000 -0.007514 0.000000 0.051337
#
#
# Mechanical properties :
#
#
# Convention : Reuss Voigt Hill
#
# Bulk Modulus (GPa) = 39.62459 46.99991 43.31225
# Shear Modulus (GPa) = 18.73732 24.32486 21.53109
#
# Velocity S-wave (km/s) = 3.26978 3.72555 3.50508
# Velocity P-wave (km/s) = 6.07166 6.73234 6.41052
#
# Compressibility (1/GPa) = 0.02523685
#
# Stress axis : x y z
#
# Youngs Moduli (GPa) = 33.49838 58.54677 71.03138
#
# Poissons Ratio (x) = 0.74554 0.50593
# Poissons Ratio (y) = 0.42657 -0.13991
# Poissons Ratio (z) = 0.23860 -0.11532
#
# Static dielectric constant tensor:
#      x y z
#    x 2.988460 0.000000 0.154870 
#    y 0.000000 3.214740 0.000000 
#    z 0.154870 0.000000 3.568370 
# 
# 
# High freq. dielectric constant tensor:
#      x y z
#    x 1.641860 0.000000 0.016570 
#    y 0.000000 1.669710 0.000000 
#    z 0.016570 0.000000 1.695570 
# 
# From -- ./inp_files/164298.got.cif
#   From: 2010.06.25/outbox.cif.g09.slc.cpg/sg12_83_cif.got.tgz:164298.got - 2010.06.28 00:19:55.
