data_PCOD8082867
_publ_section_title
;
Structure prediction by ZEFSAII (Michael W. Deem and Ramdas Pophale) SiO2 
 PCOD8082867
Probable space group: C 2/M
;
_chemical_formula_sum "Si O2"
_cell_formula_units_Z 48
_cell_length_a 28.202338
_cell_length_b 8.873336
_cell_length_c 12.042579
_cell_angle_alpha 90.000000
_cell_angle_beta 110.199188
_cell_angle_gamma 90.000000
_cell_volume 2828.295984
_symmetry_space_group_name_H-M "C 2/M"
_symmetry_group_IT_number 12
_symmetry_cell_setting 'monoclinic'
loop_
_space_group_symop_operation_xyz
x,y,z
-x,y,-z
-x,-y,-z
x,-y,z
1/2+x,1/2+y,z
1/2-x,1/2+y,-z
1/2-x,1/2-y,-z
1/2+x,1/2-y,z
loop_
_atom_site_type_symbol
_atom_site_label
_atom_site_fract_x
_atom_site_fract_y
_atom_site_fract_z
Si Si1 0.824342 0.826264 0.549693
Si Si2 0.743631 0.174974 0.670994
Si Si3 0.481789 0.830007 0.111112
Si Si4 0.921576 0.825668 0.756796
Si Si5 0.615256 0.676789 0.029758
Si Si6 0.721593 0.178491 0.079750
O O1 0.790983 0.788471 0.630590
O O2 0.807928 0.723190 0.433014
O O3 0.882508 0.790260 0.625993
O O4 0.816876 0.000000 0.510342
O O5 0.749453 0.271517 0.786086
O O6 0.741121 0.000000 0.700838
O O7 0.527139 0.766862 0.224363
O O8 0.469511 0.000000 0.137487
O O9 0.500000 0.820258 0.000000
O O10 0.431625 0.729352 0.084965
O O11 0.895434 0.779916 0.851404
O O12 0.936534 0.000000 0.773082
O O13 0.624536 0.500000 0.021837
O O14 0.664245 0.765645 0.030717
O O15 0.722686 0.000000 0.071460
O O16 0.750000 0.250000 0.000000
#
# Coordination Sequence:
#
# PCOD8082867 Si02
#       6
#     8   8   8   8   8   8
#     4   9  17  30  48  72 101 133 165 200 246 297
#     4  10  19  33  49  71  99 130 167 205 247 295
#     4   9  17  27  41  67  98 128 163 200 242 294
#     4   9  16  28  46  69  99 133 164 197 243 296
#     4  10  18  32  49  68  96 130 165 204 248 293
#     4  12  24  37  53  72  97 131 170 210 250 293
#
# _framework density 16.971350000000001
#
# number of rings (size 3 to 8) (size 9 to 14) (size 15 to 20)
#    0.000    2.167    1.667    3.000    0.000    4.000 
#    0.000    0.000    0.000    0.000    0.000    1.167 
#    0.000    9.333    0.000    0.000    0.000    0.000 
#
# Total GULP energy -297620.239790 kJ/mol
# GULP energy per Si atom -12400.843325 kJ/mol
# Density = 1.693272 g / cm^3
# Si number density = 16.971350 Si / 1000 Ang^3
#
#
#
# Elastic Constant Matrix: (Units=GPa)
#
#
# Indices 1 2 3 4 5 6 
#
# 1 84.3002 53.4626 56.1945 0.0000 21.0012 0.0000
# 2 53.4626 111.3185 47.5584 0.0000 6.9077 0.0000
# 3 56.1945 47.5584 75.6917 0.0000 17.7591 0.0000
# 4 0.0000 0.0000 0.0000 27.0857 0.0000 7.5579
# 5 21.0012 6.9077 17.7591 0.0000 26.1180 0.0000
# 6 0.0000 0.0000 0.0000 7.5579 0.0000 30.5162
#
#
#
# Elastic Compliance Matrix: (Units=1/GPa)
#
#
# Indices 1 2 3 4 5 6 
#
# 1 0.028573 -0.006971 -0.014129 0.000000 -0.011524 0.000000
# 2 -0.006971 0.014106 -0.004911 0.000000 0.005214 0.000000
# 3 -0.014129 -0.004911 0.028337 0.000000 -0.006608 0.000000
# 4 0.000000 0.000000 0.000000 0.039661 0.000000 -0.009823
# 5 -0.011524 0.005214 -0.006608 0.000000 0.050669 0.000000
# 6 0.000000 0.000000 0.000000 -0.009823 0.000000 0.035202
#
#
# Mechanical properties :
#
#
# Convention : Reuss Voigt Hill
#
# Bulk Modulus (GPa) = 52.64822 65.08237 58.86530
# Shear Modulus (GPa) = 19.61563 24.35033 21.98298
#
# Velocity S-wave (km/s) = 3.40341 3.79197 3.60293
# Velocity P-wave (km/s) = 6.82154 7.58971 7.21585
#
# Compressibility (1/GPa) = 0.01899399
#
# Stress axis : x y z
#
# Youngs Moduli (GPa) = 34.99859 70.89339 35.29004
#
# Poissons Ratio (x) = 0.49421 0.49860
# Poissons Ratio (y) = 0.24398 0.17330
# Poissons Ratio (z) = 0.49448 0.34813
#
# Static dielectric constant tensor:
#      x y z
#    x 3.145100 0.000000 0.335650 
#    y 0.000000 3.261080 0.000000 
#    z 0.335650 0.000000 3.061230 
# 
# 
# High freq. dielectric constant tensor:
#      x y z
#    x 1.636690 0.000000 0.039360 
#    y 0.000000 1.666070 0.000000 
#    z 0.039360 0.000000 1.625680 
# 
# From -- ./inp_files/172135.got.cif
#   From: 2010.06.25/outbox.cif.g09.slc.cpg/sg12_87_cif.got.tgz:172135.got - 2010.06.28 00:19:55.
