data_PCOD8082832
_publ_section_title
;
Structure prediction by ZEFSAII (Michael W. Deem and Ramdas Pophale) SiO2 
 PCOD8082832
Probable space group: C 2/M
;
_chemical_formula_sum "Si O2"
_cell_formula_units_Z 64
_cell_length_a 17.301575
_cell_length_b 16.930657
_cell_length_c 11.994251
_cell_angle_alpha 90.000000
_cell_angle_beta 76.285720
_cell_angle_gamma 90.000000
_cell_volume 3413.272378
_symmetry_space_group_name_H-M "C 2/M"
_symmetry_group_IT_number 12
_symmetry_cell_setting 'monoclinic'
loop_
_space_group_symop_operation_xyz
x,y,z
-x,y,-z
-x,-y,-z
x,-y,z
1/2+x,1/2+y,z
1/2-x,1/2+y,-z
1/2-x,1/2-y,-z
1/2+x,1/2-y,z
loop_
_atom_site_type_symbol
_atom_site_label
_atom_site_fract_x
_atom_site_fract_y
_atom_site_fract_z
Si Si1 0.021499 0.587595 0.215977
Si Si2 0.910488 0.208698 0.069534
Si Si3 0.676593 0.408019 0.049376
Si Si4 0.914236 0.587550 0.570169
Si Si5 0.657365 0.836670 0.056039
Si Si6 0.632412 0.288557 0.243980
Si Si7 0.333783 0.761684 0.527850
Si Si8 0.050356 0.253554 0.708915
O O1 0.983639 0.500000 0.211710
O O2 0.083576 0.586300 0.297457
O O3 0.076823 0.611144 0.092461
O O4 0.951911 0.652018 0.261141
O O5 0.906460 0.207578 0.204763
O O6 0.879550 0.126334 0.029431
O O7 0.853005 0.278082 0.044884
O O8 0.000000 0.225732 0.000000
O O9 0.659377 0.500000 0.063547
O O10 0.654913 0.370415 0.176642
O O11 0.768490 0.393441 0.988678
O O12 0.897873 0.500000 0.526330
O O13 0.845511 0.645853 0.552525
O O14 0.000000 0.619465 0.500000
O O15 0.671465 0.783518 0.161661
O O16 0.663026 0.289921 0.360504
O O17 0.537856 0.278529 0.276774
O O18 0.250000 0.750000 0.500000
O O19 0.401798 0.734277 0.419153
#
# Coordination Sequence:
#
# PCOD8082832 Si02
#       8
#     8   8   8   8   8   8   8   8
#     4  10  18  31  58  88 118 153 192 238 294 357
#     4  11  20  38  62  93 115 156 203 254 290 351
#     4  11  24  40  64  90 121 160 199 252 308 353
#     4  10  18  34  59  86 115 151 199 246 290 349
#     4  10  20  36  62  85 125 153 196 238 302 363
#     4  10  20  41  61  85 115 162 205 246 288 363
#     4  12  24  35  60  90 121 160 204 245 300 362
#     4  11  21  37  60  86 121 156 209 244 294 356
#
# _framework density 18.750333999999999
#
# number of rings (size 3 to 8) (size 9 to 14) (size 15 to 20)
#    0.000    1.375    7.500    2.250    3.500    0.250 
#    0.000    2.500    0.000    3.000    0.000    0.000 
#    0.000    0.000    0.000    0.000    0.000    0.000 
#
# Total GULP energy -396766.665036 kJ/mol
# GULP energy per Si atom -12398.958282 kJ/mol
# Density = 1.870766 g / cm^3
# Si number density = 18.750334 Si / 1000 Ang^3
#
#
#
# Elastic Constant Matrix: (Units=GPa)
#
#
# Indices 1 2 3 4 5 6 
#
# 1 78.3364 41.2144 38.3474 0.0000 8.1251 0.0000
# 2 41.2144 122.9976 41.1586 0.0000 5.8521 0.0000
# 3 38.3474 41.1586 117.6424 0.0000 14.0682 0.0000
# 4 0.0000 0.0000 0.0000 19.4721 0.0000 1.4788
# 5 8.1251 5.8521 14.0682 0.0000 31.0739 0.0000
# 6 0.0000 0.0000 0.0000 1.4788 0.0000 23.6159
#
#
#
# Elastic Compliance Matrix: (Units=1/GPa)
#
#
# Indices 1 2 3 4 5 6 
#
# 1 0.017138 -0.004370 -0.003827 0.000000 -0.001925 0.000000
# 2 -0.004370 0.010325 -0.002212 0.000000 0.000199 0.000000
# 3 -0.003827 -0.002212 0.010945 0.000000 -0.003538 0.000000
# 4 0.000000 0.000000 0.000000 0.051601 0.000000 -0.003231
# 5 -0.001925 0.000199 -0.003538 0.000000 0.034249 0.000000
# 6 0.000000 0.000000 0.000000 -0.003231 0.000000 0.042547
#
#
# Mechanical properties :
#
#
# Convention : Reuss Voigt Hill
#
# Bulk Modulus (GPa) = 56.85178 62.26858 59.56018
# Shear Modulus (GPa) = 25.84163 28.04942 26.94553
#
# Velocity S-wave (km/s) = 3.71643 3.87194 3.79498
# Velocity P-wave (km/s) = 6.98585 7.29867 7.14397
#
# Compressibility (1/GPa) = 0.01758960
#
# Stress axis : x y z
#
# Youngs Moduli (GPa) = 58.34993 96.84962 91.36845
#
# Poissons Ratio (x) = 0.42327 0.34968
# Poissons Ratio (y) = 0.25501 0.20208
# Poissons Ratio (z) = 0.22331 0.21420
#
# Static dielectric constant tensor:
#      x y z
#    x 3.301460 0.000000 0.003010 
#    y 0.000000 3.414280 0.000000 
#    z 0.003010 0.000000 3.806340 
# 
# 
# High freq. dielectric constant tensor:
#      x y z
#    x 1.710230 0.000000 -0.004720 
#    y 0.000000 1.706890 0.000000 
#    z -0.004720 0.000000 1.736160 
# 
# From -- ./inp_files/157804.got.cif
#   From: 2010.06.25/outbox.cif.g09.slc.cpg/sg12_79_cif.got.tgz:157804.got - 2010.06.28 00:19:55.
