data_PCOD8082117
_publ_section_title
;
Structure prediction by ZEFSAII (Michael W. Deem and Ramdas Pophale) SiO2 
 PCOD8082117
Probable space group: C 2/M
;
_chemical_formula_sum "Si O2"
_cell_formula_units_Z 56
_cell_length_a 29.819608
_cell_length_b 8.874579
_cell_length_c 15.929515
_cell_angle_alpha 90.000000
_cell_angle_beta 134.184327
_cell_angle_gamma 90.000000
_cell_volume 3022.962398
_symmetry_space_group_name_H-M "C 2/M"
_symmetry_group_IT_number 12
_symmetry_cell_setting 'monoclinic'
loop_
_space_group_symop_operation_xyz
x,y,z
-x,y,-z
-x,-y,-z
x,-y,z
1/2+x,1/2+y,z
1/2-x,1/2+y,-z
1/2-x,1/2-y,-z
1/2+x,1/2-y,z
loop_
_atom_site_type_symbol
_atom_site_label
_atom_site_fract_x
_atom_site_fract_y
_atom_site_fract_z
Si Si1 0.842555 0.177013 0.098831
Si Si2 0.108141 0.820623 0.382823
Si Si3 0.283036 0.678086 0.359281
Si Si4 0.969783 0.822139 0.193710
Si Si5 0.740642 0.321605 0.856991
Si Si6 0.344971 0.176377 0.725804
Si Si7 0.063758 0.828626 0.032959
O O1 0.915950 0.223748 0.190353
O O2 0.815356 0.227952 0.153265
O O3 0.834575 0.000000 0.075038
O O4 0.805857 0.255097 0.974679
O O5 0.153295 0.758901 0.515509
O O6 0.132597 0.767656 0.325102
O O7 0.037939 0.757173 0.308593
O O8 0.109233 0.000000 0.382492
O O9 0.286645 0.500000 0.354837
O O10 0.274894 0.746334 0.255093
O O11 0.225993 0.723569 0.345439
O O12 0.976861 0.000000 0.196181
O O13 0.949172 0.761205 0.076008
O O14 0.747806 0.500000 0.863265
O O15 0.385977 0.219419 0.859725
O O16 0.351280 0.000000 0.715930
O O17 0.089716 0.000000 0.063696
O O18 0.000000 0.823577 0.000000
#
# Coordination Sequence:
#
# PCOD8082117 Si02
#       7
#     8   8   8   8   8   8   8
#     4   9  17  30  51  76  98 121 152 196 240 283
#     4  10  19  35  52  65  92 134 167 194 234 284
#     4   9  19  33  50  70  95 128 163 198 238 284
#     4   9  17  30  49  72  95 122 161 198 231 277
#     4   9  17  32  51  73  99 123 153 193 240 288
#     4  11  21  32  47  72  99 124 160 204 243 278
#     4  10  18  31  49  69  94 128 162 191 231 286
#
# _framework density 18.524875000000002
#
# number of rings (size 3 to 8) (size 9 to 14) (size 15 to 20)
#    0.000    2.429    1.429    1.714    0.000    0.286 
#    0.000    3.571    0.000    4.286    0.000    0.000 
#    0.000    5.714    0.000    0.000    0.000    0.000 
#
# Total GULP energy -347117.526367 kJ/mol
# GULP energy per Si atom -12397.054513 kJ/mol
# Density = 1.848271 g / cm^3
# Si number density = 18.524875 Si / 1000 Ang^3
#
#
#
# Elastic Constant Matrix: (Units=GPa)
#
#
# Indices 1 2 3 4 5 6 
#
# 1 119.3075 13.7140 64.4470 0.0000 20.5964 0.0000
# 2 13.7140 14.9050 15.0550 0.0000 4.4081 0.0000
# 3 64.4470 15.0550 126.8636 0.0000 22.8050 0.0000
# 4 0.0000 0.0000 0.0000 13.0987 0.0000 -3.9625
# 5 20.5964 4.4081 22.8050 0.0000 23.8593 0.0000
# 6 0.0000 0.0000 0.0000 -3.9625 0.0000 15.2271
#
#
#
# Elastic Compliance Matrix: (Units=1/GPa)
#
#
# Indices 1 2 3 4 5 6 
#
# 1 0.012453 -0.005078 -0.004781 0.000000 -0.005242 0.000000
# 2 -0.005078 0.079161 -0.006005 0.000000 -0.004502 0.000000
# 3 -0.004781 -0.006005 0.012174 0.000000 -0.006400 0.000000
# 4 0.000000 0.000000 0.000000 0.082867 0.000000 0.021564
# 5 -0.005242 -0.004502 -0.006400 0.000000 0.053386 0.000000
# 6 0.000000 0.000000 0.000000 0.021564 0.000000 0.071284
#
#
# Mechanical properties :
#
#
# Convention : Reuss Voigt Hill
#
# Bulk Modulus (GPa) = 13.87752 49.72312 31.80032
# Shear Modulus (GPa) = 13.62126 21.62770 17.62448
#
# Velocity S-wave (km/s) = 2.71458 3.42057 3.08782
# Velocity P-wave (km/s) = 4.16327 6.51920 5.46958
#
# Compressibility (1/GPa) = 0.07205898
#
# Stress axis : x y z
#
# Youngs Moduli (GPa) = 80.30141 12.63252 82.13969
#
# Poissons Ratio (x) = 0.06415 0.39273
# Poissons Ratio (y) = 0.40780 0.49325
# Poissons Ratio (z) = 0.38394 0.07586
#
# Static dielectric constant tensor:
#      x y z
#    x 3.649600 0.000000 0.112330 
#    y 0.000000 3.077020 0.000000 
#    z 0.112330 0.000000 3.722810 
# 
# 
# High freq. dielectric constant tensor:
#      x y z
#    x 1.727010 0.000000 0.006680 
#    y 0.000000 1.681800 0.000000 
#    z 0.006680 0.000000 1.716140 
# 
# From -- ./inp_files/237386.got.cif
#   From: 2010.06.25/outbox.cif.g09.slc.cpg/sg12_119_cif.got.tgz:237386.got - 2010.06.28 00:19:55.
