data_PCOD8082361
_publ_section_title
;
Structure prediction by ZEFSAII (Michael W. Deem and Ramdas Pophale) SiO2 
 PCOD8082361
Probable space group: C 2/M
;
_chemical_formula_sum "Si O2"
_cell_formula_units_Z 64
_cell_length_a 20.234409
_cell_length_b 8.732988
_cell_length_c 19.133096
_cell_angle_alpha 90.000000
_cell_angle_beta 92.097486
_cell_angle_gamma 90.000000
_cell_volume 3378.683910
_symmetry_space_group_name_H-M "C 2/M"
_symmetry_group_IT_number 12
_symmetry_cell_setting 'monoclinic'
loop_
_space_group_symop_operation_xyz
x,y,z
-x,y,-z
-x,-y,-z
x,-y,z
1/2+x,1/2+y,z
1/2-x,1/2+y,-z
1/2-x,1/2-y,-z
1/2+x,1/2-y,z
loop_
_atom_site_type_symbol
_atom_site_label
_atom_site_fract_x
_atom_site_fract_y
_atom_site_fract_z
Si Si1 0.435066 0.680486 0.918395
Si Si2 0.986920 0.180297 0.295314
Si Si3 0.381938 0.681637 0.769719
Si Si4 0.296873 0.681015 0.443174
Si Si5 0.376047 0.175543 0.203132
Si Si6 0.244656 0.679844 0.704719
Si Si7 0.946256 0.817597 0.443471
Si Si8 0.923164 0.677362 0.057781
O O1 0.448531 0.500000 0.918731
O O2 0.390154 0.731249 0.850947
O O3 0.504790 0.766083 0.915722
O O4 0.398182 0.729766 0.988625
O O5 0.932312 0.216659 0.235896
O O6 0.965845 0.251625 0.368843
O O7 0.057411 0.248310 0.273726
O O8 0.992971 0.000000 0.302559
O O9 0.380769 0.500000 0.765404
O O10 0.314321 0.746511 0.734745
O O11 0.292143 0.500000 0.447166
O O12 0.250000 0.750000 0.500000
O O13 0.274862 0.732979 0.365950
O O14 0.372210 0.736871 0.460366
O O15 0.306520 0.217145 0.235426
O O16 0.371981 0.205036 0.119568
O O17 0.395517 0.000000 0.219300
O O18 0.248020 0.500000 0.688065
O O19 0.000000 0.752147 0.500000
O O20 0.948582 0.000000 0.442037
O O21 0.927487 0.500000 0.037886
#
# Coordination Sequence:
#
# PCOD8082361 Si02
#       8
#     8   8   8   8   8   8   8   8
#     4  10  18  31  51  78 105 135 182 232 267 307
#     4  10  18  33  57  80 104 135 182 230 262 308
#     4   9  19  33  55  82 106 140 183 227 269 313
#     4  11  23  39  59  83 111 145 181 221 268 323
#     4  10  20  34  54  79 109 144 177 216 271 328
#     4  10  21  39  59  79 109 146 182 219 265 324
#     4   9  19  34  56  83 108 136 177 223 263 309
#     4  10  19  31  49  76 109 144 175 213 276 334
#
# _framework density 18.942287
#
# number of rings (size 3 to 8) (size 9 to 14) (size 15 to 20)
#    0.000    2.125    2.500    1.875    1.750    0.500 
#    0.000    2.500    0.000    1.875    0.000    0.000 
#    0.000    0.000    0.000    0.000    0.000    0.000 
#
# Total GULP energy -396741.215693 kJ/mol
# GULP energy per Si atom -12398.162990 kJ/mol
# Density = 1.889917 g / cm^3
# Si number density = 18.942287 Si / 1000 Ang^3
#
#
#
# Elastic Constant Matrix: (Units=GPa)
#
#
# Indices 1 2 3 4 5 6 
#
# 1 150.4388 24.5767 80.0140 0.0000 -3.3632 0.0000
# 2 24.5767 31.6946 26.7030 0.0000 -2.1685 0.0000
# 3 80.0140 26.7030 149.7262 0.0000 -14.7785 0.0000
# 4 0.0000 0.0000 0.0000 27.2739 0.0000 -2.5414
# 5 -3.3632 -2.1685 -14.7785 0.0000 37.0636 0.0000
# 6 0.0000 0.0000 0.0000 -2.5414 0.0000 18.3079
#
#
#
# Elastic Compliance Matrix: (Units=1/GPa)
#
#
# Indices 1 2 3 4 5 6 
#
# 1 0.009690 -0.003688 -0.004638 0.000000 -0.001186 0.000000
# 2 -0.003688 0.038542 -0.004907 0.000000 -0.000036 0.000000
# 3 -0.004638 -0.004907 0.010371 0.000000 0.003427 0.000000
# 4 0.000000 0.000000 0.000000 0.037146 0.000000 0.005156
# 5 -0.001186 -0.000036 0.003427 0.000000 0.028238 0.000000
# 6 0.000000 0.000000 0.000000 0.005156 0.000000 0.055337
#
#
# Mechanical properties :
#
#
# Convention : Reuss Voigt Hill
#
# Bulk Modulus (GPa) = 31.11524 66.04968 48.58246
# Shear Modulus (GPa) = 23.09480 29.90012 26.49746
#
# Velocity S-wave (km/s) = 3.49552 3.97733 3.74418
# Velocity P-wave (km/s) = 5.72307 7.48577 6.66297
#
# Compressibility (1/GPa) = 0.03213859
#
# Stress axis : x y z
#
# Youngs Moduli (GPa) = 103.20200 25.94571 96.42672
#
# Poissons Ratio (x) = 0.09568 0.44719
# Poissons Ratio (y) = 0.38056 0.47314
# Poissons Ratio (z) = 0.47861 0.12731
#
# Static dielectric constant tensor:
#      x y z
#    x 3.622990 0.000000 -0.122850 
#    y 0.000000 3.234710 0.000000 
#    z -0.122850 0.000000 3.831880 
# 
# 
# High freq. dielectric constant tensor:
#      x y z
#    x 1.725850 0.000000 -0.010000 
#    y 0.000000 1.710810 0.000000 
#    z -0.010000 0.000000 1.752810 
# 
# From -- ./inp_files/314147.got.cif
#   From: 2010.06.25/outbox.cif.g09.slc.cpg/sg12_158_cif.got.tgz:314147.got - 2010.06.28 00:19:55.
