data_PCOD8082255
_publ_section_title
;
Structure prediction by ZEFSAII (Michael W. Deem and Ramdas Pophale) SiO2 
 PCOD8082255
Probable space group: C 2/M
;
_chemical_formula_sum "Si O2"
_cell_formula_units_Z 48
_cell_length_a 24.863210
_cell_length_b 9.313966
_cell_length_c 11.141506
_cell_angle_alpha 90.000000
_cell_angle_beta 101.491299
_cell_angle_gamma 90.000000
_cell_volume 2528.377195
_symmetry_space_group_name_H-M "C 2/M"
_symmetry_group_IT_number 12
_symmetry_cell_setting 'monoclinic'
loop_
_space_group_symop_operation_xyz
x,y,z
-x,y,-z
-x,-y,-z
x,-y,z
1/2+x,1/2+y,z
1/2-x,1/2+y,-z
1/2-x,1/2-y,-z
1/2+x,1/2-y,z
loop_
_atom_site_type_symbol
_atom_site_label
_atom_site_fract_x
_atom_site_fract_y
_atom_site_fract_z
Si Si1 0.195337 0.838664 0.478773
Si Si2 0.018982 0.169312 0.640381
Si Si3 0.855249 0.164149 0.289474
Si Si4 0.847146 0.832523 0.785689
Si Si5 0.966964 0.828326 0.868282
Si Si6 0.759756 0.328631 0.126074
O O1 0.250000 0.750000 0.500000
O O2 0.159638 0.818950 0.579450
O O3 0.154039 0.793548 0.355015
O O4 0.215772 0.000000 0.468267
O O5 0.081886 0.210336 0.694430
O O6 0.000000 0.232652 0.500000
O O7 0.987504 0.228993 0.745981
O O8 0.010429 0.000000 0.629408
O O9 0.817996 0.274449 0.200199
O O10 0.845956 0.000000 0.240388
O O11 0.904596 0.770743 0.861682
O O12 0.791153 0.770617 0.817071
O O13 0.847393 0.000000 0.812131
O O14 0.969938 0.000000 0.866605
O O15 0.000000 0.770164 0.000000
O O16 0.761627 0.500000 0.114483
O O17 0.750000 0.250000 0.000000
#
# Coordination Sequence:
#
# PCOD8082255 Si02
#       6
#     8   8   8   8   8   8
#     4  10  18  31  50  76 108 137 169 209 259 316
#     4   9  17  30  49  76 109 141 175 221 274 320
#     4  10  20  33  55  83 111 139 176 223 271 325
#     4   9  18  32  50  74 107 139 170 215 268 320
#     4   9  17  28  46  72 101 134 173 217 266 315
#     4  11  23  37  54  77 109 144 181 221 269 323
#
# _framework density 18.98451
#
# number of rings (size 3 to 8) (size 9 to 14) (size 15 to 20)
#    0.000    2.333    1.667    1.500    2.333    4.000 
#    0.000    0.000    0.000    0.500    0.000    4.667 
#    0.000    0.000    0.000    0.000    0.000    0.000 
#
# Total GULP energy -297341.406604 kJ/mol
# GULP energy per Si atom -12389.225275 kJ/mol
# Density = 1.894130 g / cm^3
# Si number density = 18.984510 Si / 1000 Ang^3
#
#
#
# Elastic Constant Matrix: (Units=GPa)
#
#
# Indices 1 2 3 4 5 6 
#
# 1 114.1278 25.3360 45.1834 0.0000 7.7766 0.0000
# 2 25.3360 40.5669 32.8003 0.0000 3.8611 0.0000
# 3 45.1834 32.8003 137.8218 0.0000 4.9229 0.0000
# 4 0.0000 0.0000 0.0000 20.9903 0.0000 4.3124
# 5 7.7766 3.8611 4.9229 0.0000 26.7558 0.0000
# 6 0.0000 0.0000 0.0000 4.3124 0.0000 20.8746
#
#
#
# Elastic Compliance Matrix: (Units=1/GPa)
#
#
# Indices 1 2 3 4 5 6 
#
# 1 0.010883 -0.004676 -0.002382 0.000000 -0.002050 0.000000
# 2 -0.004676 0.032789 -0.006191 0.000000 -0.002234 0.000000
# 3 -0.002382 -0.006191 0.009516 0.000000 -0.000165 0.000000
# 4 0.000000 0.000000 0.000000 0.049753 0.000000 -0.010278
# 5 -0.002050 -0.002234 -0.000165 0.000000 0.038324 0.000000
# 6 0.000000 0.000000 0.000000 -0.010278 0.000000 0.050028
#
#
# Mechanical properties :
#
#
# Convention : Reuss Voigt Hill
#
# Bulk Modulus (GPa) = 37.46606 55.46178 46.46392
# Shear Modulus (GPa) = 22.05690 26.33725 24.19708
#
# Velocity S-wave (km/s) = 3.41227 3.72869 3.57398
# Velocity P-wave (km/s) = 5.94161 6.91485 6.44662
#
# Compressibility (1/GPa) = 0.02669082
#
# Stress axis : x y z
#
# Youngs Moduli (GPa) = 91.88821 30.49788 105.08810
#
# Poissons Ratio (x) = 0.14261 0.25029
# Poissons Ratio (y) = 0.42966 0.65058
# Poissons Ratio (z) = 0.21885 0.18881
#
# Static dielectric constant tensor:
#      x y z
#    x 3.666850 0.000000 -0.175610 
#    y 0.000000 2.981020 0.000000 
#    z -0.175610 0.000000 3.782990 
# 
# 
# High freq. dielectric constant tensor:
#      x y z
#    x 1.753690 0.000000 0.001550 
#    y 0.000000 1.669870 0.000000 
#    z 0.001550 0.000000 1.756100 
# 
# From -- ./inp_files/163997.got.cif
#   From: 2010.06.25/outbox.cif.g09.slc.cpg/sg12_82_cif.got.tgz:163997.got - 2010.06.28 00:19:55.
