data_PCOD8082481
_publ_section_title
;
Structure prediction by ZEFSAII (Michael W. Deem and Ramdas Pophale) SiO2 
 PCOD8082481
Probable space group: C 2/M
;
_chemical_formula_sum "Si O2"
_cell_formula_units_Z 64
_cell_length_a 19.351870
_cell_length_b 12.596192
_cell_length_c 16.035830
_cell_angle_alpha 90.000000
_cell_angle_beta 108.311455
_cell_angle_gamma 90.000000
_cell_volume 3710.956042
_symmetry_space_group_name_H-M "C 2/M"
_symmetry_group_IT_number 12
_symmetry_cell_setting 'monoclinic'
loop_
_space_group_symop_operation_xyz
x,y,z
-x,y,-z
-x,-y,-z
x,-y,z
1/2+x,1/2+y,z
1/2-x,1/2+y,-z
1/2-x,1/2-y,-z
1/2+x,1/2-y,z
loop_
_atom_site_type_symbol
_atom_site_label
_atom_site_fract_x
_atom_site_fract_y
_atom_site_fract_z
Si Si1 0.406411 0.877051 0.168809
Si Si2 0.234005 0.623621 0.593843
Si Si3 0.646196 0.746567 0.437202
Si Si4 0.170649 0.747023 0.716763
Si Si5 0.435631 0.880870 0.708943
Si Si6 0.919796 0.875336 0.442169
Si Si7 0.080431 0.625346 0.014039
Si Si8 0.815749 0.378349 0.803252
O O1 0.357247 0.803677 0.208296
O O2 0.491484 0.852807 0.214160
O O3 0.390394 0.846877 0.067005
O O4 0.388245 0.000000 0.179861
O O5 0.250438 0.500000 0.599999
O O6 0.309562 0.688761 0.620081
O O7 0.190457 0.655223 0.493692
O O8 0.189449 0.652768 0.659873
O O9 0.573322 0.797712 0.370409
O O10 0.632299 0.658184 0.502003
O O11 0.106406 0.818716 0.652627
O O12 0.241436 0.815564 0.763024
O O13 0.365558 0.870016 0.740768
O O14 0.441085 0.000000 0.674733
O O15 0.000000 0.838894 0.500000
O O16 0.914829 0.000000 0.425246
O O17 0.074300 0.500000 0.025921
O O18 0.139078 0.671157 0.101918
O O19 0.000000 0.674753 0.000000
O O20 0.794441 0.500000 0.812919
#
# Coordination Sequence:
#
# PCOD8082481 Si02
#       8
#     8   8   8   8   8   8   8   8
#     4  10  20  33  53  78 106 137 167 206 258 315
#     4  10  20  32  46  68 101 135 166 204 255 307
#     4  10  19  32  49  72  96 132 172 212 251 298
#     4  11  21  34  50  76 106 136 169 214 259 305
#     4  10  18  31  52  78 103 131 171 214 257 305
#     4  10  21  36  52  70  99 137 177 218 256 298
#     4   9  16  31  53  78 105 132 164 206 259 311
#     4  10  19  32  53  78 104 132 169 216 259 302
#
# _framework density 17.246229
#
# number of rings (size 3 to 8) (size 9 to 14) (size 15 to 20)
#    0.000    2.000    2.500    2.250    0.000    0.500 
#    0.000    0.000    0.000    6.000    0.000    0.000 
#    0.000    5.000    0.000    0.000    0.000    0.000 
#
# Total GULP energy -396764.080323 kJ/mol
# GULP energy per Si atom -12398.877510 kJ/mol
# Density = 1.720698 g / cm^3
# Si number density = 17.246229 Si / 1000 Ang^3
#
#
#
# Elastic Constant Matrix: (Units=GPa)
#
#
# Indices 1 2 3 4 5 6 
#
# 1 74.8949 27.9205 25.1817 0.0000 3.2412 0.0000
# 2 27.9205 67.4159 36.9916 0.0000 2.7882 0.0000
# 3 25.1817 36.9916 83.1150 0.0000 6.0644 0.0000
# 4 0.0000 0.0000 0.0000 21.0057 0.0000 -2.1761
# 5 3.2412 2.7882 6.0644 0.0000 31.1007 0.0000
# 6 0.0000 0.0000 0.0000 -2.1761 0.0000 21.0863
#
#
#
# Elastic Compliance Matrix: (Units=1/GPa)
#
#
# Indices 1 2 3 4 5 6 
#
# 1 0.016202 -0.005313 -0.002491 0.000000 -0.000726 0.000000
# 2 -0.005313 0.021369 -0.007914 0.000000 0.000181 0.000000
# 3 -0.002491 -0.007914 0.016472 0.000000 -0.002243 0.000000
# 4 0.000000 0.000000 0.000000 0.048120 0.000000 0.004966
# 5 -0.000726 0.000181 -0.002243 0.000000 0.032650 0.000000
# 6 0.000000 0.000000 0.000000 0.004966 0.000000 0.047937
#
#
# Mechanical properties :
#
#
# Convention : Reuss Voigt Hill
#
# Bulk Modulus (GPa) = 44.23532 45.06816 44.65174
# Shear Modulus (GPa) = 22.55080 23.66068 23.10574
#
# Velocity S-wave (km/s) = 3.61997 3.70798 3.66424
# Velocity P-wave (km/s) = 6.57093 6.67241 6.62187
#
# Compressibility (1/GPa) = 0.02260637
#
# Stress axis : x y z
#
# Youngs Moduli (GPa) = 61.72180 46.79742 60.70872
#
# Poissons Ratio (x) = 0.24864 0.15123
# Poissons Ratio (y) = 0.32794 0.48045
# Poissons Ratio (z) = 0.15375 0.37035
#
# Static dielectric constant tensor:
#      x y z
#    x 3.177240 0.000000 0.083700 
#    y 0.000000 2.971780 0.000000 
#    z 0.083700 0.000000 3.308190 
# 
# 
# High freq. dielectric constant tensor:
#      x y z
#    x 1.664630 0.000000 0.003960 
#    y 0.000000 1.643520 0.000000 
#    z 0.003960 0.000000 1.668460 
# 
# From -- ./inp_files/232500.got.cif
#   From: 2010.06.25/outbox.cif.g09.slc.cpg/sg12_117_cif.got.tgz:232500.got - 2010.06.28 00:19:55.
