data_PCOD8082726
_publ_section_title
;
Structure prediction by ZEFSAII (Michael W. Deem and Ramdas Pophale) SiO2 
 PCOD8082726
Probable space group: C 2/M
;
_chemical_formula_sum "Si O2"
_cell_formula_units_Z 64
_cell_length_a 28.201640
_cell_length_b 16.550975
_cell_length_c 20.305771
_cell_angle_alpha 90.000000
_cell_angle_beta 21.382190
_cell_angle_gamma 90.000000
_cell_volume 3455.564728
_symmetry_space_group_name_H-M "C 2/M"
_symmetry_group_IT_number 12
_symmetry_cell_setting 'monoclinic'
loop_
_space_group_symop_operation_xyz
x,y,z
-x,y,-z
-x,-y,-z
x,-y,z
1/2+x,1/2+y,z
1/2-x,1/2+y,-z
1/2-x,1/2-y,-z
1/2+x,1/2-y,z
loop_
_atom_site_type_symbol
_atom_site_label
_atom_site_fract_x
_atom_site_fract_y
_atom_site_fract_z
Si Si1 0.948685 0.267746 0.439063
Si Si2 0.777925 0.772766 0.166957
Si Si3 0.260587 0.700509 0.382730
Si Si4 0.289372 0.295351 0.884489
Si Si5 0.367050 0.088602 0.361609
Si Si6 0.138851 0.091350 0.854842
Si Si7 0.917958 0.590573 0.804988
Si Si8 0.988549 0.325662 0.087716
O O1 0.861400 0.272957 0.617176
O O2 0.861208 0.245674 0.486958
O O3 0.053281 0.196153 0.318325
O O4 0.032393 0.350284 0.317727
O O5 0.758255 0.759649 0.115209
O O6 0.852110 0.857107 0.088901
O O7 0.867405 0.699586 0.077047
O O8 0.236590 0.659242 0.485336
O O9 0.261318 0.628638 0.327212
O O10 0.395045 0.747542 0.209825
O O11 0.250000 0.250000 0.000000
O O12 0.215727 0.381154 0.985515
O O13 0.476214 0.090459 0.275038
O O14 0.429136 0.105635 0.210508
O O15 0.300208 0.000000 0.445071
O O16 0.179213 0.000000 0.819199
O O17 0.000000 0.095976 0.000000
O O18 0.897138 0.500000 0.803611
O O19 0.000000 0.362062 0.000000
#
# Coordination Sequence:
#
# PCOD8082726 Si02
#       8
#     8   8   8   8   8   8   8   8
#     4   9  19  32  56  83 105 141 180 230 272 325
#     4  11  19  35  54  81 115 146 184 225 272 330
#     4  10  18  35  55  83 112 146 187 227 274 335
#     4  10  20  36  57  81 106 143 191 232 273 322
#     4  10  21  34  53  80 111 147 187 232 275 324
#     4  10  18  31  54  84 118 149 177 220 281 345
#     4   9  18  35  58  82 108 142 185 230 275 327
#     4  12  20  35  56  84 111 148 183 228 276 333
#
# _framework density 18.520852000000001
#
# number of rings (size 3 to 8) (size 9 to 14) (size 15 to 20)
#    0.000    1.875    5.000    1.125    0.000    3.250 
#    0.000    2.500    0.000    9.000    0.000    0.000 
#    0.000    0.000    0.000    0.000    0.000    0.000 
#
# Total GULP energy -396505.770678 kJ/mol
# GULP energy per Si atom -12390.805334 kJ/mol
# Density = 1.847870 g / cm^3
# Si number density = 18.520852 Si / 1000 Ang^3
#
#
#
# Elastic Constant Matrix: (Units=GPa)
#
#
# Indices 1 2 3 4 5 6 
#
# 1 83.8507 10.9414 33.8974 0.0006 14.4628 -0.0005
# 2 10.9414 46.8704 25.7600 0.0000 3.3732 -0.0001
# 3 33.8974 25.7600 87.6714 0.0001 0.0642 -0.0005
# 4 0.0006 0.0000 0.0001 25.4267 -0.0008 5.4007
# 5 14.4628 3.3732 0.0642 -0.0008 33.8515 0.0007
# 6 -0.0005 -0.0001 -0.0005 5.4007 0.0007 22.0569
#
#
#
# Elastic Compliance Matrix: (Units=1/GPa)
#
#
# Indices 1 2 3 4 5 6 
#
# 1 0.015484 0.000178 -0.006034 -0.000001 -0.006622 0.000001
# 2 0.000178 0.025663 -0.007608 0.000000 -0.002619 0.000000
# 3 -0.006034 -0.007608 0.015972 0.000000 0.003306 0.000000
# 4 -0.000001 0.000000 0.000000 0.041486 0.000001 -0.010158
# 5 -0.006622 -0.002619 0.003306 0.000001 0.032625 -0.000001
# 6 0.000001 0.000000 0.000000 -0.010158 -0.000001 0.047824
#
#
# Mechanical properties :
#
#
# Convention : Reuss Voigt Hill
#
# Bulk Modulus (GPa) = 33.12055 39.95447 36.53751
# Shear Modulus (GPa) = 23.14313 26.11996 24.63154
#
# Velocity S-wave (km/s) = 3.53876 3.75947 3.65078
# Velocity P-wave (km/s) = 5.88377 6.36116 6.12712
#
# Compressibility (1/GPa) = 0.03019273
#
# Stress axis : x y z
#
# Youngs Moduli (GPa) = 64.58152 38.96601 62.60845
#
# Poissons Ratio (x) = -0.00695 0.37781
# Poissons Ratio (y) = -0.01152 0.47630
# Poissons Ratio (z) = 0.38971 0.29644
#
# Static dielectric constant tensor:
#      x y z
#    x 3.467740 0.000000 -0.134710 
#    y 0.000000 3.236920 0.000000 
#    z -0.134710 0.000000 3.970830 
# 
# 
# High freq. dielectric constant tensor:
#      x y z
#    x 1.708840 0.000000 0.000170 
#    y 0.000000 1.684910 0.000000 
#    z 0.000170 0.000000 1.729520 
# 
# From -- ./inp_files/330484.got.cif
#   From: 2010.06.25/outbox.cif.g09.slc.cpg/sg12_166_cif.got.tgz:330484.got - 2010.06.28 00:19:55.
