data_PCOD8082161
_publ_section_title
;
Structure prediction by ZEFSAII (Michael W. Deem and Ramdas Pophale) SiO2 
 PCOD8082161
Probable space group: C 2/M
;
_chemical_formula_sum "Si O2"
_cell_formula_units_Z 48
_cell_length_a 4.892011
_cell_length_b 30.350278
_cell_length_c 15.420986
_cell_angle_alpha 90.000000
_cell_angle_beta 85.997254
_cell_angle_gamma 90.000000
_cell_volume 2284.028797
_symmetry_space_group_name_H-M "C 2/M"
_symmetry_group_IT_number 12
_symmetry_cell_setting 'monoclinic'
loop_
_space_group_symop_operation_xyz
x,y,z
-x,y,-z
-x,-y,-z
x,-y,z
1/2+x,1/2+y,z
1/2-x,1/2+y,-z
1/2-x,1/2-y,-z
1/2+x,1/2-y,z
loop_
_atom_site_type_symbol
_atom_site_label
_atom_site_fract_x
_atom_site_fract_y
_atom_site_fract_z
Si Si1 0.238761 0.416827 0.946875
Si Si2 0.019216 0.720485 0.596595
Si Si3 0.438554 0.780197 0.098365
Si Si4 0.037222 0.500000 0.122845
Si Si5 0.008069 0.902382 0.759528
Si Si6 0.029611 0.653611 0.744236
Si Si7 0.026398 0.000000 0.233903
O O1 0.040737 0.457952 0.930668
O O2 0.355072 0.397550 0.855611
O O3 0.500000 0.428375 0.000000
O O4 0.000000 0.386447 0.000000
O O5 0.824568 0.763023 0.610083
O O6 0.932799 0.683902 0.667318
O O7 0.000000 0.700461 0.500000
O O8 0.633213 0.738709 0.114053
O O9 0.462414 0.819193 0.166801
O O10 0.500000 0.798341 0.000000
O O11 0.851670 0.500000 0.213451
O O12 0.357277 0.500000 0.145802
O O13 0.816545 0.869434 0.708123
O O14 0.314317 0.885567 0.761120
O O15 0.034176 0.952525 0.719529
#
# Coordination Sequence:
#
# PCOD8082161 Si02
#       7
#     8   8   8   4   8   8   4
#     4  11  20  32  47  68 100 140 191 248 298 337
#     4  10  21  39  65  96 126 151 175 219 291 362
#     4  10  21  37  55  77 109 150 188 224 270 326
#     4  10  18  31  50  68  90 136 193 248 303 346
#     4  11  24  36  53  79 109 151 197 241 292 336
#     4  12  22  37  59  87 115 148 193 239 281 339
#     4  10  20  39  52  70 109 148 194 246 294 350
#
# _framework density 21.015495999999999
#
# number of rings (size 3 to 8) (size 9 to 14) (size 15 to 20)
#    0.000    1.333    0.000    8.500    0.000    2.000 
#    0.000    0.000    0.000    0.000    0.000    3.500 
#    0.000    0.000    0.000    0.000    0.000    0.000 
#
# Total GULP energy -297328.863352 kJ/mol
# GULP energy per Si atom -12388.702640 kJ/mol
# Density = 2.096766 g / cm^3
# Si number density = 21.015496 Si / 1000 Ang^3
#
#
#
# Elastic Constant Matrix: (Units=GPa)
#
#
# Indices 1 2 3 4 5 6 
#
# 1 83.0415 16.2879 13.8951 0.0000 6.4157 0.0000
# 2 16.2879 114.6186 44.4667 0.0000 6.8286 0.0000
# 3 13.8951 44.4667 74.0850 0.0000 4.4746 0.0000
# 4 0.0000 0.0000 0.0000 15.2374 0.0000 -7.4185
# 5 6.4157 6.8286 4.4746 0.0000 22.5878 0.0000
# 6 0.0000 0.0000 0.0000 -7.4185 0.0000 27.7714
#
#
#
# Elastic Compliance Matrix: (Units=1/GPa)
#
#
# Indices 1 2 3 4 5 6 
#
# 1 0.012740 -0.001010 -0.001602 0.000000 -0.002996 0.000000
# 2 -0.001010 0.011553 -0.006631 0.000000 -0.001892 0.000000
# 3 -0.001602 -0.006631 0.017843 0.000000 -0.001075 0.000000
# 4 0.000000 0.000000 0.000000 0.075439 0.000000 0.020152
# 5 -0.002996 -0.001892 -0.001075 0.000000 0.045908 0.000000
# 6 0.000000 0.000000 0.000000 0.020152 0.000000 0.041391
#
#
# Mechanical properties :
#
#
# Convention : Reuss Voigt Hill
#
# Bulk Modulus (GPa) = 42.28294 46.78271 44.53282
# Shear Modulus (GPa) = 21.62217 26.25900 23.94058
#
# Velocity S-wave (km/s) = 3.21108 3.53867 3.37885
# Velocity P-wave (km/s) = 5.82337 6.24545 6.03810
#
# Compressibility (1/GPa) = 0.02365020
#
# Stress axis : x y z
#
# Youngs Moduli (GPa) = 78.49376 86.55552 56.04376
#
# Poissons Ratio (x) = 0.08746 0.08979
# Poissons Ratio (y) = 0.07931 0.37160
# Poissons Ratio (z) = 0.12575 0.57392
#
# Static dielectric constant tensor:
#      x y z
#    x 4.128950 0.000000 0.012330 
#    y 0.000000 3.738690 0.000000 
#    z 0.012330 0.000000 3.481420 
# 
# 
# High freq. dielectric constant tensor:
#      x y z
#    x 1.852380 0.000000 0.002650 
#    y 0.000000 1.821710 0.000000 
#    z 0.002650 0.000000 1.769050 
# 
# From -- ./inp_files/192089.got.cif
#   From: 2010.06.25/outbox.cif.g09.slc.cpg/sg12_97_cif.got.tgz:192089.got - 2010.06.28 00:19:55.
