data_PCOD8082431
_publ_section_title
;
Structure prediction by ZEFSAII (Michael W. Deem and Ramdas Pophale) SiO2 
 PCOD8082431
Probable space group: C 2/M
;
_chemical_formula_sum "Si O2"
_cell_formula_units_Z 64
_cell_length_a 16.322295
_cell_length_b 13.473957
_cell_length_c 14.919167
_cell_angle_alpha 90.000000
_cell_angle_beta 110.131148
_cell_angle_gamma 90.000000
_cell_volume 3080.659259
_symmetry_space_group_name_H-M "C 2/M"
_symmetry_group_IT_number 12
_symmetry_cell_setting 'monoclinic'
loop_
_space_group_symop_operation_xyz
x,y,z
-x,y,-z
-x,-y,-z
x,-y,z
1/2+x,1/2+y,z
1/2-x,1/2+y,-z
1/2-x,1/2-y,-z
1/2+x,1/2-y,z
loop_
_atom_site_type_symbol
_atom_site_label
_atom_site_fract_x
_atom_site_fract_y
_atom_site_fract_z
Si Si1 0.369595 0.759454 0.880237
Si Si2 0.401220 0.753218 0.187173
Si Si3 0.797198 0.608796 0.600455
Si Si4 0.899719 0.382361 0.465074
Si Si5 0.402998 0.610072 0.035590
Si Si6 0.212367 0.747685 0.695762
Si Si7 0.800944 0.388686 0.012095
Si Si8 0.042134 0.608974 0.216073
O O1 0.306173 0.720349 0.775652
O O2 0.445396 0.832514 0.873006
O O3 0.419699 0.667375 0.947229
O O4 0.312251 0.822788 0.927883
O O5 0.439535 0.667469 0.136723
O O6 0.348583 0.703983 0.249695
O O7 0.343182 0.832609 0.111361
O O8 0.480732 0.821101 0.254556
O O9 0.756879 0.500000 0.561768
O O10 0.848062 0.654747 0.534545
O O11 0.722273 0.679851 0.613123
O O12 0.864830 0.594258 0.705457
O O13 0.904182 0.500000 0.466089
O O14 0.841064 0.348094 0.358759
O O15 0.000000 0.340910 0.500000
O O16 0.444436 0.500000 0.046466
O O17 0.300108 0.604065 0.007251
O O18 0.839803 0.500000 0.014712
O O19 0.000170 0.500000 0.183747
#
# Coordination Sequence:
#
# PCOD8082431 Si02
#       8
#     8   8   8   8   8   8   8   8
#     4  10  19  36  51  80 108 143 190 228 269 320
#     4  11  20  34  50  82 109 143 189 228 271 324
#     4   9  20  38  57  83 112 141 178 219 269 328
#     4  10  21  37  58  86 116 141 170 217 277 332
#     4  10  20  34  51  71 106 150 190 231 270 312
#     4  11  20  33  58  81 109 143 183 219 264 320
#     4  10  18  31  52  75 110 144 183 233 276 317
#     4  10  21  35  56  81 112 142 175 230 284 325
#
# _framework density 20.774774000000001
#
# number of rings (size 3 to 8) (size 9 to 14) (size 15 to 20)
#    0.000    1.875    2.500    2.625    0.000    5.500 
#    0.000    4.375    0.000    1.125    0.000    0.000 
#    0.000    0.000    0.000    0.000    0.000    0.000 
#
# Total GULP energy -396555.886967 kJ/mol
# GULP energy per Si atom -12392.371468 kJ/mol
# Density = 2.072749 g / cm^3
# Si number density = 20.774774 Si / 1000 Ang^3
#
#
#
# Elastic Constant Matrix: (Units=GPa)
#
#
# Indices 1 2 3 4 5 6 
#
# 1 60.8548 25.2471 22.4169 0.0000 -14.2274 0.0000
# 2 25.2471 113.5284 36.6171 0.0000 -8.0203 0.0000
# 3 22.4169 36.6171 79.8352 0.0000 -18.4111 0.0000
# 4 0.0000 0.0000 0.0000 24.2210 0.0000 0.3286
# 5 -14.2274 -8.0203 -18.4111 0.0000 33.2630 0.0000
# 6 0.0000 0.0000 0.0000 0.3286 0.0000 25.6502
#
#
#
# Elastic Compliance Matrix: (Units=1/GPa)
#
#
# Indices 1 2 3 4 5 6 
#
# 1 0.020253 -0.003161 -0.002768 0.000000 0.006368 0.000000
# 2 -0.003161 0.010832 -0.004345 0.000000 -0.001145 0.000000
# 3 -0.002768 -0.004345 0.016944 0.000000 0.007147 0.000000
# 4 0.000000 0.000000 0.000000 0.041294 0.000000 -0.000529
# 5 0.006368 -0.001145 0.007147 0.000000 0.036467 0.000000
# 6 0.000000 0.000000 0.000000 -0.000529 0.000000 0.038993
#
#
# Mechanical properties :
#
#
# Convention : Reuss Voigt Hill
#
# Bulk Modulus (GPa) = 36.38962 46.97563 41.68263
# Shear Modulus (GPa) = 25.70832 27.95600 26.83216
#
# Velocity S-wave (km/s) = 3.52160 3.67232 3.59775
# Velocity P-wave (km/s) = 5.83865 6.37512 6.11277
#
# Compressibility (1/GPa) = 0.02748037
#
# Stress axis : x y z
#
# Youngs Moduli (GPa) = 49.37646 92.32130 59.01817
#
# Poissons Ratio (x) = 0.29184 0.16338
# Poissons Ratio (y) = 0.15609 0.25641
# Poissons Ratio (z) = 0.13669 0.40109
#
# Static dielectric constant tensor:
#      x y z
#    x 3.846720 0.000000 -0.214590 
#    y 0.000000 4.295590 0.000000 
#    z -0.214590 0.000000 3.675790 
# 
# 
# High freq. dielectric constant tensor:
#      x y z
#    x 1.818660 0.000000 -0.016140 
#    y 0.000000 1.802090 0.000000 
#    z -0.016140 0.000000 1.797910 
# 
# From -- ./inp_files/224844.got.cif
#   From: 2010.06.25/outbox.cif.g09.slc.cpg/sg12_113_cif.got.tgz:224844.got - 2010.06.28 00:19:55.
