data_PCOD8082925
_publ_section_title
;
Structure prediction by ZEFSAII (Michael W. Deem and Ramdas Pophale) SiO2 
 PCOD8082925
Probable space group: C 2/M
;
_chemical_formula_sum "Si O2"
_cell_formula_units_Z 64
_cell_length_a 30.410498
_cell_length_b 8.690212
_cell_length_c 12.064585
_cell_angle_alpha 90.000000
_cell_angle_beta 93.416139
_cell_angle_gamma 90.000000
_cell_volume 3182.686774
_symmetry_space_group_name_H-M "C 2/M"
_symmetry_group_IT_number 12
_symmetry_cell_setting 'monoclinic'
loop_
_space_group_symop_operation_xyz
x,y,z
-x,y,-z
-x,-y,-z
x,-y,z
1/2+x,1/2+y,z
1/2-x,1/2+y,-z
1/2-x,1/2-y,-z
1/2+x,1/2-y,z
loop_
_atom_site_type_symbol
_atom_site_label
_atom_site_fract_x
_atom_site_fract_y
_atom_site_fract_z
Si Si1 0.585687 0.682702 0.253244
Si Si2 0.238233 0.318900 0.283912
Si Si3 0.417919 0.683394 0.222284
Si Si4 0.110888 0.817100 0.017418
Si Si5 0.831988 0.180528 0.590407
Si Si6 0.790820 0.180260 0.941247
Si Si7 0.001213 0.816276 0.372866
Si Si8 0.164554 0.180888 0.658658
O O1 0.582354 0.500000 0.252035
O O2 0.588229 0.746798 0.127022
O O3 0.629426 0.736375 0.322738
O O4 0.543795 0.748940 0.314017
O O5 0.237385 0.500000 0.259652
O O6 0.212141 0.278100 0.392243
O O7 0.212563 0.224750 0.186860
O O8 0.287851 0.253822 0.299365
O O9 0.417893 0.500000 0.229623
O O10 0.459568 0.747595 0.296769
O O11 0.373628 0.752306 0.270732
O O12 0.418057 0.736390 0.093160
O O13 0.161445 0.758564 0.009966
O O14 0.112322 0.000000 0.025874
O O15 0.847112 0.221623 0.469114
O O16 0.821632 0.000000 0.601313
O O17 0.788250 0.000000 0.957574
O O18 0.750000 0.250000 0.000000
O O19 0.000000 0.755036 0.500000
O O20 0.001372 0.000000 0.374927
O O21 0.166234 0.000000 0.676418
#
# Coordination Sequence:
#
# PCOD8082925 Si02
#       8
#     8   8   8   8   8   8   8   8
#     4   9  16  27  44  67  95 130 168 207 255 309
#     4  11  21  33  49  74 103 133 174 218 258 307
#     4   9  16  27  42  64  96 131 165 202 252 309
#     4   9  17  29  45  65  94 132 168 204 252 306
#     4  10  18  32  51  70  99 137 172 210 260 312
#     4  11  21  35  53  74 102 140 179 216 258 304
#     4   9  16  25  40  65  97 131 166 204 249 306
#     4   9  18  30  46  68  97 136 174 212 261 310
#
# _framework density 20.108796000000002
#
# number of rings (size 3 to 8) (size 9 to 14) (size 15 to 20)
#    0.000    2.375    1.250    2.625    0.000    5.500 
#    0.000    3.125    0.000    0.000    0.000    0.000 
#    0.000   11.500    0.000    0.000    0.000    0.000 
#
# Total GULP energy -396652.651148 kJ/mol
# GULP energy per Si atom -12395.395348 kJ/mol
# Density = 2.006303 g / cm^3
# Si number density = 20.108796 Si / 1000 Ang^3
#
#
#
# Elastic Constant Matrix: (Units=GPa)
#
#
# Indices 1 2 3 4 5 6 
#
# 1 147.9300 12.2794 75.1878 0.0000 -4.7620 0.0000
# 2 12.2794 13.3074 10.4781 0.0000 -1.1043 0.0000
# 3 75.1878 10.4781 155.6982 0.0000 3.5864 0.0000
# 4 0.0000 0.0000 0.0000 14.4888 0.0000 -3.3871
# 5 -4.7620 -1.1043 3.5864 0.0000 43.1763 0.0000
# 6 0.0000 0.0000 0.0000 -3.3871 0.0000 16.8291
#
#
#
# Elastic Compliance Matrix: (Units=1/GPa)
#
#
# Indices 1 2 3 4 5 6 
#
# 1 0.009370 -0.005235 -0.004201 0.000000 0.001249 0.000000
# 2 -0.005235 0.082541 -0.003068 0.000000 0.001789 0.000000
# 3 -0.004201 -0.003068 0.008687 0.000000 -0.001263 0.000000
# 4 0.000000 0.000000 0.000000 0.072427 0.000000 0.014577
# 5 0.001249 0.001789 -0.001263 0.000000 0.023449 0.000000
# 6 0.000000 0.000000 0.000000 0.014577 0.000000 0.062355
#
#
# Mechanical properties :
#
#
# Convention : Reuss Voigt Hill
#
# Bulk Modulus (GPa) = 13.22928 56.98068 35.10498
# Shear Modulus (GPa) = 16.17946 29.49819 22.83882
#
# Velocity S-wave (km/s) = 2.83962 3.83421 3.37376
# Velocity P-wave (km/s) = 4.16466 6.92815 5.71593
#
# Compressibility (1/GPa) = 0.07558993
#
# Stress axis : x y z
#
# Youngs Moduli (GPa) = 106.72286 12.11520 115.11288
#
# Poissons Ratio (x) = 0.06342 0.48363
# Poissons Ratio (y) = 0.55865 0.35318
# Poissons Ratio (z) = 0.44838 0.03717
#
# Static dielectric constant tensor:
#      x y z
#    x 3.933020 0.000000 -0.057160 
#    y 0.000000 2.911450 0.000000 
#    z -0.057160 0.000000 3.988310 
# 
# 
# High freq. dielectric constant tensor:
#      x y z
#    x 1.793730 0.000000 -0.002980 
#    y 0.000000 1.706070 0.000000 
#    z -0.002980 0.000000 1.803680 
# 
# From -- ./inp_files/187538.got.cif
#   From: 2010.06.25/outbox.cif.g09.slc.cpg/sg12_94_cif.got.tgz:187538.got - 2010.06.28 00:19:55.
