data_PCOD8082246
_publ_section_title
;
Structure prediction by ZEFSAII (Michael W. Deem and Ramdas Pophale) SiO2 
 PCOD8082246
Probable space group: C 2/M
;
_chemical_formula_sum "Si O2"
_cell_formula_units_Z 56
_cell_length_a 20.337400
_cell_length_b 8.790956
_cell_length_c 30.875928
_cell_angle_alpha 90.000000
_cell_angle_beta 149.236367
_cell_angle_gamma 90.000000
_cell_volume 2823.547656
_symmetry_space_group_name_H-M "C 2/M"
_symmetry_group_IT_number 12
_symmetry_cell_setting 'monoclinic'
loop_
_space_group_symop_operation_xyz
x,y,z
-x,y,-z
-x,-y,-z
x,-y,z
1/2+x,1/2+y,z
1/2-x,1/2+y,-z
1/2-x,1/2-y,-z
1/2+x,1/2-y,z
loop_
_atom_site_type_symbol
_atom_site_label
_atom_site_fract_x
_atom_site_fract_y
_atom_site_fract_z
Si Si1 0.458744 0.181316 0.726350
Si Si2 0.032536 0.321382 0.926053
Si Si3 0.177268 0.172442 0.139413
Si Si4 0.762236 0.328281 0.092033
Si Si5 0.837504 0.679387 0.743384
Si Si6 0.884503 0.319361 0.589211
Si Si7 0.373350 0.679831 0.311077
O O1 0.597506 0.244430 0.820006
O O2 0.354384 0.236539 0.703375
O O3 0.419614 0.243751 0.657083
O O4 0.467572 0.000000 0.728741
O O5 0.023836 0.500000 0.928773
O O6 0.959655 0.237315 0.923837
O O7 0.964023 0.272394 0.842363
O O8 0.181406 0.267779 0.010817
O O9 0.181665 0.175866 0.090484
O O10 0.291477 0.277065 0.222530
O O11 0.196105 0.000000 0.167141
O O12 0.776871 0.500000 0.082572
O O13 0.828547 0.500000 0.738748
O O14 0.705966 0.739700 0.691339
O O15 0.876939 0.500000 0.584166
O O16 0.750000 0.250000 0.500000
O O17 0.989557 0.263165 0.613794
O O18 0.396073 0.500000 0.325411
#
# Coordination Sequence:
#
# PCOD8082246 Si02
#       7
#     8   8   8   8   8   8   8
#     4   9  18  36  58  79 106 144 186 224 268 325
#     4  10  20  31  46  75 109 146 186 230 277 315
#     4  10  18  31  50  75 106 145 190 230 269 319
#     4  10  19  31  49  74 104 143 189 231 270 318
#     4   8  17  34  55  78 109 147 187 224 262 319
#     4  11  22  39  63  89 112 140 176 222 273 325
#     4  10  19  34  58  86 113 143 177 222 275 325
#
# _framework density 19.833205
#
# number of rings (size 3 to 8) (size 9 to 14) (size 15 to 20)
#    0.000    2.286    1.429    3.000    0.000    3.429 
#    0.000    0.714    0.000   18.857    0.000    0.000 
#    0.000    0.000    0.000    0.000    0.000    0.000 
#
# Total GULP energy -347064.343235 kJ/mol
# GULP energy per Si atom -12395.155116 kJ/mol
# Density = 1.978806 g / cm^3
# Si number density = 19.833205 Si / 1000 Ang^3
#
#
#
# Elastic Constant Matrix: (Units=GPa)
#
#
# Indices 1 2 3 4 5 6 
#
# 1 114.0318 31.0087 63.7783 0.0000 6.0945 0.0001
# 2 31.0087 53.6763 23.3845 0.0000 3.7754 0.0004
# 3 63.7783 23.3845 116.0352 0.0001 26.3981 0.0000
# 4 0.0000 0.0000 0.0001 31.2093 0.0000 6.7215
# 5 6.0945 3.7754 26.3981 0.0000 21.4404 0.0000
# 6 0.0001 0.0004 0.0000 6.7215 0.0000 19.4679
#
#
#
# Elastic Compliance Matrix: (Units=1/GPa)
#
#
# Indices 1 2 3 4 5 6 
#
# 1 0.014653 -0.005198 -0.008705 0.000000 0.007469 0.000000
# 2 -0.005198 0.022332 -0.001507 0.000000 -0.000599 0.000000
# 3 -0.008705 -0.001507 0.018174 0.000000 -0.019637 0.000000
# 4 0.000000 0.000000 0.000000 0.034616 0.000000 -0.011951
# 5 0.007469 -0.000599 -0.019637 0.000000 0.068801 0.000000
# 6 0.000000 0.000000 0.000000 -0.011951 0.000000 0.055493
#
#
# Mechanical properties :
#
#
# Convention : Reuss Voigt Hill
#
# Bulk Modulus (GPa) = 41.08859 57.78736 49.43797
# Shear Modulus (GPa) = 19.76275 25.46164 22.61219
#
# Velocity S-wave (km/s) = 3.16008 3.58689 3.38023
# Velocity P-wave (km/s) = 5.83754 6.80840 6.34157
#
# Compressibility (1/GPa) = 0.02433766
#
# Stress axis : x y z
#
# Youngs Moduli (GPa) = 68.24694 44.77947 55.02324
#
# Poissons Ratio (x) = 0.23274 0.47900
# Poissons Ratio (y) = 0.35472 0.08294
# Poissons Ratio (z) = 0.59412 0.06750
#
# Static dielectric constant tensor:
#      x y z
#    x 3.953940 0.000000 0.076420 
#    y 0.000000 3.394230 0.000000 
#    z 0.076420 0.000000 3.486210 
# 
# 
# High freq. dielectric constant tensor:
#      x y z
#    x 1.776780 0.000000 0.011040 
#    y 0.000000 1.746970 0.000000 
#    z 0.011040 0.000000 1.756230 
# 
# From -- ./inp_files/380804.got.cif
#   From: 2010.06.25/outbox.cif.g09.slc.cpg/sg12_191_cif.got.tgz:380804.got - 2010.06.28 00:19:55.
