data_PCOD8082721
_publ_section_title
;
Structure prediction by ZEFSAII (Michael W. Deem and Ramdas Pophale) SiO2 
 PCOD8082721
Probable space group: C 2/M
;
_chemical_formula_sum "Si O2"
_cell_formula_units_Z 56
_cell_length_a 17.923786
_cell_length_b 8.550986
_cell_length_c 28.656882
_cell_angle_alpha 90.000000
_cell_angle_beta 140.961442
_cell_angle_gamma 90.000000
_cell_volume 2766.351445
_symmetry_space_group_name_H-M "C 2/M"
_symmetry_group_IT_number 12
_symmetry_cell_setting 'monoclinic'
loop_
_space_group_symop_operation_xyz
x,y,z
-x,y,-z
-x,-y,-z
x,-y,z
1/2+x,1/2+y,z
1/2-x,1/2+y,-z
1/2-x,1/2-y,-z
1/2+x,1/2-y,z
loop_
_atom_site_type_symbol
_atom_site_label
_atom_site_fract_x
_atom_site_fract_y
_atom_site_fract_z
Si Si1 0.784727 0.683103 0.566500
Si Si2 0.940903 0.320376 0.285002
Si Si3 0.979893 0.316148 0.850843
Si Si4 0.289504 0.682065 0.291510
Si Si5 0.640865 0.318230 0.848755
Si Si6 0.134856 0.318504 0.576133
Si Si7 0.330643 0.684402 0.998119
O O1 0.754196 0.500000 0.554678
O O2 0.750000 0.750000 0.500000
O O3 0.711443 0.779774 0.568333
O O4 0.921777 0.716363 0.642115
O O5 0.919979 0.500000 0.261241
O O6 0.876452 0.283211 0.302018
O O7 0.887991 0.212071 0.218957
O O8 0.992476 0.500000 0.861284
O O9 0.844371 0.262413 0.782915
O O10 0.044669 0.265173 0.834825
O O11 0.036097 0.239373 0.925072
O O12 0.305820 0.500000 0.288046
O O13 0.320132 0.711818 0.359979
O O14 0.635703 0.500000 0.857491
O O15 0.774907 0.255487 0.923640
O O16 0.149467 0.500000 0.596449
O O17 0.000000 0.275557 0.500000
O O18 0.325364 0.500000 0.992630
O O19 0.250000 0.750000 0.000000
#
# Coordination Sequence:
#
# PCOD8082721 Si02
#       7
#     8   8   8   8   8   8   8
#     4  11  24  41  63  90 119 153 192 237 287 339
#     4  11  24  41  59  83 117 153 192 239 288 340
#     4  10  20  36  57  84 117 149 189 239 288 341
#     4  11  24  40  60  86 116 153 194 238 288 341
#     4  11  21  35  58  86 115 150 193 238 287 342
#     4  11  24  41  62  89 120 154 192 236 285 338
#     4  10  18  31  54  83 114 149 190 235 286 341
#
# _framework density 20.243271
#
# number of rings (size 3 to 8) (size 9 to 14) (size 15 to 20)
#    0.000    1.286    0.000    8.143    0.000   12.571 
#    0.000    0.714    0.000    4.286    0.000    0.000 
#    0.000    0.000    0.000    0.000    0.000    0.000 
#
# Total GULP energy -347313.621167 kJ/mol
# GULP energy per Si atom -12404.057899 kJ/mol
# Density = 2.019720 g / cm^3
# Si number density = 20.243271 Si / 1000 Ang^3
#
#
#
# Elastic Constant Matrix: (Units=GPa)
#
#
# Indices 1 2 3 4 5 6 
#
# 1 95.8583 13.1013 44.2782 0.0000 7.7062 0.0000
# 2 13.1013 69.7597 46.9987 0.0001 10.5704 -0.0005
# 3 44.2782 46.9987 147.6792 0.0000 8.0542 0.0000
# 4 0.0000 0.0001 0.0000 37.7321 0.0000 -4.0916
# 5 7.7062 10.5704 8.0542 0.0000 33.2849 0.0000
# 6 0.0000 -0.0005 0.0000 -4.0916 0.0000 28.0363
#
#
#
# Elastic Compliance Matrix: (Units=1/GPa)
#
#
# Indices 1 2 3 4 5 6 
#
# 1 0.012250 0.000528 -0.003726 0.000000 -0.002102 0.000000
# 2 0.000528 0.018944 -0.005931 0.000000 -0.004703 0.000000
# 3 -0.003726 -0.005931 0.009755 0.000000 0.000386 0.000000
# 4 0.000000 0.000000 0.000000 0.026929 0.000000 0.003930
# 5 -0.002102 -0.004703 0.000386 0.000000 0.031931 0.000000
# 6 0.000000 0.000000 0.000000 0.003930 0.000000 0.036242
#
#
# Mechanical properties :
#
#
# Convention : Reuss Voigt Hill
#
# Bulk Modulus (GPa) = 44.06883 58.00595 51.03739
# Shear Modulus (GPa) = 30.88855 33.73858 32.31356
#
# Velocity S-wave (km/s) = 3.91047 4.08690 3.99966
# Velocity P-wave (km/s) = 6.49661 7.14052 6.82616
#
# Compressibility (1/GPa) = 0.02269178
#
# Stress axis : x y z
#
# Youngs Moduli (GPa) = 81.63168 52.78674 102.50954
#
# Poissons Ratio (x) = -0.02790 0.38200
# Poissons Ratio (y) = -0.04314 0.60797
# Poissons Ratio (z) = 0.30420 0.31307
#
# Static dielectric constant tensor:
#      x y z
#    x 3.476680 0.000000 0.160380 
#    y 0.000000 3.696650 0.000000 
#    z 0.160380 0.000000 4.197270 
# 
# 
# High freq. dielectric constant tensor:
#      x y z
#    x 1.772190 0.000000 0.003190 
#    y 0.000000 1.806120 0.000000 
#    z 0.003190 0.000000 1.814960 
# 
# From -- ./inp_files/363115.got.cif
#   From: 2010.06.25/outbox.cif.g09.slc.cpg/sg12_182_cif.got.tgz:363115.got - 2010.06.28 00:19:55.
