data_PCOD8082327
_publ_section_title
;
Structure prediction by ZEFSAII (Michael W. Deem and Ramdas Pophale) SiO2 
 PCOD8082327
Probable space group: C 2/M
;
_chemical_formula_sum "Si O2"
_cell_formula_units_Z 64
_cell_length_a 20.676411
_cell_length_b 8.857524
_cell_length_c 19.979270
_cell_angle_alpha 90.000000
_cell_angle_beta 103.764496
_cell_angle_gamma 90.000000
_cell_volume 3553.958951
_symmetry_space_group_name_H-M "C 2/M"
_symmetry_group_IT_number 12
_symmetry_cell_setting 'monoclinic'
loop_
_space_group_symop_operation_xyz
x,y,z
-x,y,-z
-x,-y,-z
x,-y,z
1/2+x,1/2+y,z
1/2-x,1/2+y,-z
1/2-x,1/2-y,-z
1/2+x,1/2-y,z
loop_
_atom_site_type_symbol
_atom_site_label
_atom_site_fract_x
_atom_site_fract_y
_atom_site_fract_z
Si Si1 0.928943 0.178585 0.670869
Si Si2 0.057682 0.175822 0.960861
Si Si3 0.700004 0.178523 0.539629
Si Si4 0.944520 0.321083 0.537107
Si Si5 0.195099 0.321694 0.033771
Si Si6 0.321038 0.679206 0.832232
Si Si7 0.713923 0.322231 0.319754
Si Si8 0.464890 0.678041 0.823198
O O1 0.960833 0.257661 0.614410
O O2 0.853550 0.239875 0.662248
O O3 0.970983 0.229103 0.747170
O O4 0.931428 0.000000 0.660635
O O5 0.029275 0.229274 0.881453
O O6 0.078217 0.000000 0.966348
O O7 0.121752 0.274388 0.992285
O O8 0.000000 0.206822 0.000000
O O9 0.750000 0.250000 0.500000
O O10 0.626153 0.239824 0.507701
O O11 0.722383 0.227350 0.620399
O O12 0.703585 0.000000 0.532294
O O13 0.945479 0.500000 0.541049
O O14 0.000000 0.259635 0.500000
O O15 0.201652 0.500000 0.032481
O O16 0.209949 0.264847 0.112402
O O17 0.250000 0.250000 0.000000
O O18 0.317430 0.500000 0.844133
O O19 0.279142 0.730109 0.755762
O O20 0.396804 0.737185 0.840473
O O21 0.704868 0.500000 0.316031
O O22 0.458241 0.500000 0.823912
#
# Coordination Sequence:
#
# PCOD8082327 Si02
#       8
#     8   8   8   8   8   8   8   8
#     4   9  16  30  52  77 103 133 174 214 252 304
#     4  10  18  34  60  84 108 141 179 217 266 322
#     4  10  18  31  51  75 101 133 175 220 259 305
#     4  10  21  34  47  69 106 144 171 206 264 321
#     4  12  25  39  55  79 112 147 182 222 268 319
#     4   9  16  33  56  78 104 138 177 216 268 325
#     4   8  15  28  52  79 101 128 171 221 261 308
#     4   8  15  29  54  83 107 135 170 213 263 316
#
# _framework density 18.008085999999999
#
# number of rings (size 3 to 8) (size 9 to 14) (size 15 to 20)
#    0.000    2.500    2.500    2.625    0.000    0.500 
#    0.000    5.000    0.000    1.500    0.000    0.000 
#    0.000    0.000    0.000    0.000    0.000    0.000 
#
# Total GULP energy -396635.420100 kJ/mol
# GULP energy per Si atom -12394.856878 kJ/mol
# Density = 1.796710 g / cm^3
# Si number density = 18.008086 Si / 1000 Ang^3
#
#
#
# Elastic Constant Matrix: (Units=GPa)
#
#
# Indices 1 2 3 4 5 6 
#
# 1 93.7599 33.3145 70.9212 0.0000 -8.3861 0.0000
# 2 33.3145 50.2412 39.7715 0.0000 -4.6163 0.0000
# 3 70.9212 39.7715 175.1301 0.0000 -6.9005 0.0000
# 4 0.0000 0.0000 0.0000 26.3178 0.0000 -3.2564
# 5 -8.3861 -4.6163 -6.9005 0.0000 30.1820 0.0000
# 6 0.0000 0.0000 0.0000 -3.2564 0.0000 20.3608
#
#
#
# Elastic Compliance Matrix: (Units=1/GPa)
#
#
# Indices 1 2 3 4 5 6 
#
# 1 0.017475 -0.007109 -0.005362 0.000000 0.002542 0.000000
# 2 -0.007109 0.027343 -0.003273 0.000000 0.001458 0.000000
# 3 -0.005362 -0.003273 0.008624 0.000000 -0.000019 0.000000
# 4 0.000000 0.000000 0.000000 0.038764 0.000000 0.006200
# 5 0.002542 0.001458 -0.000019 0.000000 0.034057 0.000000
# 6 0.000000 0.000000 0.000000 0.006200 0.000000 0.050106
#
#
# Mechanical properties :
#
#
# Convention : Reuss Voigt Hill
#
# Bulk Modulus (GPa) = 45.55127 67.46065 56.50596
# Shear Modulus (GPa) = 23.23683 27.04704 25.14193
#
# Velocity S-wave (km/s) = 3.59605 3.87969 3.74056
# Velocity P-wave (km/s) = 6.52625 7.59025 7.07827
#
# Compressibility (1/GPa) = 0.02195329
#
# Stress axis : x y z
#
# Youngs Moduli (GPa) = 57.22517 36.57235 115.95501
#
# Poissons Ratio (x) = 0.26000 0.62175
# Poissons Ratio (y) = 0.40683 0.37953
# Poissons Ratio (z) = 0.30684 0.11970
#
# Static dielectric constant tensor:
#      x y z
#    x 2.702240 0.000000 -1.210660 
#    y 0.000000 2.984970 0.000000 
#    z -1.210660 0.000000 0.539310 
# 
# 
# High freq. dielectric constant tensor:
#      x y z
#    x 1.669840 0.000000 0.007310 
#    y 0.000000 1.664210 0.000000 
#    z 0.007310 0.000000 1.720280 
# 
# From -- ./inp_files/319247.got.cif
#   From: 2010.06.25/outbox.cif.g09.slc.cpg/sg12_160_cif.got.tgz:319247.got - 2010.06.28 00:19:55.
