data_PCOD8082270
_publ_section_title
;
Structure prediction by ZEFSAII (Michael W. Deem and Ramdas Pophale) SiO2 
 PCOD8082270
Probable space group: C 2/M
;
_chemical_formula_sum "Si O2"
_cell_formula_units_Z 56
_cell_length_a 26.551038
_cell_length_b 14.055268
_cell_length_c 25.368600
_cell_angle_alpha 90.000000
_cell_angle_beta 17.196990
_cell_angle_gamma 90.000000
_cell_volume 2799.023676
_symmetry_space_group_name_H-M "C 2/M"
_symmetry_group_IT_number 12
_symmetry_cell_setting 'monoclinic'
loop_
_space_group_symop_operation_xyz
x,y,z
-x,y,-z
-x,-y,-z
x,-y,z
1/2+x,1/2+y,z
1/2-x,1/2+y,-z
1/2-x,1/2-y,-z
1/2+x,1/2-y,z
loop_
_atom_site_type_symbol
_atom_site_label
_atom_site_fract_x
_atom_site_fract_y
_atom_site_fract_z
Si Si1 0.818012 0.802770 0.559767
Si Si2 0.490468 0.890296 0.071630
Si Si3 0.699089 0.851599 0.570980
Si Si4 0.189477 0.108303 0.970894
Si Si5 0.692402 0.110333 0.030417
Si Si6 0.706805 0.601932 0.632745
Si Si7 0.305218 0.703889 0.815125
O O1 0.674735 0.831376 0.744929
O O2 0.795956 0.868460 0.529543
O O3 0.809360 0.689797 0.554714
O O4 0.006098 0.819998 0.395895
O O5 0.473161 0.000000 0.106614
O O6 0.500000 0.880134 0.000000
O O7 0.664025 0.848271 0.921631
O O8 0.750000 0.750000 0.500000
O O9 0.501559 0.858456 0.781792
O O10 0.751869 0.919831 0.470423
O O11 0.990346 0.124376 0.163118
O O12 0.245886 0.000000 0.901143
O O13 0.238521 0.135584 0.981232
O O14 0.279673 0.181479 0.840616
O O15 0.713044 0.000000 0.996889
O O16 0.800414 0.169253 0.880294
O O17 0.752140 0.500000 0.615216
#
# Coordination Sequence:
#
# PCOD8082270 Si02
#       7
#     8   8   8   8   8   8   8
#     4  11  23  39  63  90 122 162 202 252 306 368
#     4  11  26  48  69  90 117 151 203 266 317 363
#     4  10  18  31  50  82 126 167 204 242 290 348
#     4  10  20  34  56  89 130 170 206 244 290 355
#     4  11  21  33  52  84 126 169 207 248 294 353
#     4  10  19  34  56  89 130 169 205 243 291 356
#     4  12  22  39  64  89 123 161 204 250 307 365
#
# _framework density 20.006976000000002
#
# number of rings (size 3 to 8) (size 9 to 14) (size 15 to 20)
#    0.000    1.286    2.857    4.714    0.000    4.000 
#    0.000    1.429    0.000    1.714    0.000    2.000 
#    0.000    0.000    0.000    0.000    0.000    0.000 
#
# Total GULP energy -347073.154344 kJ/mol
# GULP energy per Si atom -12395.469798 kJ/mol
# Density = 1.996144 g / cm^3
# Si number density = 20.006976 Si / 1000 Ang^3
#
#
#
# Elastic Constant Matrix: (Units=GPa)
#
#
# Indices 1 2 3 4 5 6 
#
# 1 56.3050 34.7960 33.1950 -0.4854 -0.0111 0.1273
# 2 34.7960 110.6544 38.3637 0.2508 -3.1295 -0.0814
# 3 33.1950 38.3637 136.4639 -1.0300 -14.7007 0.3021
# 4 -0.4854 0.2508 -1.0300 -656.5011 0.7999 195.5624
# 5 -0.0111 -3.1295 -14.7007 0.7999 21.9229 -0.2198
# 6 0.1273 -0.0814 0.3021 195.5624 -0.2198 -33.6232
#
#
#
# Elastic Compliance Matrix: (Units=1/GPa)
#
#
# Indices 1 2 3 4 5 6 
#
# 1 0.024272 -0.006149 -0.004601 -0.000013 -0.003950 0.000017
# 2 -0.006149 0.011576 -0.001704 0.000012 0.000506 -0.000002
# 3 -0.004601 -0.001704 0.009593 -0.000007 0.006187 -0.000007
# 4 -0.000013 0.000012 -0.000007 0.002079 0.000043 0.012093
# 5 -0.003950 0.000506 0.006187 0.000043 0.049832 -0.000039
# 6 0.000017 -0.000002 -0.000007 0.012093 -0.000039 0.040598
#
#
# Mechanical properties :
#
#
# Convention : Reuss Voigt Hill
#
# Bulk Modulus (GPa) = 48.70352 57.34809 53.02581
# Shear Modulus (GPa) = 29.46349 -120.50238 -45.51944
#
# Velocity S-wave (km/s) = 3.84169 -7.76923 -4.77506
# Velocity P-wave (km/s) = 6.63884 7.19409 1.95969
#
# Compressibility (1/GPa) = 0.02053240
#
# Stress axis : x y z
#
# Youngs Moduli (GPa) = 41.19934 86.38739 104.24599
#
# Poissons Ratio (x) = 0.53120 0.47966
# Poissons Ratio (y) = 0.25333 0.17762
# Poissons Ratio (z) = 0.18957 0.14719
#
# Static dielectric constant tensor:
#      x y z
#    x 3.424440 0.000080 0.035780 
#    y 0.000080 3.725390 0.000120 
#    z 0.035780 0.000120 3.788560 
# 
# 
# High freq. dielectric constant tensor:
#      x y z
#    x 1.730970 0.000000 -0.014930 
#    y 0.000000 1.800380 0.000020 
#    z -0.014930 0.000020 1.789540 
# 
# From -- ./inp_files/349716.got.cif
#   From: 2010.06.25/outbox.cif.g09.slc.cpg/sg12_175_cif.got.tgz:349716.got - 2010.06.28 00:19:55.
