data_PCOD8082890
_publ_section_title
;
Structure prediction by ZEFSAII (Michael W. Deem and Ramdas Pophale) SiO2 
 PCOD8082890
Probable space group: C 2/M
;
_chemical_formula_sum "Si O2"
_cell_formula_units_Z 48
_cell_length_a 19.048589
_cell_length_b 29.204115
_cell_length_c 5.002649
_cell_angle_alpha 90.000000
_cell_angle_beta 74.269481
_cell_angle_gamma 90.000000
_cell_volume 2678.730681
_symmetry_space_group_name_H-M "C 2/M"
_symmetry_group_IT_number 12
_symmetry_cell_setting 'monoclinic'
loop_
_space_group_symop_operation_xyz
x,y,z
-x,y,-z
-x,-y,-z
x,-y,z
1/2+x,1/2+y,z
1/2-x,1/2+y,-z
1/2-x,1/2-y,-z
1/2+x,1/2-y,z
loop_
_atom_site_type_symbol
_atom_site_label
_atom_site_fract_x
_atom_site_fract_y
_atom_site_fract_z
Si Si1 0.274777 0.000000 0.721974
Si Si2 0.844018 0.762826 0.672872
Si Si3 0.279622 0.692982 0.240651
Si Si4 0.868990 0.500000 0.122899
Si Si5 0.500000 0.165928 0.000000
Si Si6 0.224683 0.597526 0.165221
Si Si7 0.000000 0.727230 0.500000
Si Si8 0.373309 0.096526 0.235452
O O1 0.296370 0.000000 0.387630
O O2 0.233523 0.951859 0.836050
O O3 0.347269 0.000000 0.834227
O O4 0.802115 0.714113 0.690329
O O5 0.809939 0.800016 0.506750
O O6 0.929129 0.757989 0.514051
O O7 0.834042 0.781415 0.982365
O O8 0.278961 0.639082 0.175274
O O9 0.912293 0.546961 0.143844
O O10 0.478185 0.196768 0.773886
O O11 0.569578 0.136307 0.857605
O O12 0.155231 0.599031 0.433562
O O13 0.195104 0.602601 0.894528
#
# Coordination Sequence:
#
# PCOD8082890 Si02
#       8
#     4   8   8   4   4   8   4   8
#     4   8  16  28  46  69  92 123 150 190 246 286
#     4  10  21  34  50  71  96 126 160 199 244 286
#     4  10  19  33  52  73  95 124 161 199 238 287
#     4   8  16  29  42  60  92 124 158 199 236 270
#     4  12  22  31  48  66  88 128 170 201 236 276
#     4  10  18  32  50  69  97 123 156 199 243 287
#     4  12  24  38  50  69 100 127 160 206 248 290
#     4  10  19  30  45  67  92 127 164 198 238 278
#
# _framework density 17.918934
#
# number of rings (size 3 to 8) (size 9 to 14) (size 15 to 20)
#    0.000    2.000    0.000    5.000    0.000    3.000 
#    0.000    0.000    0.000    7.000    0.000    0.000 
#    0.000    4.000    0.000    0.000    0.000    0.000 
#
# Total GULP energy -297512.127398 kJ/mol
# GULP energy per Si atom -12396.338642 kJ/mol
# Density = 1.787815 g / cm^3
# Si number density = 17.918934 Si / 1000 Ang^3
#
#
#
# Elastic Constant Matrix: (Units=GPa)
#
#
# Indices 1 2 3 4 5 6 
#
# 1 50.1987 28.3647 11.4526 0.0000 -8.0208 0.0000
# 2 28.3647 105.3770 -3.0817 0.0000 -2.3113 0.0000
# 3 11.4526 -3.0817 58.3524 0.0000 9.6728 0.0000
# 4 0.0000 0.0000 0.0000 21.7688 0.0000 3.2311
# 5 -8.0208 -2.3113 9.6728 0.0000 25.1689 0.0000
# 6 0.0000 0.0000 0.0000 3.2311 0.0000 192.2293
#
#
#
# Elastic Compliance Matrix: (Units=1/GPa)
#
#
# Indices 1 2 3 4 5 6 
#
# 1 0.027623 -0.007417 -0.007647 0.000000 0.011061 0.000000
# 2 -0.007417 0.011508 0.002435 0.000000 -0.002243 0.000000
# 3 -0.007647 0.002435 0.020435 0.000000 -0.010067 0.000000
# 4 0.000000 0.000000 0.000000 0.046052 0.000000 -0.000774
# 5 0.011061 -0.002243 -0.010067 0.000000 0.046919 0.000000
# 6 0.000000 0.000000 0.000000 -0.000774 0.000000 0.005215
#
#
# Mechanical properties :
#
#
# Convention : Reuss Voigt Hill
#
# Bulk Modulus (GPa) = 29.14544 31.93325 30.53935
# Shear Modulus (GPa) = 25.71399 59.64622 42.68011
#
# Velocity S-wave (km/s) = 3.79227 5.77572 4.88571
# Velocity P-wave (km/s) = 5.95614 7.89546 6.99335
#
# Compressibility (1/GPa) = 0.03431068
#
# Stress axis : x y z
#
# Youngs Moduli (GPa) = 36.20119 86.89541 48.93474
#
# Poissons Ratio (x) = 0.64446 0.37419
# Poissons Ratio (y) = 0.26849 -0.11916
# Poissons Ratio (z) = 0.27682 -0.21160
#
# Static dielectric constant tensor:
#      x y z
#    x 2.812030 0.000000 0.262340 
#    y 0.000000 3.629600 0.000000 
#    z 0.262340 0.000000 3.409180 
# 
# 
# High freq. dielectric constant tensor:
#      x y z
#    x 1.629270 0.000000 0.032940 
#    y 0.000000 1.705300 0.000000 
#    z 0.032940 0.000000 1.710200 
# 
# From -- ./inp_files/12436.got.cif
#   From: 2010.06.25/outbox.cif.g09.slc.cpg/sg12_7_cif.got.tgz:12436.got - 2010.06.28 00:19:55.
