data_PCOD8082438
_publ_section_title
;
Structure prediction by ZEFSAII (Michael W. Deem and Ramdas Pophale) SiO2 
 PCOD8082438
Probable space group: C 2/M
;
_chemical_formula_sum "Si O2"
_cell_formula_units_Z 64
_cell_length_a 24.970111
_cell_length_b 8.665324
_cell_length_c 23.098804
_cell_angle_alpha 90.000000
_cell_angle_beta 45.275077
_cell_angle_gamma 90.000000
_cell_volume 3551.034108
_symmetry_space_group_name_H-M "C 2/M"
_symmetry_group_IT_number 12
_symmetry_cell_setting 'monoclinic'
loop_
_space_group_symop_operation_xyz
x,y,z
-x,y,-z
-x,-y,-z
x,-y,z
1/2+x,1/2+y,z
1/2-x,1/2+y,-z
1/2-x,1/2-y,-z
1/2+x,1/2-y,z
loop_
_atom_site_type_symbol
_atom_site_label
_atom_site_fract_x
_atom_site_fract_y
_atom_site_fract_z
Si Si1 0.730013 0.317446 0.654274
Si Si2 0.416384 0.677914 0.053312
Si Si3 0.696320 0.816367 0.168669
Si Si4 0.840115 0.822959 0.993298
Si Si5 0.577661 0.684497 0.181077
Si Si6 0.090579 0.819507 0.683353
Si Si7 0.774948 0.680622 0.216275
Si Si8 0.687616 0.680686 0.506503
O O1 0.727975 0.500000 0.663559
O O2 0.654319 0.253810 0.679106
O O3 0.739511 0.237496 0.708329
O O4 0.804606 0.268854 0.560649
O O5 0.407128 0.500000 0.079944
O O6 0.360288 0.779386 0.134088
O O7 0.500000 0.739987 0.000000
O O8 0.401496 0.697132 0.996785
O O9 0.616254 0.747153 0.210268
O O10 0.715471 0.762675 0.218859
O O11 0.695021 0.000000 0.169293
O O12 0.760704 0.750841 0.075243
O O13 0.874532 0.745709 0.909378
O O14 0.825491 0.000000 0.990123
O O15 0.576416 0.500000 0.182843
O O16 0.492358 0.750503 0.241549
O O17 0.109820 0.787590 0.600686
O O18 0.088815 0.000000 0.696404
O O19 0.761558 0.500000 0.222414
O O20 0.700586 0.500000 0.486557
O O21 0.750000 0.750000 0.500000
#
# Coordination Sequence:
#
# PCOD8082438 Si02
#       8
#     8   8   8   8   8   8   8   8
#     4  10  19  33  54  79 104 136 172 211 253 311
#     4   9  18  32  51  73 102 140 174 209 253 303
#     4  10  20  36  51  70  99 134 176 218 258 302
#     4   8  16  29  48  72  97 130 174 211 247 294
#     4  10  18  31  52  76 100 131 171 214 253 299
#     4   8  17  30  50  78 107 134 166 203 251 307
#     4  11  22  35  52  75 101 134 173 216 259 305
#     4   9  16  30  49  74 106 140 170 206 252 306
#
# _framework density 18.022919000000002
#
# number of rings (size 3 to 8) (size 9 to 14) (size 15 to 20)
#    0.000    2.625    0.000    4.125    1.750    0.250 
#    0.000    6.250    0.000    0.750    0.000    5.250 
#    0.000    0.000    0.000    0.000    0.000    0.000 
#
# Total GULP energy -396599.451367 kJ/mol
# GULP energy per Si atom -12393.732855 kJ/mol
# Density = 1.798190 g / cm^3
# Si number density = 18.022919 Si / 1000 Ang^3
#
#
#
# Elastic Constant Matrix: (Units=GPa)
#
#
# Indices 1 2 3 4 5 6 
#
# 1 78.2110 13.0435 45.0035 0.0116 3.9394 -0.0056
# 2 13.0435 46.0248 20.2472 0.0177 0.7448 -0.0177
# 3 45.0035 20.2472 100.0898 -0.0101 16.9638 0.0089
# 4 0.0116 0.0177 -0.0101 24.7078 -0.0027 3.1318
# 5 3.9394 0.7448 16.9638 -0.0027 22.1394 0.0048
# 6 -0.0056 -0.0177 0.0089 3.1318 0.0048 23.7055
#
#
#
# Elastic Compliance Matrix: (Units=1/GPa)
#
#
# Indices 1 2 3 4 5 6 
#
# 1 0.017548 -0.001446 -0.008133 -0.000011 0.003158 0.000007
# 2 -0.001446 0.024184 -0.004767 -0.000021 0.003096 0.000022
# 3 -0.008133 -0.004767 0.016480 0.000014 -0.011020 -0.000011
# 4 -0.000011 -0.000021 0.000014 0.041162 -0.000002 -0.005438
# 5 0.003158 0.003096 -0.011020 -0.000002 0.052946 -0.000003
# 6 0.000007 0.000022 -0.000011 -0.005438 -0.000003 0.042903
#
#
# Mechanical properties :
#
#
# Convention : Reuss Voigt Hill
#
# Bulk Modulus (GPa) = 33.87511 42.32379 38.09945
# Shear Modulus (GPa) = 21.39003 23.84597 22.61800
#
# Velocity S-wave (km/s) = 3.44877 3.64138 3.54638
# Velocity P-wave (km/s) = 5.89025 6.41980 6.16072
#
# Compressibility (1/GPa) = 0.02952020
#
# Stress axis : x y z
#
# Youngs Moduli (GPa) = 56.98762 41.34939 60.68116
#
# Poissons Ratio (x) = 0.05981 0.49349
# Poissons Ratio (y) = 0.08243 0.28924
# Poissons Ratio (z) = 0.46345 0.19710
#
# Static dielectric constant tensor:
#      x y z
#    x 3.332660 0.000000 -0.055670 
#    y 0.000000 3.160750 -0.000010 
#    z -0.055670 -0.000010 3.840500 
# 
# 
# High freq. dielectric constant tensor:
#      x y z
#    x 1.683170 0.000000 0.008410 
#    y 0.000000 1.679160 0.000000 
#    z 0.008410 0.000000 1.696020 
# 
# From -- ./inp_files/324135.got.cif
#   From: 2010.06.25/outbox.cif.g09.slc.cpg/sg12_163_cif.got.tgz:324135.got - 2010.06.28 00:19:55.
