data_PCOD8082599
_publ_section_title
;
Structure prediction by ZEFSAII (Michael W. Deem and Ramdas Pophale) SiO2 
 PCOD8082599
Probable space group: C 2/M
;
_chemical_formula_sum "Si O2"
_cell_formula_units_Z 64
_cell_length_a 22.853355
_cell_length_b 9.317986
_cell_length_c 16.755596
_cell_angle_alpha 90.000000
_cell_angle_beta 95.567656
_cell_angle_gamma 90.000000
_cell_volume 3551.225028
_symmetry_space_group_name_H-M "C 2/M"
_symmetry_group_IT_number 12
_symmetry_cell_setting 'monoclinic'
loop_
_space_group_symop_operation_xyz
x,y,z
-x,y,-z
-x,-y,-z
x,-y,z
1/2+x,1/2+y,z
1/2-x,1/2+y,-z
1/2-x,1/2-y,-z
1/2+x,1/2-y,z
loop_
_atom_site_type_symbol
_atom_site_label
_atom_site_fract_x
_atom_site_fract_y
_atom_site_fract_z
Si Si1 0.465550 0.330061 0.263001
Si Si2 0.594917 0.839413 0.001585
Si Si3 0.967046 0.829321 0.572625
Si Si4 0.801200 0.830618 0.052086
Si Si5 0.486197 0.159475 0.869908
Si Si6 0.333992 0.332468 0.550988
Si Si7 0.766694 0.832383 0.381352
Si Si8 0.833075 0.169876 0.233158
O O1 0.464381 0.500000 0.258446
O O2 0.495104 0.274695 0.347887
O O3 0.507228 0.275295 0.198170
O O4 0.399362 0.266803 0.247300
O O5 0.573557 0.808837 0.089109
O O6 0.623093 0.000000 0.000418
O O7 0.639279 0.715052 0.983360
O O8 0.540365 0.829545 0.936237
O O9 0.900164 0.772465 0.568126
O O10 0.000000 0.765608 0.500000
O O11 0.965234 0.000000 0.567782
O O12 0.803254 0.783778 0.145594
O O13 0.792829 0.000000 0.042713
O O14 0.750000 0.750000 0.000000
O O15 0.483379 0.000000 0.832134
O O16 0.329947 0.500000 0.570766
O O17 0.293813 0.250211 0.609727
O O18 0.313169 0.301813 0.457926
O O19 0.794278 0.772971 0.302189
O O20 0.751954 0.000000 0.372983
O O21 0.837832 0.000000 0.239844
#
# Coordination Sequence:
#
# PCOD8082599 Si02
#       8
#     8   8   8   8   8   8   8   8
#     4  10  18  31  53  79 104 131 173 220 257 302
#     4   9  18  35  56  76 102 136 172 210 258 317
#     4   9  17  30  51  78 107 137 166 206 258 304
#     4  11  22  37  55  77 105 136 175 220 265 311
#     4   9  18  33  54  78 104 135 170 210 261 314
#     4   9  17  31  51  77 105 131 168 210 249 297
#     4   9  17  32  54  74  98 137 175 206 248 301
#     4   9  18  33  53  76  99 129 173 215 251 304
#
# _framework density 18.021951000000001
#
# number of rings (size 3 to 8) (size 9 to 14) (size 15 to 20)
#    0.000    2.625    1.250    1.875    0.000    3.500 
#    2.250    3.750    0.000    3.000    0.000    0.000 
#    0.000    0.000    0.000    0.000    0.000    0.000 
#
# Total GULP energy -396726.636226 kJ/mol
# GULP energy per Si atom -12397.707382 kJ/mol
# Density = 1.798093 g / cm^3
# Si number density = 18.021951 Si / 1000 Ang^3
#
#
#
# Elastic Constant Matrix: (Units=GPa)
#
#
# Indices 1 2 3 4 5 6 
#
# 1 112.7909 40.1232 73.5410 0.0000 -7.6501 0.0000
# 2 40.1232 41.0167 42.1228 0.0000 -3.3578 0.0000
# 3 73.5410 42.1228 143.7302 0.0000 -12.3132 0.0000
# 4 0.0000 0.0000 0.0000 22.8813 0.0000 -4.1842
# 5 -7.6501 -3.3578 -12.3132 0.0000 30.5499 0.0000
# 6 0.0000 0.0000 0.0000 -4.1842 0.0000 29.2344
#
#
#
# Elastic Compliance Matrix: (Units=1/GPa)
#
#
# Indices 1 2 3 4 5 6 
#
# 1 0.015859 -0.010279 -0.005032 0.000000 0.000813 0.000000
# 2 -0.010279 0.041542 -0.006986 0.000000 -0.000824 0.000000
# 3 -0.005032 -0.006986 0.011814 0.000000 0.002734 0.000000
# 4 0.000000 0.000000 0.000000 0.044878 0.000000 0.006423
# 5 0.000813 -0.000824 0.002734 0.000000 0.033948 0.000000
# 6 0.000000 0.000000 0.000000 0.006423 0.000000 0.035126
#
#
# Mechanical properties :
#
#
# Convention : Reuss Voigt Hill
#
# Bulk Modulus (GPa) = 40.61623 67.67908 54.14766
# Shear Modulus (GPa) = 21.18933 25.98316 23.58624
#
# Velocity S-wave (km/s) = 3.43264 3.80116 3.62159
# Velocity P-wave (km/s) = 6.18843 7.54323 6.89917
#
# Compressibility (1/GPa) = 0.02462070
#
# Stress axis : x y z
#
# Youngs Moduli (GPa) = 63.05717 24.07190 84.64657
#
# Poissons Ratio (x) = 0.24743 0.42596
# Poissons Ratio (y) = 0.64815 0.59135
# Poissons Ratio (z) = 0.31731 0.16817
#
# Static dielectric constant tensor:
#      x y z
#    x 3.097620 0.000000 0.039110 
#    y 0.000000 3.268120 0.000000 
#    z 0.039110 0.000000 3.477600 
# 
# 
# High freq. dielectric constant tensor:
#      x y z
#    x 1.698990 0.000000 -0.008680 
#    y 0.000000 1.667360 0.000000 
#    z -0.008680 0.000000 1.701230 
# 
# From -- ./inp_files/281426.got.cif
#   From: 2010.06.25/outbox.cif.g09.slc.cpg/sg12_141_cif.got.tgz:281426.got - 2010.06.28 00:19:55.
