data_PCOD8082233
_publ_section_title
;
Structure prediction by ZEFSAII (Michael W. Deem and Ramdas Pophale) SiO2 
 PCOD8082233
Probable space group: C 2/M
;
_chemical_formula_sum "Si O2"
_cell_formula_units_Z 56
_cell_length_a 19.300638
_cell_length_b 8.897968
_cell_length_c 28.694786
_cell_angle_alpha 90.000000
_cell_angle_beta 38.645439
_cell_angle_gamma 90.000000
_cell_volume 3077.495146
_symmetry_space_group_name_H-M "C 2/M"
_symmetry_group_IT_number 12
_symmetry_cell_setting 'monoclinic'
loop_
_space_group_symop_operation_xyz
x,y,z
-x,y,-z
-x,-y,-z
x,-y,z
1/2+x,1/2+y,z
1/2-x,1/2+y,-z
1/2-x,1/2-y,-z
1/2+x,1/2-y,z
loop_
_atom_site_type_symbol
_atom_site_label
_atom_site_fract_x
_atom_site_fract_y
_atom_site_fract_z
Si Si1 0.343554 0.673965 0.297951
Si Si2 0.596274 0.174793 0.418108
Si Si3 0.541091 0.674558 0.258959
Si Si4 0.631660 0.822675 0.812566
Si Si5 0.704467 0.325990 0.090671
Si Si6 0.410369 0.674736 0.945676
Si Si7 0.858200 0.322036 0.708372
O O1 0.362044 0.500000 0.273378
O O2 0.215824 0.703570 0.379364
O O3 0.420703 0.715176 0.301132
O O4 0.376816 0.774736 0.236771
O O5 0.500000 0.253183 0.500000
O O6 0.596899 0.238944 0.365084
O O7 0.569505 0.000000 0.428685
O O8 0.548163 0.500000 0.268466
O O9 0.636315 0.718284 0.172262
O O10 0.555033 0.773231 0.297826
O O11 0.523262 0.764382 0.896682
O O12 0.738919 0.751680 0.781176
O O13 0.639202 0.000000 0.812728
O O14 0.737909 0.500000 0.072568
O O15 0.628315 0.287455 0.086378
O O16 0.816598 0.228748 0.031199
O O17 0.432782 0.500000 0.941420
O O18 0.843350 0.500000 0.715275
#
# Coordination Sequence:
#
# PCOD8082233 Si02
#       7
#     8   8   8   8   8   8   8
#     4   9  17  32  54  78 104 137 175 213 254 305
#     4   8  15  31  56  81 103 133 173 212 252 304
#     4  10  19  34  52  74 107 141 173 211 260 312
#     4  11  20  32  52  76 102 135 178 220 261 309
#     4   9  18  31  48  72 103 137 172 214 262 308
#     4  10  18  31  50  74 103 134 175 220 262 305
#     4  10  21  35  53  76 105 137 173 215 260 310
#
# _framework density 18.196615999999999
#
# number of rings (size 3 to 8) (size 9 to 14) (size 15 to 20)
#    0.000    2.429    1.429    3.000    0.000    1.714 
#    0.000    1.429    0.000   15.000    0.000    0.000 
#    0.000    0.000    0.000    0.000    0.000    0.000 
#
# Total GULP energy -347203.456038 kJ/mol
# GULP energy per Si atom -12400.123430 kJ/mol
# Density = 1.815520 g / cm^3
# Si number density = 18.196616 Si / 1000 Ang^3
#
#
#
# Elastic Constant Matrix: (Units=GPa)
#
#
# Indices 1 2 3 4 5 6 
#
# 1 110.3297 34.0273 47.9424 -0.0001 -6.4294 0.0015
# 2 34.0273 70.9990 32.1137 -0.0003 -6.6215 0.0031
# 3 47.9424 32.1137 104.7068 0.0001 -10.3708 -0.0003
# 4 -0.0001 -0.0003 0.0001 16.2625 -0.0001 -0.2360
# 5 -6.4294 -6.6215 -10.3708 -0.0001 20.3741 0.0000
# 6 0.0015 0.0031 -0.0003 -0.2360 0.0000 28.7385
#
#
#
# Elastic Compliance Matrix: (Units=1/GPa)
#
#
# Indices 1 2 3 4 5 6 
#
# 1 0.012158 -0.003821 -0.004358 0.000000 0.000377 0.000000
# 2 -0.003821 0.017719 -0.003406 0.000000 0.002819 -0.000002
# 3 -0.004358 -0.003406 0.013000 0.000000 0.004135 0.000001
# 4 0.000000 0.000000 0.000000 0.061499 0.000000 0.000505
# 5 0.000377 0.002819 0.004135 0.000000 0.052222 0.000000
# 6 0.000000 -0.000002 0.000001 0.000505 0.000000 0.034801
#
#
# Mechanical properties :
#
#
# Convention : Reuss Voigt Hill
#
# Bulk Modulus (GPa) = 50.73931 57.13358 53.93645
# Shear Modulus (GPa) = 22.61058 24.53849 23.57453
#
# Velocity S-wave (km/s) = 3.52884 3.67620 3.60327
# Velocity P-wave (km/s) = 6.67443 7.03458 6.85687
#
# Compressibility (1/GPa) = 0.01970858
#
# Stress axis : x y z
#
# Youngs Moduli (GPa) = 82.25358 56.43580 76.92404
#
# Poissons Ratio (x) = 0.21562 0.33520
# Poissons Ratio (y) = 0.31426 0.26200
# Poissons Ratio (z) = 0.35842 0.19222
#
# Static dielectric constant tensor:
#      x y z
#    x 3.261570 0.000000 -0.143230 
#    y 0.000000 3.177330 0.000000 
#    z -0.143230 0.000000 3.512730 
# 
# 
# High freq. dielectric constant tensor:
#      x y z
#    x 1.690850 0.000000 -0.015430 
#    y 0.000000 1.691100 0.000000 
#    z -0.015430 0.000000 1.698690 
# 
# From -- ./inp_files/314443.got.cif
#   From: 2010.06.25/outbox.cif.g09.slc.cpg/sg12_158_cif.got.tgz:314443.got - 2010.06.28 00:19:55.
