data_PCOD8082807
_publ_section_title
;
Structure prediction by ZEFSAII (Michael W. Deem and Ramdas Pophale) SiO2 
 PCOD8082807
Probable space group: C 2/M
;
_chemical_formula_sum "Si O2"
_cell_formula_units_Z 48
_cell_length_a 25.029038
_cell_length_b 8.790842
_cell_length_c 20.367968
_cell_angle_alpha 90.000000
_cell_angle_beta 144.741203
_cell_angle_gamma 90.000000
_cell_volume 2587.031707
_symmetry_space_group_name_H-M "C 2/M"
_symmetry_group_IT_number 12
_symmetry_cell_setting 'monoclinic'
loop_
_space_group_symop_operation_xyz
x,y,z
-x,y,-z
-x,-y,-z
x,-y,z
1/2+x,1/2+y,z
1/2-x,1/2+y,-z
1/2-x,1/2-y,-z
1/2+x,1/2-y,z
loop_
_atom_site_type_symbol
_atom_site_label
_atom_site_fract_x
_atom_site_fract_y
_atom_site_fract_z
Si Si1 0.500598 0.825365 0.636648
Si Si2 0.515196 0.320816 0.789290
Si Si3 0.810983 0.179276 0.618058
Si Si4 0.301116 0.178842 0.989185
Si Si5 0.807491 0.674779 0.235714
Si Si6 0.311125 0.820150 0.385433
O O1 0.525956 0.723745 0.724388
O O2 0.583209 0.812879 0.667622
O O3 0.408335 0.756943 0.510814
O O4 0.486090 0.000000 0.645008
O O5 0.527770 0.500000 0.809247
O O6 0.416491 0.264772 0.718282
O O7 0.594073 0.238608 0.910713
O O8 0.750000 0.250000 0.500000
O O9 0.771636 0.230932 0.649328
O O10 0.804236 0.000000 0.602765
O O11 0.301177 0.000000 0.999251
O O12 0.250000 0.250000 0.000000
O O13 0.250016 0.221159 0.871053
O O14 0.774382 0.500000 0.195047
O O15 0.790029 0.741060 0.291296
O O16 0.320758 0.000000 0.390243
#
# Coordination Sequence:
#
# PCOD8082807 Si02
#       6
#     8   8   8   8   8   8
#     4  10  18  31  56  85 115 147 182 227 280 337
#     4  11  22  35  55  85 116 147 189 234 276 327
#     4  10  20  35  57  84 114 150 191 232 274 327
#     4  12  24  39  59  82 111 147 187 233 283 336
#     4  10  20  35  57  85 115 149 187 230 279 334
#     4   9  18  34  56  84 117 151 188 227 275 335
#
# _framework density 18.554082999999999
#
# number of rings (size 3 to 8) (size 9 to 14) (size 15 to 20)
#    0.000    1.667    3.333    2.500    0.000    2.667 
#    0.000    2.500    0.000    7.000    0.000    0.000 
#    0.000    0.000    0.000    0.000    0.000    0.000 
#
# Total GULP energy -297660.252826 kJ/mol
# GULP energy per Si atom -12402.510534 kJ/mol
# Density = 1.851185 g / cm^3
# Si number density = 18.554083 Si / 1000 Ang^3
#
#
#
# Elastic Constant Matrix: (Units=GPa)
#
#
# Indices 1 2 3 4 5 6 
#
# 1 129.5695 28.7490 54.9480 0.0000 2.3880 0.0000
# 2 28.7490 67.8379 35.8626 0.0000 6.9199 0.0000
# 3 54.9480 35.8626 118.8621 0.0000 7.2049 0.0000
# 4 0.0000 0.0000 0.0000 30.6041 0.0000 -1.2918
# 5 2.3880 6.9199 7.2049 0.0000 35.1411 0.0000
# 6 0.0000 0.0000 0.0000 -1.2918 0.0000 18.1539
#
#
#
# Elastic Compliance Matrix: (Units=1/GPa)
#
#
# Indices 1 2 3 4 5 6 
#
# 1 0.009856 -0.002151 -0.003942 0.000000 0.000562 0.000000
# 2 -0.002151 0.018210 -0.004345 0.000000 -0.002549 0.000000
# 3 -0.003942 -0.004345 0.011623 0.000000 -0.001259 0.000000
# 4 0.000000 0.000000 0.000000 0.032774 0.000000 0.002332
# 5 0.000562 -0.002549 -0.001259 0.000000 0.029179 0.000000
# 6 0.000000 0.000000 0.000000 0.002332 0.000000 0.055251
#
#
# Mechanical properties :
#
#
# Convention : Reuss Voigt Hill
#
# Bulk Modulus (GPa) = 53.15380 61.70983 57.43182
# Shear Modulus (GPa) = 27.16832 29.89381 28.53107
#
# Velocity S-wave (km/s) = 3.83074 4.01829 3.92564
# Velocity P-wave (km/s) = 6.94812 7.40679 7.18112
#
# Compressibility (1/GPa) = 0.01881333
#
# Stress axis : x y z
#
# Youngs Moduli (GPa) = 101.45881 54.91599 86.03874
#
# Poissons Ratio (x) = 0.11810 0.33913
# Poissons Ratio (y) = 0.21819 0.37388
# Poissons Ratio (z) = 0.39991 0.23864
#
# Static dielectric constant tensor:
#      x y z
#    x 3.425330 0.000000 0.138540 
#    y 0.000000 3.237430 0.000000 
#    z 0.138540 0.000000 3.548220 
# 
# 
# High freq. dielectric constant tensor:
#      x y z
#    x 1.720550 0.000000 0.005700 
#    y 0.000000 1.700600 0.000000 
#    z 0.005700 0.000000 1.723960 
# 
# From -- ./inp_files/327353.got.cif
#   From: 2010.06.25/outbox.cif.g09.slc.cpg/sg12_164_cif.got.tgz:327353.got - 2010.06.28 00:19:55.
