data_PCOD8082499
_publ_section_title
;
Structure prediction by ZEFSAII (Michael W. Deem and Ramdas Pophale) SiO2 
 PCOD8082499
Probable space group: C 2/M
;
_chemical_formula_sum "Si O2"
_cell_formula_units_Z 40
_cell_length_a 19.115901
_cell_length_b 8.442789
_cell_length_c 12.711625
_cell_angle_alpha 90.000000
_cell_angle_beta 92.649378
_cell_angle_gamma 90.000000
_cell_volume 2049.355573
_symmetry_space_group_name_H-M "C 2/M"
_symmetry_group_IT_number 12
_symmetry_cell_setting 'monoclinic'
loop_
_space_group_symop_operation_xyz
x,y,z
-x,y,-z
-x,-y,-z
x,-y,z
1/2+x,1/2+y,z
1/2-x,1/2+y,-z
1/2-x,1/2-y,-z
1/2+x,1/2-y,z
loop_
_atom_site_type_symbol
_atom_site_label
_atom_site_fract_x
_atom_site_fract_y
_atom_site_fract_z
Si Si1 0.946445 0.315818 0.632171
Si Si2 0.909539 0.816662 0.412937
Si Si3 0.828018 0.187845 0.018986
Si Si4 0.312453 0.814694 0.234278
Si Si5 0.841097 0.686232 0.806430
O O1 0.964835 0.500000 0.640429
O O2 0.906050 0.281829 0.520713
O O3 0.898365 0.261863 0.725518
O O4 0.018605 0.219171 0.644030
O O5 0.843225 0.770611 0.338484
O O6 0.906057 0.000000 0.441800
O O7 0.870896 0.260887 0.923314
O O8 0.831560 0.000000 0.016252
O O9 0.750000 0.250000 0.000000
O O10 0.854198 0.250764 0.133914
O O11 0.230307 0.778039 0.223877
O O12 0.325247 0.000000 0.244421
O O13 0.825631 0.500000 0.802976
#
# Coordination Sequence:
#
# PCOD8082499 Si02
#       5
#     8   8   8   8   8
#     4  10  21  38  58  79 107 142 178 217 265 320
#     4  11  22  37  57  79 107 141 179 221 266 318
#     4  10  18  31  52  78 109 141 175 215 263 316
#     4  11  21  35  56  80 109 142 179 221 264 313
#     4  10  20  35  56  82 110 140 177 219 263 314
#
# _framework density 19.518329999999999
#
# number of rings (size 3 to 8) (size 9 to 14) (size 15 to 20)
#    0.000    1.600    0.000   10.200    0.000    4.000 
#    0.000    1.000    0.000    6.000    0.000    0.000 
#    0.000    0.000    0.000    0.000    0.000    0.000 
#
# Total GULP energy -248016.894688 kJ/mol
# GULP energy per Si atom -12400.844734 kJ/mol
# Density = 1.947391 g / cm^3
# Si number density = 19.518330 Si / 1000 Ang^3
#
#
#
# Elastic Constant Matrix: (Units=GPa)
#
#
# Indices 1 2 3 4 5 6 
#
# 1 25.7818 16.2731 13.8081 0.0000 -17.9246 0.0000
# 2 16.2731 77.5766 19.2712 0.0000 -9.0285 0.0000
# 3 13.8081 19.2712 69.0577 0.0000 -31.4217 0.0000
# 4 0.0000 0.0000 0.0000 34.7752 0.0000 1.0035
# 5 -17.9246 -9.0285 -31.4217 0.0000 35.3610 0.0000
# 6 0.0000 0.0000 0.0000 1.0035 0.0000 28.2305
#
#
#
# Elastic Compliance Matrix: (Units=1/GPa)
#
#
# Indices 1 2 3 4 5 6 
#
# 1 0.068969 -0.011727 0.006760 0.000000 0.037974 0.000000
# 2 -0.011727 0.015845 -0.004937 0.000000 -0.006286 0.000000
# 3 0.006760 -0.004937 0.026008 0.000000 0.025277 0.000000
# 4 0.000000 0.000000 0.000000 0.028786 0.000000 -0.001023
# 5 0.037974 -0.006286 0.025277 0.000000 0.068384 0.000000
# 6 0.000000 0.000000 0.000000 -0.001023 0.000000 0.035459
#
#
# Mechanical properties :
#
#
# Convention : Reuss Voigt Hill
#
# Bulk Modulus (GPa) = 10.98730 30.12455 20.55592
# Shear Modulus (GPa) = 17.03011 27.87761 22.45386
#
# Velocity S-wave (km/s) = 2.95705 3.78336 3.39543
# Velocity P-wave (km/s) = 4.15936 5.87814 5.09180
#
# Compressibility (1/GPa) = 0.09101421
#
# Stress axis : x y z
#
# Youngs Moduli (GPa) = 14.49920 63.10980 38.45025
#
# Poissons Ratio (x) = 0.74012 -0.25994
# Poissons Ratio (y) = 0.17004 0.18983
# Poissons Ratio (z) = -0.09802 0.31158
#
# Static dielectric constant tensor:
#      x y z
#    x 3.257720 0.000000 -0.185440 
#    y 0.000000 3.658680 0.000000 
#    z -0.185440 0.000000 4.321670 
# 
# 
# High freq. dielectric constant tensor:
#      x y z
#    x 1.723120 0.000000 -0.005250 
#    y 0.000000 1.778560 0.000000 
#    z -0.005250 0.000000 1.777600 
# 
# From -- ./inp_files/162583.got.cif
#   From: 2010.06.25/outbox.cif.g09.slc.cpg/sg12_82_cif.got.tgz:162583.got - 2010.06.28 00:19:55.
