data_PCOD8082096
_publ_section_title
;
Structure prediction by ZEFSAII (Michael W. Deem and Ramdas Pophale) SiO2 
 PCOD8082096
Probable space group: C 2/M
;
_chemical_formula_sum "Si O2"
_cell_formula_units_Z 48
_cell_length_a 18.853880
_cell_length_b 13.195782
_cell_length_c 22.760850
_cell_angle_alpha 90.000000
_cell_angle_beta 151.506273
_cell_angle_gamma 90.000000
_cell_volume 2701.466984
_symmetry_space_group_name_H-M "C 2/M"
_symmetry_group_IT_number 12
_symmetry_cell_setting 'monoclinic'
loop_
_space_group_symop_operation_xyz
x,y,z
-x,y,-z
-x,-y,-z
x,-y,z
1/2+x,1/2+y,z
1/2-x,1/2+y,-z
1/2-x,1/2-y,-z
1/2+x,1/2-y,z
loop_
_atom_site_type_symbol
_atom_site_label
_atom_site_fract_x
_atom_site_fract_y
_atom_site_fract_z
Si Si1 0.141604 0.885505 0.913208
Si Si2 0.881261 0.690825 0.172315
Si Si3 0.710229 0.115603 0.435507
Si Si4 0.835742 0.381270 0.263786
Si Si5 0.661650 0.384670 0.248833
Si Si6 0.649669 0.801075 0.512889
O O1 0.122888 0.811110 0.843984
O O2 0.011705 0.863707 0.866132
O O3 0.134229 0.000000 0.883604
O O4 0.297382 0.868278 0.059334
O O5 0.800824 0.670779 0.175968
O O6 0.048829 0.651278 0.295941
O O7 0.721055 0.128860 0.513733
O O8 0.836592 0.183407 0.496445
O O9 0.739477 0.000000 0.439326
O O10 0.867249 0.500000 0.276111
O O11 0.696657 0.362282 0.205848
O O12 0.978701 0.329917 0.398192
O O13 0.704971 0.500000 0.295253
O O14 0.761913 0.314182 0.362621
#
# Coordination Sequence:
#
# PCOD8082096 Si02
#       6
#     8   8   8   8   8   8
#     4  10  20  33  54  79 101 129 169 211 250 293
#     4  10  19  35  51  76 103 135 166 205 252 296
#     4  10  19  31  50  73 101 135 167 205 249 296
#     4  10  20  33  52  75 104 137 164 201 255 306
#     4  10  19  32  51  78 105 129 162 208 255 298
#     4  10  18  31  48  75 100 131 167 205 245 298
#
# _framework density 17.768124
#
# number of rings (size 3 to 8) (size 9 to 14) (size 15 to 20)
#    0.000    2.000    1.667    4.500    0.000    2.000 
#    0.000    2.500    0.000    3.000    0.000    2.333 
#    0.000    0.000    0.000    0.000    0.000    0.000 
#
# Total GULP energy -297614.341328 kJ/mol
# GULP energy per Si atom -12400.597555 kJ/mol
# Density = 1.772768 g / cm^3
# Si number density = 17.768124 Si / 1000 Ang^3
#
#
#
# Elastic Constant Matrix: (Units=GPa)
#
#
# Indices 1 2 3 4 5 6 
#
# 1 86.0146 51.5191 22.6766 0.0022 -5.0554 0.0002
# 2 51.5191 130.3926 33.5863 0.0059 -4.3773 0.0009
# 3 22.6766 33.5863 47.0709 0.0099 -4.7046 0.0038
# 4 0.0022 0.0059 0.0099 21.7681 -0.0008 -1.2515
# 5 -5.0554 -4.3773 -4.7046 -0.0008 18.8239 0.0003
# 6 0.0002 0.0009 0.0038 -1.2515 0.0003 23.8907
#
#
#
# Elastic Compliance Matrix: (Units=1/GPa)
#
#
# Indices 1 2 3 4 5 6 
#
# 1 0.015866 -0.005248 -0.003687 0.000002 0.002119 0.000001
# 2 -0.005248 0.011137 -0.005436 0.000000 -0.000178 0.000000
# 3 -0.003687 -0.005436 0.027358 -0.000011 0.004583 -0.000005
# 4 0.000002 0.000000 -0.000011 0.046078 0.000000 0.002414
# 5 0.002119 -0.000178 0.004583 0.000000 0.054797 -0.000001
# 6 0.000001 0.000000 -0.000005 0.002414 -0.000001 0.041984
#
#
# Mechanical properties :
#
#
# Convention : Reuss Voigt Hill
#
# Bulk Modulus (GPa) = 39.03473 53.22689 46.13081
# Shear Modulus (GPa) = 21.32196 23.27629 22.29913
#
# Velocity S-wave (km/s) = 3.46788 3.62332 3.54645
# Velocity P-wave (km/s) = 6.16859 6.89391 6.54131
#
# Compressibility (1/GPa) = 0.02561821
#
# Stress axis : x y z
#
# Youngs Moduli (GPa) = 63.02882 89.79218 36.55284
#
# Poissons Ratio (x) = 0.47121 0.13478
# Poissons Ratio (y) = 0.33076 0.19870
# Poissons Ratio (z) = 0.23240 0.48812
#
# Static dielectric constant tensor:
#      x y z
#    x 3.245620 0.000000 0.020810 
#    y 0.000000 3.328950 -0.000010 
#    z 0.020810 -0.000010 3.228970 
# 
# 
# High freq. dielectric constant tensor:
#      x y z
#    x 1.668170 0.000000 -0.002380 
#    y 0.000000 1.679140 0.000000 
#    z -0.002380 0.000000 1.688870 
# 
# From -- ./inp_files/153627.got.cif
#   From: 2010.06.25/outbox.cif.g09.slc.cpg/sg12_77_cif.got.tgz:153627.got - 2010.06.28 00:19:55.
