data_PCOD8082394
_publ_section_title
;
Structure prediction by ZEFSAII (Michael W. Deem and Ramdas Pophale) SiO2 
 PCOD8082394
Probable space group: C 2/M
;
_chemical_formula_sum "Si O2"
_cell_formula_units_Z 64
_cell_length_a 14.545005
_cell_length_b 9.498325
_cell_length_c 26.362666
_cell_angle_alpha 90.000000
_cell_angle_beta 103.057074
_cell_angle_gamma 90.000000
_cell_volume 3547.921948
_symmetry_space_group_name_H-M "C 2/M"
_symmetry_group_IT_number 12
_symmetry_cell_setting 'monoclinic'
loop_
_space_group_symop_operation_xyz
x,y,z
-x,y,-z
-x,-y,-z
x,-y,z
1/2+x,1/2+y,z
1/2-x,1/2+y,-z
1/2-x,1/2-y,-z
1/2+x,1/2-y,z
loop_
_atom_site_type_symbol
_atom_site_label
_atom_site_fract_x
_atom_site_fract_y
_atom_site_fract_z
Si Si1 0.040545 0.336568 0.059006
Si Si2 0.297073 0.335794 0.873281
Si Si3 0.854063 0.834920 0.376933
Si Si4 0.815635 0.165853 0.675434
Si Si5 0.579711 0.164117 0.858432
Si Si6 0.663786 0.664151 0.509405
Si Si7 0.917806 0.837251 0.791128
Si Si8 0.560005 0.335164 0.399120
O O1 0.068857 0.500000 0.063349
O O2 0.136179 0.249220 0.079932
O O3 0.958461 0.304382 0.089736
O O4 0.000000 0.289556 0.000000
O O5 0.304738 0.500000 0.888004
O O6 0.188368 0.284892 0.865869
O O7 0.334920 0.304585 0.821314
O O8 0.782978 0.746780 0.333668
O O9 0.856790 0.789733 0.436136
O O10 0.956151 0.789217 0.369054
O O11 0.832991 0.000000 0.368100
O O12 0.878205 0.205255 0.731545
O O13 0.865431 0.229841 0.631199
O O14 0.795552 0.000000 0.670602
O O15 0.512710 0.248018 0.811392
O O16 0.572161 0.000000 0.843887
O O17 0.687695 0.500000 0.509369
O O18 0.750000 0.750000 0.500000
O O19 0.578042 0.703192 0.460425
O O20 0.947171 0.000000 0.797330
O O21 0.568812 0.500000 0.393147
#
# Coordination Sequence:
#
# PCOD8082394 Si02
#       8
#     8   8   8   8   8   8   8   8
#     4   9  18  32  49  73 104 133 164 203 243 284
#     4   9  18  33  51  72  99 131 167 202 241 289
#     4  10  20  33  51  74  96 123 161 197 233 287
#     4  10  20  35  52  71  98 128 157 197 248 289
#     4   9  18  33  52  72  97 131 166 201 243 287
#     4  10  18  31  52  72  94 125 158 192 234 285
#     4   9  19  34  51  71  96 127 163 202 242 288
#     4   9  18  33  51  70  96 128 157 189 237 292
#
# _framework density 18.038727999999999
#
# number of rings (size 3 to 8) (size 9 to 14) (size 15 to 20)
#    0.000    2.625    1.250    0.375    0.000    4.250 
#    0.000    1.250    0.000    1.500    0.000    0.000 
#    0.000    0.000    0.000    0.000    0.000    0.000 
#
# Total GULP energy -396679.513607 kJ/mol
# GULP energy per Si atom -12396.234800 kJ/mol
# Density = 1.799767 g / cm^3
# Si number density = 18.038728 Si / 1000 Ang^3
#
#
#
# Elastic Constant Matrix: (Units=GPa)
#
#
# Indices 1 2 3 4 5 6 
#
# 1 128.6569 41.5551 38.2171 0.0000 22.5202 0.0000
# 2 41.5551 41.6172 39.5633 0.0000 14.9251 0.0000
# 3 38.2171 39.5633 82.6849 0.0000 21.5218 0.0000
# 4 0.0000 0.0000 0.0000 24.6148 0.0000 6.5297
# 5 22.5202 14.9251 21.5218 0.0000 23.9872 0.0000
# 6 0.0000 0.0000 0.0000 6.5297 0.0000 30.1795
#
#
#
# Elastic Compliance Matrix: (Units=1/GPa)
#
#
# Indices 1 2 3 4 5 6 
#
# 1 0.011960 -0.011172 0.001215 0.000000 -0.005367 0.000000
# 2 -0.011172 0.056899 -0.020323 0.000000 -0.006681 0.000000
# 3 0.001215 -0.020323 0.023827 0.000000 -0.009873 0.000000
# 4 0.000000 0.000000 0.000000 0.043100 0.000000 -0.009325
# 5 -0.005367 -0.006681 -0.009873 0.000000 0.059743 0.000000
# 6 0.000000 0.000000 0.000000 -0.009325 0.000000 0.035153
#
#
# Mechanical properties :
#
#
# Convention : Reuss Voigt Hill
#
# Bulk Modulus (GPa) = 31.12776 54.62557 42.87666
# Shear Modulus (GPa) = 16.55906 24.66453 20.61180
#
# Velocity S-wave (km/s) = 3.03309 3.70173 3.38396
# Velocity P-wave (km/s) = 5.43689 6.97270 6.25213
#
# Compressibility (1/GPa) = 0.03212566
#
# Stress axis : x y z
#
# Youngs Moduli (GPa) = 83.61478 17.57485 41.96972
#
# Poissons Ratio (x) = 0.19634 -0.05098
# Poissons Ratio (y) = 0.93413 0.85295
# Poissons Ratio (z) = -0.10157 0.35717
#
# Static dielectric constant tensor:
#      x y z
#    x 3.590290 0.000000 -0.605290 
#    y 0.000000 3.160710 0.000000 
#    z -0.605290 0.000000 4.748930 
# 
# 
# High freq. dielectric constant tensor:
#      x y z
#    x 1.703890 0.000000 0.002420 
#    y 0.000000 1.679040 0.000000 
#    z 0.002420 0.000000 1.697530 
# 
# From -- ./inp_files/335252.got.cif
#   From: 2010.06.25/outbox.cif.g09.slc.cpg/sg12_168_cif.got.tgz:335252.got - 2010.06.28 00:19:55.
