data_PCOD8082009
_publ_section_title
;
Structure prediction by ZEFSAII (Michael W. Deem and Ramdas Pophale) SiO2 
 PCOD8082009
Probable space group: C 2/M
;
_chemical_formula_sum "Si O2"
_cell_formula_units_Z 48
_cell_length_a 14.744128
_cell_length_b 17.874198
_cell_length_c 9.757131
_cell_angle_alpha 90.000000
_cell_angle_beta 103.882626
_cell_angle_gamma 90.000000
_cell_volume 2496.276946
_symmetry_space_group_name_H-M "C 2/M"
_symmetry_group_IT_number 12
_symmetry_cell_setting 'monoclinic'
loop_
_space_group_symop_operation_xyz
x,y,z
-x,y,-z
-x,-y,-z
x,-y,z
1/2+x,1/2+y,z
1/2-x,1/2+y,-z
1/2-x,1/2-y,-z
1/2+x,1/2-y,z
loop_
_atom_site_type_symbol
_atom_site_label
_atom_site_fract_x
_atom_site_fract_y
_atom_site_fract_z
Si Si1 0.958387 0.731877 0.830148
Si Si2 0.469181 0.500000 0.222654
Si Si3 0.055146 0.158098 0.657435
Si Si4 0.257350 0.715337 0.198633
Si Si5 0.271743 0.128062 0.078767
Si Si6 0.972999 0.420909 0.146978
Si Si7 0.360916 0.500000 0.899691
O O1 0.845887 0.732234 0.781291
O O2 0.004168 0.799550 0.764431
O O3 0.985278 0.652998 0.766563
O O4 0.000000 0.737130 0.000000
O O5 0.445710 0.570722 0.308260
O O6 0.576850 0.500000 0.214132
O O7 0.411441 0.500000 0.062894
O O8 0.162176 0.186080 0.668698
O O9 0.000000 0.175381 0.500000
O O10 0.295622 0.794288 0.160530
O O11 0.257576 0.649757 0.085605
O O12 0.362086 0.076865 0.113539
O O13 0.194649 0.078271 0.127082
O O14 0.009367 0.500000 0.225493
O O15 0.000000 0.417355 0.000000
#
# Coordination Sequence:
#
# PCOD8082009 Si02
#       7
#     8   4   8   8   8   8   4
#     4  11  21  39  63  92 123 156 201 259 307 362
#     4  11  25  40  58  88 125 156 208 260 302 359
#     4  12  26  43  62  85 125 172 209 249 300 364
#     4  11  21  35  59  87 120 157 199 250 299 356
#     4  11  18  33  56  91 120 144 194 251 311 354
#     4  10  18  30  54  88 123 148 183 245 310 361
#     4  11  22  34  63  96 114 157 197 257 311 372
#
# _framework density 19.228635000000001
#
# number of rings (size 3 to 8) (size 9 to 14) (size 15 to 20)
#    0.000    1.000    7.500    2.250    2.333    0.667 
#    1.500    0.000    0.000    0.500    0.000    0.000 
#    0.000    0.000    0.000    0.000    0.000    0.000 
#
# Total GULP energy -297371.419609 kJ/mol
# GULP energy per Si atom -12390.475817 kJ/mol
# Density = 1.918487 g / cm^3
# Si number density = 19.228635 Si / 1000 Ang^3
#
#
#
# Elastic Constant Matrix: (Units=GPa)
#
#
# Indices 1 2 3 4 5 6 
#
# 1 126.6252 10.4656 23.9779 0.0000 5.1401 0.0000
# 2 10.4656 81.5104 16.4188 0.0000 -3.2838 0.0000
# 3 23.9779 16.4188 52.2062 0.0000 13.6278 0.0000
# 4 0.0000 0.0000 0.0000 2.3297 0.0000 2.5389
# 5 5.1401 -3.2838 13.6278 0.0000 21.9216 0.0000
# 6 0.0000 0.0000 0.0000 2.5389 0.0000 32.8111
#
#
#
# Elastic Compliance Matrix: (Units=1/GPa)
#
#
# Indices 1 2 3 4 5 6 
#
# 1 0.008661 -0.000291 -0.003993 0.000000 0.000408 0.000000
# 2 -0.000291 0.013666 -0.005630 0.000000 0.005615 0.000000
# 3 -0.003993 -0.005630 0.027139 0.000000 -0.016779 0.000000
# 4 0.000000 0.000000 0.000000 0.468767 0.000000 -0.036272
# 5 0.000408 0.005615 -0.016779 0.000000 0.056793 0.000000
# 6 0.000000 0.000000 0.000000 -0.036272 0.000000 0.033284
#
#
# Mechanical properties :
#
#
# Convention : Reuss Voigt Hill
#
# Bulk Modulus (GPa) = 33.74041 40.22960 36.98501
# Shear Modulus (GPa) = 7.83677 25.37777 16.60727
#
# Velocity S-wave (km/s) = 2.02099 3.63683 2.94202
# Velocity P-wave (km/s) = 4.79906 6.21309 5.55128
#
# Compressibility (1/GPa) = 0.02963805
#
# Stress axis : x y z
#
# Youngs Moduli (GPa) = 115.46118 73.17397 36.84716
#
# Poissons Ratio (x) = 0.02132 0.14712
# Poissons Ratio (y) = 0.03364 0.20745
# Poissons Ratio (z) = 0.46100 0.41197
#
# Static dielectric constant tensor:
#      x y z
#    x 3.724590 0.000000 -0.008160 
#    y 0.000000 4.098840 0.000000 
#    z -0.008160 0.000000 2.968790 
# 
# 
# High freq. dielectric constant tensor:
#      x y z
#    x 1.766990 0.000000 -0.004470 
#    y 0.000000 1.778580 0.000000 
#    z -0.004470 0.000000 1.677610 
# 
# From -- ./inp_files/61786.got.cif
#   From: 2010.06.25/outbox.cif.g09.slc.cpg/sg12_31_cif.got.tgz:61786.got - 2010.06.28 00:19:55.
