data_PCOD8082981
_publ_section_title
;
Structure prediction by ZEFSAII (Michael W. Deem and Ramdas Pophale) SiO2 
 PCOD8082981
Probable space group: C 2/M
;
_chemical_formula_sum "Si O2"
_cell_formula_units_Z 56
_cell_length_a 31.799599
_cell_length_b 9.010069
_cell_length_c 11.861080
_cell_angle_alpha 90.000000
_cell_angle_beta 62.426037
_cell_angle_gamma 90.000000
_cell_volume 3012.385954
_symmetry_space_group_name_H-M "C 2/M"
_symmetry_group_IT_number 12
_symmetry_cell_setting 'monoclinic'
loop_
_space_group_symop_operation_xyz
x,y,z
-x,y,-z
-x,-y,-z
x,-y,z
1/2+x,1/2+y,z
1/2-x,1/2+y,-z
1/2-x,1/2-y,-z
1/2+x,1/2-y,z
loop_
_atom_site_type_symbol
_atom_site_label
_atom_site_fract_x
_atom_site_fract_y
_atom_site_fract_z
Si Si1 0.124550 0.174519 0.941408
Si Si2 0.706755 0.326558 0.686787
Si Si3 0.482986 0.171668 0.316167
Si Si4 0.894293 0.328251 0.579891
Si Si5 0.582699 0.676438 0.224799
Si Si6 0.453421 0.331132 0.132231
Si Si7 0.812291 0.674791 0.516792
O O1 0.178205 0.215761 0.836686
O O2 0.088872 0.236414 0.890734
O O3 0.116394 0.000000 0.957527
O O4 0.111996 0.238629 0.080228
O O5 0.702687 0.500000 0.666903
O O6 0.761462 0.278377 0.633439
O O7 0.681780 0.246694 0.612813
O O8 0.446208 0.194514 0.463323
O O9 0.529124 0.266488 0.286534
O O10 0.458007 0.225626 0.233596
O O11 0.497292 0.000000 0.286053
O O12 0.884790 0.500000 0.619005
O O13 0.890274 0.236422 0.699587
O O14 0.853788 0.266013 0.546408
O O15 0.581353 0.500000 0.230158
O O16 0.443289 0.500000 0.184938
O O17 0.500000 0.326118 0.000000
O O18 0.816465 0.500000 0.495645
#
# Coordination Sequence:
#
# PCOD8082981 Si02
#       7
#     8   8   8   8   8   8   8
#     4   9  18  33  52  76 105 135 168 210 258 300
#     4   9  17  32  57  82 103 132 167 205 255 310
#     4  11  22  35  52  75 104 137 173 213 258 308
#     4  10  22  38  52  72 105 139 171 212 261 304
#     4  11  22  37  54  73 101 137 178 217 252 300
#     4  10  18  32  52  74 105 137 167 209 254 298
#     4   9  18  34  55  79 107 133 163 209 258 303
#
# _framework density 18.589915000000001
#
# number of rings (size 3 to 8) (size 9 to 14) (size 15 to 20)
#    0.000    2.143    1.429    2.143    0.000    3.714 
#    0.000    2.143    0.000    0.000    0.000    0.000 
#    0.000    0.000    0.000    0.000    0.000    0.000 
#
# Total GULP energy -347204.880867 kJ/mol
# GULP energy per Si atom -12400.174317 kJ/mol
# Density = 1.854760 g / cm^3
# Si number density = 18.589915 Si / 1000 Ang^3
#
#
#
# Elastic Constant Matrix: (Units=GPa)
#
#
# Indices 1 2 3 4 5 6 
#
# 1 93.8026 30.1904 62.8341 0.0000 2.1949 0.0000
# 2 30.1904 49.1542 39.2963 0.0000 5.4296 0.0000
# 3 62.8341 39.2963 116.2459 0.0000 4.3337 0.0000
# 4 0.0000 0.0000 0.0000 25.0104 0.0000 6.3900
# 5 2.1949 5.4296 4.3337 0.0000 29.5415 0.0000
# 6 0.0000 0.0000 0.0000 6.3900 0.0000 24.8005
#
#
#
# Elastic Compliance Matrix: (Units=1/GPa)
#
#
# Indices 1 2 3 4 5 6 
#
# 1 0.017373 -0.004410 -0.007925 0.000000 0.000682 0.000000
# 2 -0.004410 0.029420 -0.007413 0.000000 -0.003992 0.000000
# 3 -0.007925 -0.007413 0.015404 0.000000 -0.000308 0.000000
# 4 0.000000 0.000000 0.000000 0.042801 0.000000 -0.011028
# 5 0.000682 -0.003992 -0.000308 0.000000 0.034579 0.000000
# 6 0.000000 0.000000 0.000000 -0.011028 0.000000 0.043163
#
#
# Mechanical properties :
#
#
# Convention : Reuss Voigt Hill
#
# Bulk Modulus (GPa) = 44.05182 58.20492 51.12837
# Shear Modulus (GPa) = 21.75791 24.32928 23.04360
#
# Velocity S-wave (km/s) = 3.42484 3.62157 3.52458
# Velocity P-wave (km/s) = 6.27594 6.99039 6.64278
#
# Compressibility (1/GPa) = 0.02270054
#
# Stress axis : x y z
#
# Youngs Moduli (GPa) = 57.56149 33.99078 64.92030
#
# Poissons Ratio (x) = 0.14990 0.51450
# Poissons Ratio (y) = 0.25384 0.48123
# Poissons Ratio (z) = 0.45618 0.25196
#
# Static dielectric constant tensor:
#      x y z
#    x 3.524270 0.000000 -0.044560 
#    y 0.000000 3.269420 0.000000 
#    z -0.044560 0.000000 3.612420 
# 
# 
# High freq. dielectric constant tensor:
#      x y z
#    x 1.719080 0.000000 -0.005150 
#    y 0.000000 1.704780 0.000000 
#    z -0.005150 0.000000 1.725780 
# 
# From -- ./inp_files/186432.got.cif
#   From: 2010.06.25/outbox.cif.g09.slc.cpg/sg12_94_cif.got.tgz:186432.got - 2010.06.28 00:19:55.
