data_PCOD8082837
_publ_section_title
;
Structure prediction by ZEFSAII (Michael W. Deem and Ramdas Pophale) SiO2 
 PCOD8082837
Probable space group: C 2/M
;
_chemical_formula_sum "Si O2"
_cell_formula_units_Z 64
_cell_length_a 9.823586
_cell_length_b 20.237485
_cell_length_c 22.040533
_cell_angle_alpha 90.000000
_cell_angle_beta 125.356693
_cell_angle_gamma 90.000000
_cell_volume 3573.612705
_symmetry_space_group_name_H-M "C 2/M"
_symmetry_group_IT_number 12
_symmetry_cell_setting 'monoclinic'
loop_
_space_group_symop_operation_xyz
x,y,z
-x,y,-z
-x,-y,-z
x,-y,z
1/2+x,1/2+y,z
1/2-x,1/2+y,-z
1/2-x,1/2-y,-z
1/2+x,1/2-y,z
loop_
_atom_site_type_symbol
_atom_site_label
_atom_site_fract_x
_atom_site_fract_y
_atom_site_fract_z
Si Si1 0.217440 0.818759 0.313700
Si Si2 0.355584 0.347826 0.507267
Si Si3 0.883940 0.707636 0.910780
Si Si4 0.475290 0.314972 0.142343
Si Si5 0.686044 0.076931 0.565456
Si Si6 0.572535 0.766451 0.382880
Si Si7 0.509329 0.071517 0.930734
Si Si8 0.390439 0.424322 0.027499
O O1 0.258937 0.885839 0.359738
O O2 0.383461 0.789848 0.325733
O O3 0.134678 0.765954 0.337049
O O4 0.087975 0.835739 0.227815
O O5 0.500000 0.374304 0.500000
O O6 0.310646 0.405911 0.542532
O O7 0.422621 0.283238 0.559118
O O8 0.190718 0.329063 0.426766
O O9 0.693999 0.720241 0.880080
O O10 0.929573 0.763935 0.875608
O O11 0.900833 0.635109 0.882493
O O12 0.000000 0.711486 0.000000
O O13 0.431695 0.382549 0.097329
O O14 0.500000 0.100396 0.500000
O O15 0.693974 0.000000 0.581668
O O16 0.447001 0.000000 0.887540
O O17 0.500000 0.065620 0.000000
O O18 0.698692 0.084314 0.958775
O O19 0.434009 0.500000 0.054158
O O20 0.500000 0.397631 0.000000
#
# Coordination Sequence:
#
# PCOD8082837 Si02
#       8
#     8   8   8   8   8   8   8   8
#     4  11  22  37  55  81 118 149 181 226 284 332
#     4  10  18  31  59  85 106 138 184 231 265 312
#     4  11  22  37  57  84 112 147 190 237 283 334
#     4  12  24  36  55  84 116 152 181 233 293 341
#     4  10  21  37  58  83 112 149 192 229 269 327
#     4  10  19  33  53  84 110 140 181 226 269 323
#     4   9  17  34  58  79 101 135 183 232 273 321
#     4  10  21  37  58  82 106 140 191 240 280 335
#
# _framework density 17.909047999999999
#
# number of rings (size 3 to 8) (size 9 to 14) (size 15 to 20)
#    0.000    1.625    5.000    1.500    1.750    0.750 
#    0.000    0.000    0.000    0.000    0.000    0.000 
#    0.000    0.000    0.000    0.000    0.000    0.000 
#
# Total GULP energy -396821.907658 kJ/mol
# GULP energy per Si atom -12400.684614 kJ/mol
# Density = 1.786829 g / cm^3
# Si number density = 17.909048 Si / 1000 Ang^3
#
#
#
# Elastic Constant Matrix: (Units=GPa)
#
#
# Indices 1 2 3 4 5 6 
#
# 1 132.7773 25.1756 29.1998 0.0000 5.4188 0.0000
# 2 25.1756 78.3903 32.0478 0.0000 -6.9005 0.0000
# 3 29.1998 32.0478 86.0320 0.0000 6.0586 0.0000
# 4 0.0000 0.0000 0.0000 7.9038 0.0000 0.3582
# 5 5.4188 -6.9005 6.0586 0.0000 20.9787 0.0000
# 6 0.0000 0.0000 0.0000 0.3582 0.0000 24.4431
#
#
#
# Elastic Compliance Matrix: (Units=1/GPa)
#
#
# Indices 1 2 3 4 5 6 
#
# 1 0.008452 -0.002141 -0.001907 0.000000 -0.002337 0.000000
# 2 -0.002141 0.016575 -0.005993 0.000000 0.007736 0.000000
# 3 -0.001907 -0.005993 0.014910 0.000000 -0.005785 0.000000
# 4 0.000000 0.000000 0.000000 0.126606 0.000000 -0.001855
# 5 -0.002337 0.007736 -0.005785 0.000000 0.052486 0.000000
# 6 0.000000 0.000000 0.000000 -0.001855 0.000000 0.040939
#
#
# Mechanical properties :
#
#
# Convention : Reuss Voigt Hill
#
# Bulk Modulus (GPa) = 50.35856 52.22735 51.29296
# Shear Modulus (GPa) = 17.44184 24.71685 21.07935
#
# Velocity S-wave (km/s) = 3.12414 3.71904 3.43450
# Velocity P-wave (km/s) = 6.41824 6.90417 6.66563
#
# Compressibility (1/GPa) = 0.01985760
#
# Stress axis : x y z
#
# Youngs Moduli (GPa) = 118.31584 60.33189 67.06722
#
# Poissons Ratio (x) = 0.12915 0.12788
# Poissons Ratio (y) = 0.25326 0.40191
# Poissons Ratio (z) = 0.22559 0.36154
#
# Static dielectric constant tensor:
#      x y z
#    x 3.548790 0.000000 0.052800 
#    y 0.000000 3.444590 0.000000 
#    z 0.052800 0.000000 3.035260 
# 
# 
# High freq. dielectric constant tensor:
#      x y z
#    x 1.715120 0.000000 0.003060 
#    y 0.000000 1.691390 0.000000 
#    z 0.003060 0.000000 1.658600 
# 
# From -- ./inp_files/301761.got.cif
#   From: 2010.06.25/outbox.cif.g09.slc.cpg/sg12_151_cif.got.tgz:301761.got - 2010.06.28 00:19:55.
