data_PCOD8082016
_publ_section_title
;
Structure prediction by ZEFSAII (Michael W. Deem and Ramdas Pophale) SiO2 
 PCOD8082016
Probable space group: C 2/M
;
_chemical_formula_sum "Si O2"
_cell_formula_units_Z 60
_cell_length_a 11.507031
_cell_length_b 27.942594
_cell_length_c 17.795447
_cell_angle_alpha 90.000000
_cell_angle_beta 147.750170
_cell_angle_gamma 90.000000
_cell_volume 3053.264990
_symmetry_space_group_name_H-M "C 2/M"
_symmetry_group_IT_number 12
_symmetry_cell_setting 'monoclinic'
loop_
_space_group_symop_operation_xyz
x,y,z
-x,y,-z
-x,-y,-z
x,-y,z
1/2+x,1/2+y,z
1/2-x,1/2+y,-z
1/2-x,1/2-y,-z
1/2+x,1/2-y,z
loop_
_atom_site_type_symbol
_atom_site_label
_atom_site_fract_x
_atom_site_fract_y
_atom_site_fract_z
Si Si1 0.500000 0.626361 0.500000
Si Si2 0.825318 0.946561 0.022954
Si Si3 0.971394 0.389651 0.747635
Si Si4 0.852110 0.871542 0.853776
Si Si5 0.252775 0.553333 0.151920
Si Si6 0.510184 0.694997 0.817630
Si Si7 0.997210 0.697944 0.137330
Si Si8 0.616323 0.345367 0.721124
O O1 0.281992 0.593422 0.394514
O O2 0.491673 0.659983 0.420465
O O3 0.868795 0.944131 0.135011
O O4 0.029806 0.921511 0.096951
O O5 0.814799 0.000000 0.986259
O O6 0.595300 0.922238 0.875963
O O7 0.106038 0.386102 0.743087
O O8 0.956303 0.335276 0.766605
O O9 0.848093 0.836966 0.779689
O O10 0.000000 0.845923 0.000000
O O11 0.295444 0.500000 0.211218
O O12 0.346400 0.597121 0.251714
O O13 0.000000 0.560997 0.000000
O O14 0.456318 0.749768 0.804114
O O15 0.475817 0.677832 0.712247
O O16 0.758080 0.686147 0.976517
O O17 0.158959 0.684931 0.157252
#
# Coordination Sequence:
#
# PCOD8082016 Si02
#       8
#     4   8   8   8   8   8   8   8
#     4  10  24  42  61  76 114 170 206 246 275 326
#     4  10  19  34  59  93 119 147 185 239 312 366
#     4  10  20  39  55  80 119 155 194 240 281 345
#     4  10  19  33  56  86 121 144 178 239 300 364
#     4  10  18  30  56  87 116 147 186 242 302 357
#     4  11  20  33  58  90 116 152 181 244 305 358
#     4  10  21  32  57  88 118 149 185 238 305 357
#     4  11  21  39  56  80 118 159 203 241 285 339
#
# _framework density 19.651095000000002
#
# number of rings (size 3 to 8) (size 9 to 14) (size 15 to 20)
#    0.000    1.733    4.000    2.800    1.867    2.400 
#    0.000    4.667    0.000    0.000    0.000    1.867 
#    0.000    0.000    0.000    0.000    0.000    0.000 
#
# Total GULP energy -371719.031727 kJ/mol
# GULP energy per Si atom -12390.634391 kJ/mol
# Density = 1.960637 g / cm^3
# Si number density = 19.651095 Si / 1000 Ang^3
#
#
#
# Elastic Constant Matrix: (Units=GPa)
#
#
# Indices 1 2 3 4 5 6 
#
# 1 125.0171 35.9467 39.2028 0.0001 2.6795 0.0000
# 2 35.9467 111.5409 28.0105 0.0000 -2.7518 0.0000
# 3 39.2028 28.0105 63.4462 0.0008 6.3232 -0.0001
# 4 0.0001 0.0000 0.0008 5.6347 0.0003 -4.2764
# 5 2.6795 -2.7518 6.3232 0.0003 39.2274 0.0000
# 6 0.0000 0.0000 -0.0001 -4.2764 0.0000 28.8477
#
#
#
# Elastic Compliance Matrix: (Units=1/GPa)
#
#
# Indices 1 2 3 4 5 6 
#
# 1 0.010279 -0.001929 -0.005504 0.000001 0.000050 0.000000
# 2 -0.001929 0.010527 -0.003600 0.000001 0.001451 0.000000
# 3 -0.005504 -0.003600 0.021078 -0.000003 -0.003274 0.000000
# 4 0.000001 0.000001 -0.000003 0.199968 -0.000001 0.029643
# 5 0.000050 0.001451 -0.003274 -0.000001 0.026119 0.000000
# 6 0.000000 0.000000 0.000000 0.029643 0.000000 0.039059
#
#
# Mechanical properties :
#
#
# Convention : Reuss Voigt Hill
#
# Bulk Modulus (GPa) = 50.46259 56.25825 53.36042
# Shear Modulus (GPa) = 14.89417 27.86492 21.37954
#
# Velocity S-wave (km/s) = 2.75604 3.76970 3.30200
# Velocity P-wave (km/s) = 5.98855 6.90204 6.46146
#
# Compressibility (1/GPa) = 0.01981666
#
# Stress axis : x y z
#
# Youngs Moduli (GPa) = 97.29002 94.99534 47.44244
#
# Poissons Ratio (x) = 0.18325 0.26114
# Poissons Ratio (y) = 0.18767 0.17080
# Poissons Ratio (z) = 0.53552 0.34199
#
# Static dielectric constant tensor:
#      x y z
#    x 3.948960 0.000000 0.024540 
#    y 0.000000 3.596350 0.000000 
#    z 0.024540 0.000000 3.393160 
# 
# 
# High freq. dielectric constant tensor:
#      x y z
#    x 1.788730 0.000000 0.000000 
#    y 0.000000 1.759490 0.000000 
#    z 0.000000 0.000000 1.713400 
# 
# From -- ./inp_files/266040.got.cif
#   From: 2010.06.25/outbox.cif.g09.slc.cpg/sg12_134_cif.got.tgz:266040.got - 2010.06.28 00:19:55.
