data_PCOD8082081
_publ_section_title
;
Structure prediction by ZEFSAII (Michael W. Deem and Ramdas Pophale) SiO2 
 PCOD8082081
Probable space group: C 2/M
;
_chemical_formula_sum "Si O2"
_cell_formula_units_Z 48
_cell_length_a 23.906908
_cell_length_b 8.337363
_cell_length_c 20.537270
_cell_angle_alpha 90.000000
_cell_angle_beta 140.646652
_cell_angle_gamma 90.000000
_cell_volume 2595.693164
_symmetry_space_group_name_H-M "C 2/M"
_symmetry_group_IT_number 12
_symmetry_cell_setting 'monoclinic'
loop_
_space_group_symop_operation_xyz
x,y,z
-x,y,-z
-x,-y,-z
x,-y,z
1/2+x,1/2+y,z
1/2-x,1/2+y,-z
1/2-x,1/2-y,-z
1/2+x,1/2-y,z
loop_
_atom_site_type_symbol
_atom_site_label
_atom_site_fract_x
_atom_site_fract_y
_atom_site_fract_z
Si Si1 0.964094 0.816267 0.643928
Si Si2 0.233815 0.814828 0.716673
Si Si3 0.419986 0.690868 0.883932
Si Si4 0.564469 0.814646 0.615605
Si Si5 0.712843 0.814892 0.559563
Si Si6 0.907407 0.810296 0.727422
O O1 0.860510 0.800749 0.536091
O O2 0.974453 0.760153 0.729383
O O3 0.020908 0.706476 0.647328
O O4 0.993190 0.000000 0.660757
O O5 0.329662 0.765891 0.831069
O O6 0.156392 0.782678 0.699352
O O7 0.210946 0.700430 0.635796
O O8 0.234324 0.000000 0.696595
O O9 0.412786 0.500000 0.880416
O O10 0.437355 0.753676 0.825334
O O11 0.500000 0.754698 0.000000
O O12 0.500000 0.749534 0.500000
O O13 0.584370 0.000000 0.622071
O O14 0.808131 0.750479 0.620946
O O15 0.693630 0.000000 0.524306
O O16 0.901872 0.000000 0.726575
#
# Coordination Sequence:
#
# PCOD8082081 Si02
#       6
#     8   8   8   8   8   8
#     4  11  20  30  47  72 104 138 171 210 253 298
#     4  11  21  33  52  78 106 134 171 218 260 299
#     4   9  18  36  61  82 103 134 169 208 258 313
#     4  11  22  35  51  70 101 143 181 215 247 300
#     4  10  18  31  48  69 102 140 175 206 244 303
#     4   8  17  31  48  74 104 132 167 209 254 303
#
# _framework density 18.492169000000001
#
# number of rings (size 3 to 8) (size 9 to 14) (size 15 to 20)
#    0.000    2.000    1.667    4.500    0.000    1.000 
#    0.000    7.500    0.000    1.000    0.000    0.000 
#    0.000    0.000    0.000    0.000    0.000    0.000 
#
# Total GULP energy -297501.847898 kJ/mol
# GULP energy per Si atom -12395.910329 kJ/mol
# Density = 1.845008 g / cm^3
# Si number density = 18.492169 Si / 1000 Ang^3
#
#
#
# Elastic Constant Matrix: (Units=GPa)
#
#
# Indices 1 2 3 4 5 6 
#
# 1 128.4195 16.0590 50.6487 0.0000 1.3179 0.0000
# 2 16.0590 47.3025 12.6374 0.0000 7.2976 0.0000
# 3 50.6487 12.6374 92.5281 0.0000 10.4853 0.0000
# 4 0.0000 0.0000 0.0000 17.0483 0.0000 4.0600
# 5 1.3179 7.2976 10.4853 0.0000 14.8539 0.0000
# 6 0.0000 0.0000 0.0000 4.0600 0.0000 21.0419
#
#
#
# Elastic Compliance Matrix: (Units=1/GPa)
#
#
# Indices 1 2 3 4 5 6 
#
# 1 0.010370 -0.002659 -0.005823 0.000000 0.004496 0.000000
# 2 -0.002659 0.023906 -0.000550 0.000000 -0.011121 0.000000
# 3 -0.005823 -0.000550 0.015196 0.000000 -0.009940 0.000000
# 4 0.000000 0.000000 0.000000 0.061482 0.000000 -0.011863
# 5 0.004496 -0.011121 -0.009940 0.000000 0.079404 0.000000
# 6 0.000000 0.000000 0.000000 -0.011863 0.000000 0.049813
#
#
# Mechanical properties :
#
#
# Convention : Reuss Voigt Hill
#
# Bulk Modulus (GPa) = 31.83692 47.43781 39.63736
# Shear Modulus (GPa) = 18.60795 23.18247 20.89521
#
# Velocity S-wave (km/s) = 3.17560 3.54452 3.36512
# Velocity P-wave (km/s) = 5.54074 6.51614 6.04813
#
# Compressibility (1/GPa) = 0.03141008
#
# Stress axis : x y z
#
# Youngs Moduli (GPa) = 96.43429 41.83123 65.80559
#
# Poissons Ratio (x) = 0.11121 0.38316
# Poissons Ratio (y) = 0.25637 0.03616
# Poissons Ratio (z) = 0.56151 0.02299
#
# Static dielectric constant tensor:
#      x y z
#    x 3.580370 0.000000 -0.078670 
#    y 0.000000 3.132530 0.000000 
#    z -0.078670 0.000000 3.338270 
# 
# 
# High freq. dielectric constant tensor:
#      x y z
#    x 1.723020 0.000000 -0.001510 
#    y 0.000000 1.708010 0.000000 
#    z -0.001510 0.000000 1.674880 
# 
# From -- ./inp_files/323515.got.cif
#   From: 2010.06.25/outbox.cif.g09.slc.cpg/sg12_162_cif.got.tgz:323515.got - 2010.06.28 00:19:55.
