data_PCOD8082779
_publ_section_title
;
Structure prediction by ZEFSAII (Michael W. Deem and Ramdas Pophale) SiO2 
 PCOD8082779
Probable space group: C 2/M
;
_chemical_formula_sum "Si O2"
_cell_formula_units_Z 64
_cell_length_a 24.404172
_cell_length_b 8.773394
_cell_length_c 18.962980
_cell_angle_alpha 90.000000
_cell_angle_beta 50.422067
_cell_angle_gamma 90.000000
_cell_volume 3129.368626
_symmetry_space_group_name_H-M "C 2/M"
_symmetry_group_IT_number 12
_symmetry_cell_setting 'monoclinic'
loop_
_space_group_symop_operation_xyz
x,y,z
-x,y,-z
-x,-y,-z
x,-y,z
1/2+x,1/2+y,z
1/2-x,1/2+y,-z
1/2-x,1/2-y,-z
1/2+x,1/2-y,z
loop_
_atom_site_type_symbol
_atom_site_label
_atom_site_fract_x
_atom_site_fract_y
_atom_site_fract_z
Si Si1 0.711046 0.678325 0.875062
Si Si2 0.831067 0.819310 0.851870
Si Si3 0.048382 0.821510 0.025388
Si Si4 0.050040 0.320019 0.168154
Si Si5 0.706323 0.823539 0.332077
Si Si6 0.799648 0.178699 0.517690
Si Si7 0.961022 0.180292 0.367395
Si Si8 0.578322 0.177731 0.347202
O O1 0.723827 0.500000 0.876288
O O2 0.749517 0.764347 0.909394
O O3 0.744292 0.731154 0.773108
O O4 0.628976 0.723137 0.940856
O O5 0.871178 0.757223 0.888754
O O6 0.873387 0.742082 0.754101
O O7 0.835726 0.000000 0.846155
O O8 0.021153 0.728043 0.115319
O O9 0.040093 0.000000 0.048049
O O10 0.000000 0.770255 0.000000
O O11 0.056536 0.500000 0.169538
O O12 0.994920 0.258950 0.271263
O O13 0.727431 0.727681 0.383098
O O14 0.622418 0.795229 0.383065
O O15 0.720551 0.000000 0.336685
O O16 0.750000 0.250000 0.500000
O O17 0.880072 0.235285 0.439759
O O18 0.794128 0.000000 0.515631
O O19 0.002743 0.234885 0.404475
O O20 0.967780 0.000000 0.354211
O O21 0.564171 0.000000 0.346489
#
# Coordination Sequence:
#
# PCOD8082779 Si02
#       8
#     8   8   8   8   8   8   8   8
#     4   9  19  37  59  84 115 150 186 227 278 334
#     4  10  18  31  55  85 115 147 184 227 277 334
#     4  10  22  40  60  82 111 149 193 235 276 330
#     4  11  22  37  59  86 116 148 183 229 284 336
#     4   9  19  36  58  84 115 149 185 227 278 335
#     4  11  25  41  58  81 111 149 194 239 279 327
#     4  10  21  38  59  84 114 149 188 230 278 332
#     4   9  17  32  56  86 116 146 180 222 277 338
#
# _framework density 20.451409000000002
#
# number of rings (size 3 to 8) (size 9 to 14) (size 15 to 20)
#    0.000    2.125    0.000    5.625    0.000    7.250 
#    0.000    5.000    0.000    0.000    0.000    0.000 
#    0.000    0.000    0.000    0.000    0.000    0.000 
#
# Total GULP energy -396735.901003 kJ/mol
# GULP energy per Si atom -12397.996906 kJ/mol
# Density = 2.040486 g / cm^3
# Si number density = 20.451409 Si / 1000 Ang^3
#
#
#
# Elastic Constant Matrix: (Units=GPa)
#
#
# Indices 1 2 3 4 5 6 
#
# 1 103.8016 24.5495 12.7387 -0.0095 2.5756 0.0160
# 2 24.5495 92.6064 9.7264 -0.0053 -0.3561 0.0100
# 3 12.7387 9.7264 43.1300 -0.0041 -1.0538 0.0068
# 4 -0.0095 -0.0053 -0.0041 25.6231 0.0007 2.8582
# 5 2.5756 -0.3561 -1.0538 0.0007 33.4851 -0.0030
# 6 0.0160 0.0100 0.0068 2.8582 -0.0030 37.5497
#
#
#
# Elastic Compliance Matrix: (Units=1/GPa)
#
#
# Indices 1 2 3 4 5 6 
#
# 1 0.010572 -0.002536 -0.002573 0.000003 -0.000921 -0.000004
# 2 -0.002536 0.011669 -0.001876 0.000001 0.000260 -0.000002
# 3 -0.002573 -0.001876 0.024392 0.000003 0.000946 -0.000003
# 4 0.000003 0.000001 0.000003 0.039361 -0.000001 -0.002996
# 5 -0.000921 0.000260 0.000946 -0.000001 0.029967 0.000003
# 6 -0.000004 -0.000002 -0.000003 -0.002996 0.000003 0.026859
#
#
# Mechanical properties :
#
#
# Convention : Reuss Voigt Hill
#
# Bulk Modulus (GPa) = 30.61625 37.06303 33.83964
# Shear Modulus (GPa) = 29.81890 32.16647 30.99268
#
# Velocity S-wave (km/s) = 3.82257 3.97019 3.89708
# Velocity P-wave (km/s) = 5.87243 6.25926 6.06893
#
# Compressibility (1/GPa) = 0.03266239
#
# Stress axis : x y z
#
# Youngs Moduli (GPa) = 94.58802 85.69936 40.99720
#
# Poissons Ratio (x) = 0.21733 0.10549
# Poissons Ratio (y) = 0.23987 0.07691
# Poissons Ratio (z) = 0.24339 0.16078
#
# Static dielectric constant tensor:
#      x y z
#    x 4.318610 -0.000020 -0.115310 
#    y -0.000020 3.636970 0.000000 
#    z -0.115310 0.000000 3.583380 
# 
# 
# High freq. dielectric constant tensor:
#      x y z
#    x 1.807120 0.000000 -0.000260 
#    y 0.000000 1.797730 0.000000 
#    z -0.000260 0.000000 1.787960 
# 
# From -- ./inp_files/324115.got.cif
#   From: 2010.06.25/outbox.cif.g09.slc.cpg/sg12_163_cif.got.tgz:324115.got - 2010.06.28 00:19:55.
