data_PCOD8082221
_publ_section_title
;
Structure prediction by ZEFSAII (Michael W. Deem and Ramdas Pophale) SiO2 
 PCOD8082221
Probable space group: C 2/M
;
_chemical_formula_sum "Si O2"
_cell_formula_units_Z 48
_cell_length_a 13.200813
_cell_length_b 17.959925
_cell_length_c 12.669434
_cell_angle_alpha 90.000000
_cell_angle_beta 69.100479
_cell_angle_gamma 90.000000
_cell_volume 2806.116779
_symmetry_space_group_name_H-M "C 2/M"
_symmetry_group_IT_number 12
_symmetry_cell_setting 'monoclinic'
loop_
_space_group_symop_operation_xyz
x,y,z
-x,y,-z
-x,-y,-z
x,-y,z
1/2+x,1/2+y,z
1/2-x,1/2+y,-z
1/2-x,1/2-y,-z
1/2+x,1/2-y,z
loop_
_atom_site_type_symbol
_atom_site_label
_atom_site_fract_x
_atom_site_fract_y
_atom_site_fract_z
Si Si1 0.879966 0.246247 0.566838
Si Si2 0.816948 0.841394 0.390045
Si Si3 0.141491 0.000000 0.336846
Si Si4 0.389487 0.500000 0.404758
Si Si5 0.593211 0.257317 0.837580
Si Si6 0.209749 0.848290 0.219576
Si Si7 0.638670 0.292199 0.039357
O O1 0.850298 0.181397 0.495436
O O2 0.808477 0.320587 0.580987
O O3 0.865181 0.209830 0.687391
O O4 0.000000 0.274385 0.500000
O O5 0.888001 0.795514 0.280956
O O6 0.837099 0.928711 0.367135
O O7 0.142455 0.000000 0.461764
O O8 0.208187 0.070847 0.271397
O O9 0.018688 0.000000 0.339752
O O10 0.665976 0.182579 0.825114
O O11 0.464478 0.239364 0.891527
O O12 0.621339 0.316314 0.923010
O O13 0.156012 0.855929 0.122062
O O14 0.750000 0.250000 0.000000
#
# Coordination Sequence:
#
# PCOD8082221 Si02
#       7
#     8   8   4   4   8   8   8
#     4  10  18  31  50  73  97 129 167 204 243 289
#     4  10  20  31  49  74 100 130 162 203 246 291
#     4  11  20  30  49  72 103 135 158 204 251 291
#     4  11  20  32  46  71 105 133 163 203 246 292
#     4   9  18  32  50  73  98 127 163 204 241 287
#     4  10  19  31  49  75 101 127 164 200 248 292
#     4   9  17  31  52  73  94 123 162 205 243 283
#
# _framework density 17.10549
#
# number of rings (size 3 to 8) (size 9 to 14) (size 15 to 20)
#    0.000    2.167    1.667    3.000    0.000    0.000 
#    0.000    1.250    0.000   11.000    0.000    0.000 
#    0.000    0.000    0.000    0.000    0.000    0.000 
#
# Total GULP energy -297336.194479 kJ/mol
# GULP energy per Si atom -12389.008103 kJ/mol
# Density = 1.706656 g / cm^3
# Si number density = 17.105490 Si / 1000 Ang^3
#
#
#
# Elastic Constant Matrix: (Units=GPa)
#
#
# Indices 1 2 3 4 5 6 
#
# 1 90.6673 37.6057 30.9866 0.0000 -24.3567 0.0000
# 2 37.6057 88.6992 15.7766 0.0000 -5.8976 0.0000
# 3 30.9866 15.7766 72.3445 0.0000 -5.2584 0.0000
# 4 0.0000 0.0000 0.0000 10.7442 0.0000 2.1983
# 5 -24.3567 -5.8976 -5.2584 0.0000 35.8832 0.0000
# 6 0.0000 0.0000 0.0000 2.1983 0.0000 15.2657
#
#
#
# Elastic Compliance Matrix: (Units=1/GPa)
#
#
# Indices 1 2 3 4 5 6 
#
# 1 0.018369 -0.006054 -0.005775 0.000000 0.010627 0.000000
# 2 -0.006054 0.013812 -0.000559 0.000000 -0.001921 0.000000
# 3 -0.005775 -0.000559 0.016300 0.000000 -0.001623 0.000000
# 4 0.000000 0.000000 0.000000 0.095899 0.000000 -0.013810
# 5 0.010627 -0.001921 -0.001623 0.000000 0.034528 0.000000
# 6 0.000000 0.000000 0.000000 -0.013810 0.000000 0.067495
#
#
# Mechanical properties :
#
#
# Convention : Reuss Voigt Hill
#
# Bulk Modulus (GPa) = 42.18376 46.71651 44.45014
# Shear Modulus (GPa) = 17.91596 23.53476 20.72536
#
# Velocity S-wave (km/s) = 3.23984 3.71328 3.48461
# Velocity P-wave (km/s) = 6.22173 6.76423 6.49864
#
# Compressibility (1/GPa) = 0.02370581
#
# Stress axis : x y z
#
# Youngs Moduli (GPa) = 54.43983 72.39850 61.34891
#
# Poissons Ratio (x) = 0.43831 0.35430
# Poissons Ratio (y) = 0.32958 0.03428
# Poissons Ratio (z) = 0.31440 0.04045
#
# Static dielectric constant tensor:
#      x y z
#    x 3.504000 0.000000 0.177590 
#    y 0.000000 2.844300 0.000000 
#    z 0.177590 0.000000 3.797710 
# 
# 
# High freq. dielectric constant tensor:
#      x y z
#    x 1.666800 0.000000 -0.000980 
#    y 0.000000 1.606670 0.000000 
#    z -0.000980 0.000000 1.685390 
# 
# From -- ./inp_files/205608.got.cif
#   From: 2010.06.25/outbox.cif.g09.slc.cpg/sg12_103_cif.got.tgz:205608.got - 2010.06.28 00:19:55.
