data_PCOD8082667
_publ_section_title
;
Structure prediction by ZEFSAII (Michael W. Deem and Ramdas Pophale) SiO2 
 PCOD8082667
Probable space group: C 2/M
;
_chemical_formula_sum "Si O2"
_cell_formula_units_Z 56
_cell_length_a 30.990441
_cell_length_b 15.320951
_cell_length_c 8.972236
_cell_angle_alpha 90.000000
_cell_angle_beta 133.223455
_cell_angle_gamma 90.000000
_cell_volume 3104.244969
_symmetry_space_group_name_H-M "C 2/M"
_symmetry_group_IT_number 12
_symmetry_cell_setting 'monoclinic'
loop_
_space_group_symop_operation_xyz
x,y,z
-x,y,-z
-x,-y,-z
x,-y,z
1/2+x,1/2+y,z
1/2-x,1/2+y,-z
1/2-x,1/2-y,-z
1/2+x,1/2-y,z
loop_
_atom_site_type_symbol
_atom_site_label
_atom_site_fract_x
_atom_site_fract_y
_atom_site_fract_z
Si Si1 0.843605 0.096486 0.213872
Si Si2 0.149809 0.730804 0.113587
Si Si3 0.932562 0.756695 0.348942
Si Si4 0.203005 0.096702 0.227669
Si Si5 0.267977 0.167494 0.945514
Si Si6 0.620110 0.098471 0.623876
Si Si7 0.339940 0.901785 0.609161
O O1 0.895655 0.167632 0.345852
O O2 0.792952 0.112724 0.220093
O O3 0.871115 0.000000 0.301410
O O4 0.808979 0.104349 0.976345
O O5 0.165544 0.826529 0.219200
O O6 0.206503 0.695976 0.154159
O O7 0.134374 0.664773 0.208825
O O8 0.091883 0.740008 0.874405
O O9 0.928195 0.666722 0.430283
O O10 0.000000 0.787654 0.500000
O O11 0.271219 0.114836 0.418726
O O12 0.184174 0.000000 0.241021
O O13 0.250000 0.250000 0.000000
O O14 0.316940 0.111143 0.147269
O O15 0.624986 0.114238 0.459678
O O16 0.598409 0.000000 0.605755
O O17 0.350532 0.000000 0.693026
#
# Coordination Sequence:
#
# PCOD8082667 Si02
#       7
#     8   8   8   8   8   8   8
#     4  10  18  31  54  79 106 135 169 207 255 310
#     4  10  20  31  52  76 107 135 168 214 251 295
#     4  10  22  38  54  73  99 136 184 222 255 295
#     4   9  16  28  47  74 105 136 161 190 247 317
#     4  11  16  30  51  81 109 137 162 205 258 313
#     4  10  19  33  55  76 104 140 166 204 263 320
#     4  10  19  31  49  78 108 134 164 200 257 321
#
# _framework density 18.039812999999999
#
# number of rings (size 3 to 8) (size 9 to 14) (size 15 to 20)
#    0.000    2.000    5.714    0.857    0.000    3.429 
#    0.000    0.714    0.000    1.714    0.000    0.000 
#    0.000    5.714    0.000    0.000    0.000    0.000 
#
# Total GULP energy -347103.225541 kJ/mol
# GULP energy per Si atom -12396.543769 kJ/mol
# Density = 1.799875 g / cm^3
# Si number density = 18.039813 Si / 1000 Ang^3
#
#
#
# Elastic Constant Matrix: (Units=GPa)
#
#
# Indices 1 2 3 4 5 6 
#
# 1 53.1902 26.8476 26.0525 0.0000 15.5617 0.0000
# 2 26.8476 119.2075 30.9618 0.0000 -0.7433 0.0000
# 3 26.0525 30.9618 47.7345 0.0000 9.6879 0.0000
# 4 0.0000 0.0000 0.0000 20.5780 0.0000 -5.8735
# 5 15.5617 -0.7433 9.6879 0.0000 24.8002 0.0000
# 6 0.0000 0.0000 0.0000 -5.8735 0.0000 19.2031
#
#
#
# Elastic Compliance Matrix: (Units=1/GPa)
#
#
# Indices 1 2 3 4 5 6 
#
# 1 0.030698 -0.004151 -0.010999 0.000000 -0.015090 0.000000
# 2 -0.004151 0.010875 -0.005846 0.000000 0.005214 0.000000
# 3 -0.010999 -0.005846 0.031909 0.000000 -0.005738 0.000000
# 4 0.000000 0.000000 0.000000 0.053244 0.000000 0.016285
# 5 -0.015090 0.005214 -0.005738 0.000000 0.052189 0.000000
# 6 0.000000 0.000000 0.000000 0.016285 0.000000 0.057056
#
#
# Mechanical properties :
#
#
# Convention : Reuss Voigt Hill
#
# Bulk Modulus (GPa) = 31.75763 43.09511 37.42637
# Shear Modulus (GPa) = 17.33344 22.00093 19.66718
#
# Velocity S-wave (km/s) = 3.10311 3.49603 3.30541
# Velocity P-wave (km/s) = 5.52100 6.34327 5.94637
#
# Compressibility (1/GPa) = 0.03148850
#
# Stress axis : x y z
#
# Youngs Moduli (GPa) = 32.57543 91.95754 31.33904
#
# Poissons Ratio (x) = 0.38171 0.34471
# Poissons Ratio (y) = 0.13522 0.18322
# Poissons Ratio (z) = 0.35831 0.53761
#
# Static dielectric constant tensor:
#      x y z
#    x 3.093520 0.000000 -0.055570 
#    y 0.000000 3.772400 0.000000 
#    z -0.055570 0.000000 2.997730 
# 
# 
# High freq. dielectric constant tensor:
#      x y z
#    x 1.662890 0.000000 -0.005510 
#    y 0.000000 1.721750 0.000000 
#    z -0.005510 0.000000 1.662750 
# 
# From -- ./inp_files/111554.got.cif
#   From: 2010.06.25/outbox.cif.g09.slc.cpg/sg12_56_cif.got.tgz:111554.got - 2010.06.28 00:19:55.
