data_PCOD8082517
_publ_section_title
;
Structure prediction by ZEFSAII (Michael W. Deem and Ramdas Pophale) SiO2 
 PCOD8082517
Probable space group: C 2/M
;
_chemical_formula_sum "Si O2"
_cell_formula_units_Z 56
_cell_length_a 29.371799
_cell_length_b 8.805606
_cell_length_c 15.328310
_cell_angle_alpha 90.000000
_cell_angle_beta 133.672976
_cell_angle_gamma 90.000000
_cell_volume 2867.466080
_symmetry_space_group_name_H-M "C 2/M"
_symmetry_group_IT_number 12
_symmetry_cell_setting 'monoclinic'
loop_
_space_group_symop_operation_xyz
x,y,z
-x,y,-z
-x,-y,-z
x,-y,z
1/2+x,1/2+y,z
1/2-x,1/2+y,-z
1/2-x,1/2-y,-z
1/2+x,1/2-y,z
loop_
_atom_site_type_symbol
_atom_site_label
_atom_site_fract_x
_atom_site_fract_y
_atom_site_fract_z
Si Si1 0.483476 0.176172 0.604483
Si Si2 0.690839 0.180109 0.180178
Si Si3 0.734380 0.679756 0.886541
Si Si4 0.102662 0.319956 0.664257
Si Si5 0.778000 0.179273 0.450676
Si Si6 0.403936 0.177607 0.656554
Si Si7 0.568429 0.180922 0.113197
O O1 0.428544 0.237857 0.467703
O O2 0.553689 0.234551 0.675425
O O3 0.467123 0.209392 0.683844
O O4 0.485082 0.000000 0.584895
O O5 0.712593 0.235554 0.113180
O O6 0.739680 0.242223 0.316881
O O7 0.620422 0.238554 0.111874
O O8 0.691165 0.000000 0.183917
O O9 0.735553 0.500000 0.896882
O O10 0.666835 0.730577 0.762820
O O11 0.750000 0.750000 0.000000
O O12 0.116873 0.500000 0.685837
O O13 0.750000 0.250000 0.500000
O O14 0.849627 0.230882 0.535607
O O15 0.772630 0.000000 0.450115
O O16 0.413102 0.239768 0.766217
O O17 0.386635 0.000000 0.634120
O O18 0.565123 0.000000 0.109726
O O19 0.500000 0.249430 0.000000
#
# Coordination Sequence:
#
# PCOD8082517 Si02
#       7
#     8   8   8   8   8   8   8
#     4   8  16  30  54  83 109 141 175 221 273 321
#     4   9  19  35  53  77 107 137 174 223 271 318
#     4  11  23  38  56  77 106 144 186 229 275 323
#     4   9  17  34  55  79 111 140 177 223 273 323
#     4  11  20  33  54  81 111 141 174 217 271 321
#     4  10  18  31  52  80 108 138 181 218 258 317
#     4   9  17  30  50  75 102 134 175 218 256 306
#
# _framework density 19.529439
#
# number of rings (size 3 to 8) (size 9 to 14) (size 15 to 20)
#    0.000    2.429    1.429    2.571    0.000    1.143 
#    0.000    8.571    0.000    0.429    0.000    0.000 
#    0.000    0.000    0.000    0.000    0.000    0.000 
#
# Total GULP energy -347042.164522 kJ/mol
# GULP energy per Si atom -12394.363019 kJ/mol
# Density = 1.948499 g / cm^3
# Si number density = 19.529439 Si / 1000 Ang^3
#
#
#
# Elastic Constant Matrix: (Units=GPa)
#
#
# Indices 1 2 3 4 5 6 
#
# 1 184.7328 27.6171 74.6520 0.0000 -0.4353 0.0000
# 2 27.6171 36.9548 19.7177 0.0000 -1.5402 0.0000
# 3 74.6520 19.7177 114.6636 0.0000 10.6423 0.0000
# 4 0.0000 0.0000 0.0000 26.3197 0.0000 2.0078
# 5 -0.4353 -1.5402 10.6423 0.0000 34.3897 0.0000
# 6 0.0000 0.0000 0.0000 2.0078 0.0000 19.5221
#
#
#
# Elastic Compliance Matrix: (Units=1/GPa)
#
#
# Indices 1 2 3 4 5 6 
#
# 1 0.007777 -0.003286 -0.004627 0.000000 0.001383 0.000000
# 2 -0.003286 0.031487 -0.003503 0.000000 0.002453 0.000000
# 3 -0.004627 -0.003503 0.012721 0.000000 -0.004152 0.000000
# 4 0.000000 0.000000 0.000000 0.038295 0.000000 -0.003939
# 5 0.001383 0.002453 -0.004152 0.000000 0.030491 0.000000
# 6 0.000000 0.000000 0.000000 -0.003939 0.000000 0.051629
#
#
# Mechanical properties :
#
#
# Convention : Reuss Voigt Hill
#
# Bulk Modulus (GPa) = 34.30020 64.48053 49.39036
# Shear Modulus (GPa) = 24.39622 30.33725 27.36673
#
# Velocity S-wave (km/s) = 3.53824 3.94561 3.74746
# Velocity P-wave (km/s) = 5.85608 7.33798 6.63851
#
# Compressibility (1/GPa) = 0.02915435
#
# Stress axis : x y z
#
# Youngs Moduli (GPa) = 128.57653 31.75920 78.60878
#
# Poissons Ratio (x) = 0.10436 0.36371
# Poissons Ratio (y) = 0.42249 0.27536
# Poissons Ratio (z) = 0.59491 0.11125
#
# Static dielectric constant tensor:
#      x y z
#    x 4.050230 0.000000 0.211840 
#    y 0.000000 3.171710 0.000000 
#    z 0.211840 0.000000 3.777400 
# 
# 
# High freq. dielectric constant tensor:
#      x y z
#    x 1.783510 0.000000 0.004080 
#    y 0.000000 1.709940 0.000000 
#    z 0.004080 0.000000 1.753920 
# 
# From -- ./inp_files/295155.got.cif
#   From: 2010.06.25/outbox.cif.g09.slc.cpg/sg12_148_cif.got.tgz:295155.got - 2010.06.28 00:19:55.
