data_PCOD8082030
_publ_section_title
;
Structure prediction by ZEFSAII (Michael W. Deem and Ramdas Pophale) SiO2 
 PCOD8082030
Probable space group: C 2/M
;
_chemical_formula_sum "Si O2"
_cell_formula_units_Z 40
_cell_length_a 12.876677
_cell_length_b 23.892853
_cell_length_c 12.239029
_cell_angle_alpha 90.000000
_cell_angle_beta 144.668217
_cell_angle_gamma 90.000000
_cell_volume 2177.607860
_symmetry_space_group_name_H-M "C 2/M"
_symmetry_group_IT_number 12
_symmetry_cell_setting 'monoclinic'
loop_
_space_group_symop_operation_xyz
x,y,z
-x,y,-z
-x,-y,-z
x,-y,z
1/2+x,1/2+y,z
1/2-x,1/2+y,-z
1/2-x,1/2-y,-z
1/2+x,1/2-y,z
loop_
_atom_site_type_symbol
_atom_site_label
_atom_site_fract_x
_atom_site_fract_y
_atom_site_fract_z
Si Si1 0.187181 0.673749 0.558924
Si Si2 0.416297 0.325571 0.171875
Si Si3 0.642252 0.561243 0.960763
Si Si4 0.323290 0.223000 0.216861
Si Si5 0.743955 0.061345 0.708388
O O1 0.366528 0.676882 0.640413
O O2 0.214389 0.713280 0.688396
O O3 0.139077 0.610381 0.555520
O O4 0.014128 0.695255 0.343208
O O5 0.344101 0.389796 0.118737
O O6 0.339633 0.289731 0.207028
O O7 0.342316 0.301500 0.993723
O O8 0.677288 0.500000 0.936763
O O9 0.447892 0.564159 0.847124
O O10 0.775542 0.571116 0.177588
O O11 0.663869 0.000000 0.609065
#
# Coordination Sequence:
#
# PCOD8082030 Si02
#       5
#     8   8   8   8   8
#     4  10  18  31  44  62  91 116 141 180 213 249
#     4  10  18  31  45  61  90 117 140 183 213 245
#     4   8  13  23  42  63  82 113 144 168 212 260
#     4  10  20  28  43  66  85 116 154 168 208 266
#     4   8  13  23  41  62  86 115 140 164 209 263
#
# _framework density 18.368780000000001
#
# number of rings (size 3 to 8) (size 9 to 14) (size 15 to 20)
#    0.000    2.800    2.000    2.400    0.000    0.000 
#    0.000    3.000    0.000    0.000    0.000    2.800 
#    0.000   16.000    0.000    0.000    0.000    6.400 
#
# Total GULP energy -247762.380791 kJ/mol
# GULP energy per Si atom -12388.119040 kJ/mol
# Density = 1.832697 g / cm^3
# Si number density = 18.368780 Si / 1000 Ang^3
#
#
#
# Elastic Constant Matrix: (Units=GPa)
#
#
# Indices 1 2 3 4 5 6 
#
# 1 19.5959 18.4919 -3.7809 0.0000 -0.1836 0.0000
# 2 18.4919 155.2598 7.4585 0.0000 -9.1587 0.0000
# 3 -3.7809 7.4585 50.5452 0.0000 13.0339 0.0000
# 4 0.0000 0.0000 0.0000 -11.3396 0.0000 -22.4585
# 5 -0.1836 -9.1587 13.0339 0.0000 18.5563 0.0000
# 6 0.0000 0.0000 0.0000 -22.4585 0.0000 15.7655
#
#
#
# Elastic Compliance Matrix: (Units=1/GPa)
#
#
# Indices 1 2 3 4 5 6 
#
# 1 0.060115 -0.008077 0.008015 0.000000 -0.009021 0.000000
# 2 -0.008077 0.007931 -0.003374 0.000000 0.006205 0.000000
# 3 0.008015 -0.003374 0.026000 0.000000 -0.019849 0.000000
# 4 0.000000 0.000000 0.000000 -0.023077 0.000000 -0.032875
# 5 -0.009021 0.006205 -0.019849 0.000000 0.070805 0.000000
# 6 0.000000 0.000000 0.000000 -0.032875 0.000000 0.016599
#
#
# Mechanical properties :
#
#
# Convention : Reuss Voigt Hill
#
# Bulk Modulus (GPa) = 11.47144 29.97109 20.72126
# Shear Modulus (GPa) = 25.73295 18.14519 21.93907
#
# Velocity S-wave (km/s) = 3.74693 3.14638 3.45971
# Velocity P-wave (km/s) = 4.99779 5.43612 5.22156
#
# Compressibility (1/GPa) = 0.08717299
#
# Stress axis : x y z
#
# Youngs Moduli (GPa) = 16.63475 126.08846 38.46138
#
# Poissons Ratio (x) = 1.01843 -0.30827
# Poissons Ratio (y) = 0.13436 0.12979
# Poissons Ratio (z) = -0.13333 0.42548
#
# Static dielectric constant tensor:
#      x y z
#    x 2.780090 0.000000 0.223370 
#    y 0.000000 4.042970 0.000000 
#    z 0.223370 0.000000 3.402480 
# 
# 
# High freq. dielectric constant tensor:
#      x y z
#    x 1.637540 0.000000 0.032370 
#    y 0.000000 1.729310 0.000000 
#    z 0.032370 0.000000 1.710710 
# 
# From -- ./inp_files/50428.got.cif
#   From: 2010.06.25/outbox.cif.g09.slc.cpg/sg12_26_cif.got.tgz:50428.got - 2010.06.28 00:19:55.
