data_PCOD8082751
_publ_section_title
;
Structure prediction by ZEFSAII (Michael W. Deem and Ramdas Pophale) SiO2 
 PCOD8082751
Probable space group: C 2/M
;
_chemical_formula_sum "Si O2"
_cell_formula_units_Z 56
_cell_length_a 16.819242
_cell_length_b 15.210751
_cell_length_c 12.724881
_cell_angle_alpha 90.000000
_cell_angle_beta 64.652309
_cell_angle_gamma 90.000000
_cell_volume 2942.034982
_symmetry_space_group_name_H-M "C 2/M"
_symmetry_group_IT_number 12
_symmetry_cell_setting 'monoclinic'
loop_
_space_group_symop_operation_xyz
x,y,z
-x,y,-z
-x,-y,-z
x,-y,z
1/2+x,1/2+y,z
1/2-x,1/2+y,-z
1/2-x,1/2-y,-z
1/2+x,1/2-y,z
loop_
_atom_site_type_symbol
_atom_site_label
_atom_site_fract_x
_atom_site_fract_y
_atom_site_fract_z
Si Si1 0.216070 0.599414 0.588427
Si Si2 0.926889 0.899418 0.956481
Si Si3 0.688445 0.738389 0.343998
Si Si4 0.942714 0.665513 0.436704
Si Si5 0.047753 0.801544 0.269205
Si Si6 0.707122 0.598705 0.795132
Si Si7 0.880147 0.097306 0.363844
O O1 0.232867 0.500000 0.621120
O O2 0.229796 0.674192 0.670296
O O3 0.119058 0.598109 0.591688
O O4 0.286364 0.630578 0.460656
O O5 0.930882 0.827273 0.862302
O O6 0.938964 0.000000 0.906953
O O7 0.831804 0.889568 0.066139
O O8 0.000000 0.875988 0.000000
O O9 0.622714 0.760185 0.477556
O O10 0.634488 0.681738 0.288792
O O11 0.720604 0.827813 0.269913
O O12 0.000000 0.622560 0.500000
O O13 0.012193 0.702370 0.310506
O O14 0.965696 0.856217 0.360410
O O15 0.748487 0.500000 0.759081
O O16 0.625330 0.607039 0.759491
O O17 0.892694 0.000000 0.396860
#
# Coordination Sequence:
#
# PCOD8082751 Si02
#       7
#     8   8   8   8   8   8   8
#     4  11  22  35  54  83 116 155 190 222 283 347
#     4  10  20  34  56  86 111 140 190 245 292 334
#     4  11  22  36  56  83 118 152 188 226 287 349
#     4  10  21  36  55  81 109 149 196 235 276 331
#     4  11  21  34  53  82 117 147 184 231 286 334
#     4  10  20  36  60  84 107 145 193 241 286 329
#     4  10  18  31  55  80 108 144 184 232 284 328
#
# _framework density 19.034443
#
# number of rings (size 3 to 8) (size 9 to 14) (size 15 to 20)
#    0.000    1.571    4.286    1.714    0.000    2.000 
#    0.000    3.571    0.000    0.000    0.000    2.000 
#    0.000    0.000    0.000    0.000    0.000    0.000 
#
# Total GULP energy -346886.202988 kJ/mol
# GULP energy per Si atom -12388.792964 kJ/mol
# Density = 1.899112 g / cm^3
# Si number density = 19.034443 Si / 1000 Ang^3
#
#
#
# Elastic Constant Matrix: (Units=GPa)
#
#
# Indices 1 2 3 4 5 6 
#
# 1 114.8858 42.7047 21.8428 0.0000 7.0871 0.0000
# 2 42.7047 73.9020 48.5263 0.0000 2.4178 0.0000
# 3 21.8428 48.5263 87.5463 0.0000 -1.4640 0.0000
# 4 0.0000 0.0000 0.0000 24.0273 0.0000 -3.0845
# 5 7.0871 2.4178 -1.4640 0.0000 18.4307 0.0000
# 6 0.0000 0.0000 0.0000 -3.0845 0.0000 25.1566
#
#
#
# Elastic Compliance Matrix: (Units=1/GPa)
#
#
# Indices 1 2 3 4 5 6 
#
# 1 0.011371 -0.007172 0.001082 0.000000 -0.003346 0.000000
# 2 -0.007172 0.026058 -0.012682 0.000000 -0.001668 0.000000
# 3 0.001082 -0.012682 0.018227 0.000000 0.002695 0.000000
# 4 0.000000 0.000000 0.000000 0.042285 0.000000 0.005185
# 5 -0.003346 -0.001668 0.002695 0.000000 0.055977 0.000000
# 6 0.000000 0.000000 0.000000 0.005185 0.000000 0.040387
#
#
# Mechanical properties :
#
#
# Convention : Reuss Voigt Hill
#
# Bulk Modulus (GPa) = 55.21087 55.83130 55.52108
# Shear Modulus (GPa) = 21.01855 24.40694 22.71275
#
# Velocity S-wave (km/s) = 3.32661 3.58474 3.45808
# Velocity P-wave (km/s) = 6.61996 6.82123 6.72135
#
# Compressibility (1/GPa) = 0.01811238
#
# Stress axis : x y z
#
# Youngs Moduli (GPa) = 87.94445 38.37607 54.86311
#
# Poissons Ratio (x) = 0.27523 -0.05938
# Poissons Ratio (y) = 0.63074 0.69578
# Poissons Ratio (z) = -0.09519 0.48669
#
# Static dielectric constant tensor:
#      x y z
#    x 3.465490 0.000000 -0.006160 
#    y 0.000000 3.308380 0.000000 
#    z -0.006160 0.000000 3.343460 
# 
# 
# High freq. dielectric constant tensor:
#      x y z
#    x 1.737260 0.000000 -0.003770 
#    y 0.000000 1.723000 0.000000 
#    z -0.003770 0.000000 1.715320 
# 
# From -- ./inp_files/155962.got.cif
#   From: 2010.06.25/outbox.cif.g09.slc.cpg/sg12_78_cif.got.tgz:155962.got - 2010.06.28 00:19:55.
