data_PCOD8082886
_publ_section_title
;
Structure prediction by ZEFSAII (Michael W. Deem and Ramdas Pophale) SiO2 
 PCOD8082886
Probable space group: C 2/M
;
_chemical_formula_sum "Si O2"
_cell_formula_units_Z 64
_cell_length_a 23.820476
_cell_length_b 8.856959
_cell_length_c 17.368903
_cell_angle_alpha 90.000000
_cell_angle_beta 86.039620
_cell_angle_gamma 90.000000
_cell_volume 3655.688186
_symmetry_space_group_name_H-M "C 2/M"
_symmetry_group_IT_number 12
_symmetry_cell_setting 'monoclinic'
loop_
_space_group_symop_operation_xyz
x,y,z
-x,y,-z
-x,-y,-z
x,-y,z
1/2+x,1/2+y,z
1/2-x,1/2+y,-z
1/2-x,1/2-y,-z
1/2+x,1/2-y,z
loop_
_atom_site_type_symbol
_atom_site_label
_atom_site_fract_x
_atom_site_fract_y
_atom_site_fract_z
Si Si1 0.323004 0.680497 0.295582
Si Si2 0.017128 0.820861 0.082123
Si Si3 0.703580 0.178249 0.258704
Si Si4 0.805710 0.676781 0.461012
Si Si5 0.060509 0.826191 0.774264
Si Si6 0.392995 0.823953 0.833609
Si Si7 0.377311 0.824407 0.599107
Si Si8 0.042968 0.174003 0.308949
O O1 0.325068 0.500000 0.302017
O O2 0.267744 0.738658 0.254471
O O3 0.323231 0.746423 0.380537
O O4 0.377850 0.745479 0.245457
O O5 0.972365 0.755157 0.148978
O O6 0.080426 0.764263 0.096275
O O7 0.018658 0.000000 0.084123
O O8 0.000000 0.759393 0.000000
O O9 0.671822 0.223478 0.181481
O O10 0.670299 0.238408 0.337115
O O11 0.705082 0.000000 0.265832
O O12 0.794832 0.500000 0.450420
O O13 0.750000 0.750000 0.500000
O O14 0.857132 0.706700 0.514678
O O15 0.023971 0.806774 0.698965
O O16 0.069226 0.000000 0.793566
O O17 0.427551 0.784214 0.754349
O O18 0.397350 0.000000 0.851310
O O19 0.435562 0.731347 0.609452
O O20 0.389371 0.000000 0.611919
O O21 0.060268 0.000000 0.293079
#
# Coordination Sequence:
#
# PCOD8082886 Si02
#       8
#     8   8   8   8   8   8   8   8
#     4  10  18  32  50  67  92 127 161 198 242 286
#     4   9  17  31  51  75  99 122 155 198 235 276
#     4   8  14  26  44  65  88 118 154 191 229 272
#     4  11  21  33  47  68  96 124 162 204 245 287
#     4   8  16  30  49  71  94 122 158 195 237 288
#     4   9  16  27  44  69  97 121 151 190 234 284
#     4   9  17  30  45  64  90 120 157 199 241 286
#     4   9  16  28  46  69  92 120 160 201 238 278
#
# _framework density 17.506962999999999
#
# number of rings (size 3 to 8) (size 9 to 14) (size 15 to 20)
#    0.000    2.875    1.250    2.625    0.000    1.250 
#    0.000    4.375    0.000    4.500    0.000    0.000 
#    0.000    0.000    0.000    0.000    0.000    0.500 
#
# Total GULP energy -396430.927114 kJ/mol
# GULP energy per Si atom -12388.466472 kJ/mol
# Density = 1.746712 g / cm^3
# Si number density = 17.506963 Si / 1000 Ang^3
#
#
#
# Elastic Constant Matrix: (Units=GPa)
#
#
# Indices 1 2 3 4 5 6 
#
# 1 138.6140 29.3204 69.8208 0.0000 22.9820 0.0000
# 2 29.3204 30.5328 25.8121 0.0000 7.8884 0.0000
# 3 69.8208 25.8121 94.1870 0.0000 23.6833 0.0000
# 4 0.0000 0.0000 0.0000 21.4393 0.0000 8.3277
# 5 22.9820 7.8884 23.6833 0.0000 29.6418 0.0000
# 6 0.0000 0.0000 0.0000 8.3277 0.0000 20.8305
#
#
#
# Elastic Compliance Matrix: (Units=1/GPa)
#
#
# Indices 1 2 3 4 5 6 
#
# 1 0.012278 -0.005182 -0.007051 0.000000 -0.002506 0.000000
# 2 -0.005182 0.044965 -0.008113 0.000000 -0.001467 0.000000
# 3 -0.007051 -0.008113 0.020210 0.000000 -0.008522 0.000000
# 4 0.000000 0.000000 0.000000 0.055218 0.000000 -0.022075
# 5 -0.002506 -0.001467 -0.008522 0.000000 0.042879 0.000000
# 6 0.000000 0.000000 0.000000 -0.022075 0.000000 0.056832
#
#
# Mechanical properties :
#
#
# Convention : Reuss Voigt Hill
#
# Bulk Modulus (GPa) = 27.20213 57.02671 42.11442
# Shear Modulus (GPa) = 17.52383 23.60770 20.56576
#
# Velocity S-wave (km/s) = 3.16723 3.67614 3.43114
# Velocity P-wave (km/s) = 5.38022 7.11780 6.30912
#
# Compressibility (1/GPa) = 0.03676183
#
# Stress axis : x y z
#
# Youngs Moduli (GPa) = 81.44949 22.23961 49.47980
#
# Poissons Ratio (x) = 0.11524 0.34889
# Poissons Ratio (y) = 0.42203 0.40142
# Poissons Ratio (z) = 0.57431 0.18043
#
# Static dielectric constant tensor:
#      x y z
#    x 3.759890 0.000000 0.349130 
#    y 0.000000 3.087980 0.000000 
#    z 0.349130 0.000000 3.183330 
# 
# 
# High freq. dielectric constant tensor:
#      x y z
#    x 1.676580 0.000000 0.035530 
#    y 0.000000 1.656390 0.000000 
#    z 0.035530 0.000000 1.644700 
# 
# From -- ./inp_files/287681.got.cif
#   From: 2010.06.25/outbox.cif.g09.slc.cpg/sg12_144_cif.got.tgz:287681.got - 2010.06.28 00:19:55.
