data_PCOD8082794
_publ_section_title
;
Structure prediction by ZEFSAII (Michael W. Deem and Ramdas Pophale) SiO2 
 PCOD8082794
Probable space group: C 2/M
;
_chemical_formula_sum "Si O2"
_cell_formula_units_Z 56
_cell_length_a 30.570770
_cell_length_b 18.036782
_cell_length_c 9.254624
_cell_angle_alpha 90.000000
_cell_angle_beta 145.907329
_cell_angle_gamma 90.000000
_cell_volume 2860.391320
_symmetry_space_group_name_H-M "C 2/M"
_symmetry_group_IT_number 12
_symmetry_cell_setting 'monoclinic'
loop_
_space_group_symop_operation_xyz
x,y,z
-x,y,-z
-x,-y,-z
x,-y,z
1/2+x,1/2+y,z
1/2-x,1/2+y,-z
1/2-x,1/2-y,-z
1/2+x,1/2-y,z
loop_
_atom_site_type_symbol
_atom_site_label
_atom_site_fract_x
_atom_site_fract_y
_atom_site_fract_z
Si Si1 0.735909 0.584874 0.148254
Si Si2 0.898660 0.641950 0.663456
Si Si3 0.963185 0.416960 0.113064
Si Si4 0.818949 0.917343 0.688647
Si Si5 0.089046 0.193978 0.247072
Si Si6 0.180694 0.414986 0.100161
Si Si7 0.783180 0.824491 0.163486
O O1 0.758543 0.500000 0.184219
O O2 0.813443 0.634505 0.365939
O O3 0.684236 0.595125 0.148914
O O4 0.689634 0.617472 0.885152
O O5 0.908421 0.718780 0.777829
O O6 0.960618 0.635234 0.699474
O O7 0.915558 0.580101 0.830971
O O8 0.991392 0.500000 0.225391
O O9 0.906534 0.390081 0.089026
O O10 0.873066 0.853082 0.776600
O O11 0.732897 0.909673 0.387204
O O12 0.852226 0.000000 0.744828
O O13 0.137086 0.184488 0.527850
O O14 0.000000 0.165921 0.000000
O O15 0.180554 0.500000 0.041936
O O16 0.213409 0.359826 0.068258
O O17 0.750000 0.750000 0.000000
#
# Coordination Sequence:
#
# PCOD8082794 Si02
#       7
#     8   8   8   8   8   8   8
#     4  11  21  38  62  89 121 155 198 251 302 357
#     4  11  19  32  56  90 124 155 189 236 300 356
#     4  10  18  31  55  89 122 155 195 239 288 356
#     4   9  20  37  61  89 112 153 210 254 297 353
#     4  11  23  41  62  86 123 157 201 247 302 355
#     4   9  18  35  58  86 119 156 201 244 290 356
#     4  11  23  39  59  87 120 160 199 246 298 354
#
# _framework density 19.577739999999999
#
# number of rings (size 3 to 8) (size 9 to 14) (size 15 to 20)
#    0.000    1.714    4.286    2.143    0.000    2.571 
#    0.000    1.429    0.000    4.286    0.000    0.000 
#    0.000    0.000    0.000    0.000    0.000    0.000 
#
# Total GULP energy -347032.840723 kJ/mol
# GULP energy per Si atom -12394.030026 kJ/mol
# Density = 1.953318 g / cm^3
# Si number density = 19.577740 Si / 1000 Ang^3
#
#
#
# Elastic Constant Matrix: (Units=GPa)
#
#
# Indices 1 2 3 4 5 6 
#
# 1 112.6886 74.3674 39.4595 0.0000 3.6485 0.0000
# 2 74.3674 105.3796 27.2923 0.0000 13.6177 0.0000
# 3 39.4595 27.2923 79.1064 0.0000 7.4335 0.0000
# 4 0.0000 0.0000 0.0000 26.2226 0.0000 0.6883
# 5 3.6485 13.6177 7.4335 0.0000 31.8291 0.0000
# 6 0.0000 0.0000 0.0000 0.6883 0.0000 28.4865
#
#
#
# Elastic Compliance Matrix: (Units=1/GPa)
#
#
# Indices 1 2 3 4 5 6 
#
# 1 0.018912 -0.012488 -0.005545 0.000000 0.004470 0.000000
# 2 -0.012488 0.019111 0.000276 0.000000 -0.006809 0.000000
# 3 -0.005545 0.000276 0.015606 0.000000 -0.003127 0.000000
# 4 0.000000 0.000000 0.000000 0.038159 0.000000 -0.000922
# 5 0.004470 -0.006809 -0.003127 0.000000 0.034549 0.000000
# 6 0.000000 0.000000 0.000000 -0.000922 0.000000 0.035127
#
#
# Mechanical properties :
#
#
# Convention : Reuss Voigt Hill
#
# Bulk Modulus (GPa) = 55.20630 64.37924 59.79277
# Shear Modulus (GPa) = 24.62834 27.71132 26.16983
#
# Velocity S-wave (km/s) = 3.55064 3.76633 3.66008
# Velocity P-wave (km/s) = 6.71336 7.20201 6.96197
#
# Compressibility (1/GPa) = 0.01811387
#
# Stress axis : x y z
#
# Youngs Moduli (GPa) = 52.87511 52.32569 64.07778
#
# Poissons Ratio (x) = 0.65345 0.35533
# Poissons Ratio (y) = 0.66031 -0.01767
# Poissons Ratio (z) = 0.29321 -0.01443
#
# Static dielectric constant tensor:
#      x y z
#    x 3.513500 0.000000 -0.005480 
#    y 0.000000 3.621970 0.000000 
#    z -0.005480 0.000000 3.435470 
# 
# 
# High freq. dielectric constant tensor:
#      x y z
#    x 1.757410 0.000000 -0.001430 
#    y 0.000000 1.767130 0.000000 
#    z -0.001430 0.000000 1.740440 
# 
# From -- ./inp_files/98059.got.cif
#   From: 2010.06.25/outbox.cif.g09.slc.cpg/sg12_50_cif.got.tgz:98059.got - 2010.06.28 00:19:55.
