data_PCOD8082310
_publ_section_title
;
Structure prediction by ZEFSAII (Michael W. Deem and Ramdas Pophale) SiO2 
 PCOD8082310
Probable space group: C 2/M
;
_chemical_formula_sum "Si O2"
_cell_formula_units_Z 56
_cell_length_a 19.228320
_cell_length_b 9.112612
_cell_length_c 28.234975
_cell_angle_alpha 90.000000
_cell_angle_beta 38.944172
_cell_angle_gamma 90.000000
_cell_volume 3109.713225
_symmetry_space_group_name_H-M "C 2/M"
_symmetry_group_IT_number 12
_symmetry_cell_setting 'monoclinic'
loop_
_space_group_symop_operation_xyz
x,y,z
-x,y,-z
-x,-y,-z
x,-y,z
1/2+x,1/2+y,z
1/2-x,1/2+y,-z
1/2-x,1/2-y,-z
1/2+x,1/2-y,z
loop_
_atom_site_type_symbol
_atom_site_label
_atom_site_fract_x
_atom_site_fract_y
_atom_site_fract_z
Si Si1 0.342790 0.331782 0.713834
Si Si2 0.952296 0.831209 0.752147
Si Si3 0.298666 0.171014 0.904970
Si Si4 0.890544 0.827719 0.583000
Si Si5 0.094940 0.328702 0.050805
Si Si6 0.827732 0.830559 0.314748
Si Si7 0.625335 0.328580 0.817894
O O1 0.302160 0.500000 0.732949
O O2 0.435559 0.309914 0.704889
O O3 0.395867 0.284430 0.635621
O O4 0.237529 0.231440 0.782039
O O5 0.865662 0.728984 0.824726
O O6 0.077746 0.784523 0.697878
O O7 0.932686 0.000000 0.778289
O O8 0.369797 0.203032 0.914062
O O9 0.273599 0.000000 0.911977
O O10 0.182691 0.256426 0.968685
O O11 0.782580 0.759802 0.615300
O O12 0.000000 0.763315 0.500000
O O13 0.883255 0.000000 0.579035
O O14 0.087119 0.500000 0.043648
O O15 0.977006 0.254309 0.103905
O O16 0.873568 0.792801 0.238449
O O17 0.796083 0.000000 0.335603
O O18 0.614265 0.500000 0.834278
#
# Coordination Sequence:
#
# PCOD8082310 Si02
#       7
#     8   8   8   8   8   8   8
#     4   9  19  34  53  74 101 137 171 204 252 308
#     4  10  19  34  52  73 103 136 170 209 254 307
#     4  10  20  31  48  74 103 134 169 214 259 298
#     4   9  18  34  55  78 103 132 168 207 246 295
#     4  10  19  31  49  73 101 134 173 213 255 302
#     4   9  18  31  51  76 100 131 168 206 250 299
#     4  10  18  31  51  74 101 131 171 218 255 296
#
# _framework density 18.008092000000001
#
# number of rings (size 3 to 8) (size 9 to 14) (size 15 to 20)
#    0.000    2.429    1.429    1.286    0.000    3.143 
#    0.000    1.429    0.000    4.286    0.000    0.000 
#    0.000    0.000    0.000    0.000    0.000    0.000 
#
# Total GULP energy -347274.884235 kJ/mol
# GULP energy per Si atom -12402.674437 kJ/mol
# Density = 1.796710 g / cm^3
# Si number density = 18.008092 Si / 1000 Ang^3
#
#
#
# Elastic Constant Matrix: (Units=GPa)
#
#
# Indices 1 2 3 4 5 6 
#
# 1 103.3869 34.7785 50.8212 0.0001 -16.5003 0.0014
# 2 34.7785 72.8477 52.7963 0.0000 -11.5813 0.0040
# 3 50.8212 52.7963 129.2862 -0.0001 -22.0307 -0.0005
# 4 0.0001 0.0000 -0.0001 29.2260 -0.0001 -6.8138
# 5 -16.5003 -11.5813 -22.0307 -0.0001 23.3467 0.0001
# 6 0.0014 0.0040 -0.0005 -6.8138 0.0001 23.8290
#
#
#
# Elastic Compliance Matrix: (Units=1/GPa)
#
#
# Indices 1 2 3 4 5 6 
#
# 1 0.012994 -0.003313 -0.002943 0.000000 0.004763 0.000000
# 2 -0.003313 0.020473 -0.006824 -0.000001 0.001375 -0.000004
# 3 -0.002943 -0.006824 0.012806 0.000000 0.006619 0.000002
# 4 0.000000 -0.000001 0.000000 0.036660 0.000000 0.010483
# 5 0.004763 0.001375 0.006619 0.000000 0.053127 -0.000001
# 6 0.000000 -0.000004 0.000002 0.010483 -0.000001 0.044963
#
#
# Mechanical properties :
#
#
# Convention : Reuss Voigt Hill
#
# Bulk Modulus (GPa) = 49.71962 64.70143 57.21053
# Shear Modulus (GPa) = 23.37667 26.42200 24.89934
#
# Velocity S-wave (km/s) = 3.60685 3.83460 3.72247
# Velocity P-wave (km/s) = 6.70935 7.45739 7.09324
#
# Compressibility (1/GPa) = 0.02011278
#
# Stress axis : x y z
#
# Youngs Moduli (GPa) = 76.95988 48.84420 78.08632
#
# Poissons Ratio (x) = 0.16183 0.22982
# Poissons Ratio (y) = 0.25498 0.53286
# Poissons Ratio (z) = 0.22651 0.33331
#
# Static dielectric constant tensor:
#      x y z
#    x 3.229810 0.000000 -0.112510 
#    y 0.000000 3.316650 0.000000 
#    z -0.112510 0.000000 3.250600 
# 
# 
# High freq. dielectric constant tensor:
#      x y z
#    x 1.682710 0.000000 -0.013840 
#    y 0.000000 1.700250 0.000000 
#    z -0.013840 0.000000 1.684540 
# 
# From -- ./inp_files/280438.got.cif
#   From: 2010.06.25/outbox.cif.g09.slc.cpg/sg12_141_cif.got.tgz:280438.got - 2010.06.28 00:19:55.
