data_PCOD8082162
_publ_section_title
;
Structure prediction by ZEFSAII (Michael W. Deem and Ramdas Pophale) SiO2 
 PCOD8082162
Probable space group: C 2/M
;
_chemical_formula_sum "Si O2"
_cell_formula_units_Z 48
_cell_length_a 33.869429
_cell_length_b 14.871816
_cell_length_c 4.950344
_cell_angle_alpha 90.000000
_cell_angle_beta 86.878830
_cell_angle_gamma 90.000000
_cell_volume 2489.789069
_symmetry_space_group_name_H-M "C 2/M"
_symmetry_group_IT_number 12
_symmetry_cell_setting 'monoclinic'
loop_
_space_group_symop_operation_xyz
x,y,z
-x,y,-z
-x,-y,-z
x,-y,z
1/2+x,1/2+y,z
1/2-x,1/2+y,-z
1/2-x,1/2-y,-z
1/2+x,1/2-y,z
loop_
_atom_site_type_symbol
_atom_site_label
_atom_site_fract_x
_atom_site_fract_y
_atom_site_fract_z
Si Si1 0.270577 0.102733 0.881374
Si Si2 0.782122 0.897860 0.599714
Si Si3 0.614590 0.806174 0.828842
Si Si4 0.474998 0.181637 0.279395
Si Si5 0.898283 0.500000 0.060617
Si Si6 0.338398 0.241136 0.712340
Si Si7 0.552366 0.000000 0.469612
O O1 0.234286 0.120732 0.692258
O O2 0.305554 0.170904 0.816592
O O3 0.286005 0.000000 0.847466
O O4 0.254026 0.122796 0.184883
O O5 0.819772 0.835795 0.636538
O O6 0.796884 0.000000 0.629870
O O7 0.568686 0.782513 0.782623
O O8 0.638299 0.800662 0.545069
O O9 0.623422 0.904433 0.967635
O O10 0.631570 0.738765 0.049781
O O11 0.500000 0.239146 0.500000
O O12 0.471748 0.086190 0.428562
O O13 0.500000 0.175030 0.000000
O O14 0.937358 0.500000 0.853599
O O15 0.907184 0.500000 0.377490
#
# Coordination Sequence:
#
# PCOD8082162 Si02
#       7
#     8   8   8   8   4   8   4
#     4  10  21  35  57  80 108 145 184 211 261 325
#     4  10  21  39  58  81 105 140 183 226 266 321
#     4  11  24  34  51  78 108 143 182 222 269 321
#     4  11  20  34  51  70 102 142 188 227 265 310
#     4  10  20  35  46  68 110 140 178 222 260 310
#     4  12  22  36  56  79 114 140 178 225 276 316
#     4  10  18  31  50  68  90 140 192 224 252 294
#
# _framework density 19.278742999999999
#
# number of rings (size 3 to 8) (size 9 to 14) (size 15 to 20)
#    0.000    1.333    0.000    8.500    2.333    0.000 
#    0.000    0.000    0.000    0.000    0.000    0.000 
#    0.000   13.333    0.000    0.000    0.000    0.000 
#
# Total GULP energy -297417.045017 kJ/mol
# GULP energy per Si atom -12392.376876 kJ/mol
# Density = 1.923486 g / cm^3
# Si number density = 19.278743 Si / 1000 Ang^3
#
#
#
# Elastic Constant Matrix: (Units=GPa)
#
#
# Indices 1 2 3 4 5 6 
#
# 1 98.4097 41.5495 21.3026 0.0000 4.3883 0.0000
# 2 41.5495 47.8152 11.6565 0.0000 -2.4718 0.0000
# 3 21.3026 11.6565 79.6170 0.0000 -1.6529 0.0000
# 4 0.0000 0.0000 0.0000 19.6717 0.0000 6.8878
# 5 4.3883 -2.4718 -1.6529 0.0000 33.6311 0.0000
# 6 0.0000 0.0000 0.0000 6.8878 0.0000 18.7859
#
#
#
# Elastic Compliance Matrix: (Units=1/GPa)
#
#
# Indices 1 2 3 4 5 6 
#
# 1 0.016851 -0.014208 -0.002499 0.000000 -0.003366 0.000000
# 2 -0.014208 0.033737 -0.001049 0.000000 0.004282 0.000000
# 3 -0.002499 -0.001049 0.013401 0.000000 0.000908 0.000000
# 4 0.000000 0.000000 0.000000 0.058322 0.000000 -0.021383
# 5 -0.003366 0.004282 0.000908 0.000000 0.030533 0.000000
# 6 0.000000 0.000000 0.000000 -0.021383 0.000000 0.061072
#
#
# Mechanical properties :
#
#
# Convention : Reuss Voigt Hill
#
# Bulk Modulus (GPa) = 35.11412 41.65103 38.38257
# Shear Modulus (GPa) = 19.31104 24.50662 21.90883
#
# Velocity S-wave (km/s) = 3.16836 3.56922 3.37475
# Velocity P-wave (km/s) = 5.62478 6.21589 5.92771
#
# Compressibility (1/GPa) = 0.02847857
#
# Stress axis : x y z
#
# Youngs Moduli (GPa) = 59.34262 29.64096 74.62102
#
# Poissons Ratio (x) = 0.42114 0.18644
# Poissons Ratio (y) = 0.84314 0.07827
# Poissons Ratio (z) = 0.14827 0.03109
#
# Static dielectric constant tensor:
#      x y z
#    x 3.722400 0.000000 0.247710 
#    y 0.000000 3.307480 0.000000 
#    z 0.247710 0.000000 3.849020 
# 
# 
# High freq. dielectric constant tensor:
#      x y z
#    x 1.754980 0.000000 0.011590 
#    y 0.000000 1.695250 0.000000 
#    z 0.011590 0.000000 1.780130 
# 
# From -- ./inp_files/31256.got.cif
#   From: 2010.06.25/outbox.cif.g09.slc.cpg/sg12_16_cif.got.tgz:31256.got - 2010.06.28 00:19:55.
