data_PCOD8082463
_publ_section_title
;
Structure prediction by ZEFSAII (Michael W. Deem and Ramdas Pophale) SiO2 
 PCOD8082463
Probable space group: C 2/M
;
_chemical_formula_sum "Si O2"
_cell_formula_units_Z 56
_cell_length_a 19.208067
_cell_length_b 9.081202
_cell_length_c 31.444509
_cell_angle_alpha 90.000000
_cell_angle_beta 34.155710
_cell_angle_gamma 90.000000
_cell_volume 3079.485484
_symmetry_space_group_name_H-M "C 2/M"
_symmetry_group_IT_number 12
_symmetry_cell_setting 'monoclinic'
loop_
_space_group_symop_operation_xyz
x,y,z
-x,y,-z
-x,-y,-z
x,-y,z
1/2+x,1/2+y,z
1/2-x,1/2+y,-z
1/2-x,1/2-y,-z
1/2+x,1/2-y,z
loop_
_atom_site_type_symbol
_atom_site_label
_atom_site_fract_x
_atom_site_fract_y
_atom_site_fract_z
Si Si1 0.655558 0.672370 0.078833
Si Si2 0.874456 0.168298 0.211718
Si Si3 0.829717 0.670823 0.317355
Si Si4 0.221602 0.328054 0.449227
Si Si5 0.060926 0.171653 0.595653
Si Si6 0.331536 0.168925 0.749450
Si Si7 0.384200 0.830542 0.816873
O O1 0.681275 0.500000 0.065094
O O2 0.517404 0.713382 0.132761
O O3 0.676454 0.730182 0.116141
O O4 0.750000 0.750000 0.000000
O O5 0.809886 0.269486 0.279818
O O6 0.803664 0.190560 0.202967
O O7 0.866489 0.000000 0.231667
O O8 0.795570 0.500000 0.335789
O O9 0.736746 0.756161 0.395404
O O10 0.969955 0.701389 0.261307
O O11 0.196843 0.500000 0.456484
O O12 0.102997 0.256234 0.531943
O O13 0.344527 0.293636 0.414097
O O14 0.926494 0.227443 0.676868
O O15 0.055135 0.000000 0.588070
O O16 0.320433 0.213156 0.804525
O O17 0.377853 0.000000 0.722346
O O18 0.359851 0.000000 0.841292
#
# Coordination Sequence:
#
# PCOD8082463 Si02
#       7
#     8   8   8   8   8   8   8
#     4  10  20  36  58  82 107 136 172 211 253 304
#     4   9  20  36  55  78 106 140 174 210 258 315
#     4  10  18  31  52  77 104 135 176 224 264 306
#     4  10  19  31  49  73 103 139 180 222 264 310
#     4  10  20  31  48  75 106 138 175 222 268 308
#     4  10  19  35  55  77 107 140 174 214 261 315
#     4   9  18  32  54  80 104 135 173 211 255 307
#
# _framework density 18.184854999999999
#
# number of rings (size 3 to 8) (size 9 to 14) (size 15 to 20)
#    0.000    2.286    1.429    1.714    0.000    3.429 
#    0.000    1.429    0.000    8.571    0.000    0.000 
#    0.000    0.000    0.000    0.000    0.000    0.000 
#
# Total GULP energy -347297.952161 kJ/mol
# GULP energy per Si atom -12403.498291 kJ/mol
# Density = 1.814347 g / cm^3
# Si number density = 18.184855 Si / 1000 Ang^3
#
#
#
# Elastic Constant Matrix: (Units=GPa)
#
#
# Indices 1 2 3 4 5 6 
#
# 1 105.5641 40.0958 49.2991 0.0024 14.4613 0.0374
# 2 40.0958 94.1041 64.0813 -0.0033 14.1581 0.0129
# 3 49.2991 64.0813 122.6113 0.0004 20.2089 0.0032
# 4 0.0024 -0.0033 0.0004 36.8393 -0.0018 6.1884
# 5 14.4613 14.1581 20.2089 -0.0018 22.0379 0.0000
# 6 0.0374 0.0129 0.0032 6.1884 0.0000 24.6123
#
#
#
# Elastic Compliance Matrix: (Units=1/GPa)
#
#
# Indices 1 2 3 4 5 6 
#
# 1 0.012387 -0.002711 -0.002958 0.000002 -0.003674 -0.000017
# 2 -0.002711 0.017282 -0.007546 0.000002 -0.002404 -0.000005
# 3 -0.002958 -0.007546 0.014337 -0.000002 -0.006358 0.000007
# 4 0.000002 0.000002 -0.000002 0.028342 0.000002 -0.007126
# 5 -0.003674 -0.002404 -0.006358 0.000002 0.055162 0.000007
# 6 -0.000017 -0.000005 0.000007 -0.007126 0.000007 0.042422
#
#
# Mechanical properties :
#
#
# Convention : Reuss Voigt Hill
#
# Bulk Modulus (GPa) = 56.89499 69.91466 63.40482
# Shear Modulus (GPa) = 24.72540 27.95145 26.33842
#
# Velocity S-wave (km/s) = 3.69137 3.92481 3.80988
# Velocity P-wave (km/s) = 7.03727 7.68563 7.36859
#
# Compressibility (1/GPa) = 0.01757624
#
# Stress axis : x y z
#
# Youngs Moduli (GPa) = 80.72694 57.86472 69.74927
#
# Poissons Ratio (x) = 0.15685 0.20635
# Poissons Ratio (y) = 0.21882 0.52632
# Poissons Ratio (z) = 0.23882 0.43664
#
# Static dielectric constant tensor:
#      x y z
#    x 3.283080 -0.000020 0.110880 
#    y -0.000020 3.401210 0.000010 
#    z 0.110880 0.000010 3.185310 
# 
# 
# High freq. dielectric constant tensor:
#      x y z
#    x 1.690640 0.000000 0.013730 
#    y 0.000000 1.713040 0.000000 
#    z 0.013730 0.000000 1.691280 
# 
# From -- ./inp_files/280385.got.cif
#   From: 2010.06.25/outbox.cif.g09.slc.cpg/sg12_141_cif.got.tgz:280385.got - 2010.06.28 00:19:55.
