data_PCOD8082276
_publ_section_title
;
Structure prediction by ZEFSAII (Michael W. Deem and Ramdas Pophale) SiO2 
 PCOD8082276
Probable space group: C 2/M
;
_chemical_formula_sum "Si O2"
_cell_formula_units_Z 56
_cell_length_a 20.713117
_cell_length_b 7.732021
_cell_length_c 21.833699
_cell_angle_alpha 90.000000
_cell_angle_beta 58.538728
_cell_angle_gamma 90.000000
_cell_volume 2982.712140
_symmetry_space_group_name_H-M "C 2/M"
_symmetry_group_IT_number 12
_symmetry_cell_setting 'monoclinic'
loop_
_space_group_symop_operation_xyz
x,y,z
-x,y,-z
-x,-y,-z
x,-y,z
1/2+x,1/2+y,z
1/2-x,1/2+y,-z
1/2-x,1/2-y,-z
1/2+x,1/2-y,z
loop_
_atom_site_type_symbol
_atom_site_label
_atom_site_fract_x
_atom_site_fract_y
_atom_site_fract_z
Si Si1 0.015815 0.204747 0.923529
Si Si2 0.592004 0.500000 0.385706
Si Si3 0.181679 0.203023 0.816062
Si Si4 0.817695 0.698144 0.509500
Si Si5 0.754762 0.694988 0.899035
Si Si6 0.699795 0.802505 0.340689
Si Si7 0.074030 0.000000 0.538686
Si Si8 0.362228 0.798864 0.947352
O O1 0.096603 0.280298 0.860238
O O2 0.952128 0.270768 0.907430
O O3 0.014869 0.000000 0.923382
O O4 0.000000 0.275202 0.000000
O O5 0.636614 0.673763 0.344881
O O6 0.575768 0.500000 0.465247
O O7 0.510886 0.500000 0.392178
O O8 0.234680 0.285878 0.843831
O O9 0.220283 0.241139 0.731463
O O10 0.174390 0.000000 0.832471
O O11 0.843484 0.500000 0.486616
O O12 0.750000 0.750000 0.500000
O O13 0.789120 0.728675 0.592826
O O14 0.886434 0.824306 0.457540
O O15 0.777353 0.500000 0.872886
O O16 0.826161 0.776585 0.901299
O O17 0.678089 0.700159 0.977069
O O18 0.674450 0.000000 0.339338
O O19 0.341128 0.000000 0.962604
#
# Coordination Sequence:
#
# PCOD8082276 Si02
#       8
#     8   4   8   8   8   8   4   8
#     4  10  18  31  51  70  94 131 172 211 259 308
#     4   9  18  34  54  80 109 134 172 217 262 307
#     4   9  17  33  54  71  92 134 179 211 251 318
#     4  10  18  31  55  83 112 145 179 216 257 308
#     4   9  17  32  51  66  90 131 168 199 256 318
#     4   9  19  34  54  78 106 143 178 216 263 320
#     4   9  18  32  54  84 110 135 172 219 257 304
#     4  10  19  29  45  72  99 119 156 220 265 299
#
# _framework density 18.774857999999998
#
# number of rings (size 3 to 8) (size 9 to 14) (size 15 to 20)
#    0.000    2.571    2.143    0.429    0.000    1.429 
#    2.571    2.857    3.143    0.000    0.000    0.000 
#    0.000    0.000    0.000    0.000    0.000    0.000 
#
# Total GULP energy -346987.783950 kJ/mol
# GULP energy per Si atom -12392.420855 kJ/mol
# Density = 1.873213 g / cm^3
# Si number density = 18.774858 Si / 1000 Ang^3
#
#
#
# Elastic Constant Matrix: (Units=GPa)
#
#
# Indices 1 2 3 4 5 6 
#
# 1 154.1005 37.7537 59.1455 0.0011 -21.4468 0.0062
# 2 37.7537 80.9205 33.8019 0.0041 -11.9552 0.0104
# 3 59.1455 33.8019 83.1830 0.0006 -19.6364 0.0003
# 4 0.0011 0.0041 0.0006 16.1055 -0.0006 -6.1201
# 5 -21.4468 -11.9552 -19.6364 -0.0006 28.3596 -0.0003
# 6 0.0062 0.0104 0.0003 -6.1201 -0.0003 22.8640
#
#
#
# Elastic Compliance Matrix: (Units=1/GPa)
#
#
# Indices 1 2 3 4 5 6 
#
# 1 0.009315 -0.001746 -0.005289 -0.000001 0.002646 -0.000002
# 2 -0.001746 0.015361 -0.004523 -0.000007 0.002023 -0.000008
# 3 -0.005289 -0.004523 0.019397 0.000003 0.007524 0.000004
# 4 -0.000001 -0.000007 0.000003 0.069121 0.000000 0.018502
# 5 0.002646 0.002023 0.007524 0.000000 0.043325 -0.000001
# 6 -0.000002 -0.000008 0.000004 0.018502 -0.000001 0.048689
#
#
# Mechanical properties :
#
#
# Convention : Reuss Voigt Hill
#
# Bulk Modulus (GPa) = 47.71816 64.40070 56.05943
# Shear Modulus (GPa) = 21.24856 25.96602 23.60729
#
# Velocity S-wave (km/s) = 3.36781 3.72293 3.54981
# Velocity P-wave (km/s) = 6.37134 7.27024 6.83558
#
# Compressibility (1/GPa) = 0.02095638
#
# Stress axis : x y z
#
# Youngs Moduli (GPa) = 107.34906 65.10196 51.55537
#
# Poissons Ratio (x) = 0.11365 0.27270
# Poissons Ratio (y) = 0.18739 0.23318
# Poissons Ratio (z) = 0.56782 0.29445
#
# Static dielectric constant tensor:
#      x y z
#    x 3.713870 0.000010 -0.104500 
#    y 0.000010 2.773220 -0.000020 
#    z -0.104500 -0.000020 3.310340 
# 
# 
# High freq. dielectric constant tensor:
#      x y z
#    x 1.730770 0.000000 -0.004740 
#    y 0.000000 1.724060 0.000000 
#    z -0.004740 0.000000 1.692210 
# 
# From -- ./inp_files/345500.got.cif
#   From: 2010.06.25/outbox.cif.g09.slc.cpg/sg12_173_cif.got.tgz:345500.got - 2010.06.28 00:19:55.
