data_PCOD8082728
_publ_section_title
;
Structure prediction by ZEFSAII (Michael W. Deem and Ramdas Pophale) SiO2 
 PCOD8082728
Probable space group: C 2/M
;
_chemical_formula_sum "Si O2"
_cell_formula_units_Z 40
_cell_length_a 20.762587
_cell_length_b 22.389407
_cell_length_c 8.572608
_cell_angle_alpha 90.000000
_cell_angle_beta 28.191198
_cell_angle_gamma 90.000000
_cell_volume 1882.612945
_symmetry_space_group_name_H-M "C 2/M"
_symmetry_group_IT_number 12
_symmetry_cell_setting 'monoclinic'
loop_
_space_group_symop_operation_xyz
x,y,z
-x,y,-z
-x,-y,-z
x,-y,z
1/2+x,1/2+y,z
1/2-x,1/2+y,-z
1/2-x,1/2-y,-z
1/2+x,1/2-y,z
loop_
_atom_site_type_symbol
_atom_site_label
_atom_site_fract_x
_atom_site_fract_y
_atom_site_fract_z
Si Si1 0.943263 0.432571 0.794184
Si Si2 0.799044 0.628347 0.683433
Si Si3 0.675096 0.622919 0.290091
Si Si4 0.885067 0.747969 0.617380
Si Si5 0.939093 0.068222 0.963126
O O1 0.897959 0.500000 0.927355
O O2 0.000000 0.424598 0.500000
O O3 0.071507 0.414350 0.626946
O O4 0.811036 0.390313 0.102479
O O5 0.864934 0.695063 0.534082
O O6 0.718429 0.616907 0.017570
O O7 0.688218 0.613432 0.788149
O O8 0.604022 0.686864 0.485364
O O9 0.557401 0.575534 0.580650
O O10 0.000000 0.732916 0.500000
O O11 0.750000 0.750000 0.000000
O O12 0.886792 0.000000 0.066531
O O13 0.000000 0.084762 0.000000
#
# Coordination Sequence:
#
# PCOD8082728 Si02
#       5
#     8   8   8   8   8
#     4   9  17  29  49  79 107 129 167 220 264 311
#     4  10  19  34  57  82 106 138 177 221 274 326
#     4  10  19  34  58  83 107 140 177 219 271 325
#     4  10  18  31  54  85 112 133 168 219 269 317
#     4  11  24  39  53  75 110 148 187 229 269 314
#
# _framework density 21.247067000000001
#
# number of rings (size 3 to 8) (size 9 to 14) (size 15 to 20)
#    0.000    2.000    0.000    7.200    0.000    3.200 
#    0.000    2.000    0.000    3.600    0.000    0.000 
#    0.000    0.000    0.000    0.000    0.000    0.000 
#
# Total GULP energy -247799.360609 kJ/mol
# GULP energy per Si atom -12389.968030 kJ/mol
# Density = 2.119871 g / cm^3
# Si number density = 21.247067 Si / 1000 Ang^3
#
#
#
# Elastic Constant Matrix: (Units=GPa)
#
#
# Indices 1 2 3 4 5 6 
#
# 1 106.1504 67.6347 40.4126 0.0007 -45.9752 -0.0007
# 2 67.6347 132.0894 31.4209 -0.0001 -27.4353 0.0004
# 3 40.4126 31.4209 48.1337 0.0044 -34.5641 -0.0016
# 4 0.0007 -0.0001 0.0044 28.2854 -0.0011 -14.9723
# 5 -45.9752 -27.4353 -34.5641 -0.0011 40.3600 0.0011
# 6 -0.0007 0.0004 -0.0016 -14.9723 0.0011 28.4939
#
#
#
# Elastic Compliance Matrix: (Units=1/GPa)
#
#
# Indices 1 2 3 4 5 6 
#
# 1 0.023818 -0.007778 0.001990 0.000000 0.023549 0.000000
# 2 -0.007778 0.011627 -0.004536 0.000001 -0.004841 0.000000
# 3 0.001990 -0.004536 0.055786 -0.000008 0.046958 -0.000003
# 4 0.000000 0.000001 -0.000008 0.048976 -0.000006 0.025735
# 5 0.023549 -0.004841 0.046958 -0.000006 0.088526 -0.000003
# 6 0.000000 0.000000 -0.000003 0.025735 -0.000003 0.048618
#
#
# Mechanical properties :
#
#
# Convention : Reuss Voigt Hill
#
# Bulk Modulus (GPa) = 14.16768 62.81220 38.48994
# Shear Modulus (GPa) = 15.55084 29.22154 22.38619
#
# Velocity S-wave (km/s) = 2.70831 3.71256 3.24946
# Velocity P-wave (km/s) = 4.05740 6.92852 5.67745
#
# Compressibility (1/GPa) = 0.07058321
#
# Stress axis : x y z
#
# Youngs Moduli (GPa) = 41.98474 86.00909 17.92576
#
# Poissons Ratio (x) = 0.66898 -0.03567
# Poissons Ratio (y) = 0.32656 0.08131
# Poissons Ratio (z) = -0.08355 0.39011
#
# Static dielectric constant tensor:
#      x y z
#    x 3.504390 0.000260 -0.490300 
#    y 0.000260 -14.066310 -0.000070 
#    z -0.490300 -0.000070 3.743000 
# 
# 
# High freq. dielectric constant tensor:
#      x y z
#    x 1.796520 0.000000 -0.049940 
#    y 0.000000 1.841890 0.000000 
#    z -0.049940 0.000000 1.822360 
# 
# From -- ./inp_files/79249.got.cif
#   From: 2010.06.25/outbox.cif.g09.slc.cpg/sg12_40_cif.got.tgz:79249.got - 2010.06.28 00:19:55.
