data_PCOD8082245
_publ_section_title
;
Structure prediction by ZEFSAII (Michael W. Deem and Ramdas Pophale) SiO2 
 PCOD8082245
Probable space group: C 2/M
;
_chemical_formula_sum "Si O2"
_cell_formula_units_Z 56
_cell_length_a 20.610085
_cell_length_b 8.829717
_cell_length_c 19.580279
_cell_angle_alpha 90.000000
_cell_angle_beta 121.042265
_cell_angle_gamma 90.000000
_cell_volume 3052.940805
_symmetry_space_group_name_H-M "C 2/M"
_symmetry_group_IT_number 12
_symmetry_cell_setting 'monoclinic'
loop_
_space_group_symop_operation_xyz
x,y,z
-x,y,-z
-x,-y,-z
x,-y,z
1/2+x,1/2+y,z
1/2-x,1/2+y,-z
1/2-x,1/2-y,-z
1/2+x,1/2-y,z
loop_
_atom_site_type_symbol
_atom_site_label
_atom_site_fract_x
_atom_site_fract_y
_atom_site_fract_z
Si Si1 0.047626 0.679053 0.822434
Si Si2 0.425314 0.829862 0.504671
Si Si3 0.154298 0.177400 0.655493
Si Si4 0.289857 0.179924 0.820502
Si Si5 0.459481 0.820140 0.909694
Si Si6 0.508207 0.322907 0.665288
Si Si7 0.789167 0.820511 0.085942
O O1 0.061282 0.500000 0.829486
O O2 0.999271 0.729220 0.730427
O O3 0.125599 0.767125 0.861902
O O4 0.004940 0.731991 0.867702
O O5 0.500000 0.826332 0.500000
O O6 0.357094 0.762213 0.422583
O O7 0.439094 0.728269 0.579140
O O8 0.404536 0.000000 0.515807
O O9 0.234589 0.233754 0.729368
O O10 0.088717 0.217255 0.674408
O O11 0.153217 0.000000 0.639523
O O12 0.374304 0.246153 0.857220
O O13 0.256944 0.239748 0.873942
O O14 0.291040 0.000000 0.821911
O O15 0.455840 0.000000 0.912315
O O16 0.500000 0.755700 0.000000
O O17 0.501172 0.500000 0.676890
O O18 0.787122 0.000000 0.079884
O O19 0.750000 0.750000 0.000000
#
# Coordination Sequence:
#
# PCOD8082245 Si02
#       7
#     8   8   8   8   8   8   8
#     4  11  21  33  53  80 107 137 173 219 267 312
#     4   9  17  28  45  74 108 138 166 210 262 313
#     4   9  16  29  49  74 101 136 175 213 258 310
#     4   9  17  32  53  75 102 136 179 219 256 310
#     4   9  18  33  53  76 102 137 181 221 258 309
#     4  10  18  31  50  75 106 141 175 212 257 313
#     4  11  21  35  54  78 104 135 172 219 269 315
#
# _framework density 18.342969
#
# number of rings (size 3 to 8) (size 9 to 14) (size 15 to 20)
#    0.000    2.286    1.429    2.571    0.000    4.571 
#    0.000    0.000    0.000   12.000    0.000    0.000 
#    0.000    0.000    0.000    0.000    0.000    0.000 
#
# Total GULP energy -347189.865702 kJ/mol
# GULP energy per Si atom -12399.638061 kJ/mol
# Density = 1.830122 g / cm^3
# Si number density = 18.342969 Si / 1000 Ang^3
#
#
#
# Elastic Constant Matrix: (Units=GPa)
#
#
# Indices 1 2 3 4 5 6 
#
# 1 79.5249 21.3164 42.0298 0.0000 0.1954 0.0000
# 2 21.3164 49.8000 28.3324 0.0000 -2.1366 0.0000
# 3 42.0298 28.3324 148.3559 0.0000 5.9843 0.0000
# 4 0.0000 0.0000 0.0000 34.6231 0.0000 -1.2983
# 5 0.1954 -2.1366 5.9843 0.0000 26.4689 0.0000
# 6 0.0000 0.0000 0.0000 -1.2983 0.0000 14.5179
#
#
#
# Elastic Compliance Matrix: (Units=1/GPa)
#
#
# Indices 1 2 3 4 5 6 
#
# 1 0.015716 -0.004682 -0.003571 0.000000 0.000313 0.000000
# 2 -0.004682 0.024133 -0.003393 0.000000 0.002750 0.000000
# 3 -0.003571 -0.003393 0.008488 0.000000 -0.002166 0.000000
# 4 0.000000 0.000000 0.000000 0.028980 0.000000 0.002592
# 5 0.000313 0.002750 -0.002166 0.000000 0.038490 0.000000
# 6 0.000000 0.000000 0.000000 0.002592 0.000000 0.069112
#
#
# Mechanical properties :
#
#
# Convention : Reuss Voigt Hill
#
# Bulk Modulus (GPa) = 39.92949 51.22642 45.57795
# Shear Modulus (GPa) = 23.08841 27.52212 25.30526
#
# Velocity S-wave (km/s) = 3.55167 3.87772 3.71827
# Velocity P-wave (km/s) = 6.21568 6.93085 6.58298
#
# Compressibility (1/GPa) = 0.02504415
#
# Stress axis : x y z
#
# Youngs Moduli (GPa) = 63.62852 41.43709 117.81853
#
# Poissons Ratio (x) = 0.19401 0.42072
# Poissons Ratio (y) = 0.29792 0.39979
# Poissons Ratio (z) = 0.22721 0.14061
#
# Static dielectric constant tensor:
#      x y z
#    x 3.257430 0.000000 0.017020 
#    y 0.000000 3.175070 0.000000 
#    z 0.017020 0.000000 3.844230 
# 
# 
# High freq. dielectric constant tensor:
#      x y z
#    x 1.676400 0.000000 0.004120 
#    y 0.000000 1.691160 0.000000 
#    z 0.004120 0.000000 1.733340 
# 
# From -- ./inp_files/280927.got.cif
#   From: 2010.06.25/outbox.cif.g09.slc.cpg/sg12_141_cif.got.tgz:280927.got - 2010.06.28 00:19:55.
