data_PCOD8082243
_publ_section_title
;
Structure prediction by ZEFSAII (Michael W. Deem and Ramdas Pophale) SiO2 
 PCOD8082243
Probable space group: C 2/M
;
_chemical_formula_sum "Si O2"
_cell_formula_units_Z 64
_cell_length_a 19.939711
_cell_length_b 19.328660
_cell_length_c 20.074526
_cell_angle_alpha 90.000000
_cell_angle_beta 151.146976
_cell_angle_gamma 90.000000
_cell_volume 3733.543548
_symmetry_space_group_name_H-M "C 2/M"
_symmetry_group_IT_number 12
_symmetry_cell_setting 'monoclinic'
loop_
_space_group_symop_operation_xyz
x,y,z
-x,y,-z
-x,-y,-z
x,-y,z
1/2+x,1/2+y,z
1/2-x,1/2+y,-z
1/2-x,1/2-y,-z
1/2+x,1/2-y,z
loop_
_atom_site_type_symbol
_atom_site_label
_atom_site_fract_x
_atom_site_fract_y
_atom_site_fract_z
Si Si1 0.485362 0.578397 0.193241
Si Si2 0.203582 0.577160 0.491048
Si Si3 0.934087 0.634629 0.507980
Si Si4 0.651953 0.792300 0.366202
Si Si5 0.685815 0.772851 0.765403
Si Si6 0.054236 0.140983 0.977849
Si Si7 0.194025 0.766060 0.265135
Si Si8 0.369023 0.715130 0.145939
O O1 0.446857 0.500000 0.181594
O O2 0.643502 0.596621 0.349592
O O3 0.461919 0.583784 0.093480
O O4 0.387364 0.634263 0.144280
O O5 0.199381 0.500000 0.458307
O O6 0.093408 0.581330 0.456179
O O7 0.156779 0.627460 0.390908
O O8 0.785609 0.666518 0.360074
O O9 0.000000 0.597019 0.500000
O O10 0.034685 0.696299 0.618638
O O11 0.750000 0.750000 0.500000
O O12 0.702668 0.788053 0.333522
O O13 0.500867 0.761117 0.242763
O O14 0.748956 0.733985 0.754945
O O15 0.667943 0.716821 0.808078
O O16 0.786241 0.835386 0.876037
O O17 0.964769 0.209270 0.881487
O O18 0.000000 0.108160 0.000000
O O19 0.250000 0.750000 0.000000
#
# Coordination Sequence:
#
# PCOD8082243 Si02
#       8
#     8   8   8   8   8   8   8   8
#     4  11  22  36  53  77 109 145 179 214 265 322
#     4  11  22  35  53  78 107 143 182 221 263 315
#     4  10  18  31  50  75 103 136 171 213 266 310
#     4  12  18  34  58  75 100 141 184 220 256 311
#     4  10  20  30  52  81 107 129 172 226 263 303
#     4  10  18  33  52  76 107 142 177 205 253 326
#     4  10  18  32  52  77 103 137 176 216 261 310
#     4  12  20  34  56  82 104 139 177 224 264 306
#
# _framework density 17.141891999999999
#
# number of rings (size 3 to 8) (size 9 to 14) (size 15 to 20)
#    0.000    1.250    7.500    0.000    0.000    0.500 
#    0.000    2.500    0.000    0.750    0.000    1.750 
#    0.000    5.000    0.000    0.000    0.000    0.000 
#
# Total GULP energy -396710.887444 kJ/mol
# GULP energy per Si atom -12397.215233 kJ/mol
# Density = 1.710288 g / cm^3
# Si number density = 17.141892 Si / 1000 Ang^3
#
#
#
# Elastic Constant Matrix: (Units=GPa)
#
#
# Indices 1 2 3 4 5 6 
#
# 1 114.7982 49.7466 30.5517 -0.0030 -15.4309 0.0013
# 2 49.7466 89.9426 27.9242 -0.0095 -5.0582 -0.0025
# 3 30.5517 27.9242 80.4387 -0.0020 -1.5476 0.0006
# 4 -0.0030 -0.0095 -0.0020 19.9458 0.0014 -2.7958
# 5 -15.4309 -5.0582 -1.5476 0.0014 28.4227 0.0021
# 6 0.0013 -0.0025 0.0006 -2.7958 0.0021 21.5173
#
#
#
# Elastic Compliance Matrix: (Units=1/GPa)
#
#
# Indices 1 2 3 4 5 6 
#
# 1 0.012751 -0.005896 -0.002686 -0.000002 0.005727 -0.000002
# 2 -0.005896 0.015301 -0.003085 0.000007 -0.000646 0.000003
# 3 -0.002686 -0.003085 0.014499 0.000000 -0.001218 -0.000001
# 4 -0.000002 0.000007 0.000000 0.051066 -0.000003 0.006635
# 5 0.005727 -0.000646 -0.001218 -0.000003 0.038111 -0.000004
# 6 -0.000002 0.000003 -0.000001 0.006635 -0.000004 0.047336
#
#
# Mechanical properties :
#
#
# Convention : Reuss Voigt Hill
#
# Bulk Modulus (GPa) = 52.03643 55.73606 53.88625
# Shear Modulus (GPa) = 23.94600 25.77429 24.86015
#
# Velocity S-wave (km/s) = 3.74161 3.88182 3.81236
# Velocity P-wave (km/s) = 7.00631 7.25785 7.13319
#
# Compressibility (1/GPa) = 0.01921730
#
# Stress axis : x y z
#
# Youngs Moduli (GPa) = 78.42741 65.35628 68.96891
#
# Poissons Ratio (x) = 0.38537 0.18524
# Poissons Ratio (y) = 0.46244 0.21274
# Poissons Ratio (z) = 0.21064 0.20159
#
# Static dielectric constant tensor:
#      x y z
#    x 3.554980 -0.000010 -0.115630 
#    y -0.000010 2.839870 -0.000020 
#    z -0.115630 -0.000020 3.356450 
# 
# 
# High freq. dielectric constant tensor:
#      x y z
#    x 1.669100 0.000000 -0.000940 
#    y 0.000000 1.609700 0.000000 
#    z -0.000940 0.000000 1.679220 
# 
# From -- ./inp_files/322467.got.cif
#   From: 2010.06.25/outbox.cif.g09.slc.cpg/sg12_162_cif.got.tgz:322467.got - 2010.06.28 00:19:55.
