data_PCOD8082633
_publ_section_title
;
Structure prediction by ZEFSAII (Michael W. Deem and Ramdas Pophale) SiO2 
 PCOD8082633
Probable space group: C 2/M
;
_chemical_formula_sum "Si O2"
_cell_formula_units_Z 64
_cell_length_a 33.700909
_cell_length_b 9.082205
_cell_length_c 15.012469
_cell_angle_alpha 90.000000
_cell_angle_beta 134.963232
_cell_angle_gamma 90.000000
_cell_volume 3251.236479
_symmetry_space_group_name_H-M "C 2/M"
_symmetry_group_IT_number 12
_symmetry_cell_setting 'monoclinic'
loop_
_space_group_symop_operation_xyz
x,y,z
-x,y,-z
-x,-y,-z
x,-y,z
1/2+x,1/2+y,z
1/2-x,1/2+y,-z
1/2-x,1/2-y,-z
1/2+x,1/2-y,z
loop_
_atom_site_type_symbol
_atom_site_label
_atom_site_fract_x
_atom_site_fract_y
_atom_site_fract_z
Si Si1 0.286940 0.335151 0.726813
Si Si2 0.342493 0.173200 0.488251
Si Si3 0.120712 0.671794 0.834833
Si Si4 0.843614 0.327275 0.293931
Si Si5 0.779161 0.833726 0.920435
Si Si6 0.394345 0.829597 0.858097
Si Si7 0.460403 0.171395 0.142543
Si Si8 0.568997 0.674627 0.252055
O O1 0.298918 0.500000 0.710293
O O2 0.223174 0.290365 0.603838
O O3 0.298942 0.328461 0.850238
O O4 0.330037 0.224032 0.747874
O O5 0.363232 0.228052 0.422491
O O6 0.374767 0.268841 0.611641
O O7 0.354571 0.000000 0.521743
O O8 0.126285 0.500000 0.860916
O O9 0.111632 0.706793 0.714358
O O10 0.069337 0.729151 0.813631
O O11 0.179822 0.738444 0.955165
O O12 0.832716 0.500000 0.288895
O O13 0.782876 0.261867 0.170566
O O14 0.780737 0.000000 0.959455
O O15 0.433185 0.739871 0.851060
O O16 0.396791 0.000000 0.835563
O O17 0.418113 0.800814 0.994107
O O18 0.515634 0.268501 0.221870
O O19 0.477492 0.000000 0.175834
O O20 0.568290 0.500000 0.246976
#
# Coordination Sequence:
#
# PCOD8082633 Si02
#       8
#     8   8   8   8   8   8   8   8
#     4   9  18  33  56  85 117 150 183 223 274 329
#     4   9  19  39  61  81 112 153 191 229 271 322
#     4  10  18  31  53  83 114 145 185 226 267 324
#     4   8  16  31  54  82 112 148 187 223 265 321
#     4   9  16  28  48  79 118 152 179 216 270 325
#     4  11  22  38  61  87 114 144 180 227 282 336
#     4  10  22  39  58  83 114 147 184 228 277 330
#     4  12  26  41  59  81 105 144 191 238 286 333
#
# _framework density 19.684819000000001
#
# number of rings (size 3 to 8) (size 9 to 14) (size 15 to 20)
#    0.000    2.250    1.250    3.750    0.000    4.000 
#    0.000    3.125    0.000    3.750    0.000    0.000 
#    0.000    0.000    0.000    0.000    0.000    0.000 
#
# Total GULP energy -396705.524238 kJ/mol
# GULP energy per Si atom -12397.047632 kJ/mol
# Density = 1.964002 g / cm^3
# Si number density = 19.684819 Si / 1000 Ang^3
#
#
#
# Elastic Constant Matrix: (Units=GPa)
#
#
# Indices 1 2 3 4 5 6 
#
# 1 96.4939 27.8452 10.1122 0.0000 -0.8778 0.0000
# 2 27.8452 65.7137 21.5326 0.0000 5.4273 0.0000
# 3 10.1122 21.5326 44.0379 0.0000 7.3010 0.0000
# 4 0.0000 0.0000 0.0000 25.1327 0.0000 6.8410
# 5 -0.8778 5.4273 7.3010 0.0000 19.3805 0.0000
# 6 0.0000 0.0000 0.0000 6.8410 0.0000 26.6772
#
#
#
# Elastic Compliance Matrix: (Units=1/GPa)
#
#
# Indices 1 2 3 4 5 6 
#
# 1 0.011897 -0.005010 -0.000644 0.000000 0.002185 0.000000
# 2 -0.005010 0.020294 -0.008311 0.000000 -0.002779 0.000000
# 3 -0.000644 -0.008311 0.028306 0.000000 -0.008365 0.000000
# 4 0.000000 0.000000 0.000000 0.042774 0.000000 -0.010969
# 5 0.002185 -0.002779 -0.008365 0.000000 0.055627 0.000000
# 6 0.000000 0.000000 0.000000 -0.010969 0.000000 0.040298
#
#
# Mechanical properties :
#
#
# Convention : Reuss Voigt Hill
#
# Bulk Modulus (GPa) = 30.70808 36.13617 33.42212
# Shear Modulus (GPa) = 21.00998 24.02180 22.51589
#
# Velocity S-wave (km/s) = 3.27053 3.49710 3.38571
# Velocity P-wave (km/s) = 5.46768 5.89097 5.68327
#
# Compressibility (1/GPa) = 0.03256472
#
# Stress axis : x y z
#
# Youngs Moduli (GPa) = 84.05798 49.27682 35.32769
#
# Poissons Ratio (x) = 0.24689 0.02275
# Poissons Ratio (y) = 0.42116 0.29362
# Poissons Ratio (z) = 0.05414 0.40956
#
# Static dielectric constant tensor:
#      x y z
#    x 3.796270 0.000000 -0.150980 
#    y 0.000000 3.356070 0.000000 
#    z -0.150980 0.000000 3.398460 
# 
# 
# High freq. dielectric constant tensor:
#      x y z
#    x 1.778720 0.000000 -0.009400 
#    y 0.000000 1.743610 0.000000 
#    z -0.009400 0.000000 1.749130 
# 
# From -- ./inp_files/250087.got.cif
#   From: 2010.06.25/outbox.cif.g09.slc.cpg/sg12_126_cif.got.tgz:250087.got - 2010.06.28 00:19:55.
