data_PCOD8082689
_publ_section_title
;
Structure prediction by ZEFSAII (Michael W. Deem and Ramdas Pophale) SiO2 
 PCOD8082689
Probable space group: C 2/M
;
_chemical_formula_sum "Si O2"
_cell_formula_units_Z 32
_cell_length_a 15.379578
_cell_length_b 19.531019
_cell_length_c 9.210875
_cell_angle_alpha 90.000000
_cell_angle_beta 34.393677
_cell_angle_gamma 90.000000
_cell_volume 1562.871564
_symmetry_space_group_name_H-M "C 2/M"
_symmetry_group_IT_number 12
_symmetry_cell_setting 'monoclinic'
loop_
_space_group_symop_operation_xyz
x,y,z
-x,y,-z
-x,-y,-z
x,-y,z
1/2+x,1/2+y,z
1/2-x,1/2+y,-z
1/2-x,1/2-y,-z
1/2+x,1/2-y,z
loop_
_atom_site_type_symbol
_atom_site_label
_atom_site_fract_x
_atom_site_fract_y
_atom_site_fract_z
Si Si1 0.974631 0.921753 0.370424
Si Si2 0.089017 0.197050 0.030533
Si Si3 0.357665 0.922481 0.298465
Si Si4 0.648371 0.789994 0.524121
O O1 0.795646 0.910454 0.582968
O O2 0.000000 0.898293 0.500000
O O3 0.079929 0.876781 0.118946
O O4 0.025920 0.000000 0.276043
O O5 0.019195 0.254097 0.237434
O O6 0.267906 0.215578 0.748671
O O7 0.000000 0.193942 0.000000
O O8 0.363219 0.870627 0.425182
O O9 0.367149 0.000000 0.345787
O O10 0.500000 0.904880 0.000000
O O11 0.750000 0.750000 0.500000
#
# Coordination Sequence:
#
# PCOD8082689 Si02
#       4
#     8   8   8   8
#     4  10  21  36  54  81 116 146 177 225 279 328
#     4  10  19  33  56  81 108 147 185 226 273 320
#     4  10  19  32  55  82 107 145 187 223 271 327
#     4  10  18  31  54  80 110 138 182 234 267 310
#
# _framework density 20.475131999999999
#
# number of rings (size 3 to 8) (size 9 to 14) (size 15 to 20)
#    0.000    2.000    5.000    2.250    0.000    1.500 
#    0.000    1.250    0.000    0.000    0.000    7.000 
#    0.000    0.000    0.000    0.000    0.000    0.000 
#
# Total GULP energy -198331.929532 kJ/mol
# GULP energy per Si atom -12395.745596 kJ/mol
# Density = 2.042853 g / cm^3
# Si number density = 20.475132 Si / 1000 Ang^3
#
#
#
# Elastic Constant Matrix: (Units=GPa)
#
#
# Indices 1 2 3 4 5 6 
#
# 1 24.2560 22.8466 26.6108 0.0007 6.1970 -0.0024
# 2 22.8466 128.1282 85.3345 0.0009 1.9319 -0.0012
# 3 26.6108 85.3345 210.2026 0.0000 -0.0489 -0.0004
# 4 0.0007 0.0009 0.0000 43.3889 0.0006 7.4337
# 5 6.1970 1.9319 -0.0489 0.0006 12.0539 0.0009
# 6 -0.0024 -0.0012 -0.0004 7.4337 0.0009 13.6359
#
#
#
# Elastic Compliance Matrix: (Units=1/GPa)
#
#
# Indices 1 2 3 4 5 6 
#
# 1 0.061024 -0.007230 -0.004797 -0.000003 -0.030234 0.000013
# 2 -0.007230 0.011590 -0.003789 0.000000 0.001844 0.000000
# 3 -0.004797 -0.003789 0.006904 0.000000 0.003102 -0.000001
# 4 -0.000003 0.000000 0.000000 0.025422 0.000001 -0.013859
# 5 -0.030234 0.001844 0.003102 0.000001 0.098221 -0.000012
# 6 0.000013 0.000000 -0.000001 -0.013859 -0.000012 0.080891
#
#
# Mechanical properties :
#
#
# Convention : Reuss Voigt Hill
#
# Bulk Modulus (GPa) = 20.88380 70.24117 45.56249
# Shear Modulus (GPa) = 15.07628 29.00206 22.03917
#
# Velocity S-wave (km/s) = 2.71647 3.76766 3.28439
# Velocity P-wave (km/s) = 4.47891 7.30117 6.05672
#
# Compressibility (1/GPa) = 0.04788401
#
# Stress axis : x y z
#
# Youngs Moduli (GPa) = 16.38689 86.28256 144.85118
#
# Poissons Ratio (x) = 0.62387 0.69487
# Poissons Ratio (y) = 0.11849 0.54888
# Poissons Ratio (z) = 0.07861 0.32695
#
# Static dielectric constant tensor:
#      x y z
#    x 3.200180 0.000000 -0.213350 
#    y 0.000000 4.024450 0.000000 
#    z -0.213350 0.000000 4.546170 
# 
# 
# High freq. dielectric constant tensor:
#      x y z
#    x 1.740920 0.000000 -0.006770 
#    y 0.000000 1.815580 0.000000 
#    z -0.006770 0.000000 1.814860 
# 
# From -- ./inp_files/46017.got.cif
#   From: 2010.06.25/outbox.cif.g09.slc.cpg/sg12_24_cif.got.tgz:46017.got - 2010.06.28 00:19:55.
