data_PCOD8082232
_publ_section_title
;
Structure prediction by ZEFSAII (Michael W. Deem and Ramdas Pophale) SiO2 
 PCOD8082232
Probable space group: C 2/M
;
_chemical_formula_sum "Si O2"
_cell_formula_units_Z 64
_cell_length_a 29.688798
_cell_length_b 8.988863
_cell_length_c 14.923937
_cell_angle_alpha 90.000000
_cell_angle_beta 79.059612
_cell_angle_gamma 90.000000
_cell_volume 3910.343838
_symmetry_space_group_name_H-M "C 2/M"
_symmetry_group_IT_number 12
_symmetry_cell_setting 'monoclinic'
loop_
_space_group_symop_operation_xyz
x,y,z
-x,y,-z
-x,-y,-z
x,-y,z
1/2+x,1/2+y,z
1/2-x,1/2+y,-z
1/2-x,1/2-y,-z
1/2+x,1/2-y,z
loop_
_atom_site_type_symbol
_atom_site_label
_atom_site_fract_x
_atom_site_fract_y
_atom_site_fract_z
Si Si1 0.559695 0.326312 0.613330
Si Si2 0.284694 0.670894 0.372174
Si Si3 0.434205 0.172510 0.087115
Si Si4 0.100648 0.676378 0.425883
Si Si5 0.044532 0.826742 0.294824
Si Si6 0.966539 0.326073 0.882853
Si Si7 0.622554 0.674172 0.750882
Si Si8 0.306316 0.328202 0.568485
O O1 0.569677 0.500000 0.592244
O O2 0.571556 0.238975 0.519262
O O3 0.507226 0.294734 0.655861
O O4 0.590849 0.263506 0.682409
O O5 0.269384 0.500000 0.367967
O O6 0.324376 0.714150 0.286952
O O7 0.305141 0.699168 0.462826
O O8 0.241198 0.774607 0.368955
O O9 0.481820 0.224724 0.113698
O O10 0.391874 0.256680 0.148929
O O11 0.427221 0.000000 0.107254
O O12 0.434541 0.206542 0.981039
O O13 0.099944 0.500000 0.429651
O O14 0.078425 0.732041 0.342729
O O15 0.152740 0.732261 0.406844
O O16 0.052319 0.773444 0.190439
O O17 0.056712 0.000000 0.298030
O O18 0.965170 0.500000 0.858042
O O19 0.614862 0.500000 0.759701
O O20 0.314122 0.500000 0.589235
#
# Coordination Sequence:
#
# PCOD8082232 Si02
#       8
#     8   8   8   8   8   8   8   8
#     4  10  20  35  49  69 101 136 171 208 245 284
#     4   9  18  32  50  72 100 129 162 204 250 295
#     4   9  18  31  49  72 101 132 164 205 251 296
#     4  12  24  35  50  71  98 134 174 209 247 295
#     4  11  22  35  52  71  97 134 174 212 249 290
#     4   9  18  33  49  70 100 132 166 208 251 291
#     4  10  18  31  50  74 103 134 166 203 247 294
#     4  10  19  34  52  71  98 129 165 207 249 293
#
# _framework density 16.366847
#
# number of rings (size 3 to 8) (size 9 to 14) (size 15 to 20)
#    0.000    2.000    2.500    3.000    0.000    4.500 
#    0.000    1.250    0.000    0.000    0.000    0.875 
#    0.000    0.000    0.000    0.000    0.000    0.000 
#
# Total GULP energy -396882.841492 kJ/mol
# GULP energy per Si atom -12402.588797 kJ/mol
# Density = 1.632960 g / cm^3
# Si number density = 16.366847 Si / 1000 Ang^3
#
#
#
# Elastic Constant Matrix: (Units=GPa)
#
#
# Indices 1 2 3 4 5 6 
#
# 1 75.2099 44.3628 49.2047 0.0000 -6.4621 0.0000
# 2 44.3628 74.8591 46.8933 0.0000 -2.5417 0.0000
# 3 49.2047 46.8933 103.3391 0.0000 -10.0886 0.0000
# 4 0.0000 0.0000 0.0000 30.8173 0.0000 -1.4333
# 5 -6.4621 -2.5417 -10.0886 0.0000 23.8457 0.0000
# 6 0.0000 0.0000 0.0000 -1.4333 0.0000 25.7883
#
#
#
# Elastic Compliance Matrix: (Units=1/GPa)
#
#
# Indices 1 2 3 4 5 6 
#
# 1 0.023559 -0.009787 -0.006525 0.000000 0.002581 0.000000
# 2 -0.009787 0.022793 -0.005950 0.000000 -0.002740 0.000000
# 3 -0.006525 -0.005950 0.015906 0.000000 0.004327 0.000000
# 4 0.000000 0.000000 0.000000 0.032533 0.000000 0.001808
# 5 0.002581 -0.002740 0.004327 0.000000 0.044174 0.000000
# 6 0.000000 0.000000 0.000000 0.001808 0.000000 0.038878
#
#
# Mechanical properties :
#
#
# Convention : Reuss Voigt Hill
#
# Bulk Modulus (GPa) = 56.38770 59.36995 57.87883
# Shear Modulus (GPa) = 21.90302 23.62009 22.76156
#
# Velocity S-wave (km/s) = 3.66219 3.80303 3.73327
# Velocity P-wave (km/s) = 7.23943 7.45904 7.35005
#
# Compressibility (1/GPa) = 0.01773436
#
# Stress axis : x y z
#
# Youngs Moduli (GPa) = 42.44605 43.87365 62.86850
#
# Poissons Ratio (x) = 0.42938 0.41020
# Poissons Ratio (y) = 0.41541 0.37409
# Poissons Ratio (z) = 0.27695 0.26107
#
# Static dielectric constant tensor:
#      x y z
#    x 3.000020 0.000000 -0.086770 
#    y 0.000000 3.066850 0.000000 
#    z -0.086770 0.000000 3.023130 
# 
# 
# High freq. dielectric constant tensor:
#      x y z
#    x 1.614120 0.000000 -0.011090 
#    y 0.000000 1.633330 0.000000 
#    z -0.011090 0.000000 1.617180 
# 
# From -- ./inp_files/243999.got.cif
#   From: 2010.06.25/outbox.cif.g09.slc.cpg/sg12_122_cif.got.tgz:243999.got - 2010.06.28 00:19:55.
