data_PCOD8082945
_publ_section_title
;
Structure prediction by ZEFSAII (Michael W. Deem and Ramdas Pophale) SiO2 
 PCOD8082945
Probable space group: C 2/M
;
_chemical_formula_sum "Si O2"
_cell_formula_units_Z 48
_cell_length_a 23.376867
_cell_length_b 9.522435
_cell_length_c 26.375067
_cell_angle_alpha 90.000000
_cell_angle_beta 28.202028
_cell_angle_gamma 90.000000
_cell_volume 2774.629710
_symmetry_space_group_name_H-M "C 2/M"
_symmetry_group_IT_number 12
_symmetry_cell_setting 'monoclinic'
loop_
_space_group_symop_operation_xyz
x,y,z
-x,y,-z
-x,-y,-z
x,-y,z
1/2+x,1/2+y,z
1/2-x,1/2+y,-z
1/2-x,1/2-y,-z
1/2+x,1/2-y,z
loop_
_atom_site_type_symbol
_atom_site_label
_atom_site_fract_x
_atom_site_fract_y
_atom_site_fract_z
Si Si1 0.159042 0.846188 0.600174
Si Si2 0.167319 0.658593 0.686634
Si Si3 0.203849 0.663278 0.113366
Si Si4 0.435854 0.665744 0.500537
Si Si5 0.404492 0.156650 0.909806
Si Si6 0.062745 0.843961 0.299501
O O1 0.250000 0.750000 0.500000
O O2 0.130454 0.772650 0.674724
O O3 0.039028 0.863465 0.662428
O O4 0.216324 0.000000 0.565133
O O5 0.184734 0.500000 0.650572
O O6 0.292938 0.705469 0.614999
O O7 0.046525 0.661236 0.815817
O O8 0.221498 0.500000 0.111958
O O9 0.112187 0.686511 0.137687
O O10 0.159928 0.737471 0.199665
O O11 0.333676 0.729325 0.997968
O O12 0.500000 0.731963 0.500000
O O13 0.450622 0.500000 0.489060
O O14 0.503171 0.722024 0.397266
O O15 0.352802 0.000000 0.961365
O O16 0.119255 0.000000 0.265871
#
# Coordination Sequence:
#
# PCOD8082945 Si02
#       6
#     8   8   8   8   8   8
#     4  11  20  29  45  72 103 133 163 198 246 302
#     4  10  18  32  51  74 102 131 164 202 249 297
#     4  10  19  30  47  71 102 134 164 198 241 295
#     4   9  18  33  53  75  98 128 167 210 252 292
#     4   9  18  30  46  70 103 134 161 197 240 294
#     4  10  19  31  49  72 101 132 164 202 245 295
#
# _framework density 17.299606000000001
#
# number of rings (size 3 to 8) (size 9 to 14) (size 15 to 20)
#    0.000    2.167    3.333    1.000    0.000    2.000 
#    0.000    0.000    0.000    3.000    0.000    7.000 
#    0.000    0.000    0.000    0.000    0.000    0.000 
#
# Total GULP energy -297355.271882 kJ/mol
# GULP energy per Si atom -12389.802995 kJ/mol
# Density = 1.726023 g / cm^3
# Si number density = 17.299606 Si / 1000 Ang^3
#
#
#
# Elastic Constant Matrix: (Units=GPa)
#
#
# Indices 1 2 3 4 5 6 
#
# 1 80.8972 28.0212 46.2631 -0.0002 -1.1746 0.0000
# 2 28.0212 98.6398 55.7213 -0.0027 2.0699 0.0011
# 3 46.2631 55.7213 117.9092 -0.0002 -5.5939 0.0001
# 4 -0.0002 -0.0027 -0.0002 25.5113 0.0003 1.7374
# 5 -1.1746 2.0699 -5.5939 0.0003 12.0714 0.0000
# 6 0.0000 0.0011 0.0001 1.7374 0.0000 11.7412
#
#
#
# Elastic Compliance Matrix: (Units=1/GPa)
#
#
# Indices 1 2 3 4 5 6 
#
# 1 0.016080 -0.001313 -0.005730 0.000000 -0.000865 0.000000
# 2 -0.001313 0.014307 -0.006511 0.000002 -0.005598 -0.000001
# 3 -0.005730 -0.006511 0.014144 -0.000001 0.007113 0.000001
# 4 0.000000 0.000002 -0.000001 0.039597 -0.000001 -0.005860
# 5 -0.000865 -0.005598 0.007113 -0.000001 0.087013 0.000000
# 6 0.000000 -0.000001 0.000001 -0.005860 0.000000 0.086038
#
#
# Mechanical properties :
#
#
# Convention : Reuss Voigt Hill
#
# Bulk Modulus (GPa) = 57.39791 61.93970 59.66881
# Shear Modulus (GPa) = 17.23574 21.02747 19.13160
#
# Velocity S-wave (km/s) = 3.15986 3.49017 3.32911
# Velocity P-wave (km/s) = 6.82376 7.21966 7.02450
#
# Compressibility (1/GPa) = 0.01742224
#
# Stress axis : x y z
#
# Youngs Moduli (GPa) = 62.18753 69.89740 70.70184
#
# Poissons Ratio (x) = 0.09178 0.40511
# Poissons Ratio (y) = 0.08166 0.46037
# Poissons Ratio (z) = 0.35632 0.45513
#
# Static dielectric constant tensor:
#      x y z
#    x 3.677490 -0.000010 0.313220 
#    y -0.000010 3.142580 0.000000 
#    z 0.313220 0.000000 3.411190 
# 
# 
# High freq. dielectric constant tensor:
#      x y z
#    x 1.617450 0.000000 -0.004600 
#    y 0.000000 1.662460 0.000000 
#    z -0.004600 0.000000 1.671880 
# 
# From -- ./inp_files/172239.got.cif
#   From: 2010.06.25/outbox.cif.g09.slc.cpg/sg12_87_cif.got.tgz:172239.got - 2010.06.28 00:19:55.
