data_PCOD8082426
_publ_section_title
;
Structure prediction by ZEFSAII (Michael W. Deem and Ramdas Pophale) SiO2 
 PCOD8082426
Probable space group: C 2/M
;
_chemical_formula_sum "Si O2"
_cell_formula_units_Z 56
_cell_length_a 23.533858
_cell_length_b 10.907701
_cell_length_c 18.658556
_cell_angle_alpha 90.000000
_cell_angle_beta 40.724351
_cell_angle_gamma 90.000000
_cell_volume 3124.870467
_symmetry_space_group_name_H-M "C 2/M"
_symmetry_group_IT_number 12
_symmetry_cell_setting 'monoclinic'
loop_
_space_group_symop_operation_xyz
x,y,z
-x,y,-z
-x,-y,-z
x,-y,z
1/2+x,1/2+y,z
1/2-x,1/2+y,-z
1/2-x,1/2-y,-z
1/2+x,1/2-y,z
loop_
_atom_site_type_symbol
_atom_site_label
_atom_site_fract_x
_atom_site_fract_y
_atom_site_fract_z
Si Si1 0.811121 0.271335 0.715981
Si Si2 0.370432 0.360459 0.137033
Si Si3 0.485168 0.354972 0.897933
Si Si4 0.394663 0.223988 0.863664
Si Si5 0.260413 0.634823 0.904069
Si Si6 0.570033 0.364299 0.494147
Si Si7 0.028616 0.637487 0.353809
O O1 0.733365 0.347890 0.753848
O O2 0.767325 0.218933 0.828545
O O3 0.838685 0.169538 0.631143
O O4 0.895656 0.350849 0.657988
O O5 0.398397 0.500000 0.110623
O O6 0.423685 0.306480 0.154355
O O7 0.406950 0.311492 0.026042
O O8 0.483966 0.500000 0.883091
O O9 0.472334 0.284142 0.835290
O O10 0.333037 0.331861 0.893258
O O11 0.433099 0.143615 0.762464
O O12 0.335372 0.137436 0.969970
O O13 0.281385 0.500000 0.856658
O O14 0.500000 0.380550 0.500000
O O15 0.578750 0.500000 0.524360
O O16 0.540703 0.250068 0.572998
O O17 0.987697 0.500000 0.402952
#
# Coordination Sequence:
#
# PCOD8082426 Si02
#       7
#     8   8   8   8   8   8   8
#     4  10  18  31  52  75 103 132 168 209 257 307
#     4   9  17  29  48  74 102 133 170 212 252 298
#     4   9  17  30  48  71 102 137 173 209 249 298
#     4  10  19  31  47  70 100 135 168 204 249 306
#     4  10  19  29  45  71 100 131 165 203 252 306
#     4   9  19  34  52  74 103 137 173 212 256 308
#     4  10  21  33  50  77 107 138 171 210 257 307
#
# _framework density 17.920743000000002
#
# number of rings (size 3 to 8) (size 9 to 14) (size 15 to 20)
#    0.000    2.429    1.429    2.571    0.000    7.143 
#    0.000    0.000    0.000    5.143    0.000    0.000 
#    0.000    0.000    0.000    0.000    0.000    0.000 
#
# Total GULP energy -346888.193702 kJ/mol
# GULP energy per Si atom -12388.864061 kJ/mol
# Density = 1.787995 g / cm^3
# Si number density = 17.920743 Si / 1000 Ang^3
#
#
#
# Elastic Constant Matrix: (Units=GPa)
#
#
# Indices 1 2 3 4 5 6 
#
# 1 80.1196 20.8609 18.3141 -0.0001 -7.6613 0.0001
# 2 20.8609 100.1320 26.5045 0.0002 4.7116 -0.0002
# 3 18.3141 26.5045 75.9007 0.0000 -2.0910 0.0000
# 4 -0.0001 0.0002 0.0000 -64.0052 0.0000 131.7342
# 5 -7.6613 4.7116 -2.0910 0.0000 16.5393 0.0000
# 6 0.0001 -0.0002 0.0000 131.7342 0.0000 -188.6077
#
#
#
# Elastic Compliance Matrix: (Units=1/GPa)
#
#
# Indices 1 2 3 4 5 6 
#
# 1 0.014406 -0.002722 -0.002329 0.000000 0.007154 0.000000
# 2 -0.002722 0.011740 -0.003582 0.000000 -0.005058 0.000000
# 3 -0.002329 -0.003582 0.015039 0.000000 0.001843 0.000000
# 4 0.000000 0.000000 0.000000 0.035707 0.000000 0.024940
# 5 0.007154 -0.005058 0.001843 0.000000 0.065450 0.000000
# 6 0.000000 0.000000 0.000000 0.024940 0.000000 0.012118
#
#
# Mechanical properties :
#
#
# Convention : Reuss Voigt Hill
#
# Bulk Modulus (GPa) = 41.80587 43.05681 42.43134
# Shear Modulus (GPa) = 27.82442 -34.51654 -3.34606
#
# Velocity S-wave (km/s) = 3.94463 -4.39346 -1.36792
# Velocity P-wave (km/s) = 6.64271 1.28772 4.60800
#
# Compressibility (1/GPa) = 0.02392009
#
# Stress axis : x y z
#
# Youngs Moduli (GPa) = 69.41375 85.17867 66.49518
#
# Poissons Ratio (x) = 0.23182 0.15484
# Poissons Ratio (y) = 0.18892 0.23820
# Poissons Ratio (z) = 0.16164 0.30513
#
# Static dielectric constant tensor:
#      x y z
#    x 3.129620 0.000000 -0.005570 
#    y 0.000000 3.267710 0.000000 
#    z -0.005570 0.000000 3.278670 
# 
# 
# High freq. dielectric constant tensor:
#      x y z
#    x 1.662760 0.000000 0.002290 
#    y 0.000000 1.682950 0.000000 
#    z 0.002290 0.000000 1.683310 
# 
# From -- ./inp_files/289004.got.cif
#   From: 2010.06.25/outbox.cif.g09.slc.cpg/sg12_145_cif.got.tgz:289004.got - 2010.06.28 00:19:55.
