data_PCOD8082550
_publ_section_title
;
Structure prediction by ZEFSAII (Michael W. Deem and Ramdas Pophale) SiO2 
 PCOD8082550
Probable space group: C 2/M
;
_chemical_formula_sum "Si O2"
_cell_formula_units_Z 64
_cell_length_a 16.354143
_cell_length_b 9.420754
_cell_length_c 23.400657
_cell_angle_alpha 90.000000
_cell_angle_beta 69.422337
_cell_angle_gamma 90.000000
_cell_volume 3375.270467
_symmetry_space_group_name_H-M "C 2/M"
_symmetry_group_IT_number 12
_symmetry_cell_setting 'monoclinic'
loop_
_space_group_symop_operation_xyz
x,y,z
-x,y,-z
-x,-y,-z
x,-y,z
1/2+x,1/2+y,z
1/2-x,1/2+y,-z
1/2-x,1/2-y,-z
1/2+x,1/2-y,z
loop_
_atom_site_type_symbol
_atom_site_label
_atom_site_fract_x
_atom_site_fract_y
_atom_site_fract_z
Si Si1 0.718919 0.335962 0.372857
Si Si2 0.972774 0.331390 0.875446
Si Si3 0.153856 0.331340 0.872349
Si Si4 0.460265 0.164064 0.571948
Si Si5 0.668146 0.167810 0.998506
Si Si6 0.595945 0.835857 0.632731
Si Si7 0.298808 0.338011 0.751539
Si Si8 0.451887 0.835965 0.754313
O O1 0.700468 0.500000 0.393850
O O2 0.631485 0.247199 0.405944
O O3 0.804157 0.275039 0.387014
O O4 0.745308 0.325748 0.299651
O O5 0.977242 0.500000 0.871790
O O6 0.910633 0.281643 0.941873
O O7 0.943628 0.273820 0.820601
O O8 0.067442 0.266950 0.865071
O O9 0.152332 0.500000 0.869340
O O10 0.235687 0.273529 0.816065
O O11 0.153445 0.280487 0.937683
O O12 0.500000 0.179250 0.500000
O O13 0.533149 0.229036 0.598235
O O14 0.440605 0.000000 0.592690
O O15 0.683012 0.000000 0.998574
O O16 0.750000 0.250000 0.000000
O O17 0.549151 0.813591 0.705572
O O18 0.606907 0.000000 0.615549
O O19 0.322652 0.500000 0.760106
O O20 0.386866 0.247591 0.729009
O O21 0.425129 0.000000 0.759113
#
# Coordination Sequence:
#
# PCOD8082550 Si02
#       8
#     8   8   8   8   8   8   8   8
#     4  10  20  35  56  80 107 140 180 221 257 307
#     4   9  17  29  48  73  94 123 173 215 245 298
#     4   9  17  30  48  70  97 129 166 210 256 300
#     4  10  21  38  58  81 111 143 175 214 262 316
#     4  10  19  31  48  69  95 127 163 208 256 304
#     4   9  18  34  55  78 106 142 178 212 260 315
#     4  10  19  31  50  76 103 131 168 214 260 303
#     4  10  18  31  53  75 100 135 172 212 257 309
#
# _framework density 18.961444
#
# number of rings (size 3 to 8) (size 9 to 14) (size 15 to 20)
#    0.000    2.375    1.250    1.875    0.000    5.250 
#    0.000    1.250    0.000    5.250    0.000    0.000 
#    0.000    0.000    0.000    0.000    0.000    0.000 
#
# Total GULP energy -396593.320029 kJ/mol
# GULP energy per Si atom -12393.541251 kJ/mol
# Density = 1.891829 g / cm^3
# Si number density = 18.961444 Si / 1000 Ang^3
#
#
#
# Elastic Constant Matrix: (Units=GPa)
#
#
# Indices 1 2 3 4 5 6 
#
# 1 163.2137 40.4760 45.5637 0.0000 -5.4897 0.0000
# 2 40.4760 33.9833 23.1413 0.0000 -4.6598 0.0000
# 3 45.5637 23.1413 97.4534 0.0000 -0.0319 0.0000
# 4 0.0000 0.0000 0.0000 14.0147 0.0000 -0.9927
# 5 -5.4897 -4.6598 -0.0319 0.0000 27.0846 0.0000
# 6 0.0000 0.0000 0.0000 -0.9927 0.0000 27.1527
#
#
#
# Elastic Compliance Matrix: (Units=1/GPa)
#
#
# Indices 1 2 3 4 5 6 
#
# 1 0.009007 -0.009341 -0.001993 0.000000 0.000216 0.000000
# 2 -0.009341 0.045803 -0.006507 0.000000 0.005979 0.000000
# 3 -0.001993 -0.006507 0.012738 0.000000 -0.001508 0.000000
# 4 0.000000 0.000000 0.000000 0.071539 0.000000 0.002616
# 5 0.000216 0.005979 -0.001508 0.000000 0.037992 0.000000
# 6 0.000000 0.000000 0.000000 0.002616 0.000000 0.036924
#
#
# Mechanical properties :
#
#
# Convention : Reuss Voigt Hill
#
# Bulk Modulus (GPa) = 31.38185 57.00138 44.19162
# Shear Modulus (GPa) = 19.20802 26.01503 22.61153
#
# Velocity S-wave (km/s) = 3.18623 3.70807 3.45701
# Velocity P-wave (km/s) = 5.48838 6.96132 6.26827
#
# Compressibility (1/GPa) = 0.03186555
#
# Stress axis : x y z
#
# Youngs Moduli (GPa) = 111.02283 21.83256 78.50658
#
# Poissons Ratio (x) = 0.20394 0.15646
# Poissons Ratio (y) = 1.03709 0.51084
# Poissons Ratio (z) = 0.22127 0.14207
#
# Static dielectric constant tensor:
#      x y z
#    x 3.559510 0.000000 0.053540 
#    y 0.000000 3.010970 0.000000 
#    z 0.053540 0.000000 2.872320 
# 
# 
# High freq. dielectric constant tensor:
#      x y z
#    x 1.748070 0.000000 0.002470 
#    y 0.000000 1.683210 0.000000 
#    z 0.002470 0.000000 1.749540 
# 
# From -- ./inp_files/309883.got.cif
#   From: 2010.06.25/outbox.cif.g09.slc.cpg/sg12_155_cif.got.tgz:309883.got - 2010.06.28 00:19:55.
