data_PCOD8082325
_publ_section_title
;
Structure prediction by ZEFSAII (Michael W. Deem and Ramdas Pophale) SiO2 
 PCOD8082325
Probable space group: C 2/M
;
_chemical_formula_sum "Si O2"
_cell_formula_units_Z 64
_cell_length_a 19.391255
_cell_length_b 19.644117
_cell_length_c 11.289196
_cell_angle_alpha 90.000000
_cell_angle_beta 59.318042
_cell_angle_gamma 90.000000
_cell_volume 3698.336778
_symmetry_space_group_name_H-M "C 2/M"
_symmetry_group_IT_number 12
_symmetry_cell_setting 'monoclinic'
loop_
_space_group_symop_operation_xyz
x,y,z
-x,y,-z
-x,-y,-z
x,-y,z
1/2+x,1/2+y,z
1/2-x,1/2+y,-z
1/2-x,1/2-y,-z
1/2+x,1/2-y,z
loop_
_atom_site_type_symbol
_atom_site_label
_atom_site_fract_x
_atom_site_fract_y
_atom_site_fract_z
Si Si1 0.665579 0.807415 0.338847
Si Si2 0.738215 0.580490 0.878135
Si Si3 0.485872 0.923981 0.885066
Si Si4 0.085229 0.839009 0.980343
Si Si5 0.680143 0.224227 0.770680
Si Si6 0.822856 0.365187 0.012620
Si Si7 0.077023 0.677917 0.653078
Si Si8 0.416862 0.252604 0.802252
O O1 0.691842 0.876910 0.249544
O O2 0.742275 0.769287 0.323551
O O3 0.607274 0.832525 0.493643
O O4 0.619190 0.750985 0.298763
O O5 0.751057 0.500000 0.848657
O O6 0.650260 0.600724 0.906329
O O7 0.746716 0.603718 0.008818
O O8 0.534998 0.890596 0.735681
O O9 0.518704 0.000000 0.863642
O O10 0.500000 0.886253 0.000000
O O11 0.390710 0.923356 0.947948
O O12 0.084277 0.823547 0.123454
O O13 0.110553 0.770406 0.889613
O O14 0.000000 0.863073 0.000000
O O15 0.702276 0.158754 0.833544
O O16 0.651700 0.196792 0.669690
O O17 0.859080 0.298141 0.922413
O O18 0.010447 0.735987 0.716026
#
# Coordination Sequence:
#
# PCOD8082325 Si02
#       8
#     8   8   8   8   8   8   8   8
#     4  10  21  33  47  74 105 134 164 193 247 306
#     4  10  21  35  50  71 102 138 169 201 244 295
#     4  10  19  30  47  72  99 130 170 204 236 281
#     4  10  18  32  55  76  96 126 165 214 260 286
#     4  10  18  31  51  75 100 127 160 210 251 294
#     4   9  17  31  52  71  97 128 162 204 249 285
#     4  11  19  31  51  73 102 133 161 198 248 302
#     4   9  18  31  51  74 100 126 158 204 251 299
#
# _framework density 17.305074999999999
#
# number of rings (size 3 to 8) (size 9 to 14) (size 15 to 20)
#    0.000    2.125    2.500    1.875    0.000    3.750 
#    0.000    0.000    0.000    4.500    0.000    0.000 
#    0.000    3.000    0.000    0.000    0.000    0.000 
#
# Total GULP energy -396532.382907 kJ/mol
# GULP energy per Si atom -12391.636966 kJ/mol
# Density = 1.726569 g / cm^3
# Si number density = 17.305075 Si / 1000 Ang^3
#
#
#
# Elastic Constant Matrix: (Units=GPa)
#
#
# Indices 1 2 3 4 5 6 
#
# 1 96.0399 22.9391 24.1893 0.0000 5.3506 0.0000
# 2 22.9391 61.4764 21.5431 0.0000 -2.1484 0.0000
# 3 24.1893 21.5431 79.1601 0.0000 6.6205 0.0000
# 4 0.0000 0.0000 0.0000 0.2878 0.0000 16.2637
# 5 5.3506 -2.1484 6.6205 0.0000 19.6334 0.0000
# 6 0.0000 0.0000 0.0000 16.2637 0.0000 -2.6719
#
#
#
# Elastic Compliance Matrix: (Units=1/GPa)
#
#
# Indices 1 2 3 4 5 6 
#
# 1 0.012082 -0.003758 -0.002428 0.000000 -0.002885 0.000000
# 2 -0.003758 0.019419 -0.004527 0.000000 0.004676 0.000000
# 3 -0.002428 -0.004527 0.015016 0.000000 -0.004897 0.000000
# 4 0.000000 0.000000 0.000000 0.010072 0.000000 0.061309
# 5 -0.002885 0.004676 -0.004897 0.000000 0.053883 0.000000
# 6 0.000000 0.000000 0.000000 0.061309 0.000000 -0.001085
#
#
# Mechanical properties :
#
#
# Convention : Reuss Voigt Hill
#
# Bulk Modulus (GPa) = 39.85650 41.55771 40.70710
# Shear Modulus (GPa) = 35.92526 14.65019 25.28772
#
# Velocity S-wave (km/s) = 4.56125 2.91277 3.82683
# Velocity P-wave (km/s) = 7.12893 5.94804 6.56509
#
# Compressibility (1/GPa) = 0.02509001
#
# Stress axis : x y z
#
# Youngs Moduli (GPa) = 82.76587 51.49681 66.59475
#
# Poissons Ratio (x) = 0.19354 0.16169
# Poissons Ratio (y) = 0.31106 0.30150
# Poissons Ratio (z) = 0.20095 0.23314
#
# Static dielectric constant tensor:
#      x y z
#    x 3.394040 0.000000 0.138800 
#    y 0.000000 2.907990 0.000000 
#    z 0.138800 0.000000 3.270920 
# 
# 
# High freq. dielectric constant tensor:
#      x y z
#    x 1.686160 0.000000 0.006880 
#    y 0.000000 1.631270 0.000000 
#    z 0.006880 0.000000 1.647240 
# 
# From -- ./inp_files/159245.got.cif
#   From: 2010.06.25/outbox.cif.g09.slc.cpg/sg12_80_cif.got.tgz:159245.got - 2010.06.28 00:19:55.
