data_PCOD8082345
_publ_section_title
;
Structure prediction by ZEFSAII (Michael W. Deem and Ramdas Pophale) SiO2 
 PCOD8082345
Probable space group: C 2/M
;
_chemical_formula_sum "Si O2"
_cell_formula_units_Z 40
_cell_length_a 19.570708
_cell_length_b 8.648747
_cell_length_c 15.694459
_cell_angle_alpha 90.000000
_cell_angle_beta 126.407768
_cell_angle_gamma 90.000000
_cell_volume 2137.968214
_symmetry_space_group_name_H-M "C 2/M"
_symmetry_group_IT_number 12
_symmetry_cell_setting 'monoclinic'
loop_
_space_group_symop_operation_xyz
x,y,z
-x,y,-z
-x,-y,-z
x,-y,z
1/2+x,1/2+y,z
1/2-x,1/2+y,-z
1/2-x,1/2-y,-z
1/2+x,1/2-y,z
loop_
_atom_site_type_symbol
_atom_site_label
_atom_site_fract_x
_atom_site_fract_y
_atom_site_fract_z
Si Si1 0.871906 0.820233 0.129603
Si Si2 0.299095 0.818719 0.725431
Si Si3 0.220868 0.178595 0.111384
Si Si4 0.318911 0.183332 0.486555
Si Si5 0.435256 0.317479 0.699358
O O1 0.816065 0.722239 0.154151
O O2 0.968580 0.767834 0.211816
O O3 0.858586 0.000000 0.141093
O O4 0.844313 0.783616 0.012763
O O5 0.309798 0.780850 0.832336
O O6 0.208673 0.747196 0.626508
O O7 0.378197 0.747886 0.733303
O O8 0.298142 0.000000 0.708976
O O9 0.218335 0.000000 0.135907
O O10 0.250000 0.250000 0.500000
O O11 0.409146 0.246742 0.587600
O O12 0.319406 0.000000 0.486006
O O13 0.423604 0.500000 0.687976
#
# Coordination Sequence:
#
# PCOD8082345 Si02
#       5
#     8   8   8   8   8
#     4   9  20  37  56  77 104 139 173 210 260 313
#     4  11  21  34  53  78 107 138 175 215 257 304
#     4  10  20  36  56  77 104 138 175 214 258 308
#     4  10  18  31  51  76 105 136 171 210 258 308
#     4  10  19  34  55  79 107 137 172 212 257 308
#
# _framework density 18.709351999999999
#
# number of rings (size 3 to 8) (size 9 to 14) (size 15 to 20)
#    0.000    2.000    0.000    7.200    0.000    3.200 
#    0.000    5.000    0.000    6.000    0.000    0.000 
#    0.000    0.000    0.000    0.000    0.000    0.000 
#
# Total GULP energy -248004.298161 kJ/mol
# GULP energy per Si atom -12400.214908 kJ/mol
# Density = 1.866677 g / cm^3
# Si number density = 18.709352 Si / 1000 Ang^3
#
#
#
# Elastic Constant Matrix: (Units=GPa)
#
#
# Indices 1 2 3 4 5 6 
#
# 1 59.4669 24.6768 38.3672 0.0000 26.1567 0.0000
# 2 24.6768 105.0851 28.4446 0.0000 15.1258 0.0000
# 3 38.3672 28.4446 80.4987 0.0000 33.0298 0.0000
# 4 0.0000 0.0000 0.0000 34.3001 0.0000 -1.8099
# 5 26.1567 15.1258 33.0298 0.0000 27.9041 0.0000
# 6 0.0000 0.0000 0.0000 -1.8099 0.0000 29.0896
#
#
#
# Elastic Compliance Matrix: (Units=1/GPa)
#
#
# Indices 1 2 3 4 5 6 
#
# 1 0.030454 -0.002784 -0.004739 0.000000 -0.021429 0.000000
# 2 -0.002784 0.010870 -0.002269 0.000000 -0.000596 0.000000
# 3 -0.004739 -0.002269 0.025579 0.000000 -0.024605 0.000000
# 4 0.000000 0.000000 0.000000 0.029250 0.000000 0.001820
# 5 -0.021429 -0.000596 -0.024605 0.000000 0.085372 0.000000
# 6 0.000000 0.000000 0.000000 0.001820 0.000000 0.034490
#
#
# Mechanical properties :
#
#
# Convention : Reuss Voigt Hill
#
# Bulk Modulus (GPa) = 21.13338 47.55867 34.34603
# Shear Modulus (GPa) = 19.89072 28.49622 24.19347
#
# Velocity S-wave (km/s) = 3.26412 3.90693 3.59990
# Velocity P-wave (km/s) = 5.05234 6.76956 5.97299
#
# Compressibility (1/GPa) = 0.04731850
#
# Stress axis : x y z
#
# Youngs Moduli (GPa) = 32.83597 91.99630 39.09466
#
# Poissons Ratio (x) = 0.25616 0.18526
# Poissons Ratio (y) = 0.09143 0.08872
# Poissons Ratio (z) = 0.15560 0.20877
#
# Static dielectric constant tensor:
#      x y z
#    x 3.179060 0.000000 0.133630 
#    y 0.000000 3.495160 0.000000 
#    z 0.133630 0.000000 4.058480 
# 
# 
# High freq. dielectric constant tensor:
#      x y z
#    x 1.695080 0.000000 0.005700 
#    y 0.000000 1.741400 0.000000 
#    z 0.005700 0.000000 1.741490 
# 
# From -- ./inp_files/221231.got.cif
#   From: 2010.06.25/outbox.cif.g09.slc.cpg/sg12_111_cif.got.tgz:221231.got - 2010.06.28 00:19:55.
