data_PCOD8082077
_publ_section_title
;
Structure prediction by ZEFSAII (Michael W. Deem and Ramdas Pophale) SiO2 
 PCOD8082077
Probable space group: C 2/M
;
_chemical_formula_sum "Si O2"
_cell_formula_units_Z 64
_cell_length_a 25.568589
_cell_length_b 8.922841
_cell_length_c 21.250155
_cell_angle_alpha 90.000000
_cell_angle_beta 127.028204
_cell_angle_gamma 90.000000
_cell_volume 3870.432125
_symmetry_space_group_name_H-M "C 2/M"
_symmetry_group_IT_number 12
_symmetry_cell_setting 'monoclinic'
loop_
_space_group_symop_operation_xyz
x,y,z
-x,y,-z
-x,-y,-z
x,-y,z
1/2+x,1/2+y,z
1/2-x,1/2+y,-z
1/2-x,1/2-y,-z
1/2+x,1/2-y,z
loop_
_atom_site_type_symbol
_atom_site_label
_atom_site_fract_x
_atom_site_fract_y
_atom_site_fract_z
Si Si1 0.938335 0.322061 0.186949
Si Si2 0.639931 0.676398 0.659159
Si Si3 0.018755 0.676518 0.917081
Si Si4 0.258474 0.677136 0.812986
Si Si5 0.604538 0.177243 0.094243
Si Si6 0.481972 0.323753 0.342211
Si Si7 0.437537 0.169178 0.499372
Si Si8 0.711705 0.823772 0.915568
O O1 0.945336 0.500000 0.198828
O O2 0.966863 0.259654 0.141731
O O3 0.980387 0.244003 0.271534
O O4 0.863255 0.270278 0.137595
O O5 0.647450 0.500000 0.657377
O O6 0.708178 0.747146 0.728933
O O7 0.585196 0.719432 0.671010
O O8 0.621308 0.743954 0.577720
O O9 0.026325 0.500000 0.921967
O O10 0.945627 0.719284 0.885959
O O11 0.072937 0.735349 0.005855
O O12 0.252079 0.500000 0.801612
O O13 0.330062 0.731185 0.845166
O O14 0.243566 0.729780 0.873291
O O15 0.619194 0.000000 0.103169
O O16 0.492320 0.500000 0.346743
O O17 0.544351 0.252732 0.422827
O O18 0.500000 0.171638 0.500000
O O19 0.415313 0.000000 0.498279
O O20 0.716568 0.000000 0.927826
O O21 0.750000 0.750000 0.000000
#
# Coordination Sequence:
#
# PCOD8082077 Si02
#       8
#     8   8   8   8   8   8   8   8
#     4  10  18  31  48  68  95 128 161 198 242 286
#     4  10  19  31  47  68  96 130 164 198 233 280
#     4   8  16  31  53  73  90 120 166 210 246 287
#     4  11  21  32  46  70  99 128 160 198 243 291
#     4   9  17  33  53  71  91 122 165 209 248 287
#     4  10  19  30  45  69  98 128 162 197 234 283
#     4   9  17  29  47  68  94 128 160 194 237 282
#     4  10  21  32  45  65  94 127 161 195 236 288
#
# _framework density 16.535620999999999
#
# number of rings (size 3 to 8) (size 9 to 14) (size 15 to 20)
#    0.000    2.375    1.250    3.000    0.000    5.000 
#    0.000    2.500    0.000    0.000    0.000    0.875 
#    0.000    0.000    0.000    0.000    0.000    0.000 
#
# Total GULP energy -396828.817446 kJ/mol
# GULP energy per Si atom -12400.900545 kJ/mol
# Density = 1.649799 g / cm^3
# Si number density = 16.535621 Si / 1000 Ang^3
#
#
#
# Elastic Constant Matrix: (Units=GPa)
#
#
# Indices 1 2 3 4 5 6 
#
# 1 77.8817 28.8056 51.5659 0.0000 2.8792 0.0000
# 2 28.8056 60.9829 49.5637 0.0000 2.1483 0.0000
# 3 51.5659 49.5637 145.3467 0.0000 2.1852 0.0000
# 4 0.0000 0.0000 0.0000 33.6692 0.0000 1.2044
# 5 2.8792 2.1483 2.1852 0.0000 20.7485 0.0000
# 6 0.0000 0.0000 0.0000 1.2044 0.0000 17.6339
#
#
#
# Elastic Compliance Matrix: (Units=1/GPa)
#
#
# Indices 1 2 3 4 5 6 
#
# 1 0.017673 -0.004451 -0.004730 0.000000 -0.001493 0.000000
# 2 -0.004451 0.023855 -0.006538 0.000000 -0.001164 0.000000
# 3 -0.004730 -0.006538 0.010785 0.000000 0.000197 0.000000
# 4 0.000000 0.000000 0.000000 0.029774 0.000000 -0.002033
# 5 -0.001493 -0.001164 0.000197 0.000000 0.048503 0.000000
# 6 0.000000 0.000000 0.000000 -0.002033 0.000000 0.056848
#
#
# Mechanical properties :
#
#
# Convention : Reuss Voigt Hill
#
# Bulk Modulus (GPa) = 47.90413 60.45354 54.17883
# Shear Modulus (GPa) = 22.14015 24.69539 23.41777
#
# Velocity S-wave (km/s) = 3.66312 3.86873 3.76733
# Velocity P-wave (km/s) = 6.85014 7.52297 7.19442
#
# Compressibility (1/GPa) = 0.02087503
#
# Stress axis : x y z
#
# Youngs Moduli (GPa) = 56.58298 41.91921 92.72477
#
# Poissons Ratio (x) = 0.18660 0.43856
# Poissons Ratio (y) = 0.25187 0.60624
# Poissons Ratio (z) = 0.26762 0.27407
#
# Static dielectric constant tensor:
#      x y z
#    x 3.059220 0.000000 -0.126560 
#    y 0.000000 3.003290 0.000000 
#    z -0.126560 0.000000 3.228240 
# 
# 
# High freq. dielectric constant tensor:
#      x y z
#    x 1.602950 0.000000 -0.001940 
#    y 0.000000 1.632600 0.000000 
#    z -0.001940 0.000000 1.643860 
# 
# From -- ./inp_files/324210.got.cif
#   From: 2010.06.25/outbox.cif.g09.slc.cpg/sg12_163_cif.got.tgz:324210.got - 2010.06.28 00:19:55.
