data_PCOD8082613
_publ_section_title
;
Structure prediction by ZEFSAII (Michael W. Deem and Ramdas Pophale) SiO2 
 PCOD8082613
Probable space group: C 2/M
;
_chemical_formula_sum "Si O2"
_cell_formula_units_Z 32
_cell_length_a 26.964448
_cell_length_b 8.613197
_cell_length_c 22.246512
_cell_angle_alpha 90.000000
_cell_angle_beta 18.384378
_cell_angle_gamma 90.000000
_cell_volume 1629.544360
_symmetry_space_group_name_H-M "C 2/M"
_symmetry_group_IT_number 12
_symmetry_cell_setting 'monoclinic'
loop_
_space_group_symop_operation_xyz
x,y,z
-x,y,-z
-x,-y,-z
x,-y,z
1/2+x,1/2+y,z
1/2-x,1/2+y,-z
1/2-x,1/2-y,-z
1/2+x,1/2-y,z
loop_
_atom_site_type_symbol
_atom_site_label
_atom_site_fract_x
_atom_site_fract_y
_atom_site_fract_z
Si Si1 0.049118 0.818318 0.578358
Si Si2 0.256697 0.317152 0.130496
Si Si3 0.320445 0.680735 0.192815
Si Si4 0.905599 0.316369 0.851345
O O1 0.218034 0.781140 0.356501
O O2 0.915133 0.736408 0.692731
O O3 0.049014 0.754943 0.647483
O O4 0.015616 0.000000 0.616957
O O5 0.270520 0.500000 0.106713
O O6 0.280322 0.265446 0.171704
O O7 0.398642 0.239338 0.928554
O O8 0.281599 0.500000 0.246941
O O9 0.500000 0.718667 0.000000
O O10 0.912491 0.500000 0.839971
O O11 0.750000 0.250000 0.000000
#
# Coordination Sequence:
#
# PCOD8082613 Si02
#       4
#     8   8   8   8
#     4  11  21  34  55  82 110 139 176 218 262 314
#     4  10  19  34  57  82 108 138 175 218 265 314
#     4  10  22  39  56  76 106 143 180 219 264 313
#     4  10  18  31  53  80 109 137 172 217 265 313
#
# _framework density 19.637391000000001
#
# number of rings (size 3 to 8) (size 9 to 14) (size 15 to 20)
#    0.000    1.750    0.000    9.000    0.000    5.500 
#    0.000    1.250    0.000    0.000    0.000    0.000 
#    0.000    0.000    0.000    0.000    0.000    0.000 
#
# Total GULP energy -198398.077299 kJ/mol
# GULP energy per Si atom -12399.879831 kJ/mol
# Density = 1.959270 g / cm^3
# Si number density = 19.637391 Si / 1000 Ang^3
#
#
#
# Elastic Constant Matrix: (Units=GPa)
#
#
# Indices 1 2 3 4 5 6 
#
# 1 33.5146 18.9046 55.5445 0.0062 14.5587 -0.0034
# 2 18.9046 91.4721 41.3595 0.0059 20.4831 -0.0045
# 3 55.5445 41.3595 127.6932 0.0019 35.5784 -0.0020
# 4 0.0062 0.0059 0.0019 36.2007 -0.0011 10.4356
# 5 14.5587 20.4831 35.5784 -0.0011 32.8691 0.0011
# 6 -0.0034 -0.0045 -0.0020 10.4356 0.0011 19.0805
#
#
#
# Elastic Compliance Matrix: (Units=1/GPa)
#
#
# Indices 1 2 3 4 5 6 
#
# 1 0.107582 -0.001835 -0.047600 -0.000023 0.005015 0.000026
# 2 -0.001835 0.013440 -0.002073 -0.000003 -0.005319 0.000005
# 3 -0.047600 -0.002073 0.032894 0.000009 -0.013230 -0.000010
# 4 -0.000023 -0.000003 0.000009 0.032794 0.000004 -0.017936
# 5 0.005015 -0.005319 -0.013230 0.000004 0.045838 -0.000007
# 6 0.000026 0.000005 -0.000010 -0.017936 -0.000007 0.062219
#
#
# Mechanical properties :
#
#
# Convention : Reuss Voigt Hill
#
# Bulk Modulus (GPa) = 19.64589 53.81079 36.72834
# Shear Modulus (GPa) = 12.05549 26.75482 19.40515
#
# Velocity S-wave (km/s) = 2.48040 3.69513 3.14693
# Velocity P-wave (km/s) = 4.26957 6.75774 5.65227
#
# Compressibility (1/GPa) = 0.05090123
#
# Stress axis : x y z
#
# Youngs Moduli (GPa) = 9.29523 74.40563 30.40060
#
# Poissons Ratio (x) = 0.13651 1.44706
# Poissons Ratio (y) = 0.01705 0.06303
# Poissons Ratio (z) = 0.44245 0.15426
#
# Static dielectric constant tensor:
#      x y z
#    x 3.756040 0.000000 0.631970 
#    y 0.000000 3.595230 0.000000 
#    z 0.631970 0.000000 3.919850 
# 
# 
# High freq. dielectric constant tensor:
#      x y z
#    x 1.745590 0.000000 0.037300 
#    y 0.000000 1.775100 0.000000 
#    z 0.037300 0.000000 1.766310 
# 
# From -- ./inp_files/81698.got.cif
#   From: 2010.06.25/outbox.cif.g09.slc.cpg/sg12_41_cif.got.tgz:81698.got - 2010.06.28 00:19:55.
