data_PCOD8082201
_publ_section_title
;
Structure prediction by ZEFSAII (Michael W. Deem and Ramdas Pophale) SiO2 
 PCOD8082201
Probable space group: C 2/M
;
_chemical_formula_sum "Si O2"
_cell_formula_units_Z 56
_cell_length_a 31.247171
_cell_length_b 8.857383
_cell_length_c 19.665963
_cell_angle_alpha 90.000000
_cell_angle_beta 36.741667
_cell_angle_gamma 90.000000
_cell_volume 3255.994085
_symmetry_space_group_name_H-M "C 2/M"
_symmetry_group_IT_number 12
_symmetry_cell_setting 'monoclinic'
loop_
_space_group_symop_operation_xyz
x,y,z
-x,y,-z
-x,-y,-z
x,-y,z
1/2+x,1/2+y,z
1/2-x,1/2+y,-z
1/2-x,1/2-y,-z
1/2+x,1/2-y,z
loop_
_atom_site_type_symbol
_atom_site_label
_atom_site_fract_x
_atom_site_fract_y
_atom_site_fract_z
Si Si1 0.445474 0.179480 0.768094
Si Si2 0.097962 0.324217 0.620254
Si Si3 0.800325 0.178932 0.993377
Si Si4 0.191041 0.323981 0.621806
Si Si5 0.284803 0.821310 0.767119
Si Si6 0.065005 0.679424 0.373623
Si Si7 0.766977 0.320632 0.638068
O O1 0.519814 0.244091 0.704382
O O2 0.380581 0.259870 0.888948
O O3 0.443671 0.231109 0.692530
O O4 0.437304 0.000000 0.786917
O O5 0.093633 0.500000 0.609252
O O6 0.116203 0.295069 0.677044
O O7 0.159988 0.259784 0.491062
O O8 0.798147 0.000000 0.986439
O O9 0.750000 0.250000 0.000000
O O10 0.772417 0.227729 0.103407
O O11 0.206278 0.500000 0.610080
O O12 0.250000 0.250000 0.500000
O O13 0.196969 0.246635 0.688402
O O14 0.361648 0.753006 0.689971
O O15 0.263372 0.759999 0.719925
O O16 0.291267 0.000000 0.755438
O O17 0.065199 0.500000 0.378222
O O18 0.000000 0.747681 0.500000
O O19 0.762554 0.500000 0.639508
#
# Coordination Sequence:
#
# PCOD8082201 Si02
#       7
#     8   8   8   8   8   8   8
#     4  10  18  31  50  72  95 123 161 202 240 282
#     4   8  15  27  47  73  98 122 153 194 238 284
#     4  11  21  35  51  69  93 127 167 204 241 284
#     4   9  16  28  46  71 101 130 159 193 235 287
#     4   9  17  29  46  69  94 121 158 201 237 278
#     4   9  15  24  44  72  95 118 152 193 235 282
#     4   9  16  29  49  73  98 125 158 199 243 285
#
# _framework density 17.199048000000001
#
# number of rings (size 3 to 8) (size 9 to 14) (size 15 to 20)
#    0.000    2.714    1.429    2.571    0.000    3.429 
#    0.000    5.000    0.000    1.286    0.000    6.000 
#    0.000    0.000    0.000    0.000    0.000    0.000 
#
# Total GULP energy -347002.705573 kJ/mol
# GULP energy per Si atom -12392.953770 kJ/mol
# Density = 1.715990 g / cm^3
# Si number density = 17.199048 Si / 1000 Ang^3
#
#
#
# Elastic Constant Matrix: (Units=GPa)
#
#
# Indices 1 2 3 4 5 6 
#
# 1 171.3837 33.7812 78.1760 -0.0022 17.0482 0.0029
# 2 33.7812 33.8457 25.4378 0.0007 4.0947 0.0030
# 3 78.1760 25.4378 126.8536 -0.0011 8.2962 0.0005
# 4 -0.0022 0.0007 -0.0011 20.9496 0.0058 -0.1298
# 5 17.0482 4.0947 8.2962 0.0058 18.0680 -0.0045
# 6 0.0029 0.0030 0.0005 -0.1298 -0.0045 24.1923
#
#
#
# Elastic Compliance Matrix: (Units=1/GPa)
#
#
# Indices 1 2 3 4 5 6 
#
# 1 0.009474 -0.005486 -0.004366 0.000002 -0.005691 -0.000001
# 2 -0.005486 0.038379 -0.004211 -0.000002 -0.001588 -0.000004
# 3 -0.004366 -0.004211 0.011430 0.000000 -0.000174 0.000001
# 4 0.000002 -0.000002 0.000000 0.047735 -0.000017 0.000256
# 5 -0.005691 -0.001588 -0.000174 -0.000017 0.061156 0.000012
# 6 -0.000001 -0.000004 0.000001 0.000256 0.000012 0.041337
#
#
# Mechanical properties :
#
#
# Convention : Reuss Voigt Hill
#
# Bulk Modulus (GPa) = 32.09727 67.43034 49.76380
# Shear Modulus (GPa) = 20.15948 25.62118 22.89033
#
# Velocity S-wave (km/s) = 3.42735 3.86383 3.65212
# Velocity P-wave (km/s) = 5.86217 7.69393 6.83965
#
# Compressibility (1/GPa) = 0.03115530
#
# Stress axis : x y z
#
# Youngs Moduli (GPa) = 105.55300 26.05625 87.49083
#
# Poissons Ratio (x) = 0.14294 0.38201
# Poissons Ratio (y) = 0.57904 0.36846
# Poissons Ratio (z) = 0.46087 0.10973
#
# Static dielectric constant tensor:
#      x y z
#    x 3.743540 -0.000010 0.040090 
#    y -0.000010 2.913070 0.000010 
#    z 0.040090 0.000010 3.215990 
# 
# 
# High freq. dielectric constant tensor:
#      x y z
#    x 1.677860 0.000000 0.004000 
#    y 0.000000 1.625960 0.000000 
#    z 0.004000 0.000000 1.642600 
# 
# From -- ./inp_files/295060.got.cif
#   From: 2010.06.25/outbox.cif.g09.slc.cpg/sg12_148_cif.got.tgz:295060.got - 2010.06.28 00:19:55.
