data_PCOD8082938
_publ_section_title
;
Structure prediction by ZEFSAII (Michael W. Deem and Ramdas Pophale) SiO2 
 PCOD8082938
Probable space group: C 2/M
;
_chemical_formula_sum "Si O2"
_cell_formula_units_Z 64
_cell_length_a 20.413777
_cell_length_b 8.708205
_cell_length_c 23.639002
_cell_angle_alpha 90.000000
_cell_angle_beta 121.697969
_cell_angle_gamma 90.000000
_cell_volume 3575.393181
_symmetry_space_group_name_H-M "C 2/M"
_symmetry_group_IT_number 12
_symmetry_cell_setting 'monoclinic'
loop_
_space_group_symop_operation_xyz
x,y,z
-x,y,-z
-x,-y,-z
x,-y,z
1/2+x,1/2+y,z
1/2-x,1/2+y,-z
1/2-x,1/2-y,-z
1/2+x,1/2-y,z
loop_
_atom_site_type_symbol
_atom_site_label
_atom_site_fract_x
_atom_site_fract_y
_atom_site_fract_z
Si Si1 0.898800 0.821093 0.827728
Si Si2 0.817353 0.322660 0.303828
Si Si3 0.914995 0.677904 0.451075
Si Si4 0.205782 0.681244 0.032150
Si Si5 0.271603 0.680665 0.450125
Si Si6 0.754595 0.318517 0.826014
Si Si7 0.968482 0.679892 0.047069
Si Si8 0.678897 0.822892 0.302930
O O1 0.836531 0.727851 0.836221
O O2 0.888746 0.778665 0.756246
O O3 0.984064 0.772467 0.884380
O O4 0.885792 0.000000 0.831292
O O5 0.790286 0.500000 0.295329
O O6 0.895978 0.300330 0.375204
O O7 0.817708 0.267907 0.238213
O O8 0.756199 0.207537 0.303077
O O9 0.914478 0.500000 0.467695
O O10 0.852249 0.756250 0.462910
O O11 0.000000 0.748649 0.500000
O O12 0.206910 0.500000 0.028966
O O13 0.245485 0.734821 0.108719
O O14 0.250000 0.750000 0.000000
O O15 0.118431 0.740312 0.989570
O O16 0.281242 0.500000 0.459635
O O17 0.250000 0.750000 0.500000
O O18 0.199244 0.723662 0.376603
O O19 0.744285 0.500000 0.816106
O O20 0.975964 0.500000 0.063156
O O21 0.000000 0.721655 0.000000
O O22 0.655335 0.000000 0.287739
#
# Coordination Sequence:
#
# PCOD8082938 Si02
#       8
#     8   8   8   8   8   8   8   8
#     4  11  20  29  49  81 107 129 164 218 263 291
#     4   9  16  27  47  76 102 128 168 215 256 294
#     4   9  18  33  53  77 107 139 172 214 260 305
#     4  10  22  37  55  75 100 136 170 209 252 304
#     4  10  20  33  53  79 106 139 177 215 257 309
#     4  10  18  32  51  73 101 136 170 204 254 309
#     4  10  19  36  56  75 102 135 172 206 251 307
#     4   9  17  30  48  72 102 137 172 206 253 310
#
# _framework density 17.900130000000001
#
# number of rings (size 3 to 8) (size 9 to 14) (size 15 to 20)
#    0.000    2.250    1.250    4.125    0.000    4.000 
#    0.000    0.000    2.750    0.000    0.000    0.000 
#    0.000    0.000    0.000    0.000    0.000    0.000 
#
# Total GULP energy -396579.092124 kJ/mol
# GULP energy per Si atom -12393.096629 kJ/mol
# Density = 1.785939 g / cm^3
# Si number density = 17.900130 Si / 1000 Ang^3
#
#
#
# Elastic Constant Matrix: (Units=GPa)
#
#
# Indices 1 2 3 4 5 6 
#
# 1 82.9423 27.1060 66.9314 0.0000 -0.5400 0.0000
# 2 27.1060 51.2587 51.5394 0.0000 0.7250 0.0000
# 3 66.9314 51.5394 182.3988 0.0000 2.8768 0.0000
# 4 0.0000 0.0000 0.0000 31.3035 0.0000 -0.7159
# 5 -0.5400 0.7250 2.8768 0.0000 27.6663 0.0000
# 6 0.0000 0.0000 0.0000 -0.7159 0.0000 22.6567
#
#
#
# Elastic Compliance Matrix: (Units=1/GPa)
#
#
# Indices 1 2 3 4 5 6 
#
# 1 0.017711 -0.003952 -0.005398 0.000000 0.001011 0.000000
# 2 -0.003952 0.028133 -0.006497 0.000000 -0.000139 0.000000
# 3 -0.005398 -0.006497 0.009313 0.000000 -0.000904 0.000000
# 4 0.000000 0.000000 0.000000 0.031968 0.000000 0.001010
# 5 0.001011 -0.000139 -0.000904 0.000000 0.036262 0.000000
# 6 0.000000 0.000000 0.000000 0.001010 0.000000 0.044169
#
#
# Mechanical properties :
#
#
# Convention : Reuss Voigt Hill
#
# Bulk Modulus (GPa) = 42.62051 67.52815 55.07433
# Shear Modulus (GPa) = 24.14602 27.72684 25.93643
#
# Velocity S-wave (km/s) = 3.67676 3.93997 3.81064
# Velocity P-wave (km/s) = 6.47199 7.64883 7.08489
#
# Compressibility (1/GPa) = 0.02346288
#
# Stress axis : x y z
#
# Youngs Moduli (GPa) = 56.46238 35.54486 107.37142
#
# Poissons Ratio (x) = 0.14048 0.57961
# Poissons Ratio (y) = 0.22315 0.69760
# Poissons Ratio (z) = 0.30480 0.23094
#
# Static dielectric constant tensor:
#      x y z
#    x 3.223120 0.000000 0.133440 
#    y 0.000000 3.271830 0.000000 
#    z 0.133440 0.000000 4.382960 
# 
# 
# High freq. dielectric constant tensor:
#      x y z
#    x 1.636140 0.000000 0.005200 
#    y 0.000000 1.697170 0.000000 
#    z 0.005200 0.000000 1.720390 
# 
# From -- ./inp_files/345578.got.cif
#   From: 2010.06.25/outbox.cif.g09.slc.cpg/sg12_173_cif.got.tgz:345578.got - 2010.06.28 00:19:55.
