data_PCOD8082402
_publ_section_title
;
Structure prediction by ZEFSAII (Michael W. Deem and Ramdas Pophale) SiO2 
 PCOD8082402
Probable space group: C 2/M
;
_chemical_formula_sum "Si O2"
_cell_formula_units_Z 64
_cell_length_a 14.828007
_cell_length_b 9.143894
_cell_length_c 27.284608
_cell_angle_alpha 90.000000
_cell_angle_beta 73.950298
_cell_angle_gamma 90.000000
_cell_volume 3555.208840
_symmetry_space_group_name_H-M "C 2/M"
_symmetry_group_IT_number 12
_symmetry_cell_setting 'monoclinic'
loop_
_space_group_symop_operation_xyz
x,y,z
-x,y,-z
-x,-y,-z
x,-y,z
1/2+x,1/2+y,z
1/2-x,1/2+y,-z
1/2-x,1/2-y,-z
1/2+x,1/2-y,z
loop_
_atom_site_type_symbol
_atom_site_label
_atom_site_fract_x
_atom_site_fract_y
_atom_site_fract_z
Si Si1 0.347407 0.326669 0.000327
Si Si2 0.222118 0.673067 0.377585
Si Si3 0.547553 0.672652 0.257341
Si Si4 0.045351 0.827202 0.442122
Si Si5 0.461094 0.673556 0.077008
Si Si6 0.416508 0.327051 0.190424
Si Si7 0.275726 0.826783 0.735200
Si Si8 0.571231 0.326677 0.632969
O O1 0.331068 0.500000 0.999864
O O2 0.381785 0.277780 0.049590
O O3 0.250000 0.250000 0.000000
O O4 0.432899 0.275402 0.952070
O O5 0.211311 0.500000 0.384484
O O6 0.145668 0.751158 0.422678
O O7 0.211630 0.722773 0.322852
O O8 0.322225 0.729783 0.382224
O O9 0.562297 0.500000 0.260156
O O10 0.502188 0.716874 0.212542
O O11 0.646170 0.753173 0.243150
O O12 0.483377 0.733198 0.311341
O O13 0.000000 0.778936 0.500000
O O14 0.978194 0.769378 0.408838
O O15 0.059966 0.000000 0.436888
O O16 0.462565 0.500000 0.077884
O O17 0.433363 0.740876 0.133982
O O18 0.408431 0.500000 0.187703
O O19 0.321958 0.265725 0.229044
O O20 0.281802 0.000000 0.738708
O O21 0.571861 0.500000 0.635205
#
# Coordination Sequence:
#
# PCOD8082402 Si02
#       8
#     8   8   8   8   8   8   8   8
#     4   9  17  31  52  74  98 132 172 208 249 292
#     4  10  19  33  53  73  95 126 163 200 238 288
#     4  10  18  31  52  73  94 129 167 196 238 295
#     4  10  21  36  53  74 100 128 159 200 248 293
#     4   8  16  31  49  71 100 134 169 205 242 295
#     4   9  17  31  51  73  99 132 170 202 239 297
#     4  10  19  31  49  74  98 124 161 203 245 287
#     4   9  17  32  52  71  95 127 159 191 235 292
#
# _framework density 18.001756
#
# number of rings (size 3 to 8) (size 9 to 14) (size 15 to 20)
#    0.000    2.625    2.500    0.750    0.000    1.750 
#    0.000    3.125    0.000    1.500    0.000    0.000 
#    0.000    0.000    0.000    0.000    0.000    0.000 
#
# Total GULP energy -396714.888923 kJ/mol
# GULP energy per Si atom -12397.340279 kJ/mol
# Density = 1.796078 g / cm^3
# Si number density = 18.001756 Si / 1000 Ang^3
#
#
#
# Elastic Constant Matrix: (Units=GPa)
#
#
# Indices 1 2 3 4 5 6 
#
# 1 122.9835 21.6818 32.3668 0.0000 2.9681 0.0000
# 2 21.6818 16.5808 15.8482 0.0000 -1.9672 0.0000
# 3 32.3668 15.8482 113.5946 0.0000 2.4441 0.0000
# 4 0.0000 0.0000 0.0000 11.6062 0.0000 0.5729
# 5 2.9681 -1.9672 2.4441 0.0000 26.9953 0.0000
# 6 0.0000 0.0000 0.0000 0.5729 0.0000 29.9225
#
#
#
# Elastic Compliance Matrix: (Units=1/GPa)
#
#
# Indices 1 2 3 4 5 6 
#
# 1 0.010834 -0.013272 -0.001191 0.000000 -0.002050 0.000000
# 2 -0.013272 0.086820 -0.008515 0.000000 0.008557 0.000000
# 3 -0.001191 -0.008515 0.010361 0.000000 -0.001428 0.000000
# 4 0.000000 0.000000 0.000000 0.086242 0.000000 -0.001651
# 5 -0.002050 0.008557 -0.001428 0.000000 0.038022 0.000000
# 6 0.000000 0.000000 0.000000 -0.001651 0.000000 0.033451
#
#
# Mechanical properties :
#
#
# Convention : Reuss Voigt Hill
#
# Bulk Modulus (GPa) = 16.11379 43.66139 29.88759
# Shear Modulus (GPa) = 15.04336 25.92228 20.48282
#
# Velocity S-wave (km/s) = 2.89392 3.79883 3.37682
# Velocity P-wave (km/s) = 4.48743 6.59910 5.64292
#
# Compressibility (1/GPa) = 0.06205864
#
# Stress axis : x y z
#
# Youngs Moduli (GPa) = 92.30267 11.51815 96.51223
#
# Poissons Ratio (x) = 0.15286 0.11497
# Poissons Ratio (y) = 1.22500 0.82183
# Poissons Ratio (z) = 0.10995 0.09808
#
# Static dielectric constant tensor:
#      x y z
#    x 3.441570 0.000000 0.034120 
#    y 0.000000 2.835180 0.000000 
#    z 0.034120 0.000000 3.621030 
# 
# 
# High freq. dielectric constant tensor:
#      x y z
#    x 1.709990 0.000000 0.001630 
#    y 0.000000 1.649030 0.000000 
#    z 0.001630 0.000000 1.701630 
# 
# From -- ./inp_files/359858.got.cif
#   From: 2010.06.25/outbox.cif.g09.slc.cpg/sg12_180_cif.got.tgz:359858.got - 2010.06.28 00:19:55.
