data_PCOD8082477
_publ_section_title
;
Structure prediction by ZEFSAII (Michael W. Deem and Ramdas Pophale) SiO2 
 PCOD8082477
Probable space group: C 2/M
;
_chemical_formula_sum "Si O2"
_cell_formula_units_Z 64
_cell_length_a 17.403663
_cell_length_b 15.580514
_cell_length_c 24.119855
_cell_angle_alpha 90.000000
_cell_angle_beta 31.219639
_cell_angle_gamma 90.000000
_cell_volume 3389.965251
_symmetry_space_group_name_H-M "C 2/M"
_symmetry_group_IT_number 12
_symmetry_cell_setting 'monoclinic'
loop_
_space_group_symop_operation_xyz
x,y,z
-x,y,-z
-x,-y,-z
x,-y,z
1/2+x,1/2+y,z
1/2-x,1/2+y,-z
1/2-x,1/2-y,-z
1/2+x,1/2-y,z
loop_
_atom_site_type_symbol
_atom_site_label
_atom_site_fract_x
_atom_site_fract_y
_atom_site_fract_z
Si Si1 0.334229 0.099193 0.123378
Si Si2 0.415016 0.400103 0.805026
Si Si3 0.338971 0.255284 0.577649
Si Si4 0.740195 0.400436 0.572051
Si Si5 0.804791 0.597783 0.404689
Si Si6 0.649004 0.676621 0.038840
Si Si7 0.071202 0.402650 0.166675
Si Si8 0.395429 0.791276 0.188203
O O1 0.221924 0.137834 0.146407
O O2 0.313603 0.156483 0.190639
O O3 0.299002 0.000000 0.159603
O O4 0.500000 0.109679 0.000000
O O5 0.404430 0.500000 0.804176
O O6 0.570717 0.367859 0.683539
O O7 0.405602 0.378850 0.875303
O O8 0.500000 0.276671 0.500000
O O9 0.341113 0.162878 0.546101
O O10 0.298511 0.334239 0.562444
O O11 0.228950 0.248241 0.697281
O O12 0.759442 0.500000 0.579117
O O13 0.791918 0.387696 0.477556
O O14 0.756538 0.500000 0.418682
O O15 0.976783 0.613338 0.280923
O O16 0.503418 0.715342 0.098074
O O17 0.750000 0.750000 0.000000
O O18 0.755526 0.623441 0.931141
O O19 0.066730 0.500000 0.150496
O O20 0.999047 0.353388 0.159973
#
# Coordination Sequence:
#
# PCOD8082477 Si02
#       8
#     8   8   8   8   8   8   8   8
#     4  10  20  34  53  80 115 149 182 224 284 350
#     4  10  20  34  56  81 107 145 188 232 280 331
#     4  11  23  38  57  85 115 151 190 235 288 340
#     4  10  21  40  61  81 110 148 196 241 279 330
#     4   9  20  38  59  86 117 148 183 231 288 345
#     4  10  18  31  52  77 110 145 182 224 269 328
#     4   9  17  31  53  79 108 143 182 223 273 332
#     4  10  20  34  49  78 117 145 181 226 279 333
#
# _framework density 18.879249999999999
#
# number of rings (size 3 to 8) (size 9 to 14) (size 15 to 20)
#    0.000    2.125    1.250    2.625    1.750    2.000 
#    0.000    0.000    0.000    0.000    0.000    0.000 
#    0.000   22.500    0.000    0.000    0.000    0.000 
#
# Total GULP energy -396651.262440 kJ/mol
# GULP energy per Si atom -12395.351951 kJ/mol
# Density = 1.883628 g / cm^3
# Si number density = 18.879250 Si / 1000 Ang^3
#
#
#
# Elastic Constant Matrix: (Units=GPa)
#
#
# Indices 1 2 3 4 5 6 
#
# 1 56.8938 38.7733 35.1162 -0.0001 -0.8486 0.0000
# 2 38.7733 64.2927 49.2093 -0.0011 -5.4270 0.0021
# 3 35.1162 49.2093 120.6545 -0.0018 0.6699 0.0032
# 4 -0.0001 -0.0011 -0.0018 28.9563 0.0019 1.9153
# 5 -0.8486 -5.4270 0.6699 0.0019 21.0382 0.0008
# 6 0.0000 0.0021 0.0032 1.9153 0.0008 15.6056
#
#
#
# Elastic Compliance Matrix: (Units=1/GPa)
#
#
# Indices 1 2 3 4 5 6 
#
# 1 0.030363 -0.017194 -0.001807 -0.000001 -0.003153 0.000003
# 2 -0.017194 0.033168 -0.008569 0.000000 0.008135 -0.000003
# 3 -0.001807 -0.008569 0.012324 0.000001 -0.002676 -0.000001
# 4 -0.000001 0.000000 0.000001 0.034818 -0.000003 -0.004273
# 5 -0.003153 0.008135 -0.002676 -0.000003 0.049589 -0.000003
# 6 0.000003 -0.000003 -0.000001 -0.004273 -0.000003 0.064604
#
#
# Mechanical properties :
#
#
# Convention : Reuss Voigt Hill
#
# Bulk Modulus (GPa) = 48.27338 54.22651 51.24995
# Shear Modulus (GPa) = 17.42706 21.03614 19.23160
#
# Velocity S-wave (km/s) = 3.04152 3.34165 3.19511
# Velocity P-wave (km/s) = 6.16113 6.60863 6.38880
#
# Compressibility (1/GPa) = 0.02071535
#
# Stress axis : x y z
#
# Youngs Moduli (GPa) = 32.93514 30.14912 81.14519
#
# Poissons Ratio (x) = 0.51839 0.14661
# Poissons Ratio (y) = 0.56630 0.69531
# Poissons Ratio (z) = 0.05951 0.25834
#
# Static dielectric constant tensor:
#      x y z
#    x 3.272590 0.000000 -0.223820 
#    y 0.000000 3.734170 0.000000 
#    z -0.223820 0.000000 4.207540 
# 
# 
# High freq. dielectric constant tensor:
#      x y z
#    x 1.693130 0.000000 0.001570 
#    y 0.000000 1.737480 0.000000 
#    z 0.001570 0.000000 1.751750 
# 
# From -- ./inp_files/344010.got.cif
#   From: 2010.06.25/outbox.cif.g09.slc.cpg/sg12_173_cif.got.tgz:344010.got - 2010.06.28 00:19:55.
