data_PCOD8082157
_publ_section_title
;
Structure prediction by ZEFSAII (Michael W. Deem and Ramdas Pophale) SiO2 
 PCOD8082157
Probable space group: C 2/M
;
_chemical_formula_sum "Si O2"
_cell_formula_units_Z 56
_cell_length_a 21.970739
_cell_length_b 21.088190
_cell_length_c 9.571173
_cell_angle_alpha 90.000000
_cell_angle_beta 53.766505
_cell_angle_gamma 90.000000
_cell_volume 3576.970687
_symmetry_space_group_name_H-M "C 2/M"
_symmetry_group_IT_number 12
_symmetry_cell_setting 'monoclinic'
loop_
_space_group_symop_operation_xyz
x,y,z
-x,y,-z
-x,-y,-z
x,-y,z
1/2+x,1/2+y,z
1/2-x,1/2+y,-z
1/2-x,1/2-y,-z
1/2+x,1/2-y,z
loop_
_atom_site_type_symbol
_atom_site_label
_atom_site_fract_x
_atom_site_fract_y
_atom_site_fract_z
Si Si1 0.642289 0.754096 0.051513
Si Si2 0.996133 0.685579 0.340809
Si Si3 0.038381 0.571635 0.093382
Si Si4 0.325293 0.804159 0.533113
Si Si5 0.238939 0.344476 0.107277
Si Si6 0.773623 0.316182 0.302218
Si Si7 0.215552 0.429090 0.889526
O O1 0.553472 0.759841 0.206525
O O2 0.686188 0.790881 0.112816
O O3 0.674125 0.681619 0.006618
O O4 0.657177 0.787357 0.881871
O O5 0.012559 0.617140 0.252418
O O6 0.000000 0.677202 0.500000
O O7 0.913731 0.707403 0.410385
O O8 0.012092 0.500000 0.164874
O O9 0.128520 0.574625 0.962785
O O10 0.000000 0.593499 0.000000
O O11 0.294163 0.853752 0.691544
O O12 0.293072 0.734329 0.603182
O O13 0.301057 0.833809 0.418843
O O14 0.231206 0.409210 0.029764
O O15 0.741604 0.379892 0.271065
O O16 0.247328 0.500000 0.826722
#
# Coordination Sequence:
#
# PCOD8082157 Si02
#       7
#     8   8   8   8   8   8   8
#     4   9  17  29  47  63  89 122 147 187 239 264
#     4  12  20  28  44  73  90 120 154 194 227 278
#     4  10  20  32  44  61  92 129 160 186 217 269
#     4  10  19  29  49  70  96 116 155 198 244 262
#     4   9  16  32  45  63  89 118 151 192 227 275
#     4   9  18  33  47  68  92 126 152 196 231 283
#     4  10  18  31  50  65  86 130 167 184 220 282
#
# _framework density 15.655704999999999
#
# number of rings (size 3 to 8) (size 9 to 14) (size 15 to 20)
#    0.000    2.143    4.286    1.714    0.000    0.286 
#    0.000    1.429    0.000    0.000    0.000    2.000 
#    0.000    0.000    0.000   10.286    0.000    0.000 
#
# Total GULP energy -347050.706498 kJ/mol
# GULP energy per Si atom -12394.668089 kJ/mol
# Density = 1.562007 g / cm^3
# Si number density = 15.655705 Si / 1000 Ang^3
#
#
#
# Elastic Constant Matrix: (Units=GPa)
#
#
# Indices 1 2 3 4 5 6 
#
# 1 37.5241 27.4149 21.4299 0.0000 0.8131 0.0000
# 2 27.4149 70.0282 25.0534 0.0000 2.4016 0.0000
# 3 21.4299 25.0534 74.5273 0.0000 6.3649 0.0000
# 4 0.0000 0.0000 0.0000 19.0822 0.0000 -0.2752
# 5 0.8131 2.4016 6.3649 0.0000 31.6319 0.0000
# 6 0.0000 0.0000 0.0000 -0.2752 0.0000 28.6002
#
#
#
# Elastic Compliance Matrix: (Units=1/GPa)
#
#
# Indices 1 2 3 4 5 6 
#
# 1 0.040498 -0.013292 -0.007299 0.000000 0.001437 0.000000
# 2 -0.013292 0.020595 -0.003049 0.000000 -0.000608 0.000000
# 3 -0.007299 -0.003049 0.016795 0.000000 -0.002960 0.000000
# 4 0.000000 0.000000 0.000000 0.052412 0.000000 0.000504
# 5 0.001437 -0.000608 -0.002960 0.000000 0.032219 0.000000
# 6 0.000000 0.000000 0.000000 0.000504 0.000000 0.034970
#
#
# Mechanical properties :
#
#
# Convention : Reuss Voigt Hill
#
# Bulk Modulus (GPa) = 32.67287 36.65288 34.66288
# Shear Modulus (GPa) = 19.60990 23.07495 21.34243
#
# Velocity S-wave (km/s) = 3.54301 3.84331 3.69621
# Velocity P-wave (km/s) = 6.13614 6.56942 6.35647
#
# Compressibility (1/GPa) = 0.03060643
#
# Stress axis : x y z
#
# Youngs Moduli (GPa) = 24.69236 48.55430 59.54257
#
# Poissons Ratio (x) = 0.64540 0.43463
# Poissons Ratio (y) = 0.32822 0.18157
# Poissons Ratio (z) = 0.18024 0.14806
#
# Static dielectric constant tensor:
#      x y z
#    x 3.107430 0.000000 0.135530 
#    y 0.000000 2.964150 0.000000 
#    z 0.135530 0.000000 3.192810 
# 
# 
# High freq. dielectric constant tensor:
#      x y z
#    x 1.593780 0.000000 0.018640 
#    y 0.000000 1.572070 0.000000 
#    z 0.018640 0.000000 1.602550 
# 
# From -- ./inp_files/98800.got.cif
#   From: 2010.06.25/outbox.cif.g09.slc.cpg/sg12_50_cif.got.tgz:98800.got - 2010.06.28 00:19:55.
