data_PCOD8082203
_publ_section_title
;
Structure prediction by ZEFSAII (Michael W. Deem and Ramdas Pophale) SiO2 
 PCOD8082203
Probable space group: C 2/M
;
_chemical_formula_sum "Si O2"
_cell_formula_units_Z 56
_cell_length_a 14.382855
_cell_length_b 8.468548
_cell_length_c 27.658562
_cell_angle_alpha 90.000000
_cell_angle_beta 120.265256
_cell_angle_gamma 90.000000
_cell_volume 2909.693500
_symmetry_space_group_name_H-M "C 2/M"
_symmetry_group_IT_number 12
_symmetry_cell_setting 'monoclinic'
loop_
_space_group_symop_operation_xyz
x,y,z
-x,y,-z
-x,-y,-z
x,-y,z
1/2+x,1/2+y,z
1/2-x,1/2+y,-z
1/2-x,1/2-y,-z
1/2+x,1/2-y,z
loop_
_atom_site_type_symbol
_atom_site_label
_atom_site_fract_x
_atom_site_fract_y
_atom_site_fract_z
Si Si1 0.934999 0.812636 0.052759
Si Si2 0.967145 0.185475 0.357833
Si Si3 0.257416 0.185680 0.353524
Si Si4 0.692128 0.814324 0.437918
Si Si5 0.521963 0.686647 0.266551
Si Si6 0.880921 0.185828 0.142992
Si Si7 0.659836 0.313415 0.070224
O O1 0.906274 0.737762 0.097157
O O2 0.054697 0.756802 0.071200
O O3 0.931980 0.000000 0.054050
O O4 0.852007 0.757512 0.989037
O O5 0.855397 0.224364 0.354216
O O6 0.964325 0.241851 0.301085
O O7 0.065621 0.274622 0.409556
O O8 0.990403 0.000000 0.367342
O O9 0.248368 0.229399 0.407298
O O10 0.146784 0.240305 0.298208
O O11 0.276596 0.000000 0.353469
O O12 0.750000 0.750000 0.500000
O O13 0.708840 0.000000 0.437219
O O14 0.516028 0.500000 0.261870
O O15 0.458426 0.761502 0.204284
O O16 0.757887 0.226828 0.122484
O O17 0.898475 0.000000 0.146265
O O18 0.675980 0.500000 0.077781
#
# Coordination Sequence:
#
# PCOD8082203 Si02
#       7
#     8   8   8   8   8   8   8
#     4   8  16  30  48  66  94 131 165 201 257 319
#     4  10  20  37  57  79 108 144 180 221 267 314
#     4  10  20  37  58  81 108 143 181 220 264 315
#     4  11  22  38  59  86 116 146 179 219 261 308
#     4   8  18  34  51  72 103 135 170 214 262 313
#     4  10  18  31  50  72  96 130 168 209 259 310
#     4   9  17  31  47  68  95 127 165 210 256 311
#
# _framework density 19.246012
#
# number of rings (size 3 to 8) (size 9 to 14) (size 15 to 20)
#    0.000    2.571    0.000    4.286    0.000    1.714 
#    0.000   10.714    0.000    0.000    0.000    0.000 
#    0.000    0.000    0.000    0.000    0.000    0.000 
#
# Total GULP energy -347117.987472 kJ/mol
# GULP energy per Si atom -12397.070981 kJ/mol
# Density = 1.920221 g / cm^3
# Si number density = 19.246012 Si / 1000 Ang^3
#
#
#
# Elastic Constant Matrix: (Units=GPa)
#
#
# Indices 1 2 3 4 5 6 
#
# 1 103.7894 1.6900 52.5786 0.0000 9.7395 0.0000
# 2 1.6900 31.3555 13.2906 0.0000 1.2842 0.0000
# 3 52.5786 13.2906 147.7556 0.0000 16.4406 0.0000
# 4 0.0000 0.0000 0.0000 20.8482 0.0000 5.1822
# 5 9.7395 1.2842 16.4406 0.0000 20.4094 0.0000
# 6 0.0000 0.0000 0.0000 5.1822 0.0000 29.1916
#
#
#
# Elastic Compliance Matrix: (Units=1/GPa)
#
#
# Indices 1 2 3 4 5 6 
#
# 1 0.011909 0.001184 -0.004068 0.000000 -0.002480 0.000000
# 2 0.001184 0.033276 -0.003426 0.000000 0.000101 0.000000
# 3 -0.004068 -0.003426 0.009099 0.000000 -0.005173 0.000000
# 4 0.000000 0.000000 0.000000 0.050180 0.000000 -0.008908
# 5 -0.002480 0.000101 -0.005173 0.000000 0.054341 0.000000
# 6 0.000000 0.000000 0.000000 -0.008908 0.000000 0.035838
#
#
# Mechanical properties :
#
#
# Convention : Reuss Voigt Hill
#
# Bulk Modulus (GPa) = 24.00088 46.44652 35.22370
# Shear Modulus (GPa) = 22.60878 28.44593 25.52736
#
# Velocity S-wave (km/s) = 3.43115 3.84867 3.64589
# Velocity P-wave (km/s) = 5.30986 6.62836 6.00541
#
# Compressibility (1/GPa) = 0.04166514
#
# Stress axis : x y z
#
# Youngs Moduli (GPa) = 83.96713 30.05129 109.89709
#
# Poissons Ratio (x) = -0.03559 0.44711
# Poissons Ratio (y) = -0.09943 0.37649
# Poissons Ratio (z) = 0.34162 0.10295
#
# Static dielectric constant tensor:
#      x y z
#    x 3.576910 0.000000 -0.083800 
#    y 0.000000 3.214910 0.000000 
#    z -0.083800 0.000000 3.915720 
# 
# 
# High freq. dielectric constant tensor:
#      x y z
#    x 1.752740 0.000000 0.003270 
#    y 0.000000 1.723840 0.000000 
#    z 0.003270 0.000000 1.753660 
# 
# From -- ./inp_files/360013.got.cif
#   From: 2010.06.25/outbox.cif.g09.slc.cpg/sg12_181_cif.got.tgz:360013.got - 2010.06.28 00:19:55.
