data_PCOD8082192
_publ_section_title
;
Structure prediction by ZEFSAII (Michael W. Deem and Ramdas Pophale) SiO2 
 PCOD8082192
Probable space group: C 2/M
;
_chemical_formula_sum "Si O2"
_cell_formula_units_Z 48
_cell_length_a 24.383676
_cell_length_b 8.784454
_cell_length_c 21.757311
_cell_angle_alpha 90.000000
_cell_angle_beta 142.251959
_cell_angle_gamma 90.000000
_cell_volume 2853.024997
_symmetry_space_group_name_H-M "C 2/M"
_symmetry_group_IT_number 12
_symmetry_cell_setting 'monoclinic'
loop_
_space_group_symop_operation_xyz
x,y,z
-x,y,-z
-x,-y,-z
x,-y,z
1/2+x,1/2+y,z
1/2-x,1/2+y,-z
1/2-x,1/2-y,-z
1/2+x,1/2-y,z
loop_
_atom_site_type_symbol
_atom_site_label
_atom_site_fract_x
_atom_site_fract_y
_atom_site_fract_z
Si Si1 0.102172 0.679206 0.645208
Si Si2 0.578613 0.318718 0.492607
Si Si3 0.462129 0.173165 0.034494
Si Si4 0.200401 0.823064 0.158362
Si Si5 0.370233 0.321075 0.773967
Si Si6 0.270139 0.818561 0.452137
O O1 0.080975 0.500000 0.623545
O O2 0.111561 0.740334 0.584327
O O3 0.195367 0.710848 0.763269
O O4 0.023912 0.768491 0.611573
O O5 0.584753 0.500000 0.503615
O O6 0.638220 0.257257 0.489820
O O7 0.529592 0.252585 0.142353
O O8 0.455168 0.000000 0.047946
O O9 0.500000 0.198782 0.000000
O O10 0.361919 0.242442 0.947894
O O11 0.178167 0.761407 0.207059
O O12 0.178691 0.000000 0.135790
O O13 0.379784 0.500000 0.783339
O O14 0.311266 0.267617 0.664098
O O15 0.250000 0.750000 0.500000
O O16 0.281110 0.000000 0.464235
#
# Coordination Sequence:
#
# PCOD8082192 Si02
#       6
#     8   8   8   8   8   8
#     4  10  18  31  50  71  98 132 165 201 243 293
#     4  11  21  32  47  71  99 130 164 203 247 293
#     4   9  17  26  40  66  96 124 155 195 240 285
#     4   9  16  28  46  68  94 129 162 191 237 292
#     4   9  17  31  47  64  92 128 163 197 237 288
#     4  11  22  37  53  72  96 130 170 208 246 287
#
# _framework density 16.824248999999998
#
# number of rings (size 3 to 8) (size 9 to 14) (size 15 to 20)
#    0.000    2.167    1.667    4.000    0.000    4.667 
#    0.000    0.000    0.000    0.000    0.000    1.167 
#    0.000    0.000    0.000    0.000    0.000    0.000 
#
# Total GULP energy -297557.101121 kJ/mol
# GULP energy per Si atom -12398.212547 kJ/mol
# Density = 1.678596 g / cm^3
# Si number density = 16.824249 Si / 1000 Ang^3
#
#
#
# Elastic Constant Matrix: (Units=GPa)
#
#
# Indices 1 2 3 4 5 6 
#
# 1 82.8393 26.8958 45.3815 0.0000 11.0870 0.0000
# 2 26.8958 60.9804 35.1340 0.0000 7.2163 0.0000
# 3 45.3815 35.1340 115.6617 0.0000 24.0067 0.0000
# 4 0.0000 0.0000 0.0000 20.3714 0.0000 1.7253
# 5 11.0870 7.2163 24.0067 0.0000 23.4079 0.0000
# 6 0.0000 0.0000 0.0000 1.7253 0.0000 22.7298
#
#
#
# Elastic Compliance Matrix: (Units=1/GPa)
#
#
# Indices 1 2 3 4 5 6 
#
# 1 0.016270 -0.004242 -0.004786 0.000000 -0.001490 0.000000
# 2 -0.004242 0.020984 -0.004807 0.000000 0.000471 0.000000
# 3 -0.004786 -0.004807 0.014236 0.000000 -0.010852 0.000000
# 4 0.000000 0.000000 0.000000 0.049406 0.000000 -0.003750
# 5 -0.001490 0.000471 -0.010852 0.000000 0.054411 0.000000
# 6 0.000000 0.000000 0.000000 -0.003750 0.000000 0.044280
#
#
# Mechanical properties :
#
#
# Convention : Reuss Voigt Hill
#
# Bulk Modulus (GPa) = 41.98261 52.70047 47.34154
# Shear Modulus (GPa) = 21.25869 23.43982 22.34926
#
# Velocity S-wave (km/s) = 3.55854 3.73663 3.64867
# Velocity P-wave (km/s) = 6.47241 7.07168 6.77867
#
# Compressibility (1/GPa) = 0.02381938
#
# Stress axis : x y z
#
# Youngs Moduli (GPa) = 61.46206 47.65563 70.24250
#
# Poissons Ratio (x) = 0.20217 0.33617
# Poissons Ratio (y) = 0.26074 0.33768
# Poissons Ratio (z) = 0.29415 0.22910
#
# Static dielectric constant tensor:
#      x y z
#    x 2.865420 0.000000 0.304710 
#    y 0.000000 3.176930 0.000000 
#    z 0.304710 0.000000 3.508340 
# 
# 
# High freq. dielectric constant tensor:
#      x y z
#    x 1.600470 0.000000 0.034920 
#    y 0.000000 1.658860 0.000000 
#    z 0.034920 0.000000 1.649250 
# 
# From -- ./inp_files/323856.got.cif
#   From: 2010.06.25/outbox.cif.g09.slc.cpg/sg12_162_cif.got.tgz:323856.got - 2010.06.28 00:19:55.
