data_PCOD8082236
_publ_section_title
;
Structure prediction by ZEFSAII (Michael W. Deem and Ramdas Pophale) SiO2 
 PCOD8082236
Probable space group: C 2/M
;
_chemical_formula_sum "Si O2"
_cell_formula_units_Z 64
_cell_length_a 20.620431
_cell_length_b 8.577911
_cell_length_c 24.385150
_cell_angle_alpha 90.000000
_cell_angle_beta 126.993373
_cell_angle_gamma 90.000000
_cell_volume 3445.015420
_symmetry_space_group_name_H-M "C 2/M"
_symmetry_group_IT_number 12
_symmetry_cell_setting 'monoclinic'
loop_
_space_group_symop_operation_xyz
x,y,z
-x,y,-z
-x,-y,-z
x,-y,z
1/2+x,1/2+y,z
1/2-x,1/2+y,-z
1/2-x,1/2-y,-z
1/2+x,1/2-y,z
loop_
_atom_site_type_symbol
_atom_site_label
_atom_site_fract_x
_atom_site_fract_y
_atom_site_fract_z
Si Si1 0.208201 0.683813 0.348893
Si Si2 0.913329 0.314354 0.228435
Si Si3 0.139254 0.183779 0.207529
Si Si4 0.688031 0.183861 0.512305
Si Si5 0.318898 0.683751 0.995936
Si Si6 0.571761 0.816334 0.364049
Si Si7 0.537287 0.183316 0.866706
Si Si8 0.766248 0.185203 0.850883
O O1 0.205215 0.500000 0.337380
O O2 0.200468 0.772916 0.287604
O O3 0.294762 0.731695 0.420828
O O4 0.136096 0.746056 0.351752
O O5 0.913277 0.500000 0.229049
O O6 0.934223 0.255196 0.178071
O O7 0.825665 0.248474 0.201554
O O8 0.982180 0.248497 0.305385
O O9 0.180180 0.245143 0.172389
O O10 0.055791 0.274935 0.171683
O O11 0.122986 0.000000 0.197970
O O12 0.750000 0.250000 0.500000
O O13 0.599241 0.224172 0.440695
O O14 0.699427 0.000000 0.525296
O O15 0.311386 0.500000 0.993475
O O16 0.305104 0.746683 0.927253
O O17 0.250000 0.750000 0.000000
O O18 0.408362 0.734999 0.059484
O O19 0.570849 0.000000 0.355685
O O20 0.549394 0.000000 0.877789
O O21 0.762870 0.000000 0.848902
#
# Coordination Sequence:
#
# PCOD8082236 Si02
#       8
#     8   8   8   8   8   8   8   8
#     4  10  18  31  50  74 105 144 180 219 274 327
#     4   9  15  30  55  79 102 136 179 219 264 321
#     4  11  22  36  54  80 110 141 182 227 272 327
#     4   9  16  26  43  74 109 140 175 221 274 324
#     4  11  21  37  59  84 111 142 182 226 274 326
#     4   8  14  25  47  76 103 131 172 222 265 310
#     4  11  21  36  59  82 108 144 182 223 273 324
#     4   9  20  36  55  78 108 145 179 219 275 332
#
# _framework density 18.577565
#
# number of rings (size 3 to 8) (size 9 to 14) (size 15 to 20)
#    0.000    2.250    2.500    2.625    0.000    0.500 
#    0.000    5.000    0.000    0.750    0.000    5.250 
#    0.000    0.000    0.000    0.000    0.000    0.000 
#
# Total GULP energy -396641.744341 kJ/mol
# GULP energy per Si atom -12395.054511 kJ/mol
# Density = 1.853528 g / cm^3
# Si number density = 18.577565 Si / 1000 Ang^3
#
#
#
# Elastic Constant Matrix: (Units=GPa)
#
#
# Indices 1 2 3 4 5 6 
#
# 1 80.3080 8.0745 40.1978 0.0000 -3.9538 0.0000
# 2 8.0745 32.1108 13.5906 0.0000 -1.1484 0.0000
# 3 40.1978 13.5906 150.5927 0.0000 7.8947 0.0000
# 4 0.0000 0.0000 0.0000 28.5205 0.0000 2.1257
# 5 -3.9538 -1.1484 7.8947 0.0000 27.7022 0.0000
# 6 0.0000 0.0000 0.0000 2.1257 0.0000 19.1464
#
#
#
# Elastic Compliance Matrix: (Units=1/GPa)
#
#
# Indices 1 2 3 4 5 6 
#
# 1 0.014770 -0.001937 -0.003933 0.000000 0.003149 0.000000
# 2 -0.001937 0.032766 -0.002535 0.000000 0.001804 0.000000
# 3 -0.003933 -0.002535 0.008075 0.000000 -0.002968 0.000000
# 4 0.000000 0.000000 0.000000 0.035355 0.000000 -0.003925
# 5 0.003149 0.001804 -0.002968 0.000000 0.037468 0.000000
# 6 0.000000 0.000000 0.000000 -0.003925 0.000000 0.052665
#
#
# Mechanical properties :
#
#
# Convention : Reuss Voigt Hill
#
# Bulk Modulus (GPa) = 25.77158 42.97081 34.37120
# Shear Modulus (GPa) = 23.71435 28.48373 26.09904
#
# Velocity S-wave (km/s) = 3.57670 3.91990 3.75222
# Velocity P-wave (km/s) = 5.56413 6.60819 6.10851
#
# Compressibility (1/GPa) = 0.03880243
#
# Stress axis : x y z
#
# Youngs Moduli (GPa) = 67.70275 30.51898 123.84560
#
# Poissons Ratio (x) = 0.05911 0.48708
# Poissons Ratio (y) = 0.13114 0.31390
# Poissons Ratio (z) = 0.26627 0.07735
#
# Static dielectric constant tensor:
#      x y z
#    x 3.314280 0.000000 0.190820 
#    y 0.000000 3.202440 0.000000 
#    z 0.190820 0.000000 4.127770 
# 
# 
# High freq. dielectric constant tensor:
#      x y z
#    x 1.684940 0.000000 0.013230 
#    y 0.000000 1.697410 0.000000 
#    z 0.013230 0.000000 1.744870 
# 
# From -- ./inp_files/345562.got.cif
#   From: 2010.06.25/outbox.cif.g09.slc.cpg/sg12_173_cif.got.tgz:345562.got - 2010.06.28 00:19:55.
