data_PCOD8082211
_publ_section_title
;
Structure prediction by ZEFSAII (Michael W. Deem and Ramdas Pophale) SiO2 
 PCOD8082211
Probable space group: C 2/M
;
_chemical_formula_sum "Si O2"
_cell_formula_units_Z 56
_cell_length_a 24.427766
_cell_length_b 10.176603
_cell_length_c 22.197867
_cell_angle_alpha 90.000000
_cell_angle_beta 145.102386
_cell_angle_gamma 90.000000
_cell_volume 3157.029735
_symmetry_space_group_name_H-M "C 2/M"
_symmetry_group_IT_number 12
_symmetry_cell_setting 'monoclinic'
loop_
_space_group_symop_operation_xyz
x,y,z
-x,y,-z
-x,-y,-z
x,-y,z
1/2+x,1/2+y,z
1/2-x,1/2+y,-z
1/2-x,1/2-y,-z
1/2+x,1/2-y,z
loop_
_atom_site_type_symbol
_atom_site_label
_atom_site_fract_x
_atom_site_fract_y
_atom_site_fract_z
Si Si1 0.146722 0.645166 0.094761
Si Si2 0.991131 0.652580 0.129289
Si Si3 0.304039 0.846300 0.731640
Si Si4 0.797382 0.224567 0.139130
Si Si5 0.640252 0.846379 0.583424
Si Si6 0.433843 0.848493 0.353694
Si Si7 0.866046 0.856841 0.076467
O O1 0.117380 0.500000 0.088501
O O2 0.169322 0.715590 0.178526
O O3 0.238978 0.639352 0.134791
O O4 0.055660 0.703553 0.976185
O O5 0.962102 0.500000 0.114892
O O6 0.946319 0.743348 0.141182
O O7 0.104981 0.668564 0.230180
O O8 0.221390 0.751762 0.630951
O O9 0.270952 0.000000 0.704412
O O10 0.890914 0.279678 0.256463
O O11 0.832769 0.137382 0.115620
O O12 0.726203 0.336698 0.049593
O O13 0.547284 0.822506 0.458174
O O14 0.616231 0.801344 0.629783
O O15 0.671572 0.000000 0.608610
O O16 0.411776 0.000000 0.326965
O O17 0.909402 0.000000 0.099703
#
# Coordination Sequence:
#
# PCOD8082211 Si02
#       7
#     8   8   8   8   8   8   8
#     4   9  16  28  47  71  98 130 165 200 244 298
#     4   9  19  33  49  68  98 138 173 202 240 295
#     4  10  18  31  50  73 100 132 167 204 247 296
#     4  10  18  31  52  72 103 134 163 201 251 299
#     4   9  18  32  50  74 102 131 165 201 245 297
#     4   9  17  31  50  72 101 135 165 197 243 303
#     4  10  21  33  49  77 104 131 169 210 247 289
#
# _framework density 17.738191
#
# number of rings (size 3 to 8) (size 9 to 14) (size 15 to 20)
#    0.000    2.571    1.429    2.143    0.000    6.286 
#    0.000    2.857    0.000    3.429    0.000    0.000 
#    0.000    0.000    0.000    0.000    0.000    0.000 
#
# Total GULP energy -346982.234301 kJ/mol
# GULP energy per Si atom -12392.222654 kJ/mol
# Density = 1.769782 g / cm^3
# Si number density = 17.738191 Si / 1000 Ang^3
#
#
#
# Elastic Constant Matrix: (Units=GPa)
#
#
# Indices 1 2 3 4 5 6 
#
# 1 54.6113 31.1249 26.3812 0.0000 8.9979 0.0000
# 2 31.1249 87.7512 42.3159 0.0000 14.7126 0.0000
# 3 26.3812 42.3159 94.2081 0.0000 10.0202 0.0000
# 4 0.0000 0.0000 0.0000 21.5555 0.0000 10.9833
# 5 8.9979 14.7126 10.0202 0.0000 26.6365 0.0000
# 6 0.0000 0.0000 0.0000 10.9833 0.0000 19.0330
#
#
#
# Elastic Compliance Matrix: (Units=1/GPa)
#
#
# Indices 1 2 3 4 5 6 
#
# 1 0.024179 -0.006282 -0.003593 0.000000 -0.003346 0.000000
# 2 -0.006282 0.017096 -0.005356 0.000000 -0.005306 0.000000
# 3 -0.003593 -0.005356 0.014149 0.000000 -0.001151 0.000000
# 4 0.000000 0.000000 0.000000 0.065714 0.000000 -0.037922
# 5 -0.003346 -0.005306 -0.001151 0.000000 0.042037 0.000000
# 6 0.000000 0.000000 0.000000 -0.037922 0.000000 0.074424
#
#
# Mechanical properties :
#
#
# Convention : Reuss Voigt Hill
#
# Bulk Modulus (GPa) = 40.06082 48.46828 44.26455
# Shear Modulus (GPa) = 18.09090 22.56156 20.32623
#
# Velocity S-wave (km/s) = 3.19703 3.57027 3.38879
# Velocity P-wave (km/s) = 6.02175 6.66178 6.34984
#
# Compressibility (1/GPa) = 0.02496205
#
# Stress axis : x y z
#
# Youngs Moduli (GPa) = 41.35858 58.49154 70.67657
#
# Poissons Ratio (x) = 0.36747 0.25394
# Poissons Ratio (y) = 0.25983 0.37852
# Poissons Ratio (z) = 0.14860 0.31326
#
# Static dielectric constant tensor:
#      x y z
#    x 3.122520 0.000000 0.012570 
#    y 0.000000 3.091050 0.000000 
#    z 0.012570 0.000000 3.208350 
# 
# 
# High freq. dielectric constant tensor:
#      x y z
#    x 1.666090 0.000000 0.007010 
#    y 0.000000 1.669300 0.000000 
#    z 0.007010 0.000000 1.674580 
# 
# From -- ./inp_files/181932.got.cif
#   From: 2010.06.25/outbox.cif.g09.slc.cpg/sg12_91_cif.got.tgz:181932.got - 2010.06.28 00:19:55.
