data_PCOD8082287
_publ_section_title
;
Structure prediction by ZEFSAII (Michael W. Deem and Ramdas Pophale) SiO2 
 PCOD8082287
Probable space group: C 2/M
;
_chemical_formula_sum "Si O2"
_cell_formula_units_Z 64
_cell_length_a 28.068175
_cell_length_b 8.890428
_cell_length_c 14.043588
_cell_angle_alpha 90.000000
_cell_angle_beta 106.290356
_cell_angle_gamma 90.000000
_cell_volume 3363.716877
_symmetry_space_group_name_H-M "C 2/M"
_symmetry_group_IT_number 12
_symmetry_cell_setting 'monoclinic'
loop_
_space_group_symop_operation_xyz
x,y,z
-x,y,-z
-x,-y,-z
x,-y,z
1/2+x,1/2+y,z
1/2-x,1/2+y,-z
1/2-x,1/2-y,-z
1/2+x,1/2-y,z
loop_
_atom_site_type_symbol
_atom_site_label
_atom_site_fract_x
_atom_site_fract_y
_atom_site_fract_z
Si Si1 0.589922 0.821175 0.643658
Si Si2 0.896991 0.320796 0.561573
Si Si3 0.533632 0.820382 0.933272
Si Si4 0.144932 0.321564 0.005543
Si Si5 0.707024 0.178510 0.413399
Si Si6 0.502706 0.820758 0.289985
Si Si7 0.318976 0.178219 0.177514
Si Si8 0.779137 0.678056 0.795107
O O1 0.597567 0.756074 0.542092
O O2 0.538019 0.761270 0.657314
O O3 0.634540 0.764177 0.734857
O O4 0.589288 0.000000 0.640736
O O5 0.897366 0.500000 0.560270
O O6 0.845848 0.261648 0.578194
O O7 0.943112 0.260096 0.649889
O O8 0.589216 0.755838 0.977511
O O9 0.510658 0.758879 0.821987
O O10 0.534424 0.000000 0.933294
O O11 0.500000 0.758069 0.000000
O O12 0.141607 0.500000 0.001578
O O13 0.173046 0.266121 0.926203
O O14 0.174753 0.265043 0.114898
O O15 0.750000 0.250000 0.500000
O O16 0.712330 0.233139 0.307715
O O17 0.710727 0.000000 0.423937
O O18 0.502212 0.000000 0.288906
O O19 0.270419 0.252161 0.192061
O O20 0.313430 0.000000 0.180547
O O21 0.774526 0.500000 0.797761
#
# Coordination Sequence:
#
# PCOD8082287 Si02
#       8
#     8   8   8   8   8   8   8   8
#     4   9  15  25  41  64  91 120 153 193 238 281
#     4   9  17  26  41  63  91 123 154 192 238 285
#     4   9  16  24  39  62  93 129 157 185 234 297
#     4   9  17  30  45  67  98 130 162 198 241 289
#     4  10  21  36  51  71  98 129 164 200 241 289
#     4   9  15  24  38  62  92 120 151 189 236 285
#     4  10  18  31  51  71  96 130 167 202 237 285
#     4  10  21  33  48  70  99 129 161 204 247 284
#
# _framework density 19.026572000000002
#
# number of rings (size 3 to 8) (size 9 to 14) (size 15 to 20)
#    0.000    2.625    1.250    1.500    1.750    3.000 
#    0.000    0.000    0.000    0.000    0.000    0.875 
#    0.000    6.000    0.000    0.000    0.000    0.000 
#
# Total GULP energy -396750.015227 kJ/mol
# GULP energy per Si atom -12398.437976 kJ/mol
# Density = 1.898327 g / cm^3
# Si number density = 19.026572 Si / 1000 Ang^3
#
#
#
# Elastic Constant Matrix: (Units=GPa)
#
#
# Indices 1 2 3 4 5 6 
#
# 1 197.5195 14.1981 119.1872 0.0000 -1.8475 0.0000
# 2 14.1981 4.2250 15.6516 0.0000 0.6954 0.0000
# 3 119.1872 15.6516 201.4557 0.0000 0.2868 0.0000
# 4 0.0000 0.0000 0.0000 12.9970 0.0000 -0.0021
# 5 -1.8475 0.6954 0.2868 0.0000 44.8223 0.0000
# 6 0.0000 0.0000 0.0000 -0.0021 0.0000 19.7921
#
#
#
# Elastic Compliance Matrix: (Units=1/GPa)
#
#
# Indices 1 2 3 4 5 6 
#
# 1 0.008426 -0.013959 -0.003901 0.000000 0.000589 0.000000
# 2 -0.013959 0.356581 -0.019436 0.000000 -0.005983 0.000000
# 3 -0.003901 -0.019436 0.008782 0.000000 0.000085 0.000000
# 4 0.000000 0.000000 0.000000 0.076941 0.000000 0.000008
# 5 0.000589 -0.005983 0.000085 0.000000 0.022427 0.000000
# 6 0.000000 0.000000 0.000000 0.000008 0.000000 0.050525
#
#
# Mechanical properties :
#
#
# Convention : Reuss Voigt Hill
#
# Bulk Modulus (GPa) = 3.34230 77.91935 40.63083
# Shear Modulus (GPa) = 7.16325 32.46650 19.81487
#
# Velocity S-wave (km/s) = 1.94243 4.13531 3.23062
# Velocity P-wave (km/s) = 2.60599 7.99017 5.94281
#
# Compressibility (1/GPa) = 0.29919476
#
# Stress axis : x y z
#
# Youngs Moduli (GPa) = 118.68253 2.80441 113.87037
#
# Poissons Ratio (x) = 0.03915 0.44424
# Poissons Ratio (y) = 1.65675 2.21322
# Poissons Ratio (z) = 0.46301 0.05451
#
# Static dielectric constant tensor:
#      x y z
#    x 3.726120 0.000000 0.025400 
#    y 0.000000 2.751380 0.000000 
#    z 0.025400 0.000000 3.864490 
# 
# 
# High freq. dielectric constant tensor:
#      x y z
#    x 1.757820 0.000000 0.001020 
#    y 0.000000 1.657220 0.000000 
#    z 0.001020 0.000000 1.759960 
# 
# From -- ./inp_files/174719.got.cif
#   From: 2010.06.25/outbox.cif.g09.slc.cpg/sg12_88_cif.got.tgz:174719.got - 2010.06.28 00:19:55.
