data_PCOD8082772
_publ_section_title
;
Structure prediction by ZEFSAII (Michael W. Deem and Ramdas Pophale) SiO2 
 PCOD8082772
Probable space group: C 2/M
;
_chemical_formula_sum "Si O2"
_cell_formula_units_Z 64
_cell_length_a 21.979202
_cell_length_b 11.778424
_cell_length_c 17.083838
_cell_angle_alpha 90.000000
_cell_angle_beta 50.476342
_cell_angle_gamma 90.000000
_cell_volume 3411.479128
_symmetry_space_group_name_H-M "C 2/M"
_symmetry_group_IT_number 12
_symmetry_cell_setting 'monoclinic'
loop_
_space_group_symop_operation_xyz
x,y,z
-x,y,-z
-x,-y,-z
x,-y,z
1/2+x,1/2+y,z
1/2-x,1/2+y,-z
1/2-x,1/2-y,-z
1/2+x,1/2-y,z
loop_
_atom_site_type_symbol
_atom_site_label
_atom_site_fract_x
_atom_site_fract_y
_atom_site_fract_z
Si Si1 0.968798 0.374354 0.357827
Si Si2 0.851058 0.629372 0.584818
Si Si3 0.692069 0.629546 0.934087
Si Si4 0.726843 0.371827 0.558934
Si Si5 0.639249 0.193209 0.252681
Si Si6 0.387794 0.374542 0.848018
Si Si7 0.582615 0.629673 0.889786
Si Si8 0.439831 0.311057 0.260536
O O1 0.935745 0.500000 0.371496
O O2 0.919795 0.322528 0.471220
O O3 0.950202 0.310452 0.292849
O O4 0.061336 0.380120 0.300422
O O5 0.869650 0.500000 0.596026
O O6 0.766400 0.635917 0.612141
O O7 0.848340 0.707221 0.664496
O O8 0.662699 0.500000 0.961485
O O9 0.785881 0.634522 0.849249
O O10 0.649288 0.682887 0.892831
O O11 0.660447 0.686260 0.040960
O O12 0.751107 0.500000 0.503323
O O13 0.750000 0.250000 0.500000
O O14 0.632748 0.377707 0.641342
O O15 0.627321 0.314741 0.222375
O O16 0.354379 0.500000 0.862899
O O17 0.480255 0.381582 0.792836
O O18 0.603054 0.500000 0.848063
O O19 0.578153 0.707602 0.816335
O O20 0.500000 0.634573 0.000000
#
# Coordination Sequence:
#
# PCOD8082772 Si02
#       8
#     8   8   8   8   8   8   8   8
#     4  10  21  36  56  80 110 147 187 230 276 329
#     4  10  20  37  57  80 110 140 184 237 279 320
#     4  10  19  33  54  82 110 137 180 232 277 323
#     4  11  22  37  59  86 115 146 186 234 283 338
#     4  11  21  33  56  82 107 144 188 230 278 324
#     4  10  21  36  53  77 113 148 180 223 274 336
#     4  10  18  31  55  84 110 137 176 226 277 325
#     4  11  20  34  58  83 111 146 182 223 281 341
#
# _framework density 18.760190000000001
#
# number of rings (size 3 to 8) (size 9 to 14) (size 15 to 20)
#    0.000    1.625    2.500    3.750    0.000    3.000 
#    0.000    0.625    0.000    4.125    0.000    0.000 
#    0.000    0.000    0.000    0.000    0.000    0.000 
#
# Total GULP energy -396519.806547 kJ/mol
# GULP energy per Si atom -12391.243955 kJ/mol
# Density = 1.871749 g / cm^3
# Si number density = 18.760190 Si / 1000 Ang^3
#
#
#
# Elastic Constant Matrix: (Units=GPa)
#
#
# Indices 1 2 3 4 5 6 
#
# 1 108.1834 34.0353 52.2648 0.0000 2.8936 0.0000
# 2 34.0353 73.4328 36.0373 0.0000 19.0053 0.0000
# 3 52.2648 36.0373 117.5308 0.0000 0.7304 0.0000
# 4 0.0000 0.0000 0.0000 23.8039 0.0000 2.2915
# 5 2.8936 19.0053 0.7304 0.0000 45.5497 0.0000
# 6 0.0000 0.0000 0.0000 2.2915 0.0000 14.7347
#
#
#
# Elastic Compliance Matrix: (Units=1/GPa)
#
#
# Indices 1 2 3 4 5 6 
#
# 1 0.012573 -0.003900 -0.004401 0.000000 0.000899 0.000000
# 2 -0.003900 0.019512 -0.004200 0.000000 -0.007826 0.000000
# 3 -0.004401 -0.004200 0.011742 0.000000 0.001844 0.000000
# 4 0.000000 0.000000 0.000000 0.042648 0.000000 -0.006632
# 5 0.000899 -0.007826 0.001844 0.000000 0.025133 0.000000
# 6 0.000000 0.000000 0.000000 -0.006632 0.000000 0.068898
#
#
# Mechanical properties :
#
#
# Convention : Reuss Voigt Hill
#
# Bulk Modulus (GPa) = 53.12092 60.42465 56.77278
# Shear Modulus (GPa) = 23.60913 28.60494 26.10704
#
# Velocity S-wave (km/s) = 3.55134 3.90906 3.73449
# Velocity P-wave (km/s) = 6.72259 7.25626 6.99452
#
# Compressibility (1/GPa) = 0.01882498
#
# Stress axis : x y z
#
# Youngs Moduli (GPa) = 79.53817 51.24985 85.16758
#
# Poissons Ratio (x) = 0.19990 0.37478
# Poissons Ratio (y) = 0.31023 0.35768
# Poissons Ratio (z) = 0.35001 0.21524
#
# Static dielectric constant tensor:
#      x y z
#    x 3.575270 0.000000 -0.051390 
#    y 0.000000 3.230660 0.000000 
#    z -0.051390 0.000000 3.619330 
# 
# 
# High freq. dielectric constant tensor:
#      x y z
#    x 1.738370 0.000000 -0.013050 
#    y 0.000000 1.686830 0.000000 
#    z -0.013050 0.000000 1.739070 
# 
# From -- ./inp_files/283292.got.cif
#   From: 2010.06.25/outbox.cif.g09.slc.cpg/sg12_142_cif.got.tgz:283292.got - 2010.06.28 00:19:55.
