data_PCOD8082718
_publ_section_title
;
Structure prediction by ZEFSAII (Michael W. Deem and Ramdas Pophale) SiO2 
 PCOD8082718
Probable space group: C 2/M
;
_chemical_formula_sum "Si O2"
_cell_formula_units_Z 60
_cell_length_a 22.623108
_cell_length_b 12.984401
_cell_length_c 17.272834
_cell_angle_alpha 90.000000
_cell_angle_beta 40.015035
_cell_angle_gamma 90.000000
_cell_volume 3262.428965
_symmetry_space_group_name_H-M "C 2/M"
_symmetry_group_IT_number 12
_symmetry_cell_setting 'monoclinic'
loop_
_space_group_symop_operation_xyz
x,y,z
-x,y,-z
-x,-y,-z
x,-y,z
1/2+x,1/2+y,z
1/2-x,1/2+y,-z
1/2-x,1/2-y,-z
1/2+x,1/2-y,z
loop_
_atom_site_type_symbol
_atom_site_label
_atom_site_fract_x
_atom_site_fract_y
_atom_site_fract_z
Si Si1 0.155687 0.378729 0.100063
Si Si2 0.500000 0.825860 0.000000
Si Si3 0.510421 0.380845 0.405409
Si Si4 0.517303 0.775176 0.811043
Si Si5 0.398963 0.621199 0.376243
Si Si6 0.299352 0.885143 0.200260
Si Si7 0.199747 0.801379 0.161855
Si Si8 0.206277 0.379152 0.621419
O O1 0.140820 0.500000 0.133129
O O2 0.171873 0.314774 0.163547
O O3 0.069380 0.333471 0.139068
O O4 0.247300 0.363102 0.958181
O O5 0.493873 0.759386 0.085413
O O6 0.409810 0.895973 0.085022
O O7 0.500000 0.326229 0.500000
O O8 0.487960 0.500000 0.438069
O O9 0.436381 0.333843 0.420260
O O10 0.610422 0.366576 0.269938
O O11 0.535330 0.662447 0.758066
O O12 0.609434 0.834276 0.691495
O O13 0.410154 0.500000 0.361029
O O14 0.290890 0.653577 0.480060
O O15 0.262710 0.800740 0.175877
O O16 0.269285 0.845696 0.315010
O O17 0.259833 0.000000 0.221998
O O18 0.193267 0.500000 0.633786
#
# Coordination Sequence:
#
# PCOD8082718 Si02
#       8
#     8   4   8   8   8   8   8   8
#     4  11  23  37  56  81 112 146 187 228 275 336
#     4  10  21  32  53  80 112 140 183 224 275 328
#     4  10  19  32  54  84 114 143 180 228 277 326
#     4  11  20  37  55  81 111 149 183 228 280 329
#     4  10  20  35  53  80 112 145 187 230 275 330
#     4  10  18  31  54  83 113 140 171 224 284 333
#     4  11  21  35  54  82 112 146 182 221 282 327
#     4   9  19  33  56  86 111 139 182 232 284 328
#
# _framework density 18.391204999999999
#
# number of rings (size 3 to 8) (size 9 to 14) (size 15 to 20)
#    0.000    1.733    2.667    3.000    0.000    3.200 
#    0.000    0.333    0.000    3.600    0.000    0.000 
#    0.000    0.000    0.000    0.000    0.000    0.000 
#
# Total GULP energy -371757.437621 kJ/mol
# GULP energy per Si atom -12391.914587 kJ/mol
# Density = 1.834935 g / cm^3
# Si number density = 18.391205 Si / 1000 Ang^3
#
#
#
# Elastic Constant Matrix: (Units=GPa)
#
#
# Indices 1 2 3 4 5 6 
#
# 1 96.5380 41.9127 31.8943 0.0000 -5.8657 0.0000
# 2 41.9127 57.3610 28.0225 0.0000 7.1011 0.0000
# 3 31.8943 28.0225 90.8099 0.0000 -1.5148 0.0000
# 4 0.0000 0.0000 0.0000 23.0941 0.0000 -2.1789
# 5 -5.8657 7.1011 -1.5148 0.0000 28.1993 0.0000
# 6 0.0000 0.0000 0.0000 -2.1789 0.0000 22.0273
#
#
#
# Elastic Compliance Matrix: (Units=1/GPa)
#
#
# Indices 1 2 3 4 5 6 
#
# 1 0.016589 -0.011906 -0.002047 0.000000 0.006339 0.000000
# 2 -0.011906 0.029968 -0.005238 0.000000 -0.010304 0.000000
# 3 -0.002047 -0.005238 0.013374 0.000000 0.001612 0.000000
# 4 0.000000 0.000000 0.000000 0.043709 0.000000 0.004324
# 5 0.006339 -0.010304 0.001612 0.000000 0.039462 0.000000
# 6 0.000000 0.000000 0.000000 0.004324 0.000000 0.045826
#
#
# Mechanical properties :
#
#
# Convention : Reuss Voigt Hill
#
# Bulk Modulus (GPa) = 46.40477 49.81867 48.11172
# Shear Modulus (GPa) = 21.32270 24.18943 22.75606
#
# Velocity S-wave (km/s) = 3.40868 3.63060 3.52139
# Velocity P-wave (km/s) = 6.38584 6.68746 6.53839
#
# Compressibility (1/GPa) = 0.02154951
#
# Stress axis : x y z
#
# Youngs Moduli (GPa) = 60.28035 33.36938 74.77213
#
# Poissons Ratio (x) = 0.39731 0.15303
# Poissons Ratio (y) = 0.71772 0.39163
# Poissons Ratio (z) = 0.12337 0.17478
#
# Static dielectric constant tensor:
#      x y z
#    x 3.704380 0.000000 0.004500 
#    y 0.000000 3.100270 0.000000 
#    z 0.004500 0.000000 3.704330 
# 
# 
# High freq. dielectric constant tensor:
#      x y z
#    x 1.720350 0.000000 -0.013660 
#    y 0.000000 1.672320 0.000000 
#    z -0.013660 0.000000 1.727130 
# 
# From -- ./inp_files/289371.got.cif
#   From: 2010.06.25/outbox.cif.g09.slc.cpg/sg12_145_cif.got.tgz:289371.got - 2010.06.28 00:19:55.
