data_PCOD8082505
_publ_section_title
;
Structure prediction by ZEFSAII (Michael W. Deem and Ramdas Pophale) SiO2 
 PCOD8082505
Probable space group: C 2/M
;
_chemical_formula_sum "Si O2"
_cell_formula_units_Z 56
_cell_length_a 21.379275
_cell_length_b 17.993062
_cell_length_c 22.032192
_cell_angle_alpha 90.000000
_cell_angle_beta 159.231743
_cell_angle_gamma 90.000000
_cell_volume 3005.252808
_symmetry_space_group_name_H-M "C 2/M"
_symmetry_group_IT_number 12
_symmetry_cell_setting 'monoclinic'
loop_
_space_group_symop_operation_xyz
x,y,z
-x,y,-z
-x,-y,-z
x,-y,z
1/2+x,1/2+y,z
1/2-x,1/2+y,-z
1/2-x,1/2-y,-z
1/2+x,1/2-y,z
loop_
_atom_site_type_symbol
_atom_site_label
_atom_site_fract_x
_atom_site_fract_y
_atom_site_fract_z
Si Si1 0.954712 0.663642 0.843830
Si Si2 0.818044 0.913092 0.197043
Si Si3 0.288236 0.413236 0.959512
Si Si4 0.113545 0.798593 0.046346
Si Si5 0.915719 0.587114 0.684279
Si Si6 0.549407 0.412798 0.298920
Si Si7 0.171686 0.181019 0.686267
O O1 0.886185 0.641847 0.714760
O O2 0.806952 0.648319 0.760074
O O3 0.117432 0.610639 0.005686
O O4 0.004164 0.751123 0.896585
O O5 0.887122 0.888060 0.325358
O O6 0.943297 0.876869 0.259060
O O7 0.830099 0.000000 0.203443
O O8 0.299280 0.500000 0.953554
O O9 0.294894 0.368445 0.902666
O O10 0.104218 0.394937 0.825804
O O11 0.455428 0.385633 0.151617
O O12 0.257327 0.744162 0.204960
O O13 0.000000 0.829136 0.000000
O O14 0.904967 0.500000 0.694025
O O15 0.758166 0.606376 0.493460
O O16 0.520478 0.500000 0.274759
O O17 0.000000 0.216066 0.500000
#
# Coordination Sequence:
#
# PCOD8082505 Si02
#       7
#     8   8   8   8   8   8   8
#     4  10  19  34  54  75 110 152 180 220 268 315
#     4  10  18  31  52  78 110 149 188 221 260 312
#     4  10  20  38  61  81 108 140 175 227 281 325
#     4   9  21  40  57  77 105 141 183 225 273 327
#     4  10  19  33  55  84 115 145 180 219 266 320
#     4   9  18  33  53  81 114 142 175 224 270 317
#     4  10  21  36  52  74 111 147 185 228 268 313
#
# _framework density 18.634039000000001
#
# number of rings (size 3 to 8) (size 9 to 14) (size 15 to 20)
#    0.000    2.286    1.429    2.571    0.000    2.857 
#    5.143    0.714    0.000    0.429    0.000    0.000 
#    0.000    0.000    0.000    0.000    0.000    0.000 
#
# Total GULP energy -347031.647704 kJ/mol
# GULP energy per Si atom -12393.987418 kJ/mol
# Density = 1.859163 g / cm^3
# Si number density = 18.634039 Si / 1000 Ang^3
#
#
#
# Elastic Constant Matrix: (Units=GPa)
#
#
# Indices 1 2 3 4 5 6 
#
# 1 103.5827 53.4802 38.3477 -0.0642 -3.1143 0.0032
# 2 53.4802 55.8643 22.6588 -0.2327 0.9560 -0.0561
# 3 38.3477 22.6588 119.8376 -0.2663 -2.4864 -0.0618
# 4 -0.0642 -0.2327 -0.2663 8.4310 -0.3288 -2.3656
# 5 -3.1143 0.9560 -2.4864 -0.3288 12.2633 -0.0621
# 6 0.0032 -0.0561 -0.0618 -2.3656 -0.0621 36.0712
#
#
#
# Elastic Compliance Matrix: (Units=1/GPa)
#
#
# Indices 1 2 3 4 5 6 
#
# 1 0.020486 -0.018529 -0.002927 -0.000223 0.006047 -0.000040
# 2 -0.018529 0.036210 -0.001076 0.000545 -0.007732 0.000078
# 3 -0.002927 -0.001076 0.009512 0.000309 0.001278 0.000037
# 4 -0.000223 0.000545 0.000309 0.120988 0.003247 0.007942
# 5 0.006047 -0.007732 0.001278 0.003247 0.084030 0.000347
# 6 -0.000040 0.000078 0.000037 0.007942 0.000347 0.028245
#
#
# Mechanical properties :
#
#
# Convention : Reuss Voigt Hill
#
# Bulk Modulus (GPa) = 47.29696 56.47310 51.88503
# Shear Modulus (GPa) = 14.22133 22.33963 18.28048
#
# Velocity S-wave (km/s) = 2.76559 3.46621 3.13553
# Velocity P-wave (km/s) = 5.96951 6.81115 6.40417
#
# Compressibility (1/GPa) = 0.02114301
#
# Stress axis : x y z
#
# Youngs Moduli (GPa) = 48.81367 27.61659 105.12989
#
# Poissons Ratio (x) = 0.51171 0.30772
# Poissons Ratio (y) = 0.90447 0.11317
# Poissons Ratio (z) = 0.14288 0.02973
#
# Static dielectric constant tensor:
#      x y z
#    x 3.506350 -0.000090 -0.081910 
#    y -0.000090 3.145160 -0.000150 
#    z -0.081910 -0.000150 3.630360 
# 
# 
# High freq. dielectric constant tensor:
#      x y z
#    x 1.720600 -0.000010 0.003000 
#    y -0.000010 1.694520 -0.000010 
#    z 0.003000 -0.000010 1.728980 
# 
# From -- ./inp_files/322655.got.cif
#   From: 2010.06.25/outbox.cif.g09.slc.cpg/sg12_162_cif.got.tgz:322655.got - 2010.06.28 00:19:55.
