data_PCOD8082146
_publ_section_title
;
Structure prediction by ZEFSAII (Michael W. Deem and Ramdas Pophale) SiO2 
 PCOD8082146
Probable space group: C 2/M
;
_chemical_formula_sum "Si O2"
_cell_formula_units_Z 60
_cell_length_a 28.267420
_cell_length_b 12.457191
_cell_length_c 12.108848
_cell_angle_alpha 90.000000
_cell_angle_beta 58.904989
_cell_angle_gamma 90.000000
_cell_volume 3651.246741
_symmetry_space_group_name_H-M "C 2/M"
_symmetry_group_IT_number 12
_symmetry_cell_setting 'monoclinic'
loop_
_space_group_symop_operation_xyz
x,y,z
-x,y,-z
-x,-y,-z
x,-y,z
1/2+x,1/2+y,z
1/2-x,1/2+y,-z
1/2-x,1/2-y,-z
1/2+x,1/2-y,z
loop_
_atom_site_type_symbol
_atom_site_label
_atom_site_fract_x
_atom_site_fract_y
_atom_site_fract_z
Si Si1 0.327757 0.756171 0.313601
Si Si2 0.020445 0.762148 0.593699
Si Si3 0.500000 0.257815 0.000000
Si Si4 0.378296 0.875943 0.601273
Si Si5 0.567489 0.624828 0.736718
Si Si6 0.419544 0.122155 0.783982
Si Si7 0.396139 0.124383 0.054900
Si Si8 0.279239 0.125923 0.574961
O O1 0.375851 0.689585 0.315633
O O2 0.347996 0.818157 0.180741
O O3 0.303277 0.843120 0.426931
O O4 0.279974 0.677340 0.330206
O O5 0.069366 0.678410 0.517929
O O6 0.042922 0.857909 0.643364
O O7 0.000000 0.808655 0.500000
O O8 0.971591 0.701079 0.716203
O O9 0.477746 0.335458 0.121866
O O10 0.454145 0.178801 0.009189
O O11 0.377731 0.854595 0.733338
O O12 0.321143 0.832116 0.619294
O O13 0.384353 0.000000 0.563989
O O14 0.579731 0.500000 0.739419
O O15 0.442115 0.000000 0.749854
O O16 0.384779 0.139266 0.937959
O O17 0.398845 0.000000 0.085903
O O18 0.270884 0.000000 0.589533
#
# Coordination Sequence:
#
# PCOD8082146 Si02
#       8
#     8   8   4   8   8   8   8   8
#     4  10  21  34  49  74 102 127 163 205 253 291
#     4  10  18  31  49  74 104 132 162 201 242 291
#     4  10  20  34  48  72 100 134 166 198 238 294
#     4   9  17  30  51  77 101 128 162 200 246 294
#     4  11  21  34  49  70  99 136 170 201 242 292
#     4   9  17  30  50  76 105 131 156 195 248 299
#     4  10  19  32  51  75 102 129 160 200 247 295
#     4  10  19  34  54  73  95 127 166 207 247 294
#
# _framework density 16.432742000000001
#
# number of rings (size 3 to 8) (size 9 to 14) (size 15 to 20)
#    0.000    2.133    2.667    1.600    0.000    1.867 
#    0.000    0.667    0.000    0.000    0.000    0.000 
#    0.000    0.000    0.000    0.000    0.000    0.000 
#
# Total GULP energy -371981.592134 kJ/mol
# GULP energy per Si atom -12399.386404 kJ/mol
# Density = 1.639534 g / cm^3
# Si number density = 16.432742 Si / 1000 Ang^3
#
#
#
# Elastic Constant Matrix: (Units=GPa)
#
#
# Indices 1 2 3 4 5 6 
#
# 1 86.4977 15.3505 31.9056 0.0000 6.8065 0.0000
# 2 15.3505 50.1579 21.3834 0.0000 6.1391 0.0000
# 3 31.9056 21.3834 81.9350 0.0000 6.9033 0.0000
# 4 0.0000 0.0000 0.0000 19.7892 0.0000 1.5364
# 5 6.8065 6.1391 6.9033 0.0000 23.7376 0.0000
# 6 0.0000 0.0000 0.0000 1.5364 0.0000 23.7976
#
#
#
# Elastic Compliance Matrix: (Units=1/GPa)
#
#
# Indices 1 2 3 4 5 6 
#
# 1 0.013803 -0.001972 -0.004685 0.000000 -0.002086 0.000000
# 2 -0.001972 0.023131 -0.004933 0.000000 -0.003982 0.000000
# 3 -0.004685 -0.004933 0.015475 0.000000 -0.001881 0.000000
# 4 0.000000 0.000000 0.000000 0.050787 0.000000 -0.003279
# 5 -0.002086 -0.003982 -0.001881 0.000000 0.044302 0.000000
# 6 0.000000 0.000000 0.000000 -0.003279 0.000000 0.042233
#
#
# Mechanical properties :
#
#
# Convention : Reuss Voigt Hill
#
# Bulk Modulus (GPa) = 34.21214 39.54106 36.87660
# Shear Modulus (GPa) = 22.45636 23.46163 22.95900
#
# Velocity S-wave (km/s) = 3.70071 3.78264 3.74190
# Velocity P-wave (km/s) = 6.25500 6.57209 6.41551
#
# Compressibility (1/GPa) = 0.02922939
#
# Stress axis : x y z
#
# Youngs Moduli (GPa) = 72.44788 43.23178 64.62044
#
# Poissons Ratio (x) = 0.08525 0.30272
# Poissons Ratio (y) = 0.14286 0.31880
# Poissons Ratio (z) = 0.33939 0.21328
#
# Static dielectric constant tensor:
#      x y z
#    x 3.225390 0.000000 0.142730 
#    y 0.000000 2.950700 0.000000 
#    z 0.142730 0.000000 3.163110 
# 
# 
# High freq. dielectric constant tensor:
#      x y z
#    x 1.632990 0.000000 0.009330 
#    y 0.000000 1.623160 0.000000 
#    z 0.009330 0.000000 1.633260 
# 
# From -- ./inp_files/182531.got.cif
#   From: 2010.06.25/outbox.cif.g09.slc.cpg/sg12_92_cif.got.tgz:182531.got - 2010.06.28 00:19:55.
