data_PCOD8082454
_publ_section_title
;
Structure prediction by ZEFSAII (Michael W. Deem and Ramdas Pophale) SiO2 
 PCOD8082454
Probable space group: C 2/M
;
_chemical_formula_sum "Si O2"
_cell_formula_units_Z 64
_cell_length_a 17.382268
_cell_length_b 17.906221
_cell_length_c 21.938859
_cell_angle_alpha 90.000000
_cell_angle_beta 148.008135
_cell_angle_gamma 90.000000
_cell_volume 3617.723999
_symmetry_space_group_name_H-M "C 2/M"
_symmetry_group_IT_number 12
_symmetry_cell_setting 'monoclinic'
loop_
_space_group_symop_operation_xyz
x,y,z
-x,y,-z
-x,-y,-z
x,-y,z
1/2+x,1/2+y,z
1/2-x,1/2+y,-z
1/2-x,1/2-y,-z
1/2+x,1/2-y,z
loop_
_atom_site_type_symbol
_atom_site_label
_atom_site_fract_x
_atom_site_fract_y
_atom_site_fract_z
Si Si1 0.192109 0.210024 0.820737
Si Si2 0.120803 0.798693 0.438316
Si Si3 0.655566 0.284004 0.185774
Si Si4 0.349885 0.789264 0.428442
Si Si5 0.318070 0.415184 0.612541
Si Si6 0.860566 0.084962 0.131884
Si Si7 0.828958 0.919819 0.878937
Si Si8 0.673164 0.674429 0.011297
O O1 0.309745 0.226030 0.846256
O O2 0.199454 0.122865 0.846076
O O3 0.217998 0.257345 0.900699
O O4 0.032336 0.231293 0.689838
O O5 0.250000 0.750000 0.500000
O O6 0.122576 0.785331 0.512215
O O7 0.148008 0.883735 0.433190
O O8 0.735057 0.261375 0.301089
O O9 0.716708 0.365003 0.206416
O O10 0.484799 0.290078 0.082009
O O11 0.500000 0.815370 0.500000
O O12 0.294802 0.860879 0.429517
O O13 0.257723 0.500000 0.566377
O O14 0.464748 0.415180 0.751080
O O15 0.801477 0.000000 0.087317
O O16 0.806924 0.136758 0.040513
O O17 0.776206 0.889584 0.908051
O O18 0.756943 0.000000 0.816829
O O19 0.000000 0.927099 0.000000
#
# Coordination Sequence:
#
# PCOD8082454 Si02
#       8
#     8   8   8   8   8   8   8   8
#     4  10  19  33  51  77 103 133 172 211 254 305
#     4   9  19  34  53  72 100 139 173 207 250 296
#     4  10  19  31  49  76 104 132 169 206 256 302
#     4  11  19  32  53  76 104 134 169 213 253 306
#     4   9  19  34  52  74 101 134 171 210 255 304
#     4  10  19  32  52  76 102 133 170 214 256 301
#     4   8  15  26  42  66  99 131 156 192 244 300
#     4  10  18  31  52  77 100 127 171 214 255 300
#
# _framework density 17.690681000000001
#
# number of rings (size 3 to 8) (size 9 to 14) (size 15 to 20)
#    0.000    2.375    2.500    1.875    0.000    1.250 
#    0.000    0.000    0.000    3.375    0.000    0.000 
#    0.000    0.000    0.000    0.000    0.000    0.000 
#
# Total GULP energy -396428.035008 kJ/mol
# GULP energy per Si atom -12388.376094 kJ/mol
# Density = 1.765042 g / cm^3
# Si number density = 17.690681 Si / 1000 Ang^3
#
#
#
# Elastic Constant Matrix: (Units=GPa)
#
#
# Indices 1 2 3 4 5 6 
#
# 1 72.0909 49.9389 30.0474 0.0061 -13.0663 0.0007
# 2 49.9389 83.8957 27.9498 0.0108 -18.0721 0.0030
# 3 30.0474 27.9498 80.4287 0.0154 -22.2356 0.0040
# 4 0.0061 0.0108 0.0154 17.9058 0.0082 1.3925
# 5 -13.0663 -18.0721 -22.2356 0.0082 24.4803 0.0012
# 6 0.0007 0.0030 0.0040 1.3925 0.0012 20.8181
#
#
#
# Elastic Compliance Matrix: (Units=1/GPa)
#
#
# Indices 1 2 3 4 5 6 
#
# 1 0.025124 -0.013532 -0.004991 0.000004 -0.001114 0.000002
# 2 -0.013532 0.021920 -0.000114 -0.000012 0.008856 -0.000002
# 3 -0.004991 -0.000114 0.018131 -0.000020 0.013720 -0.000003
# 4 0.000004 -0.000012 -0.000020 0.056140 -0.000044 -0.003755
# 5 -0.001114 0.008856 0.013720 -0.000044 0.059255 -0.000004
# 6 0.000002 -0.000002 -0.000003 -0.003755 -0.000004 0.048286
#
#
# Mechanical properties :
#
#
# Convention : Reuss Voigt Hill
#
# Bulk Modulus (GPa) = 35.84146 50.25417 43.04781
# Shear Modulus (GPa) = 18.15345 21.20611 19.67978
#
# Velocity S-wave (km/s) = 3.20685 3.46600 3.33894
# Velocity P-wave (km/s) = 5.83231 6.66981 6.26507
#
# Compressibility (1/GPa) = 0.02790065
#
# Stress axis : x y z
#
# Youngs Moduli (GPa) = 39.80293 45.62040 55.15497
#
# Poissons Ratio (x) = 0.61733 0.27530
# Poissons Ratio (y) = 0.53861 0.00627
# Poissons Ratio (z) = 0.19867 0.00518
#
# Static dielectric constant tensor:
#      x y z
#    x 3.382140 0.000000 -0.321620 
#    y 0.000000 3.505090 -0.000010 
#    z -0.321620 -0.000010 3.565950 
# 
# 
# High freq. dielectric constant tensor:
#      x y z
#    x 1.673510 0.000000 -0.012790 
#    y 0.000000 1.667300 0.000000 
#    z -0.012790 0.000000 1.678670 
# 
# From -- ./inp_files/317374.got.cif
#   From: 2010.06.25/outbox.cif.g09.slc.cpg/sg12_159_cif.got.tgz:317374.got - 2010.06.28 00:19:55.
