data_PCOD8082050
_publ_section_title
;
Structure prediction by ZEFSAII (Michael W. Deem and Ramdas Pophale) SiO2 
 PCOD8082050
Probable space group: C 2/M
;
_chemical_formula_sum "Si O2"
_cell_formula_units_Z 64
_cell_length_a 25.705762
_cell_length_b 15.034696
_cell_length_c 18.000084
_cell_angle_alpha 90.000000
_cell_angle_beta 28.505247
_cell_angle_gamma 90.000000
_cell_volume 3319.982610
_symmetry_space_group_name_H-M "C 2/M"
_symmetry_group_IT_number 12
_symmetry_cell_setting 'monoclinic'
loop_
_space_group_symop_operation_xyz
x,y,z
-x,y,-z
-x,-y,-z
x,-y,z
1/2+x,1/2+y,z
1/2-x,1/2+y,-z
1/2-x,1/2-y,-z
1/2+x,1/2-y,z
loop_
_atom_site_type_symbol
_atom_site_label
_atom_site_fract_x
_atom_site_fract_y
_atom_site_fract_z
Si Si1 0.460287 0.599998 0.968935
Si Si2 0.035801 0.229348 0.162328
Si Si3 0.188847 0.101140 0.063448
Si Si4 0.785060 0.648746 0.728804
Si Si5 0.904396 0.900883 0.561690
Si Si6 0.412630 0.095655 0.695149
Si Si7 0.758043 0.676455 0.132174
Si Si8 0.076695 0.732224 0.555992
O O1 0.500798 0.500000 0.898802
O O2 0.328981 0.598117 0.130600
O O3 0.500000 0.629223 0.000000
O O4 0.510213 0.672922 0.849725
O O5 0.101571 0.160556 0.130463
O O6 0.937870 0.269493 0.336086
O O7 0.110152 0.312938 0.040906
O O8 0.205061 0.147267 0.122021
O O9 0.145140 0.000000 0.128710
O O10 0.298634 0.101116 0.880377
O O11 0.884720 0.592451 0.640519
O O12 0.784651 0.727970 0.789140
O O13 0.813172 0.681991 0.609763
O O14 0.784694 0.891459 0.750851
O O15 0.919582 0.834576 0.473959
O O16 0.000000 0.880331 0.500000
O O17 0.913754 0.000000 0.517602
O O18 0.479929 0.180385 0.636659
O O19 0.467504 0.000000 0.646580
#
# Coordination Sequence:
#
# PCOD8082050 Si02
#       8
#     8   8   8   8   8   8   8   8
#     4  10  21  38  60  81  99 128 178 234 280 320
#     4  11  20  33  52  74 103 138 173 219 269 313
#     4  11  19  27  45  74 105 141 181 217 251 298
#     4  10  20  34  52  74 106 145 176 215 265 316
#     4  10  20  31  45  66  98 143 184 215 249 294
#     4  11  20  30  47  76 112 152 184 208 248 312
#     4  10  18  31  47  66 100 140 176 211 253 303
#     4  11  22  34  50  78 114 146 175 210 259 321
#
# _framework density 19.27721
#
# number of rings (size 3 to 8) (size 9 to 14) (size 15 to 20)
#    0.000    1.500    3.750    4.875    0.000    3.500 
#    0.000    0.625    0.000    0.000    0.000    0.000 
#    0.000   93.000    0.000    0.000    0.000    0.000 
#
# Total GULP energy -396495.728441 kJ/mol
# GULP energy per Si atom -12390.491514 kJ/mol
# Density = 1.923333 g / cm^3
# Si number density = 19.277210 Si / 1000 Ang^3
#
#
#
# Elastic Constant Matrix: (Units=GPa)
#
#
# Indices 1 2 3 4 5 6 
#
# 1 58.4685 13.1540 10.2829 0.0000 17.1577 0.0000
# 2 13.1540 69.1218 30.0408 0.0000 7.9908 0.0000
# 3 10.2829 30.0408 93.7208 0.0000 32.6701 0.0000
# 4 0.0000 0.0000 0.0000 16.6125 0.0000 4.4366
# 5 17.1577 7.9908 32.6701 0.0000 18.4674 0.0000
# 6 0.0000 0.0000 0.0000 4.4366 0.0000 17.3740
#
#
#
# Elastic Compliance Matrix: (Units=1/GPa)
#
#
# Indices 1 2 3 4 5 6 
#
# 1 0.036139 -0.009010 0.024178 0.000000 -0.072450 0.000000
# 2 -0.009010 0.019304 -0.013580 0.000000 0.024041 0.000000
# 3 0.024178 -0.013580 0.047355 0.000000 -0.100361 0.000000
# 4 0.000000 0.000000 0.000000 0.064601 0.000000 -0.016497
# 5 -0.072450 0.024041 -0.100361 0.000000 0.288604 0.000000
# 6 0.000000 0.000000 0.000000 -0.016497 0.000000 0.061770
#
#
# Mechanical properties :
#
#
# Convention : Reuss Voigt Hill
#
# Bulk Modulus (GPa) = 9.43616 36.47406 22.95511
# Shear Modulus (GPa) = 9.09223 21.67968 15.38595
#
# Velocity S-wave (km/s) = 2.17412 3.35718 2.82821
# Velocity P-wave (km/s) = 3.34784 5.83005 4.75381
#
# Compressibility (1/GPa) = 0.10597529
#
# Stress axis : x y z
#
# Youngs Moduli (GPa) = 27.67131 51.80196 21.11717
#
# Poissons Ratio (x) = 0.46672 -0.51057
# Poissons Ratio (y) = 0.24931 0.28676
# Poissons Ratio (z) = -0.66904 0.70345
#
# Static dielectric constant tensor:
#      x y z
#    x 3.007940 0.000000 0.252160 
#    y 0.000000 3.851360 0.000000 
#    z 0.252160 0.000000 4.126530 
# 
# 
# High freq. dielectric constant tensor:
#      x y z
#    x 1.675390 0.000000 0.022880 
#    y 0.000000 1.757870 0.000000 
#    z 0.022880 0.000000 1.769390 
# 
# From -- ./inp_files/240693.got.cif
#   From: 2010.06.25/outbox.cif.g09.slc.cpg/sg12_121_cif.got.tgz:240693.got - 2010.06.28 00:19:55.
