data_PCOD8082017
_publ_section_title
;
Structure prediction by ZEFSAII (Michael W. Deem and Ramdas Pophale) SiO2 
 PCOD8082017
Probable space group: C 2/M
;
_chemical_formula_sum "Si O2"
_cell_formula_units_Z 44
_cell_length_a 8.839847
_cell_length_b 22.700767
_cell_length_c 10.854186
_cell_angle_alpha 90.000000
_cell_angle_beta 86.917230
_cell_angle_gamma 90.000000
_cell_volume 2174.971702
_symmetry_space_group_name_H-M "C 2/M"
_symmetry_group_IT_number 12
_symmetry_cell_setting 'monoclinic'
loop_
_space_group_symop_operation_xyz
x,y,z
-x,y,-z
-x,-y,-z
x,-y,z
1/2+x,1/2+y,z
1/2-x,1/2+y,-z
1/2-x,1/2-y,-z
1/2+x,1/2-y,z
loop_
_atom_site_type_symbol
_atom_site_label
_atom_site_fract_x
_atom_site_fract_y
_atom_site_fract_z
Si Si1 0.000000 0.244188 0.500000
Si Si2 0.738452 0.818797 0.640485
Si Si3 0.321021 0.934311 0.491199
Si Si4 0.849206 0.434009 0.755054
Si Si5 0.836022 0.933918 0.001059
Si Si6 0.093291 0.643342 0.877583
O O1 0.907263 0.205481 0.604969
O O2 0.882996 0.285160 0.435528
O O3 0.739683 0.888218 0.606418
O O4 0.687502 0.810584 0.787284
O O5 0.500000 0.933058 0.500000
O O6 0.266792 0.915461 0.631067
O O7 0.263774 0.000000 0.456764
O O8 0.920642 0.500000 0.739409
O O9 0.715447 0.433922 0.857006
O O10 0.980780 0.389381 0.788929
O O11 0.851226 0.000000 0.947582
O O12 0.715727 0.901924 0.921700
O O13 0.000000 0.902397 0.000000
O O14 0.000000 0.670797 0.000000
#
# Coordination Sequence:
#
# PCOD8082017 Si02
#       6
#     4   8   8   8   8   8
#     4  10  24  40  64  78 110 150 192 234 280 322
#     4  11  21  41  59  87 110 147 190 234 276 338
#     4  10  18  30  56  88 117 144 175 228 281 326
#     4   9  16  28  48  76 109 148 186 216 261 327
#     4   9  18  30  45  72 113 153 181 214 269 334
#     4  10  19  32  54  79 106 140 184 230 271 326
#
# _framework density 20.230146999999999
#
# number of rings (size 3 to 8) (size 9 to 14) (size 15 to 20)
#    0.000    2.182    2.727    0.545    0.000    4.364 
#    0.000    3.182    0.000    0.000    0.000    0.000 
#    0.000    0.000    0.000    0.000    0.000    0.000 
#
# Total GULP energy -272568.644703 kJ/mol
# GULP energy per Si atom -12389.483850 kJ/mol
# Density = 2.018410 g / cm^3
# Si number density = 20.230147 Si / 1000 Ang^3
#
#
#
# Elastic Constant Matrix: (Units=GPa)
#
#
# Indices 1 2 3 4 5 6 
#
# 1 81.0471 19.1062 22.8919 0.0000 -22.0697 0.0000
# 2 19.1062 60.4846 26.7638 0.0000 -12.1392 0.0000
# 3 22.8919 26.7638 107.9287 0.0000 -30.1635 0.0000
# 4 0.0000 0.0000 0.0000 27.6755 0.0000 -8.3586
# 5 -22.0697 -12.1392 -30.1635 0.0000 27.6730 0.0000
# 6 0.0000 0.0000 0.0000 -8.3586 0.0000 10.2283
#
#
#
# Elastic Compliance Matrix: (Units=1/GPa)
#
#
# Indices 1 2 3 4 5 6 
#
# 1 0.016216 -0.002964 0.000786 0.000000 0.012489 0.000000
# 2 -0.002964 0.019510 -0.003564 0.000000 0.002310 0.000000
# 3 0.000786 -0.003564 0.013979 0.000000 0.014301 0.000000
# 4 0.000000 0.000000 0.000000 0.047974 0.000000 0.039205
# 5 0.012489 0.002310 0.014301 0.000000 0.062698 0.000000
# 6 0.000000 0.000000 0.000000 0.039205 0.000000 0.129807
#
#
# Mechanical properties :
#
#
# Convention : Reuss Voigt Hill
#
# Bulk Modulus (GPa) = 26.16288 42.99824 34.58056
# Shear Modulus (GPa) = 15.90296 25.16192 20.53244
#
# Velocity S-wave (km/s) = 2.80679 3.53056 3.18927
# Velocity P-wave (km/s) = 4.84405 6.15796 5.54009
#
# Compressibility (1/GPa) = 0.03822209
#
# Stress axis : x y z
#
# Youngs Moduli (GPa) = 61.66732 51.25611 71.53534
#
# Poissons Ratio (x) = 0.15190 -0.05622
# Poissons Ratio (y) = 0.18276 0.25493
# Poissons Ratio (z) = -0.04846 0.18266
#
# Static dielectric constant tensor:
#      x y z
#    x 3.642090 0.000000 -0.514320 
#    y 0.000000 3.578670 0.000000 
#    z -0.514320 0.000000 4.880050 
# 
# 
# High freq. dielectric constant tensor:
#      x y z
#    x 1.776660 0.000000 -0.024820 
#    y 0.000000 1.756760 0.000000 
#    z -0.024820 0.000000 1.803270 
# 
# From -- ./inp_files/121364.got.cif
#   From: 2010.06.25/outbox.cif.g09.slc.cpg/sg12_61_cif.got.tgz:121364.got - 2010.06.28 00:19:55.
