data_PCOD8082003
_publ_section_title
;
Structure prediction by ZEFSAII (Michael W. Deem and Ramdas Pophale) SiO2 
 PCOD8082003
Probable space group: C 2/M
;
_chemical_formula_sum "Si O2"
_cell_formula_units_Z 40
_cell_length_a 16.016586
_cell_length_b 15.612249
_cell_length_c 7.334358
_cell_angle_alpha 90.000000
_cell_angle_beta 68.307234
_cell_angle_gamma 90.000000
_cell_volume 1704.107647
_symmetry_space_group_name_H-M "C 2/M"
_symmetry_group_IT_number 12
_symmetry_cell_setting 'monoclinic'
loop_
_space_group_symop_operation_xyz
x,y,z
-x,y,-z
-x,-y,-z
x,-y,z
1/2+x,1/2+y,z
1/2-x,1/2+y,-z
1/2-x,1/2-y,-z
1/2+x,1/2-y,z
loop_
_atom_site_type_symbol
_atom_site_label
_atom_site_fract_x
_atom_site_fract_y
_atom_site_fract_z
Si Si1 0.138852 0.264369 0.767170
Si Si2 0.876634 0.872921 0.723248
Si Si3 0.323396 0.095190 0.991381
Si Si4 0.063961 0.092620 0.721558
Si Si5 0.660822 0.800736 0.355706
O O1 0.083525 0.174848 0.836007
O O2 0.241503 0.238993 0.698450
O O3 0.117254 0.311592 0.591216
O O4 0.119346 0.335356 0.938096
O O5 0.877318 0.899125 0.509480
O O6 0.892327 0.770521 0.719652
O O7 0.958217 0.914898 0.765591
O O8 0.782882 0.901628 0.885149
O O9 0.338903 0.112720 0.762751
O O10 0.359350 0.000000 0.005232
O O11 0.089623 0.000000 0.791978
#
# Coordination Sequence:
#
# PCOD8082003 Si02
#       5
#     8   8   8   8   8
#     4   9  19  35  54  79 111 143 179 223 268 317
#     4   9  17  32  53  80 113 142 174 220 275 330
#     4  11  21  35  57  81 109 147 187 225 263 310
#     4  10  18  30  54  85 113 142 174 215 275 338
#     4   9  19  35  54  75 106 148 184 219 265 318
#
# _framework density 23.472693
#
# number of rings (size 3 to 8) (size 9 to 14) (size 15 to 20)
#    0.000    2.400    0.000    6.000    0.000    1.600 
#    0.000    4.000    0.000    9.600    0.000    5.600 
#    0.000    0.000    0.000    0.000    0.000    0.000 
#
# Total GULP energy -247788.008807 kJ/mol
# GULP energy per Si atom -12389.400440 kJ/mol
# Density = 2.341927 g / cm^3
# Si number density = 23.472693 Si / 1000 Ang^3
#
#
#
# Elastic Constant Matrix: (Units=GPa)
#
#
# Indices 1 2 3 4 5 6 
#
# 1 36.4369 50.8699 20.1275 0.0000 1.5725 0.0000
# 2 50.8699 196.8463 59.9192 0.0000 25.1968 0.0000
# 3 20.1275 59.9192 76.0018 0.0000 23.5551 0.0000
# 4 0.0000 0.0000 0.0000 18.3395 0.0000 5.5054
# 5 1.5725 25.1968 23.5551 0.0000 14.2758 0.0000
# 6 0.0000 0.0000 0.0000 5.5054 0.0000 20.2433
#
#
#
# Elastic Compliance Matrix: (Units=1/GPa)
#
#
# Indices 1 2 3 4 5 6 
#
# 1 0.058359 -0.016058 -0.019621 0.000000 0.054288 0.000000
# 2 -0.016058 0.011396 0.001952 0.000000 -0.021566 0.000000
# 3 -0.019621 0.001952 0.035228 0.000000 -0.059409 0.000000
# 4 0.000000 0.000000 0.000000 0.059375 0.000000 -0.016148
# 5 0.054288 -0.021566 -0.059409 0.000000 0.200159 0.000000
# 6 0.000000 0.000000 0.000000 -0.016148 0.000000 0.053791
#
#
# Mechanical properties :
#
#
# Convention : Reuss Voigt Hill
#
# Bulk Modulus (GPa) = 26.64587 63.45759 45.05173
# Shear Modulus (GPa) = 10.03474 22.46293 16.24883
#
# Velocity S-wave (km/s) = 2.06987 3.09687 2.63391
# Velocity P-wave (km/s) = 4.13388 6.31512 5.33712
#
# Compressibility (1/GPa) = 0.03752926
#
# Stress axis : x y z
#
# Youngs Moduli (GPa) = 17.13542 87.74829 28.38689
#
# Poissons Ratio (x) = 1.40905 0.55697
# Poissons Ratio (y) = 0.27516 -0.05541
# Poissons Ratio (z) = 0.33621 -0.17127
#
# Static dielectric constant tensor:
#      x y z
#    x 4.064730 0.000000 0.175900 
#    y 0.000000 4.465530 0.000000 
#    z 0.175900 0.000000 4.220220 
# 
# 
# High freq. dielectric constant tensor:
#      x y z
#    x 1.894960 0.000000 0.012790 
#    y 0.000000 1.924600 0.000000 
#    z 0.012790 0.000000 1.922490 
# 
# From -- ./inp_files/72825.got.cif
#   From: 2010.06.25/outbox.cif.g09.slc.cpg/sg12_37_cif.got.tgz:72825.got - 2010.06.28 00:19:55.
