data_PCOD8082577
_publ_section_title
;
Structure prediction by ZEFSAII (Michael W. Deem and Ramdas Pophale) SiO2 
 PCOD8082577
Probable space group: C 2/M
;
_chemical_formula_sum "Si O2"
_cell_formula_units_Z 64
_cell_length_a 33.288013
_cell_length_b 19.347550
_cell_length_c 15.878157
_cell_angle_alpha 90.000000
_cell_angle_beta 16.987689
_cell_angle_gamma 90.000000
_cell_volume 2987.747849
_symmetry_space_group_name_H-M "C 2/M"
_symmetry_group_IT_number 12
_symmetry_cell_setting 'monoclinic'
loop_
_space_group_symop_operation_xyz
x,y,z
-x,y,-z
-x,-y,-z
x,-y,z
1/2+x,1/2+y,z
1/2-x,1/2+y,-z
1/2-x,1/2-y,-z
1/2+x,1/2-y,z
loop_
_atom_site_type_symbol
_atom_site_label
_atom_site_fract_x
_atom_site_fract_y
_atom_site_fract_z
Si Si1 0.591650 0.576519 0.690665
Si Si2 0.976973 0.201587 0.276379
Si Si3 0.292683 0.172939 0.600116
Si Si4 0.881920 0.655327 0.808019
Si Si5 0.060650 0.197644 0.286891
Si Si6 0.775418 0.924967 0.001495
Si Si7 0.442276 0.924369 0.427699
Si Si8 0.790340 0.077165 0.372302
O O1 0.624996 0.500000 0.587614
O O2 0.600679 0.632375 0.598371
O O3 0.699646 0.595258 0.548515
O O4 0.440352 0.577024 0.031645
O O5 0.953258 0.207677 0.425050
O O6 0.903354 0.265472 0.377627
O O7 0.140523 0.200867 0.928469
O O8 0.341142 0.113797 0.566888
O O9 0.297266 0.136644 0.498822
O O10 0.839383 0.734963 0.912342
O O11 0.751739 0.612589 0.033962
O O12 0.000000 0.659133 0.500000
O O13 0.926712 0.621722 0.807718
O O14 0.000000 0.186234 0.500000
O O15 0.139043 0.126220 0.109822
O O16 0.632593 0.938081 0.333876
O O17 0.847874 0.000000 0.841705
O O18 0.485748 0.000000 0.303856
O O19 0.725878 0.000000 0.490254
#
# Coordination Sequence:
#
# PCOD8082577 Si02
#       8
#     8   8   8   8   8   8   8   8
#     4   8  16  33  58  87 116 149 186 229 281 337
#     4  11  23  37  58  83 115 151 192 233 284 336
#     4  11  21  36  55  87 117 148 185 231 280 340
#     4   9  18  32  50  72  96 130 177 231 280 323
#     4  11  22  36  53  73 107 154 189 233 281 342
#     4  10  20  33  51  74  99 135 186 236 280 332
#     4  10  18  31  53  77 103 135 181 234 280 324
#     4   8  15  31  58  89 117 145 186 234 277 326
#
# _framework density 21.420818000000001
#
# number of rings (size 3 to 8) (size 9 to 14) (size 15 to 20)
#    0.000    2.250    2.500    1.875    0.000    4.250 
#    0.000    0.000    0.000    1.500    0.000    1.750 
#    0.000    0.000    0.000    0.000    0.000    0.000 
#
# Total GULP energy -396452.970304 kJ/mol
# GULP energy per Si atom -12389.155322 kJ/mol
# Density = 2.137206 g / cm^3
# Si number density = 21.420818 Si / 1000 Ang^3
#
#
#
# Elastic Constant Matrix: (Units=GPa)
#
#
# Indices 1 2 3 4 5 6 
#
# 1 117.5010 73.8084 17.9852 -0.0016 -26.7191 0.0005
# 2 73.8084 206.3000 27.4533 -0.0002 -26.0093 0.0000
# 3 17.9852 27.4533 25.7330 -0.0010 -14.5842 0.0005
# 4 -0.0016 -0.0002 -0.0010 19.7188 0.0003 -11.2620
# 5 -26.7191 -26.0093 -14.5842 0.0003 25.3594 0.0002
# 6 0.0005 0.0000 0.0005 -11.2620 0.0002 41.5419
#
#
#
# Elastic Compliance Matrix: (Units=1/GPa)
#
#
# Indices 1 2 3 4 5 6 
#
# 1 0.012930 -0.003374 0.000478 0.000001 0.010438 0.000000
# 2 -0.003374 0.006741 -0.004347 0.000000 0.000860 0.000000
# 3 0.000478 -0.004347 0.060711 0.000003 0.030960 0.000000
# 4 0.000001 0.000000 0.000003 0.060003 0.000001 0.016267
# 5 0.010438 0.000860 0.030960 0.000001 0.069118 0.000000
# 6 0.000000 0.000000 0.000000 0.016267 0.000000 0.028482
#
#
# Mechanical properties :
#
#
# Convention : Reuss Voigt Hill
#
# Bulk Modulus (GPa) = 15.17519 65.33643 40.25581
# Shear Modulus (GPa) = 18.21921 32.67649 25.44785
#
# Velocity S-wave (km/s) = 2.91956 3.90994 3.45047
# Velocity P-wave (km/s) = 4.29707 7.13801 5.89135
#
# Compressibility (1/GPa) = 0.06589703
#
# Stress axis : x y z
#
# Youngs Moduli (GPa) = 77.33847 148.34333 16.47158
#
# Poissons Ratio (x) = 0.50046 -0.00787
# Poissons Ratio (y) = 0.26091 0.07160
# Poissons Ratio (z) = -0.03697 0.64481
#
# Static dielectric constant tensor:
#      x y z
#    x 4.030580 0.000000 -0.282340 
#    y 0.000000 4.444270 0.000000 
#    z -0.282340 0.000000 3.225450 
# 
# 
# High freq. dielectric constant tensor:
#      x y z
#    x 1.839510 0.000000 -0.026270 
#    y 0.000000 1.862250 0.000000 
#    z -0.026270 0.000000 1.774660 
# 
# From -- ./inp_files/251896.got.cif
#   From: 2010.06.25/outbox.cif.g09.slc.cpg/sg12_126_cif.got.tgz:251896.got - 2010.06.28 00:19:55.
