data_PCOD8082004
_publ_section_title
;
Structure prediction by ZEFSAII (Michael W. Deem and Ramdas Pophale) SiO2 
 PCOD8082004
Probable space group: C 2/M
;
_chemical_formula_sum "Si O2"
_cell_formula_units_Z 48
_cell_length_a 21.869071
_cell_length_b 13.786397
_cell_length_c 15.500550
_cell_angle_alpha 90.000000
_cell_angle_beta 146.026082
_cell_angle_gamma 90.000000
_cell_volume 2611.539694
_symmetry_space_group_name_H-M "C 2/M"
_symmetry_group_IT_number 12
_symmetry_cell_setting 'monoclinic'
loop_
_space_group_symop_operation_xyz
x,y,z
-x,y,-z
-x,-y,-z
x,-y,z
1/2+x,1/2+y,z
1/2-x,1/2+y,-z
1/2-x,1/2-y,-z
1/2+x,1/2-y,z
loop_
_atom_site_type_symbol
_atom_site_label
_atom_site_fract_x
_atom_site_fract_y
_atom_site_fract_z
Si Si1 0.216401 0.213091 0.164255
Si Si2 0.005155 0.106526 0.903184
Si Si3 0.456389 0.885627 0.696132
Si Si4 0.576380 0.886645 0.008322
Si Si5 0.416825 0.112931 0.324423
Si Si6 0.768853 0.115164 0.636458
O O1 0.314537 0.186149 0.214891
O O2 0.247116 0.165242 0.290404
O O3 0.103646 0.174630 0.989153
O O4 0.192092 0.328410 0.147802
O O5 0.885836 0.143939 0.730358
O O6 0.028555 0.000000 0.892709
O O7 0.000000 0.103479 0.000000
O O8 0.508662 0.849977 0.846146
O O9 0.526331 0.849531 0.696360
O O10 0.330042 0.850110 0.540984
O O11 0.455853 0.000000 0.693653
O O12 0.606124 0.000000 0.040814
O O13 0.500000 0.860066 0.000000
O O14 0.500000 0.126555 0.500000
O O15 0.378775 0.000000 0.274429
O O16 0.765943 0.000000 0.650874
#
# Coordination Sequence:
#
# PCOD8082004 Si02
#       6
#     8   8   8   8   8   8
#     4  11  18  29  50  77 109 134 170 208 262 318
#     4   8  14  23  40  71 108 136 153 191 263 329
#     4   9  18  33  53  79 106 136 175 214 254 307
#     4  10  22  39  54  70  99 145 194 226 246 281
#     4  10  18  30  54  86 114 133 156 204 272 336
#     4   9  15  27  50  79 107 130 159 210 273 326
#
# _framework density 18.379963
#
# number of rings (size 3 to 8) (size 9 to 14) (size 15 to 20)
#    0.000    2.500    1.667    4.000    0.000    0.667 
#    0.000    3.333    0.000    0.500    0.000    2.333 
#    0.000    0.000    0.000    0.000    0.000    0.000 
#
# Total GULP energy -297413.423331 kJ/mol
# GULP energy per Si atom -12392.225972 kJ/mol
# Density = 1.833813 g / cm^3
# Si number density = 18.379963 Si / 1000 Ang^3
#
#
#
# Elastic Constant Matrix: (Units=GPa)
#
#
# Indices 1 2 3 4 5 6 
#
# 1 83.8931 23.0384 55.7334 0.0000 1.2236 0.0000
# 2 23.0384 62.8293 37.3767 0.0000 11.0518 0.0000
# 3 55.7334 37.3767 104.8329 0.0000 12.3202 0.0000
# 4 0.0000 0.0000 0.0000 22.3128 0.0000 11.7242
# 5 1.2236 11.0518 12.3202 0.0000 32.4900 0.0000
# 6 0.0000 0.0000 0.0000 11.7242 0.0000 9.0820
#
#
#
# Elastic Compliance Matrix: (Units=1/GPa)
#
#
# Indices 1 2 3 4 5 6 
#
# 1 0.018881 -0.001693 -0.009858 0.000000 0.003603 0.000000
# 2 -0.001693 0.020953 -0.006008 0.000000 -0.004785 0.000000
# 3 -0.009858 -0.006008 0.017414 0.000000 -0.004188 0.000000
# 4 0.000000 0.000000 0.000000 0.139319 0.000000 -0.179850
# 5 0.003603 -0.004785 -0.004188 0.000000 0.033859 0.000000
# 6 0.000000 0.000000 0.000000 -0.179850 0.000000 0.342281
#
#
# Mechanical properties :
#
#
# Convention : Reuss Voigt Hill
#
# Bulk Modulus (GPa) = 45.18620 53.76138 49.47379
# Shear Modulus (GPa) = 8.12743 21.80408 14.96575
#
# Velocity S-wave (km/s) = 2.10511 3.44800 2.85659
# Velocity P-wave (km/s) = 5.52689 6.72050 6.15271
#
# Compressibility (1/GPa) = 0.02213065
#
# Stress axis : x y z
#
# Youngs Moduli (GPa) = 52.96265 47.72642 57.42444
#
# Poissons Ratio (x) = 0.08079 0.56608
# Poissons Ratio (y) = 0.08965 0.34501
# Poissons Ratio (z) = 0.52210 0.28674
#
# Static dielectric constant tensor:
#      x y z
#    x 3.290350 0.000000 0.116360 
#    y 0.000000 3.229570 0.000000 
#    z 0.116360 0.000000 3.895660 
# 
# 
# High freq. dielectric constant tensor:
#      x y z
#    x 1.683360 0.000000 0.012390 
#    y 0.000000 1.695490 0.000000 
#    z 0.012390 0.000000 1.713280 
# 
# From -- ./inp_files/214643.got.cif
#   From: 2010.06.25/outbox.cif.g09.slc.cpg/sg12_108_cif.got.tgz:214643.got - 2010.06.28 00:19:55.
