data_PCOD8082272
_publ_section_title
;
Structure prediction by ZEFSAII (Michael W. Deem and Ramdas Pophale) SiO2 
 PCOD8082272
Probable space group: C 2/M
;
_chemical_formula_sum "Si O2"
_cell_formula_units_Z 64
_cell_length_a 16.756732
_cell_length_b 22.424757
_cell_length_c 11.884787
_cell_angle_alpha 90.000000
_cell_angle_beta 121.256937
_cell_angle_gamma 90.000000
_cell_volume 3817.665804
_symmetry_space_group_name_H-M "C 2/M"
_symmetry_group_IT_number 12
_symmetry_cell_setting 'monoclinic'
loop_
_space_group_symop_operation_xyz
x,y,z
-x,y,-z
-x,-y,-z
x,-y,z
1/2+x,1/2+y,z
1/2-x,1/2+y,-z
1/2-x,1/2-y,-z
1/2+x,1/2-y,z
loop_
_atom_site_type_symbol
_atom_site_label
_atom_site_fract_x
_atom_site_fract_y
_atom_site_fract_z
Si Si1 0.642671 0.284582 0.646793
Si Si2 0.464152 0.725010 0.646409
Si Si3 0.335784 0.836264 0.797347
Si Si4 0.711553 0.844632 0.696476
Si Si5 0.904654 0.643730 0.604191
Si Si6 0.405418 0.064966 0.999276
Si Si7 0.078047 0.568867 0.726334
Si Si8 0.086506 0.204315 0.143903
O O1 0.619932 0.291104 0.498371
O O2 0.558584 0.303138 0.666496
O O3 0.725973 0.329467 0.723067
O O4 0.668056 0.217781 0.701592
O O5 0.467107 0.796626 0.651201
O O6 0.447981 0.695726 0.754566
O O7 0.366427 0.866367 0.702306
O O8 0.346680 0.881041 0.908050
O O9 0.387106 0.773405 0.858192
O O10 0.684279 0.855085 0.545090
O O11 0.666595 0.897015 0.737956
O O12 0.823588 0.839743 0.801597
O O13 0.976401 0.593029 0.612664
O O14 0.355934 0.000000 0.949949
O O15 0.500000 0.064017 0.000000
O O16 0.422152 0.079053 0.140968
O O17 0.086277 0.500000 0.697512
O O18 0.000000 0.185665 0.000000
#
# Coordination Sequence:
#
# PCOD8082272 Si02
#       8
#     8   8   8   8   8   8   8   8
#     4   9  17  30  50  75 100 133 166 211 252 299
#     4   9  17  31  48  71 104 133 166 202 258 300
#     4  10  19  30  51  76 100 132 175 204 248 304
#     4  10  20  34  48  73 104 134 169 211 253 295
#     4  10  18  31  51  70 104 136 163 207 253 301
#     4  10  20  34  48  67 101 136 163 198 245 298
#     4  11  22  34  52  76 103 137 171 206 251 302
#     4  10  21  32  49  73 103 137 170 207 251 301
#
# _framework density 16.76417
#
# number of rings (size 3 to 8) (size 9 to 14) (size 15 to 20)
#    0.000    2.125    2.500    1.500    1.750    5.000 
#    0.000    2.500    0.000    0.375    0.000    2.625 
#    0.000    0.000    0.000    0.000    0.000    0.000 
#
# Total GULP energy -396579.346120 kJ/mol
# GULP energy per Si atom -12393.104566 kJ/mol
# Density = 1.672601 g / cm^3
# Si number density = 16.764170 Si / 1000 Ang^3
#
#
#
# Elastic Constant Matrix: (Units=GPa)
#
#
# Indices 1 2 3 4 5 6 
#
# 1 84.0105 36.5541 47.5653 0.0000 9.3371 0.0000
# 2 36.5541 67.1532 33.8543 0.0000 10.2091 0.0000
# 3 47.5653 33.8543 87.7766 0.0000 15.6498 0.0000
# 4 0.0000 0.0000 0.0000 19.5851 0.0000 6.8191
# 5 9.3371 10.2091 15.6498 0.0000 28.0269 0.0000
# 6 0.0000 0.0000 0.0000 6.8191 0.0000 7.4617
#
#
#
# Elastic Compliance Matrix: (Units=1/GPa)
#
#
# Indices 1 2 3 4 5 6 
#
# 1 0.019196 -0.006494 -0.007973 0.000000 0.000422 0.000000
# 2 -0.006494 0.020921 -0.003973 0.000000 -0.003239 0.000000
# 3 -0.007973 -0.003973 0.018339 0.000000 -0.006137 0.000000
# 4 0.000000 0.000000 0.000000 0.074888 0.000000 -0.068439
# 5 0.000422 -0.003239 -0.006137 0.000000 0.040146 0.000000
# 6 0.000000 0.000000 0.000000 -0.068439 0.000000 0.196564
#
#
# Mechanical properties :
#
#
# Convention : Reuss Voigt Hill
#
# Bulk Modulus (GPa) = 46.34329 52.76528 49.55429
# Shear Modulus (GPa) = 12.07361 19.07917 15.57639
#
# Velocity S-wave (km/s) = 2.68657 3.37722 3.05150
# Velocity P-wave (km/s) = 6.10965 6.83746 6.48378
#
# Compressibility (1/GPa) = 0.02157810
#
# Stress axis : x y z
#
# Youngs Moduli (GPa) = 52.09419 47.79793 54.52764
#
# Poissons Ratio (x) = 0.31040 0.43474
# Poissons Ratio (y) = 0.33830 0.21662
# Poissons Ratio (z) = 0.41534 0.18988
#
# Static dielectric constant tensor:
#      x y z
#    x 3.255130 0.000000 -0.081690 
#    y 0.000000 3.046270 0.000000 
#    z -0.081690 0.000000 3.249800 
# 
# 
# High freq. dielectric constant tensor:
#      x y z
#    x 1.646320 0.000000 -0.009600 
#    y 0.000000 1.612340 0.000000 
#    z -0.009600 0.000000 1.649600 
# 
# From -- ./inp_files/160300.got.cif
#   From: 2010.06.25/outbox.cif.g09.slc.cpg/sg12_81_cif.got.tgz:160300.got - 2010.06.28 00:19:55.
