data_PCOD8082991
_publ_section_title
;
Structure prediction by ZEFSAII (Michael W. Deem and Ramdas Pophale) SiO2 
 PCOD8082991
Probable space group: C 2/M
;
_chemical_formula_sum "Si O2"
_cell_formula_units_Z 64
_cell_length_a 25.065408
_cell_length_b 9.235220
_cell_length_c 29.899413
_cell_angle_alpha 90.000000
_cell_angle_beta 27.093408
_cell_angle_gamma 90.000000
_cell_volume 3152.232372
_symmetry_space_group_name_H-M "C 2/M"
_symmetry_group_IT_number 12
_symmetry_cell_setting 'monoclinic'
loop_
_space_group_symop_operation_xyz
x,y,z
-x,y,-z
-x,-y,-z
x,-y,z
1/2+x,1/2+y,z
1/2-x,1/2+y,-z
1/2-x,1/2-y,-z
1/2+x,1/2-y,z
loop_
_atom_site_type_symbol
_atom_site_label
_atom_site_fract_x
_atom_site_fract_y
_atom_site_fract_z
Si Si1 0.818626 0.663780 0.485348
Si Si2 0.372263 0.832423 0.201167
Si Si3 0.730767 0.836650 0.380693
Si Si4 0.720423 0.332661 0.234766
Si Si5 0.395098 0.165861 0.926010
Si Si6 0.921461 0.328526 0.728853
Si Si7 0.369681 0.330339 0.856569
Si Si8 0.012846 0.846681 0.541089
O O1 0.825132 0.500000 0.463792
O O2 0.750000 0.750000 0.500000
O O3 0.738056 0.677377 0.590013
O O4 0.955791 0.715386 0.387666
O O5 0.308065 0.760707 0.291076
O O6 0.332466 0.778373 0.181142
O O7 0.510556 0.805228 0.104910
O O8 0.337550 0.000000 0.229892
O O9 0.596205 0.789929 0.483352
O O10 0.740509 0.000000 0.355897
O O11 0.735515 0.500000 0.208496
O O12 0.692573 0.237027 0.211715
O O13 0.613894 0.303589 0.347212
O O14 0.421953 0.270810 0.864222
O O15 0.402242 0.000000 0.903719
O O16 0.269319 0.199039 0.041072
O O17 0.903859 0.500000 0.745827
O O18 0.928161 0.257818 0.772811
O O19 0.400194 0.500000 0.829877
O O20 0.000000 0.885254 0.500000
O O21 0.056375 0.000000 0.531658
#
# Coordination Sequence:
#
# PCOD8082991 Si02
#       8
#     8   8   8   8   8   8   8   8
#     4  10  24  40  53  76 112 151 193 235 280 333
#     4  10  21  38  59  85 116 151 192 235 285 342
#     4  11  22  35  51  79 114 148 188 233 282 332
#     4  10  20  35  56  82 112 150 195 238 278 332
#     4   9  20  40  65  90 116 145 182 235 292 342
#     4  11  23  40  59  83 116 155 194 233 283 342
#     4  10  21  39  64  91 115 145 187 234 287 346
#     4  10  18  32  52  75 104 144 191 230 268 320
#
# _framework density 20.303072
#
# number of rings (size 3 to 8) (size 9 to 14) (size 15 to 20)
#    0.000    1.875    2.500    1.125    1.750    3.750 
#    0.000    0.625    0.000    3.750    0.000    0.000 
#    0.000    0.000    0.000    0.000    0.000    0.000 
#
# Total GULP energy -396542.663161 kJ/mol
# GULP energy per Si atom -12391.958224 kJ/mol
# Density = 2.025686 g / cm^3
# Si number density = 20.303072 Si / 1000 Ang^3
#
#
#
# Elastic Constant Matrix: (Units=GPa)
#
#
# Indices 1 2 3 4 5 6 
#
# 1 100.2309 41.7739 11.5394 0.0169 -19.0555 -0.0054
# 2 41.7739 74.3409 12.6497 0.0576 -2.3095 -0.1093
# 3 11.5394 12.6497 31.0782 -0.0048 -2.4493 0.0000
# 4 0.0169 0.0576 -0.0048 23.9475 0.0006 4.0276
# 5 -19.0555 -2.3095 -2.4493 0.0006 32.7494 0.0119
# 6 -0.0054 -0.1093 0.0000 4.0276 0.0119 34.6551
#
#
#
# Elastic Compliance Matrix: (Units=1/GPa)
#
#
# Indices 1 2 3 4 5 6 
#
# 1 0.014987 -0.007878 -0.001725 0.000012 0.008036 -0.000027
# 2 -0.007878 0.018605 -0.004935 -0.000051 -0.003641 0.000065
# 3 -0.001725 -0.004935 0.034925 0.000023 0.001261 -0.000019
# 4 0.000012 -0.000051 0.000023 0.042591 0.000006 -0.004950
# 5 0.008036 -0.003641 0.001261 0.000006 0.035048 -0.000023
# 6 -0.000027 0.000065 -0.000019 -0.004950 -0.000023 0.029431
#
#
# Mechanical properties :
#
#
# Convention : Reuss Voigt Hill
#
# Bulk Modulus (GPa) = 25.35365 37.50845 31.43105
# Shear Modulus (GPa) = 22.95585 27.58287 25.26936
#
# Velocity S-wave (km/s) = 3.36617 3.68986 3.53173
# Velocity P-wave (km/s) = 5.25575 6.05539 5.66969
#
# Compressibility (1/GPa) = 0.03944205
#
# Stress axis : x y z
#
# Youngs Moduli (GPa) = 66.72570 53.74821 28.63267
#
# Poissons Ratio (x) = 0.42345 0.04938
# Poissons Ratio (y) = 0.52569 0.14129
# Poissons Ratio (z) = 0.11508 0.26523
#
# Static dielectric constant tensor:
#      x y z
#    x 3.803590 -0.000050 -0.089170 
#    y -0.000050 3.822820 -0.000040 
#    z -0.089170 -0.000040 3.589140 
# 
# 
# High freq. dielectric constant tensor:
#      x y z
#    x 1.796210 0.000000 -0.002560 
#    y 0.000000 1.792450 0.000000 
#    z -0.002560 0.000000 1.772500 
# 
# From -- ./inp_files/382287.got.cif
#   From: 2010.06.25/outbox.cif.g09.slc.cpg/sg12_192_cif.got.tgz:382287.got - 2010.06.28 00:19:55.
