data_PCOD8082668
_publ_section_title
;
Structure prediction by ZEFSAII (Michael W. Deem and Ramdas Pophale) SiO2 
 PCOD8082668
Probable space group: C 2/M
;
_chemical_formula_sum "Si O2"
_cell_formula_units_Z 56
_cell_length_a 27.168355
_cell_length_b 8.916429
_cell_length_c 11.965053
_cell_angle_alpha 90.000000
_cell_angle_beta 76.130148
_cell_angle_gamma 90.000000
_cell_volume 2813.959340
_symmetry_space_group_name_H-M "C 2/M"
_symmetry_group_IT_number 12
_symmetry_cell_setting 'monoclinic'
loop_
_space_group_symop_operation_xyz
x,y,z
-x,y,-z
-x,-y,-z
x,-y,z
1/2+x,1/2+y,z
1/2-x,1/2+y,-z
1/2-x,1/2-y,-z
1/2+x,1/2-y,z
loop_
_atom_site_type_symbol
_atom_site_label
_atom_site_fract_x
_atom_site_fract_y
_atom_site_fract_z
Si Si1 0.556493 0.822037 0.483704
Si Si2 0.073830 0.673282 0.721320
Si Si3 0.246222 0.322273 0.381425
Si Si4 0.849448 0.678219 0.704947
Si Si5 0.523651 0.174308 0.097729
Si Si6 0.863873 0.322004 0.943584
Si Si7 0.341183 0.323340 0.181934
O O1 0.500000 0.751552 0.500000
O O2 0.581050 0.776766 0.589571
O O3 0.595996 0.760892 0.369270
O O4 0.551425 0.000000 0.478881
O O5 0.088608 0.500000 0.732738
O O6 0.107467 0.770466 0.786525
O O7 0.014297 0.700283 0.778599
O O8 0.244433 0.500000 0.396231
O O9 0.250000 0.250000 0.500000
O O10 0.195955 0.260235 0.347232
O O11 0.294077 0.270400 0.282327
O O12 0.850791 0.500000 0.697533
O O13 0.839545 0.728233 0.838421
O O14 0.578704 0.242374 0.092200
O O15 0.532197 0.000000 0.069238
O O16 0.500000 0.250599 0.000000
O O17 0.861463 0.500000 0.959672
O O18 0.834416 0.247483 0.062709
O O19 0.342506 0.500000 0.167224
#
# Coordination Sequence:
#
# PCOD8082668 Si02
#       7
#     8   8   8   8   8   8   8
#     4   9  16  27  49  83 111 129 163 219 273 315
#     4  10  18  31  54  79 106 142 181 218 263 320
#     4  10  22  40  59  80 106 138 176 220 266 312
#     4   9  18  33  53  77 106 138 173 217 264 312
#     4   9  15  26  47  77 107 133 172 221 258 300
#     4  10  19  34  56  79 106 141 179 217 266 321
#     4  11  23  36  51  76 110 140 175 223 265 305
#
# _framework density 19.900784000000002
#
# number of rings (size 3 to 8) (size 9 to 14) (size 15 to 20)
#    0.000    2.286    1.429    2.143    0.000    6.286 
#    0.000    2.143    0.000    1.286    0.000    0.000 
#    0.000    0.000    0.000    0.000    0.000    0.000 
#
# Total GULP energy -347111.448079 kJ/mol
# GULP energy per Si atom -12396.837431 kJ/mol
# Density = 1.985549 g / cm^3
# Si number density = 19.900784 Si / 1000 Ang^3
#
#
#
# Elastic Constant Matrix: (Units=GPa)
#
#
# Indices 1 2 3 4 5 6 
#
# 1 120.1085 22.6680 67.9787 0.0000 7.8348 0.0000
# 2 22.6680 27.7709 36.3084 0.0000 0.4150 0.0000
# 3 67.9787 36.3084 179.3004 0.0000 5.8289 0.0000
# 4 0.0000 0.0000 0.0000 21.4999 0.0000 0.6486
# 5 7.8348 0.4150 5.8289 0.0000 31.8517 0.0000
# 6 0.0000 0.0000 0.0000 0.6486 0.0000 14.9142
#
#
#
# Elastic Compliance Matrix: (Units=1/GPa)
#
#
# Indices 1 2 3 4 5 6 
#
# 1 0.011194 -0.004960 -0.003171 0.000000 -0.002109 0.000000
# 2 -0.004960 0.051217 -0.008560 0.000000 0.002119 0.000000
# 3 -0.003171 -0.008560 0.008535 0.000000 -0.000670 0.000000
# 4 0.000000 0.000000 0.000000 0.046573 0.000000 -0.002025
# 5 -0.002109 0.002119 -0.000670 0.000000 0.032009 0.000000
# 6 0.000000 0.000000 0.000000 -0.002025 0.000000 0.067138
#
#
# Mechanical properties :
#
#
# Convention : Reuss Voigt Hill
#
# Bulk Modulus (GPa) = 26.62096 64.56557 45.59327
# Shear Modulus (GPa) = 19.04253 27.00146 23.02199
#
# Velocity S-wave (km/s) = 3.09669 3.68748 3.40492
# Velocity P-wave (km/s) = 5.11780 7.11647 6.19823
#
# Compressibility (1/GPa) = 0.03756438
#
# Stress axis : x y z
#
# Youngs Moduli (GPa) = 89.33184 19.52467 117.16806
#
# Poissons Ratio (x) = 0.09684 0.37156
# Poissons Ratio (y) = 0.44306 1.00296
# Poissons Ratio (z) = 0.28329 0.16713
#
# Static dielectric constant tensor:
#      x y z
#    x 3.787010 0.000000 -0.027630 
#    y 0.000000 3.038200 0.000000 
#    z -0.027630 0.000000 3.844140 
# 
# 
# High freq. dielectric constant tensor:
#      x y z
#    x 1.780710 0.000000 0.000880 
#    y 0.000000 1.710300 0.000000 
#    z 0.000880 0.000000 1.796360 
# 
# From -- ./inp_files/186407.got.cif
#   From: 2010.06.25/outbox.cif.g09.slc.cpg/sg12_94_cif.got.tgz:186407.got - 2010.06.28 00:19:55.
