data_PCOD8082622
_publ_section_title
;
Structure prediction by ZEFSAII (Michael W. Deem and Ramdas Pophale) SiO2 
 PCOD8082622
Probable space group: C 2/M
;
_chemical_formula_sum "Si O2"
_cell_formula_units_Z 64
_cell_length_a 28.986661
_cell_length_b 9.312319
_cell_length_c 14.142678
_cell_angle_alpha 90.000000
_cell_angle_beta 118.948905
_cell_angle_gamma 90.000000
_cell_volume 3340.576355
_symmetry_space_group_name_H-M "C 2/M"
_symmetry_group_IT_number 12
_symmetry_cell_setting 'monoclinic'
loop_
_space_group_symop_operation_xyz
x,y,z
-x,y,-z
-x,-y,-z
x,-y,z
1/2+x,1/2+y,z
1/2-x,1/2+y,-z
1/2-x,1/2-y,-z
1/2+x,1/2-y,z
loop_
_atom_site_type_symbol
_atom_site_label
_atom_site_fract_x
_atom_site_fract_y
_atom_site_fract_z
Si Si1 0.795970 0.666553 0.993643
Si Si2 0.973863 0.839945 0.224052
Si Si3 0.846280 0.170088 0.377089
Si Si4 0.049976 0.669561 0.986608
Si Si5 0.246361 0.328080 0.396971
Si Si6 0.363195 0.340232 0.185912
Si Si7 0.337410 0.167196 0.834822
Si Si8 0.460412 0.328851 0.540349
O O1 0.790451 0.500000 0.010476
O O2 0.849804 0.727734 0.090351
O O3 0.750000 0.750000 0.000000
O O4 0.798147 0.696509 0.883899
O O5 0.926162 0.847664 0.252456
O O6 0.022223 0.783041 0.335977
O O7 0.984803 0.000000 0.194177
O O8 0.960570 0.735102 0.125917
O O9 0.796983 0.226722 0.388263
O O10 0.839255 0.216109 0.260916
O O11 0.901477 0.234693 0.469883
O O12 0.848990 0.000000 0.385300
O O13 0.055757 0.500000 0.978594
O O14 0.103924 0.733312 0.088459
O O15 0.000000 0.711585 0.000000
O O16 0.246757 0.500000 0.410216
O O17 0.250000 0.250000 0.500000
O O18 0.193065 0.275630 0.288953
O O19 0.340130 0.500000 0.140803
O O20 0.346199 0.000000 0.830247
O O21 0.500000 0.264730 0.500000
O O22 0.460452 0.500000 0.532283
#
# Coordination Sequence:
#
# PCOD8082622 Si02
#       8
#     8   8   8   8   8   8   8   8
#     4  11  21  34  54  80 110 144 180 220 267 323
#     4  10  19  31  53  83 112 139 174 228 277 315
#     4   9  17  31  53  78 108 146 183 216 263 332
#     4  10  21  38  58  77 103 146 191 221 260 328
#     4  10  21  38  57  76 102 138 180 224 264 311
#     4  10  18  31  53  81 110 141 176 218 271 326
#     4   9  19  37  57  76 103 141 179 216 266 325
#     4   9  15  27  49  80 112 142 176 216 268 326
#
# _framework density 19.158370999999999
#
# number of rings (size 3 to 8) (size 9 to 14) (size 15 to 20)
#    0.000    2.250    2.500    1.125    0.000    3.250 
#    0.000    3.750    0.000    1.125    0.000    0.000 
#    0.000    0.000    0.000    0.000    0.000    0.000 
#
# Total GULP energy -396572.566515 kJ/mol
# GULP energy per Si atom -12392.892704 kJ/mol
# Density = 1.911477 g / cm^3
# Si number density = 19.158371 Si / 1000 Ang^3
#
#
#
# Elastic Constant Matrix: (Units=GPa)
#
#
# Indices 1 2 3 4 5 6 
#
# 1 93.8581 28.5901 54.5998 0.0000 2.6895 0.0000
# 2 28.5901 38.4293 35.1832 0.0000 -5.4764 0.0000
# 3 54.5998 35.1832 145.9412 0.0000 1.3859 0.0000
# 4 0.0000 0.0000 0.0000 28.1393 0.0000 -4.6438
# 5 2.6895 -5.4764 1.3859 0.0000 31.4158 0.0000
# 6 0.0000 0.0000 0.0000 -4.6438 0.0000 18.0384
#
#
#
# Elastic Compliance Matrix: (Units=1/GPa)
#
#
# Indices 1 2 3 4 5 6 
#
# 1 0.015479 -0.008486 -0.003720 0.000000 -0.002640 0.000000
# 2 -0.008486 0.039288 -0.006371 0.000000 0.007856 0.000000
# 3 -0.003720 -0.006371 0.009791 0.000000 -0.001224 0.000000
# 4 0.000000 0.000000 0.000000 0.037114 0.000000 0.009555
# 5 -0.002640 0.007856 -0.001224 0.000000 0.033481 0.000000
# 6 0.000000 0.000000 0.000000 0.009555 0.000000 0.057897
#
#
# Mechanical properties :
#
#
# Convention : Reuss Voigt Hill
#
# Bulk Modulus (GPa) = 36.49197 57.21940 46.85569
# Shear Modulus (GPa) = 20.89078 26.17575 23.53326
#
# Velocity S-wave (km/s) = 3.30574 3.70034 3.50859
# Velocity P-wave (km/s) = 5.80168 6.94176 6.39717
#
# Compressibility (1/GPa) = 0.02740329
#
# Stress axis : x y z
#
# Youngs Moduli (GPa) = 64.60298 25.45311 102.13016
#
# Poissons Ratio (x) = 0.21600 0.37994
# Poissons Ratio (y) = 0.54824 0.65069
# Poissons Ratio (z) = 0.24033 0.16217
#
# Static dielectric constant tensor:
#      x y z
#    x 3.803210 0.000000 0.337830 
#    y 0.000000 3.165310 0.000000 
#    z 0.337830 0.000000 3.782970 
# 
# 
# High freq. dielectric constant tensor:
#      x y z
#    x 1.748680 0.000000 0.011210 
#    y 0.000000 1.693810 0.000000 
#    z 0.011210 0.000000 1.757640 
# 
# From -- ./inp_files/249192.got.cif
#   From: 2010.06.25/outbox.cif.g09.slc.cpg/sg12_125_cif.got.tgz:249192.got - 2010.06.28 00:19:55.
