data_PCOD8082627
_publ_section_title
;
Structure prediction by ZEFSAII (Michael W. Deem and Ramdas Pophale) SiO2 
 PCOD8082627
Probable space group: C 2/M
;
_chemical_formula_sum "Si O2"
_cell_formula_units_Z 32
_cell_length_a 13.009048
_cell_length_b 18.863272
_cell_length_c 9.723825
_cell_angle_alpha 90.000000
_cell_angle_beta 39.681435
_cell_angle_gamma 90.000000
_cell_volume 1523.607671
_symmetry_space_group_name_H-M "C 2/M"
_symmetry_group_IT_number 12
_symmetry_cell_setting 'monoclinic'
loop_
_space_group_symop_operation_xyz
x,y,z
-x,y,-z
-x,-y,-z
x,-y,z
1/2+x,1/2+y,z
1/2-x,1/2+y,-z
1/2-x,1/2-y,-z
1/2+x,1/2-y,z
loop_
_atom_site_type_symbol
_atom_site_label
_atom_site_fract_x
_atom_site_fract_y
_atom_site_fract_z
Si Si1 0.649257 0.500000 0.049401
Si Si2 0.183035 0.762968 0.846905
Si Si3 0.712233 0.500000 0.663390
Si Si4 0.774812 0.353909 0.001818
Si Si5 0.401801 0.862473 0.465993
O O1 0.458189 0.500000 0.236530
O O2 0.713715 0.500000 0.827444
O O3 0.716020 0.434454 0.070073
O O4 0.181382 0.821161 0.968785
O O5 0.287484 0.794020 0.612035
O O6 0.265379 0.689893 0.817323
O O7 0.000000 0.748652 0.000000
O O8 0.799279 0.429413 0.520838
O O9 0.968612 0.344918 0.785078
O O10 0.500000 0.884887 0.500000
#
# Coordination Sequence:
#
# PCOD8082627 Si02
#       5
#     4   8   4   8   8
#     4  11  19  32  54  77 108 134 171 221 264 312
#     4  10  20  35  52  77 109 141 174 210 258 311
#     4  11  18  29  56  82 105 131 165 226 281 302
#     4  10  21  34  54  81 106 139 173 213 265 308
#     4  10  18  31  53  82 108 133 168 217 266 314
#
# _framework density 21.002782
#
# number of rings (size 3 to 8) (size 9 to 14) (size 15 to 20)
#    0.000    1.750    5.000    2.625    0.000    1.000 
#    0.000    5.625    0.000    0.000    0.000   25.375 
#    0.000    0.000    0.000    0.000    0.000    0.000 
#
# Total GULP energy -198348.522197 kJ/mol
# GULP energy per Si atom -12396.782637 kJ/mol
# Density = 2.095498 g / cm^3
# Si number density = 21.002782 Si / 1000 Ang^3
#
#
#
# Elastic Constant Matrix: (Units=GPa)
#
#
# Indices 1 2 3 4 5 6 
#
# 1 42.2344 43.0583 25.4741 0.0003 -18.1221 -0.0001
# 2 43.0583 162.6658 30.7501 0.0006 0.3111 -0.0002
# 3 25.4741 30.7501 52.4141 0.0024 -12.4609 -0.0006
# 4 0.0003 0.0006 0.0024 18.1599 -0.0008 -8.4498
# 5 -18.1221 0.3111 -12.4609 -0.0008 20.7949 0.0002
# 6 -0.0001 -0.0002 -0.0006 -8.4498 0.0002 12.4774
#
#
#
# Elastic Compliance Matrix: (Units=1/GPa)
#
#
# Indices 1 2 3 4 5 6 
#
# 1 0.072153 -0.016981 -0.011773 0.000004 0.056078 0.000001
# 2 -0.016981 0.011070 -0.002098 -0.000001 -0.016221 0.000000
# 3 -0.011773 -0.002098 0.027521 -0.000004 0.006262 -0.000001
# 4 0.000004 -0.000001 -0.000004 0.080401 0.000004 0.054448
# 5 0.056078 -0.016221 0.006262 0.000004 0.100954 0.000001
# 6 0.000001 0.000000 -0.000001 0.054448 0.000001 0.117018
#
#
# Mechanical properties :
#
#
# Convention : Reuss Voigt Hill
#
# Bulk Modulus (GPa) = 20.39179 50.65326 35.52252
# Shear Modulus (GPa) = 10.26341 20.82190 15.54266
#
# Velocity S-wave (km/s) = 2.21298 3.15205 2.72330
# Velocity P-wave (km/s) = 4.03236 6.11694 5.18058
#
# Compressibility (1/GPa) = 0.04903935
#
# Stress axis : x y z
#
# Youngs Moduli (GPa) = 13.85945 90.33349 36.33654
#
# Poissons Ratio (x) = 1.53394 0.42780
# Poissons Ratio (y) = 0.23534 0.07623
# Poissons Ratio (z) = 0.16317 0.18952
#
# Static dielectric constant tensor:
#      x y z
#    x 3.360260 0.000000 -0.241310 
#    y 0.000000 3.869670 0.000000 
#    z -0.241310 0.000000 3.879640 
# 
# 
# High freq. dielectric constant tensor:
#      x y z
#    x 1.790280 0.000000 -0.035300 
#    y 0.000000 1.830290 0.000000 
#    z -0.035300 0.000000 1.804910 
# 
# From -- ./inp_files/46477.got.cif
#   From: 2010.06.25/outbox.cif.g09.slc.cpg/sg12_24_cif.got.tgz:46477.got - 2010.06.28 00:19:55.
