data_PCOD8082868
_publ_section_title
;
Structure prediction by ZEFSAII (Michael W. Deem and Ramdas Pophale) SiO2 
 PCOD8082868
Probable space group: C 2/M
;
_chemical_formula_sum "Si O2"
_cell_formula_units_Z 48
_cell_length_a 14.066769
_cell_length_b 22.713321
_cell_length_c 13.852736
_cell_angle_alpha 90.000000
_cell_angle_beta 139.128906
_cell_angle_gamma 90.000000
_cell_volume 2896.188980
_symmetry_space_group_name_H-M "C 2/M"
_symmetry_group_IT_number 12
_symmetry_cell_setting 'monoclinic'
loop_
_space_group_symop_operation_xyz
x,y,z
-x,y,-z
-x,-y,-z
x,-y,z
1/2+x,1/2+y,z
1/2-x,1/2+y,-z
1/2-x,1/2-y,-z
1/2+x,1/2-y,z
loop_
_atom_site_type_symbol
_atom_site_label
_atom_site_fract_x
_atom_site_fract_y
_atom_site_fract_z
Si Si1 0.867845 0.677596 0.573534
Si Si2 0.362248 0.933623 0.460157
Si Si3 0.542138 0.566693 0.142565
Si Si4 0.335545 0.239571 0.213949
Si Si5 0.603768 0.318596 0.913105
Si Si6 0.175577 0.750747 0.286085
O O1 0.873558 0.607471 0.563168
O O2 0.839136 0.689843 0.664840
O O3 0.738740 0.700528 0.406935
O O4 0.010949 0.710351 0.645777
O O5 0.500000 0.918515 0.500000
O O6 0.214389 0.922142 0.286676
O O7 0.369329 0.000000 0.504204
O O8 0.501796 0.500000 0.144225
O O9 0.448598 0.613483 0.132873
O O10 0.500000 0.577356 0.000000
O O11 0.352369 0.297599 0.160566
O O12 0.269652 0.261505 0.264062
O O13 0.240104 0.188985 0.089126
O O14 0.481376 0.275656 0.864202
#
# Coordination Sequence:
#
# PCOD8082868 Si02
#       6
#     8   8   8   8   8   8
#     4  10  20  30  47  73  94 127 160 191 241 285
#     4  10  20  33  49  70  98 129 162 200 240 285
#     4  10  20  33  50  70  96 130 162 198 243 287
#     4  10  20  32  49  72  98 127 158 199 241 286
#     4  10  20  32  49  73  97 126 161 197 242 284
#     4  10  18  32  49  68  98 125 158 197 236 289
#
# _framework density 16.573504
#
# number of rings (size 3 to 8) (size 9 to 14) (size 15 to 20)
#    0.000    2.000    1.667    3.000    2.333    0.000 
#    0.000    0.000    0.000    1.000    0.000    2.333 
#    0.000    8.000    0.000    0.000    0.000    0.000 
#
# Total GULP energy -297564.917850 kJ/mol
# GULP energy per Si atom -12398.538244 kJ/mol
# Density = 1.653578 g / cm^3
# Si number density = 16.573504 Si / 1000 Ang^3
#
#
#
# Elastic Constant Matrix: (Units=GPa)
#
#
# Indices 1 2 3 4 5 6 
#
# 1 110.5514 49.1881 22.5896 0.0000 -7.5873 0.0000
# 2 49.1881 117.9689 28.8686 0.0000 -8.0477 0.0000
# 3 22.5896 28.8686 50.6315 0.0000 2.9645 0.0000
# 4 0.0000 0.0000 0.0000 21.8250 0.0000 0.0977
# 5 -7.5873 -8.0477 2.9645 0.0000 22.6832 0.0000
# 6 0.0000 0.0000 0.0000 0.0977 0.0000 25.4286
#
#
#
# Elastic Compliance Matrix: (Units=1/GPa)
#
#
# Indices 1 2 3 4 5 6 
#
# 1 0.011612 -0.003873 -0.003143 0.000000 0.002921 0.000000
# 2 -0.003873 0.011570 -0.005072 0.000000 0.003472 0.000000
# 3 -0.003143 -0.005072 0.024398 0.000000 -0.006040 0.000000
# 4 0.000000 0.000000 0.000000 0.045820 0.000000 -0.000176
# 5 0.002921 0.003472 -0.006040 0.000000 0.047084 0.000000
# 6 0.000000 0.000000 0.000000 -0.000176 0.000000 0.039327
#
#
# Mechanical properties :
#
#
# Convention : Reuss Voigt Hill
#
# Bulk Modulus (GPa) = 42.72950 53.38271 48.05610
# Shear Modulus (GPa) = 23.60856 25.88772 24.74814
#
# Velocity S-wave (km/s) = 3.77832 3.95649 3.86843
# Velocity P-wave (km/s) = 6.69866 7.29050 7.00084
#
# Compressibility (1/GPa) = 0.02340304
#
# Stress axis : x y z
#
# Youngs Moduli (GPa) = 86.12100 86.43203 40.98617
#
# Poissons Ratio (x) = 0.33476 0.12883
# Poissons Ratio (y) = 0.33355 0.20788
# Poissons Ratio (z) = 0.27070 0.43839
#
# Static dielectric constant tensor:
#      x y z
#    x 3.076930 0.000000 0.169950 
#    y 0.000000 3.149110 0.000000 
#    z 0.169950 0.000000 3.272540 
# 
# 
# High freq. dielectric constant tensor:
#      x y z
#    x 1.620770 0.000000 0.018890 
#    y 0.000000 1.622920 0.000000 
#    z 0.018890 0.000000 1.654930 
# 
# From -- ./inp_files/50595.got.cif
#   From: 2010.06.25/outbox.cif.g09.slc.cpg/sg12_26_cif.got.tgz:50595.got - 2010.06.28 00:19:55.
