data_PCOD8082827
_publ_section_title
;
Structure prediction by ZEFSAII (Michael W. Deem and Ramdas Pophale) SiO2 
 PCOD8082827
Probable space group: C 2/M
;
_chemical_formula_sum "Si O2"
_cell_formula_units_Z 64
_cell_length_a 8.886786
_cell_length_b 18.343953
_cell_length_c 20.084147
_cell_angle_alpha 90.000000
_cell_angle_beta 88.007500
_cell_angle_gamma 90.000000
_cell_volume 3272.113676
_symmetry_space_group_name_H-M "C 2/M"
_symmetry_group_IT_number 12
_symmetry_cell_setting 'monoclinic'
loop_
_space_group_symop_operation_xyz
x,y,z
-x,y,-z
-x,-y,-z
x,-y,z
1/2+x,1/2+y,z
1/2-x,1/2+y,-z
1/2-x,1/2-y,-z
1/2+x,1/2-y,z
loop_
_atom_site_type_symbol
_atom_site_label
_atom_site_fract_x
_atom_site_fract_y
_atom_site_fract_z
Si Si1 0.405630 0.240451 0.735056
Si Si2 0.158740 0.919102 0.531571
Si Si3 0.653095 0.699705 0.646552
Si Si4 0.353208 0.805262 0.173177
Si Si5 0.348201 0.190553 0.462822
Si Si6 0.663608 0.919351 0.022657
Si Si7 0.332348 0.420482 0.886739
Si Si8 0.086466 0.178115 0.928746
O O1 0.512154 0.302526 0.699466
O O2 0.313139 0.194544 0.681544
O O3 0.507394 0.186820 0.778428
O O4 0.291935 0.279182 0.785424
O O5 0.148830 0.867551 0.596178
O O6 0.268948 0.887837 0.472263
O O7 0.000000 0.924023 0.500000
O O8 0.213422 0.000000 0.552171
O O9 0.635134 0.780523 0.612772
O O10 0.310753 0.885386 0.148442
O O11 0.387521 0.754495 0.108853
O O12 0.500000 0.185663 0.500000
O O13 0.250000 0.250000 0.500000
O O14 0.747384 0.859785 0.068128
O O15 0.641956 0.000000 0.056963
O O16 0.500000 0.890452 0.000000
O O17 0.784144 0.930331 0.963081
O O18 0.367199 0.500000 0.854824
O O19 0.483227 0.371701 0.882233
O O20 0.000000 0.193307 0.000000
#
# Coordination Sequence:
#
# PCOD8082827 Si02
#       8
#     8   8   8   8   8   8   8   8
#     4  10  22  36  58  78 110 150 208 243 281 323
#     4  10  20  34  56  90 127 153 186 239 293 344
#     4  10  18  36  58  80 111 158 197 236 277 344
#     4  11  22  39  56  86 111 148 197 259 289 347
#     4  10  18  31  57  89 115 147 188 235 285 342
#     4   9  19  33  54  87 117 143 177 222 294 372
#     4  10  21  38  58  80 113 148 181 230 297 367
#     4  10  21  37  61  85 113 150 185 241 309 374
#
# _framework density 19.559224
#
# number of rings (size 3 to 8) (size 9 to 14) (size 15 to 20)
#    0.000    2.000    1.250    4.125    1.750    4.250 
#    0.000    1.250    0.000    3.000    0.000    0.000 
#    0.000    0.000    0.000    0.000    0.000    0.000 
#
# Total GULP energy -396536.048022 kJ/mol
# GULP energy per Si atom -12391.751501 kJ/mol
# Density = 1.951471 g / cm^3
# Si number density = 19.559224 Si / 1000 Ang^3
#
#
#
# Elastic Constant Matrix: (Units=GPa)
#
#
# Indices 1 2 3 4 5 6 
#
# 1 118.4322 38.8289 30.7449 0.0000 18.2220 0.0000
# 2 38.8289 110.2377 44.1855 0.0000 13.2175 0.0000
# 3 30.7449 44.1855 79.9675 0.0000 12.7991 0.0000
# 4 0.0000 0.0000 0.0000 2.8992 0.0000 8.2255
# 5 18.2220 13.2175 12.7991 0.0000 37.7913 0.0000
# 6 0.0000 0.0000 0.0000 8.2255 0.0000 22.5958
#
#
#
# Elastic Compliance Matrix: (Units=1/GPa)
#
#
# Indices 1 2 3 4 5 6 
#
# 1 0.010293 -0.002374 -0.002098 0.000000 -0.003422 0.000000
# 2 -0.002374 0.012345 -0.005710 0.000000 -0.001239 0.000000
# 3 -0.002098 -0.005710 0.016901 0.000000 -0.002716 0.000000
# 4 0.000000 0.000000 0.000000-10.507699 0.000000 3.825102
# 5 -0.003422 -0.001239 -0.002716 0.000000 0.029464 0.000000
# 6 0.000000 0.000000 0.000000 3.825102 0.000000 -1.348190
#
#
# Mechanical properties :
#
#
# Convention : Reuss Voigt Hill
#
# Bulk Modulus (GPa) = 52.15065 59.57291 55.86178
# Shear Modulus (GPa) = -0.42517 25.64913 12.61198
#
# Velocity S-wave (km/s) = -0.46674 3.62519 2.54207
# Velocity P-wave (km/s) = 5.14105 6.93156 6.10233
#
# Compressibility (1/GPa) = 0.01917522
#
# Stress axis : x y z
#
# Youngs Moduli (GPa) = 97.15113 81.00557 59.16756
#
# Poissons Ratio (x) = 0.19234 0.12411
# Poissons Ratio (y) = 0.23068 0.33784
# Poissons Ratio (z) = 0.20379 0.46253
#
# Static dielectric constant tensor:
#      x y z
#    x 4.076970 0.000000 0.100660 
#    y 0.000000 3.896390 0.000000 
#    z 0.100660 0.000000 3.853110 
# 
# 
# High freq. dielectric constant tensor:
#      x y z
#    x 1.783990 0.000000 0.005240 
#    y 0.000000 1.738830 0.000000 
#    z 0.005240 0.000000 1.745060 
# 
# From -- ./inp_files/300785.got.cif
#   From: 2010.06.25/outbox.cif.g09.slc.cpg/sg12_151_cif.got.tgz:300785.got - 2010.06.28 00:19:55.
