data_PCOD8082823
_publ_section_title
;
Structure prediction by ZEFSAII (Michael W. Deem and Ramdas Pophale) SiO2 
 PCOD8082823
Probable space group: C 2/M
;
_chemical_formula_sum "Si O2"
_cell_formula_units_Z 64
_cell_length_a 16.779389
_cell_length_b 29.214673
_cell_length_c 8.951048
_cell_angle_alpha 90.000000
_cell_angle_beta 135.881586
_cell_angle_gamma 90.000000
_cell_volume 3054.568475
_symmetry_space_group_name_H-M "C 2/M"
_symmetry_group_IT_number 12
_symmetry_cell_setting 'monoclinic'
loop_
_space_group_symop_operation_xyz
x,y,z
-x,y,-z
-x,-y,-z
x,-y,z
1/2+x,1/2+y,z
1/2-x,1/2+y,-z
1/2-x,1/2-y,-z
1/2+x,1/2-y,z
loop_
_atom_site_type_symbol
_atom_site_label
_atom_site_fract_x
_atom_site_fract_y
_atom_site_fract_z
Si Si1 0.932606 0.448683 0.556886
Si Si2 0.977484 0.049172 0.725655
Si Si3 0.325117 0.569005 0.784121
Si Si4 0.018794 0.147577 0.360678
Si Si5 0.585966 0.210532 0.750899
Si Si6 0.205323 0.833455 0.385987
Si Si7 0.338065 0.295803 0.967665
Si Si8 0.959292 0.360102 0.776968
O O1 0.971963 0.500000 0.657839
O O2 0.798766 0.449552 0.339121
O O3 0.954782 0.413002 0.720274
O O4 0.000000 0.432615 0.500000
O O5 0.870441 0.045551 0.694123
O O6 0.962340 0.092741 0.597153
O O7 0.981824 0.000000 0.644969
O O8 0.094978 0.056046 0.971614
O O9 0.327042 0.622951 0.757336
O O10 0.131534 0.170332 0.438045
O O11 0.000000 0.168477 0.500000
O O12 0.908688 0.159102 0.111907
O O13 0.500000 0.222595 0.500000
O O14 0.710866 0.199168 0.858541
O O15 0.546028 0.165783 0.785118
O O16 0.592613 0.252557 0.875393
O O17 0.172548 0.792023 0.227878
O O18 0.338012 0.834207 0.607039
O O19 0.000000 0.358962 0.000000
#
# Coordination Sequence:
#
# PCOD8082823 Si02
#       8
#     8   8   8   8   8   8   8   8
#     4  10  21  37  62  93 125 168 218 264 313 375
#     4  10  18  31  57  87 122 161 205 257 313 370
#     4   9  17  33  58  89 117 158 211 255 306 369
#     4  11  24  39  61  93 129 168 212 262 319 380
#     4  11  24  45  70 101 128 164 208 263 327 376
#     4  10  21  42  66  91 123 172 211 258 317 377
#     4  11  23  43  72  93 127 164 210 263 320 387
#     4  11  25  42  64  95 134 173 214 262 319 383
#
# _framework density 20.952224000000001
#
# number of rings (size 3 to 8) (size 9 to 14) (size 15 to 20)
#    0.000    1.625    2.500    2.625    3.500    1.500 
#    0.000    1.250    0.000    0.000    0.000    0.000 
#    0.000    0.000    0.000    0.000    0.000    0.000 
#
# Total GULP energy -396717.029360 kJ/mol
# GULP energy per Si atom -12397.407168 kJ/mol
# Density = 2.090454 g / cm^3
# Si number density = 20.952224 Si / 1000 Ang^3
#
#
#
# Elastic Constant Matrix: (Units=GPa)
#
#
# Indices 1 2 3 4 5 6 
#
# 1 120.8492 33.1758 53.8367 0.0000 0.5299 0.0000
# 2 33.1758 69.1204 26.8472 0.0000 1.1754 0.0000
# 3 53.8367 26.8472 107.6849 0.0000 -5.0320 0.0000
# 4 0.0000 0.0000 0.0000 -16.4265 0.0000 -73.7849
# 5 0.5299 1.1754 -5.0320 0.0000 38.7621 0.0000
# 6 0.0000 0.0000 0.0000 -73.7849 0.0000 -123.6707
#
#
#
# Elastic Compliance Matrix: (Units=1/GPa)
#
#
# Indices 1 2 3 4 5 6 
#
# 1 0.011422 -0.003588 -0.004848 0.000000 -0.000677 0.000000
# 2 -0.003588 0.017185 -0.002528 0.000000 -0.000800 0.000000
# 3 -0.004848 -0.002528 0.012422 0.000000 0.001756 0.000000
# 4 0.000000 0.000000 0.000000 0.036238 0.000000 -0.021620
# 5 -0.000677 -0.000800 0.001756 0.000000 0.026060 0.000000
# 6 0.000000 0.000000 0.000000 -0.021620 0.000000 0.004813
#
#
# Mechanical properties :
#
#
# Convention : Reuss Voigt Hill
#
# Bulk Modulus (GPa) = 52.34967 58.37488 55.36227
# Shear Modulus (GPa) = 36.64733 -8.01403 14.31665
#
# Velocity S-wave (km/s) = 4.18675 -1.95786 2.61684
# Velocity P-wave (km/s) = 6.95782 4.77603 5.96749
#
# Compressibility (1/GPa) = 0.01910232
#
# Stress axis : x y z
#
# Youngs Moduli (GPa) = 87.54826 58.18971 80.50091
#
# Poissons Ratio (x) = 0.20878 0.39024
# Poissons Ratio (y) = 0.31412 0.20351
# Poissons Ratio (z) = 0.42440 0.14711
#
# Static dielectric constant tensor:
#      x y z
#    x 3.854250 0.000000 0.160590 
#    y 0.000000 3.884460 0.000000 
#    z 0.160590 0.000000 3.588010 
# 
# 
# High freq. dielectric constant tensor:
#      x y z
#    x 1.825340 0.000000 0.012410 
#    y 0.000000 1.826030 0.000000 
#    z 0.012410 0.000000 1.805690 
# 
# From -- ./inp_files/80787.got.cif
#   From: 2010.06.25/outbox.cif.g09.slc.cpg/sg12_41_cif.got.tgz:80787.got - 2010.06.28 00:19:55.
