data_PCOD8082964
_publ_section_title
;
Structure prediction by ZEFSAII (Michael W. Deem and Ramdas Pophale) SiO2 
 PCOD8082964
Probable space group: C 2/M
;
_chemical_formula_sum "Si O2"
_cell_formula_units_Z 56
_cell_length_a 15.781582
_cell_length_b 16.809262
_cell_length_c 12.629085
_cell_angle_alpha 90.000000
_cell_angle_beta 108.810213
_cell_angle_gamma 90.000000
_cell_volume 3171.274296
_symmetry_space_group_name_H-M "C 2/M"
_symmetry_group_IT_number 12
_symmetry_cell_setting 'monoclinic'
loop_
_space_group_symop_operation_xyz
x,y,z
-x,y,-z
-x,-y,-z
x,-y,z
1/2+x,1/2+y,z
1/2-x,1/2+y,-z
1/2-x,1/2-y,-z
1/2+x,1/2-y,z
loop_
_atom_site_type_symbol
_atom_site_label
_atom_site_fract_x
_atom_site_fract_y
_atom_site_fract_z
Si Si1 0.809515 0.191965 0.298756
Si Si2 0.390579 0.195269 0.745823
Si Si3 0.419950 0.730737 0.535221
Si Si4 0.497303 0.667106 0.880957
Si Si5 0.023596 0.909545 0.681813
Si Si6 0.836136 0.274758 0.099715
Si Si7 0.963127 0.407761 0.101805
O O1 0.706770 0.163443 0.259232
O O2 0.833624 0.223041 0.425571
O O3 0.873834 0.118849 0.292685
O O4 0.820401 0.264143 0.219141
O O5 0.392758 0.216004 0.622939
O O6 0.414338 0.272690 0.826771
O O7 0.461486 0.124480 0.788053
O O8 0.500000 0.771980 0.500000
O O9 0.455936 0.644027 0.586224
O O10 0.496717 0.596377 0.795057
O O11 0.585937 0.717458 0.904586
O O12 0.500000 0.630438 0.000000
O O13 0.013882 0.000000 0.640231
O O14 0.867767 0.364513 0.084920
O O15 0.750000 0.250000 0.000000
O O16 0.946249 0.500000 0.115704
O O17 0.000000 0.389833 0.000000
#
# Coordination Sequence:
#
# PCOD8082964 Si02
#       7
#     8   8   8   8   8   8   8
#     4  10  19  30  51  76  96 127 167 207 241 284
#     4  10  18  32  52  73  98 125 162 203 243 289
#     4   9  18  32  51  74  95 127 168 206 243 282
#     4   9  17  30  49  71  94 127 166 199 236 283
#     4   9  19  32  46  70 102 131 160 199 248 291
#     4  10  18  32  52  72  97 128 164 200 238 286
#     4  10  20  33  50  74 103 131 160 200 251 298
#
# _framework density 17.658517
#
# number of rings (size 3 to 8) (size 9 to 14) (size 15 to 20)
#    0.000    2.429    0.000    6.429    0.000    3.429 
#    0.000    4.286    0.000   10.714    0.000    0.000 
#    0.000    0.000    0.000    0.000    0.000    0.000 
#
# Total GULP energy -347085.037416 kJ/mol
# GULP energy per Si atom -12395.894193 kJ/mol
# Density = 1.761833 g / cm^3
# Si number density = 17.658517 Si / 1000 Ang^3
#
#
#
# Elastic Constant Matrix: (Units=GPa)
#
#
# Indices 1 2 3 4 5 6 
#
# 1 93.1456 38.5437 42.7132 0.0000 12.0220 0.0000
# 2 38.5437 93.7148 37.4776 0.0000 -0.9364 0.0000
# 3 42.7132 37.4776 130.1394 0.0000 -5.2307 0.0000
# 4 0.0000 0.0000 0.0000 10.8949 0.0000 -3.3538
# 5 12.0220 -0.9364 -5.2307 0.0000 35.5823 0.0000
# 6 0.0000 0.0000 0.0000 -3.3538 0.0000 16.8374
#
#
#
# Elastic Compliance Matrix: (Units=1/GPa)
#
#
# Indices 1 2 3 4 5 6 
#
# 1 0.015238 -0.004782 -0.003859 0.000000 -0.005842 0.000000
# 2 -0.004782 0.013562 -0.002270 0.000000 0.001639 0.000000
# 3 -0.003859 -0.002270 0.009712 0.000000 0.002672 0.000000
# 4 0.000000 0.000000 0.000000 0.097781 0.000000 0.019477
# 5 -0.005842 0.001639 0.002672 0.000000 0.030513 0.000000
# 6 0.000000 0.000000 0.000000 0.019477 0.000000 0.063271
#
#
# Mechanical properties :
#
#
# Convention : Reuss Voigt Hill
#
# Bulk Modulus (GPa) = 59.91942 61.60765 60.76353
# Shear Modulus (GPa) = 19.42020 25.88062 22.65041
#
# Velocity S-wave (km/s) = 3.31987 3.83249 3.58535
# Velocity P-wave (km/s) = 6.97863 7.38567 7.18503
#
# Compressibility (1/GPa) = 0.01668908
#
# Stress axis : x y z
#
# Youngs Moduli (GPa) = 65.62363 73.73644 102.96842
#
# Poissons Ratio (x) = 0.35264 0.39735
# Poissons Ratio (y) = 0.31384 0.23374
# Poissons Ratio (z) = 0.25324 0.16738
#
# Static dielectric constant tensor:
#      x y z
#    x 3.351900 0.000000 -0.310060 
#    y 0.000000 3.036770 0.000000 
#    z -0.310060 0.000000 3.019360 
# 
# 
# High freq. dielectric constant tensor:
#      x y z
#    x 1.683030 0.000000 -0.002340 
#    y 0.000000 1.639850 0.000000 
#    z -0.002340 0.000000 1.703310 
# 
# From -- ./inp_files/145688.got.cif
#   From: 2010.06.25/outbox.cif.g09.slc.cpg/sg12_73_cif.got.tgz:145688.got - 2010.06.28 00:19:55.
