data_PCOD8082906
_publ_section_title
;
Structure prediction by ZEFSAII (Michael W. Deem and Ramdas Pophale) SiO2 
 PCOD8082906
Probable space group: C 2/M
;
_chemical_formula_sum "Si O2"
_cell_formula_units_Z 60
_cell_length_a 15.004867
_cell_length_b 10.836380
_cell_length_c 28.010667
_cell_angle_alpha 90.000000
_cell_angle_beta 47.030274
_cell_angle_gamma 90.000000
_cell_volume 3332.584456
_symmetry_space_group_name_H-M "C 2/M"
_symmetry_group_IT_number 12
_symmetry_cell_setting 'monoclinic'
loop_
_space_group_symop_operation_xyz
x,y,z
-x,y,-z
-x,-y,-z
x,-y,z
1/2+x,1/2+y,z
1/2-x,1/2+y,-z
1/2-x,1/2-y,-z
1/2+x,1/2-y,z
loop_
_atom_site_type_symbol
_atom_site_label
_atom_site_fract_x
_atom_site_fract_y
_atom_site_fract_z
Si Si1 0.500000 0.310683 0.000000
Si Si2 0.810510 0.355074 0.648020
Si Si3 0.866264 0.762764 0.888856
Si Si4 0.362565 0.646240 0.206513
Si Si5 0.780322 0.143247 0.422354
Si Si6 0.582064 0.857057 0.575982
Si Si7 0.726605 0.365506 0.861427
Si Si8 0.362332 0.867331 0.984024
O O1 0.390792 0.389481 0.061801
O O2 0.548351 0.231480 0.026328
O O3 0.800458 0.500000 0.654420
O O4 0.721127 0.297718 0.720807
O O5 0.767472 0.312245 0.611636
O O6 0.948424 0.315064 0.608119
O O7 0.823838 0.722176 0.851615
O O8 0.860103 0.647969 0.927607
O O9 0.999809 0.815669 0.834312
O O10 0.773963 0.863672 0.944389
O O11 0.356856 0.500000 0.206750
O O12 0.311885 0.697771 0.174539
O O13 0.666483 0.147335 0.499046
O O14 0.877355 0.249775 0.401608
O O15 0.832373 0.000000 0.402663
O O16 0.583452 0.000000 0.596188
O O17 0.785794 0.500000 0.830842
O O18 0.418028 0.000000 0.975177
#
# Coordination Sequence:
#
# PCOD8082906 Si02
#       8
#     4   8   8   8   8   8   8   8
#     4  10  18  32  50  72  92 122 154 198 256 306
#     4   9  18  32  52  74 100 140 177 207 247 302
#     4  10  20  33  49  71  95 125 159 202 252 303
#     4  10  20  35  52  72  99 132 170 206 245 297
#     4   9  17  31  53  81 110 140 174 215 258 300
#     4   9  17  31  53  82 110 138 176 217 255 299
#     4  10  20  33  51  72  95 123 159 204 251 302
#     4  10  19  31  48  71  95 120 155 202 254 306
#
# _framework density 18.004045999999999
#
# number of rings (size 3 to 8) (size 9 to 14) (size 15 to 20)
#    0.000    2.400    1.333    1.600    0.000    2.667 
#    0.000    0.667    0.000    5.600    0.000    0.000 
#    0.000    0.000    0.000    0.000    0.000    0.000 
#
# Total GULP energy -371750.923774 kJ/mol
# GULP energy per Si atom -12391.697459 kJ/mol
# Density = 1.796307 g / cm^3
# Si number density = 18.004046 Si / 1000 Ang^3
#
#
#
# Elastic Constant Matrix: (Units=GPa)
#
#
# Indices 1 2 3 4 5 6 
#
# 1 137.5014 41.4680 49.8417 0.0000 16.4366 0.0000
# 2 41.4680 72.0499 19.9295 0.0000 7.7135 0.0000
# 3 49.8417 19.9295 61.9202 0.0000 11.5732 0.0000
# 4 0.0000 0.0000 0.0000 35.1063 0.0000 -32.9084
# 5 16.4366 7.7135 11.5732 0.0000 21.9740 0.0000
# 6 0.0000 0.0000 0.0000 -32.9084 0.0000 39.6982
#
#
#
# Elastic Compliance Matrix: (Units=1/GPa)
#
#
# Indices 1 2 3 4 5 6 
#
# 1 0.011636 -0.004306 -0.007360 0.000000 -0.003315 0.000000
# 2 -0.004306 0.017018 -0.001660 0.000000 -0.001879 0.000000
# 3 -0.007360 -0.001660 0.023815 0.000000 -0.006455 0.000000
# 4 0.000000 0.000000 0.000000 0.127771 0.000000 0.105918
# 5 -0.003315 -0.001879 -0.006455 0.000000 0.052047 0.000000
# 6 0.000000 0.000000 0.000000 0.105918 0.000000 0.112992
#
#
# Mechanical properties :
#
#
# Convention : Reuss Voigt Hill
#
# Bulk Modulus (GPa) = 38.73620 54.88331 46.80976
# Shear Modulus (GPa) = 13.13933 30.03786 21.58859
#
# Velocity S-wave (km/s) = 2.70441 4.08903 3.46655
# Velocity P-wave (km/s) = 5.59587 7.26936 6.48681
#
# Compressibility (1/GPa) = 0.02581564
#
# Stress axis : x y z
#
# Youngs Moduli (GPa) = 85.94376 58.76175 41.99016
#
# Poissons Ratio (x) = 0.25302 0.30906
# Poissons Ratio (y) = 0.37007 0.06971
# Poissons Ratio (z) = 0.63257 0.09756
#
# Static dielectric constant tensor:
#      x y z
#    x 3.446280 0.000000 0.114660 
#    y 0.000000 3.173870 0.000000 
#    z 0.114660 0.000000 3.395000 
# 
# 
# High freq. dielectric constant tensor:
#      x y z
#    x 1.704630 0.000000 0.007580 
#    y 0.000000 1.673180 0.000000 
#    z 0.007580 0.000000 1.687470 
# 
# From -- ./inp_files/339562.got.cif
#   From: 2010.06.25/outbox.cif.g09.slc.cpg/sg12_170_cif.got.tgz:339562.got - 2010.06.28 00:19:55.
