data_PCOD8082809
_publ_section_title
;
Structure prediction by ZEFSAII (Michael W. Deem and Ramdas Pophale) SiO2 
 PCOD8082809
Probable space group: C 2/M
;
_chemical_formula_sum "Si O2"
_cell_formula_units_Z 52
_cell_length_a 8.894181
_cell_length_b 29.230267
_cell_length_c 14.545457
_cell_angle_alpha 90.000000
_cell_angle_beta 43.593335
_cell_angle_gamma 90.000000
_cell_volume 2607.489811
_symmetry_space_group_name_H-M "C 2/M"
_symmetry_group_IT_number 12
_symmetry_cell_setting 'monoclinic'
loop_
_space_group_symop_operation_xyz
x,y,z
-x,y,-z
-x,-y,-z
x,-y,z
1/2+x,1/2+y,z
1/2-x,1/2+y,-z
1/2-x,1/2-y,-z
1/2+x,1/2-y,z
loop_
_atom_site_type_symbol
_atom_site_label
_atom_site_fract_x
_atom_site_fract_y
_atom_site_fract_z
Si Si1 0.458624 0.450048 0.712569
Si Si2 0.279047 0.203469 0.542646
Si Si3 0.453465 0.948363 0.236219
Si Si4 0.209438 0.598928 0.970004
Si Si5 0.203417 0.887323 0.478018
Si Si6 0.500000 0.747376 0.000000
Si Si7 0.079852 0.805486 0.143247
O O1 0.570093 0.500000 0.667749
O O2 0.262029 0.451748 0.728346
O O3 0.366074 0.438068 0.853312
O O4 0.633116 0.412737 0.602764
O O5 0.500000 0.206822 0.500000
O O6 0.250000 0.250000 0.500000
O O7 0.294549 0.162560 0.461905
O O8 0.081686 0.193087 0.699126
O O9 0.398863 0.917415 0.348772
O O10 0.526555 0.000000 0.232035
O O11 0.644068 0.922466 0.096666
O O12 0.345633 0.644842 0.923393
O O13 0.000000 0.609718 0.000000
O O14 0.000000 0.881569 0.500000
O O15 0.287995 0.777929 0.084958
O O16 0.464018 0.717269 0.107029
#
# Coordination Sequence:
#
# PCOD8082809 Si02
#       7
#     8   8   8   8   8   4   8
#     4   9  16  30  53  84 119 157 199 251 303 354
#     4  12  26  43  63  89 124 164 208 253 304 366
#     4   9  18  30  52  89 125 155 197 251 310 360
#     4  10  18  31  56  86 122 153 196 252 307 357
#     4  10  20  35  59  88 122 161 204 254 304 360
#     4  10  24  38  66  86 122 158 202 254 310 364
#     4  11  22  42  60  91 119 160 203 254 306 370
#
# _framework density 19.942551999999999
#
# number of rings (size 3 to 8) (size 9 to 14) (size 15 to 20)
#    0.000    1.846    2.308    2.308    0.000    7.385 
#    0.000    0.000    0.000    1.846    0.000    2.154 
#    0.000    0.000    0.000    0.000    0.000    0.000 
#
# Total GULP energy -322408.876293 kJ/mol
# GULP energy per Si atom -12400.341396 kJ/mol
# Density = 1.989716 g / cm^3
# Si number density = 19.942552 Si / 1000 Ang^3
#
#
#
# Elastic Constant Matrix: (Units=GPa)
#
#
# Indices 1 2 3 4 5 6 
#
# 1 60.1911 42.0488 27.4730 0.0000 3.3365 0.0000
# 2 42.0488 185.8696 71.0046 0.0000 7.1826 0.0000
# 3 27.4730 71.0046 144.1990 0.0000 16.8113 0.0000
# 4 0.0000 0.0000 0.0000 35.5727 0.0000 4.5969
# 5 3.3365 7.1826 16.8113 0.0000 19.0425 0.0000
# 6 0.0000 0.0000 0.0000 4.5969 0.0000 19.1486
#
#
#
# Elastic Compliance Matrix: (Units=1/GPa)
#
#
# Indices 1 2 3 4 5 6 
#
# 1 0.020178 -0.003816 -0.001918 0.000000 -0.000402 0.000000
# 2 -0.003816 0.007352 -0.002951 0.000000 0.000501 0.000000
# 3 -0.001918 -0.002951 0.009569 0.000000 -0.006999 0.000000
# 4 0.000000 0.000000 0.000000 0.029011 0.000000 -0.006965
# 5 -0.000402 0.000501 -0.006999 0.000000 0.058574 0.000000
# 6 0.000000 0.000000 0.000000 -0.006965 0.000000 0.053895
#
#
# Mechanical properties :
#
#
# Convention : Reuss Voigt Hill
#
# Bulk Modulus (GPa) = 50.69184 74.59029 62.64107
# Shear Modulus (GPa) = 24.68809 31.40167 28.04488
#
# Velocity S-wave (km/s) = 3.52228 3.97244 3.75411
# Velocity P-wave (km/s) = 6.48198 7.65010 7.09014
#
# Compressibility (1/GPa) = 0.01972704
#
# Stress axis : x y z
#
# Youngs Moduli (GPa) = 49.55978 136.02559 104.49874
#
# Poissons Ratio (x) = 0.51913 0.20044
# Poissons Ratio (y) = 0.18914 0.30841
# Poissons Ratio (z) = 0.09506 0.40145
#
# Static dielectric constant tensor:
#      x y z
#    x 3.268760 0.000000 0.148180 
#    y 0.000000 3.861620 0.000000 
#    z 0.148180 0.000000 3.766310 
# 
# 
# High freq. dielectric constant tensor:
#      x y z
#    x 1.735740 0.000000 0.011240 
#    y 0.000000 1.798000 0.000000 
#    z 0.011240 0.000000 1.789640 
# 
# From -- ./inp_files/201194.got.cif
#   From: 2010.06.25/outbox.cif.g09.slc.cpg/sg12_101_cif.got.tgz:201194.got - 2010.06.28 00:19:55.
