data_PCOD8082748
_publ_section_title
;
Structure prediction by ZEFSAII (Michael W. Deem and Ramdas Pophale) SiO2 
 PCOD8082748
Probable space group: C 2/M
;
_chemical_formula_sum "Si O2"
_cell_formula_units_Z 64
_cell_length_a 22.480566
_cell_length_b 14.143967
_cell_length_c 11.488768
_cell_angle_alpha 90.000000
_cell_angle_beta 98.802821
_cell_angle_gamma 90.000000
_cell_volume 3609.989569
_symmetry_space_group_name_H-M "C 2/M"
_symmetry_group_IT_number 12
_symmetry_cell_setting 'monoclinic'
loop_
_space_group_symop_operation_xyz
x,y,z
-x,y,-z
-x,-y,-z
x,-y,z
1/2+x,1/2+y,z
1/2-x,1/2+y,-z
1/2-x,1/2-y,-z
1/2+x,1/2-y,z
loop_
_atom_site_type_symbol
_atom_site_label
_atom_site_fract_x
_atom_site_fract_y
_atom_site_fract_z
Si Si1 0.458013 0.390648 0.212628
Si Si2 0.083574 0.890088 0.342205
Si Si3 0.631209 0.390976 0.600092
Si Si4 0.346142 0.108680 0.132548
Si Si5 0.723784 0.395499 0.974577
Si Si6 0.661510 0.309838 0.169881
Si Si7 0.434338 0.767283 0.024640
Si Si8 0.213230 0.233845 0.758214
O O1 0.462944 0.500000 0.174832
O O2 0.521550 0.346993 0.274546
O O3 0.412661 0.378127 0.304830
O O4 0.436849 0.332140 0.094213
O O5 0.099708 0.849804 0.474687
O O6 0.137454 0.870361 0.270134
O O7 0.072083 0.000000 0.354145
O O8 0.650857 0.500000 0.589066
O O9 0.690024 0.327082 0.642131
O O10 0.408216 0.150517 0.100082
O O11 0.323443 0.167336 0.239455
O O12 0.356366 0.000000 0.173152
O O13 0.294933 0.117292 0.017631
O O14 0.709626 0.500000 0.921843
O O15 0.699963 0.320459 0.875313
O O16 0.688210 0.381985 0.083748
O O17 0.715410 0.245425 0.236681
O O18 0.608844 0.245667 0.099774
O O19 0.500000 0.798944 0.000000
#
# Coordination Sequence:
#
# PCOD8082748 Si02
#       8
#     8   8   8   8   8   8   8   8
#     4  10  20  34  55  81 110 140 172 212 260 323
#     4  10  21  35  51  78 113 144 174 213 261 315
#     4  10  20  35  56  80 106 141 179 215 261 314
#     4  10  20  35  52  76 105 137 175 218 262 306
#     4  10  18  31  55  80 106 137 164 209 270 323
#     4  11  20  33  49  78 113 140 172 211 258 318
#     4  12  21  34  54  79 108 141 175 212 267 323
#     4  11  19  34  56  78 106 136 180 219 259 317
#
# _framework density 17.728581999999999
#
# number of rings (size 3 to 8) (size 9 to 14) (size 15 to 20)
#    0.000    1.500    5.000    1.875    0.000    5.000 
#    0.000    0.000    0.000    0.000    0.000    2.625 
#    0.000    0.000    0.000    0.000    0.000    0.000 
#
# Total GULP energy -396824.183830 kJ/mol
# GULP energy per Si atom -12400.755745 kJ/mol
# Density = 1.768823 g / cm^3
# Si number density = 17.728582 Si / 1000 Ang^3
#
#
#
# Elastic Constant Matrix: (Units=GPa)
#
#
# Indices 1 2 3 4 5 6 
#
# 1 101.7242 24.3268 25.3761 0.0000 17.2137 0.0000
# 2 24.3268 77.2579 19.5491 0.0000 14.9227 0.0000
# 3 25.3761 19.5491 56.2018 0.0000 12.1446 0.0000
# 4 0.0000 0.0000 0.0000 21.2106 0.0000 2.7350
# 5 17.2137 14.9227 12.1446 0.0000 18.8457 0.0000
# 6 0.0000 0.0000 0.0000 2.7350 0.0000 26.9851
#
#
#
# Elastic Compliance Matrix: (Units=1/GPa)
#
#
# Indices 1 2 3 4 5 6 
#
# 1 0.012371 -0.001515 -0.003342 0.000000 -0.007947 0.000000
# 2 -0.001515 0.015958 -0.002829 0.000000 -0.009429 0.000000
# 3 -0.003342 -0.002829 0.022239 0.000000 -0.009039 0.000000
# 4 0.000000 0.000000 0.000000 0.047770 0.000000 -0.004842
# 5 -0.007947 -0.009429 -0.009039 0.000000 0.073612 0.000000
# 6 0.000000 0.000000 0.000000 -0.004842 0.000000 0.037548
#
#
# Mechanical properties :
#
#
# Convention : Reuss Voigt Hill
#
# Bulk Modulus (GPa) = 28.41179 41.52086 34.96633
# Shear Modulus (GPa) = 21.13248 24.47042 22.80145
#
# Velocity S-wave (km/s) = 3.45628 3.71924 3.59017
# Velocity P-wave (km/s) = 5.65585 6.47417 6.07879
#
# Compressibility (1/GPa) = 0.03519666
#
# Stress axis : x y z
#
# Youngs Moduli (GPa) = 80.83329 62.66518 44.96582
#
# Poissons Ratio (x) = 0.09493 0.15026
# Poissons Ratio (y) = 0.12245 0.12722
# Poissons Ratio (z) = 0.27011 0.17729
#
# Static dielectric constant tensor:
#      x y z
#    x 3.416810 0.000000 0.216890 
#    y 0.000000 3.243440 0.000000 
#    z 0.216890 0.000000 3.225300 
# 
# 
# High freq. dielectric constant tensor:
#      x y z
#    x 1.692820 0.000000 0.010750 
#    y 0.000000 1.666120 0.000000 
#    z 0.010750 0.000000 1.667080 
# 
# From -- ./inp_files/167250.got.cif
#   From: 2010.06.25/outbox.cif.g09.slc.cpg/sg12_84_cif.got.tgz:167250.got - 2010.06.28 00:19:55.
