data_PCOD8082293
_publ_section_title
;
Structure prediction by ZEFSAII (Michael W. Deem and Ramdas Pophale) SiO2 
 PCOD8082293
Probable space group: C 2/M
;
_chemical_formula_sum "Si O2"
_cell_formula_units_Z 64
_cell_length_a 16.715888
_cell_length_b 15.414096
_cell_length_c 30.114465
_cell_angle_alpha 90.000000
_cell_angle_beta 27.698966
_cell_angle_gamma 90.000000
_cell_volume 3606.725906
_symmetry_space_group_name_H-M "C 2/M"
_symmetry_group_IT_number 12
_symmetry_cell_setting 'monoclinic'
loop_
_space_group_symop_operation_xyz
x,y,z
-x,y,-z
-x,-y,-z
x,-y,z
1/2+x,1/2+y,z
1/2-x,1/2+y,-z
1/2-x,1/2-y,-z
1/2+x,1/2-y,z
loop_
_atom_site_type_symbol
_atom_site_label
_atom_site_fract_x
_atom_site_fract_y
_atom_site_fract_z
Si Si1 0.387122 0.899251 0.677906
Si Si2 0.379108 0.811115 0.858919
Si Si3 0.505616 0.598945 0.722968
Si Si4 0.329262 0.096650 0.968030
Si Si5 0.522676 0.642675 0.815043
Si Si6 0.892424 0.601838 0.512716
Si Si7 0.843390 0.278949 0.780001
Si Si8 0.480880 0.783610 0.960900
O O1 0.528993 0.868093 0.572689
O O2 0.423049 0.833709 0.700754
O O3 0.197850 0.890237 0.750335
O O4 0.412431 0.000000 0.679867
O O5 0.373813 0.894240 0.893611
O O6 0.527306 0.746046 0.804002
O O7 0.409138 0.829660 0.791996
O O8 0.195116 0.767343 0.954009
O O9 0.460136 0.500000 0.728634
O O10 0.491388 0.595604 0.783294
O O11 0.694429 0.627989 0.614210
O O12 0.386865 0.675135 0.760432
O O13 0.473111 0.146767 0.925644
O O14 0.356215 0.000000 0.969526
O O15 0.133274 0.124042 0.074471
O O16 0.915098 0.500000 0.505512
O O17 0.000000 0.646029 0.500000
O O18 0.637089 0.283349 0.876032
O O19 0.500000 0.828898 0.000000
#
# Coordination Sequence:
#
# PCOD8082293 Si02
#       8
#     8   8   8   8   8   8   8   8
#     4  11  20  31  51  75 100 126 157 198 242 288
#     4   9  19  34  47  63  97 134 163 197 238 278
#     4  10  19  33  52  74  99 124 154 197 246 292
#     4  11  20  29  47  70  94 129 167 200 234 280
#     4  10  18  31  51  72  92 121 165 207 241 281
#     4   9  17  31  51  76 101 120 146 197 254 289
#     4  10  21  33  49  72  98 132 164 193 234 286
#     4   9  18  33  48  65  95 128 157 202 250 277
#
# _framework density 17.744626
#
# number of rings (size 3 to 8) (size 9 to 14) (size 15 to 20)
#    0.000    2.125    1.250    4.875    0.000    1.750 
#    0.000    0.000    0.000    3.750    0.000    0.000 
#    0.000    1.000    0.000    0.000    0.000    0.000 
#
# Total GULP energy -396523.980132 kJ/mol
# GULP energy per Si atom -12391.374379 kJ/mol
# Density = 1.770424 g / cm^3
# Si number density = 17.744626 Si / 1000 Ang^3
#
#
#
# Elastic Constant Matrix: (Units=GPa)
#
#
# Indices 1 2 3 4 5 6 
#
# 1 65.0054 22.5939 17.3132 -0.0007 12.0070 -0.0012
# 2 22.5939 35.9936 10.3310 -0.0033 7.1234 0.0000
# 3 17.3132 10.3310 68.7453 -0.0161 9.6874 -0.0066
# 4 -0.0007 -0.0033 -0.0161 19.2790 0.0023 8.5368
# 5 12.0070 7.1234 9.6874 0.0023 12.6778 -0.0007
# 6 -0.0012 0.0000 -0.0066 8.5368 -0.0007 13.8991
#
#
#
# Elastic Compliance Matrix: (Units=1/GPa)
#
#
# Indices 1 2 3 4 5 6 
#
# 1 0.022102 -0.010630 -0.002085 -0.000002 -0.013367 0.000001
# 2 -0.010630 0.036757 -0.001518 0.000009 -0.009425 -0.000008
# 3 -0.002085 -0.001518 0.016699 0.000016 -0.009932 -0.000002
# 4 -0.000002 0.000009 0.000016 0.071247 -0.000031 -0.043760
# 5 -0.013367 -0.009425 -0.009932 -0.000031 0.104423 0.000018
# 6 0.000001 -0.000008 -0.000002 -0.043760 0.000018 0.098824
#
#
# Mechanical properties :
#
#
# Convention : Reuss Voigt Hill
#
# Bulk Modulus (GPa) = 21.23572 30.02451 25.63011
# Shear Modulus (GPa) = 12.68337 17.13825 14.91081
#
# Velocity S-wave (km/s) = 2.67642 3.11115 2.90194
# Velocity P-wave (km/s) = 4.64159 5.46468 5.06987
#
# Compressibility (1/GPa) = 0.04709047
#
# Stress axis : x y z
#
# Youngs Moduli (GPa) = 45.24400 27.20602 59.88215
#
# Poissons Ratio (x) = 0.28921 0.12487
# Poissons Ratio (y) = 0.48095 0.09093
# Poissons Ratio (z) = 0.09435 0.04131
#
# Static dielectric constant tensor:
#      x y z
#    x 3.478030 0.000000 0.191480 
#    y 0.000000 3.118890 0.000010 
#    z 0.191480 0.000010 3.502850 
# 
# 
# High freq. dielectric constant tensor:
#      x y z
#    x 1.682330 0.000000 0.010920 
#    y 0.000000 1.656740 0.000000 
#    z 0.010920 0.000000 1.681740 
# 
# From -- ./inp_files/379329.got.cif
#   From: 2010.06.25/outbox.cif.g09.slc.cpg/sg12_190_cif.got.tgz:379329.got - 2010.06.28 00:19:55.
