data_PCOD8082142
_publ_section_title
;
Structure prediction by ZEFSAII (Michael W. Deem and Ramdas Pophale) SiO2 
 PCOD8082142
Probable space group: C 2/M
;
_chemical_formula_sum "Si O2"
_cell_formula_units_Z 56
_cell_length_a 17.507236
_cell_length_b 14.133277
_cell_length_c 14.396229
_cell_angle_alpha 90.000000
_cell_angle_beta 125.365330
_cell_angle_gamma 90.000000
_cell_volume 2904.835507
_symmetry_space_group_name_H-M "C 2/M"
_symmetry_group_IT_number 12
_symmetry_cell_setting 'monoclinic'
loop_
_space_group_symop_operation_xyz
x,y,z
-x,y,-z
-x,-y,-z
x,-y,z
1/2+x,1/2+y,z
1/2-x,1/2+y,-z
1/2-x,1/2-y,-z
1/2+x,1/2-y,z
loop_
_atom_site_type_symbol
_atom_site_label
_atom_site_fract_x
_atom_site_fract_y
_atom_site_fract_z
Si Si1 0.118245 0.778273 0.774796
Si Si2 0.064778 0.891593 0.386623
Si Si3 0.897463 0.270779 0.441752
Si Si4 0.364408 0.104412 0.738614
Si Si5 0.709139 0.891811 0.123633
Si Si6 0.430017 0.109367 0.136100
Si Si7 0.737872 0.855736 0.518079
O O1 0.141783 0.758359 0.684572
O O2 0.206831 0.839142 0.870965
O O3 0.121447 0.677664 0.827892
O O4 0.022703 0.838948 0.724153
O O5 0.094270 0.828449 0.496017
O O6 0.158395 0.897405 0.386257
O O7 0.037539 0.000000 0.395018
O O8 0.832644 0.352886 0.443284
O O9 0.000000 0.317048 0.500000
O O10 0.309327 0.152880 0.785840
O O11 0.464776 0.152348 0.791971
O O12 0.306499 0.093951 0.602720
O O13 0.388689 0.000000 0.792825
O O14 0.741331 0.000000 0.154871
O O15 0.615151 0.880863 0.997137
O O16 0.425220 0.000000 0.167890
O O17 0.750000 0.750000 0.500000
#
# Coordination Sequence:
#
# PCOD8082142 Si02
#       7
#     8   8   8   8   8   8   8
#     4  11  21  34  53  76 107 142 171 207 255 309
#     4  10  20  33  52  79 109 139 170 209 259 310
#     4   9  19  32  50  75 107 140 172 208 248 302
#     4  10  19  33  54  77 100 128 166 216 267 304
#     4  10  20  34  55  81 103 127 168 221 271 309
#     4  10  21  37  54  74 102 136 176 218 257 303
#     4  10  18  31  49  73 107 138 166 199 242 305
#
# _framework density 19.278199999999998
#
# number of rings (size 3 to 8) (size 9 to 14) (size 15 to 20)
#    0.000    2.000    0.000    6.000    0.000    6.000 
#    0.000    1.429    0.000    7.286    0.000    0.000 
#    0.000   17.143    0.000    0.000    0.000    0.000 
#
# Total GULP energy -346871.269055 kJ/mol
# GULP energy per Si atom -12388.259609 kJ/mol
# Density = 1.923432 g / cm^3
# Si number density = 19.278200 Si / 1000 Ang^3
#
#
#
# Elastic Constant Matrix: (Units=GPa)
#
#
# Indices 1 2 3 4 5 6 
#
# 1 124.9174 41.3572 32.7969 0.0000 14.4773 0.0000
# 2 41.3572 84.3345 21.0122 0.0000 -4.4820 0.0000
# 3 32.7969 21.0122 54.7097 0.0000 13.8360 0.0000
# 4 0.0000 0.0000 0.0000 21.8991 0.0000 3.9516
# 5 14.4773 -4.4820 13.8360 0.0000 28.2551 0.0000
# 6 0.0000 0.0000 0.0000 3.9516 0.0000 27.0589
#
#
#
# Elastic Compliance Matrix: (Units=1/GPa)
#
#
# Indices 1 2 3 4 5 6 
#
# 1 0.011079 -0.004776 -0.003629 0.000000 -0.004657 0.000000
# 2 -0.004776 0.015874 -0.005123 0.000000 0.007474 0.000000
# 3 -0.003629 -0.005123 0.025289 0.000000 -0.011336 0.000000
# 4 0.000000 0.000000 0.000000 0.046900 0.000000 -0.006849
# 5 -0.004657 0.007474 -0.011336 0.000000 0.044515 0.000000
# 6 0.000000 0.000000 0.000000 -0.006849 0.000000 0.037957
#
#
# Mechanical properties :
#
#
# Convention : Reuss Voigt Hill
#
# Bulk Modulus (GPa) = 39.70919 50.47714 45.09316
# Shear Modulus (GPa) = 23.03444 26.69563 24.86504
#
# Velocity S-wave (km/s) = 3.46040 3.72527 3.59528
# Velocity P-wave (km/s) = 6.05050 6.68909 6.37779
#
# Compressibility (1/GPa) = 0.02518309
#
# Stress axis : x y z
#
# Youngs Moduli (GPa) = 90.25826 62.99761 39.54326
#
# Poissons Ratio (x) = 0.30091 0.14352
# Poissons Ratio (y) = 0.43111 0.20260
# Poissons Ratio (z) = 0.32759 0.32276
#
# Static dielectric constant tensor:
#      x y z
#    x 5.870230 0.000000 0.447690 
#    y 0.000000 3.762050 0.000000 
#    z 0.447690 0.000000 3.256760 
# 
# 
# High freq. dielectric constant tensor:
#      x y z
#    x 1.758440 0.000000 0.022000 
#    y 0.000000 1.730620 0.000000 
#    z 0.022000 0.000000 1.733500 
# 
# From -- ./inp_files/156709.got.cif
#   From: 2010.06.25/outbox.cif.g09.slc.cpg/sg12_79_cif.got.tgz:156709.got - 2010.06.28 00:19:55.
