data_PCOD8082455
_publ_section_title
;
Structure prediction by ZEFSAII (Michael W. Deem and Ramdas Pophale) SiO2 
 PCOD8082455
Probable space group: C 2/M
;
_chemical_formula_sum "Si O2"
_cell_formula_units_Z 56
_cell_length_a 31.667512
_cell_length_b 9.221335
_cell_length_c 23.666367
_cell_angle_alpha 90.000000
_cell_angle_beta 153.368446
_cell_angle_gamma 90.000000
_cell_volume 3097.854680
_symmetry_space_group_name_H-M "C 2/M"
_symmetry_group_IT_number 12
_symmetry_cell_setting 'monoclinic'
loop_
_space_group_symop_operation_xyz
x,y,z
-x,y,-z
-x,-y,-z
x,-y,z
1/2+x,1/2+y,z
1/2-x,1/2+y,-z
1/2-x,1/2-y,-z
1/2+x,1/2-y,z
loop_
_atom_site_type_symbol
_atom_site_label
_atom_site_fract_x
_atom_site_fract_y
_atom_site_fract_z
Si Si1 0.156483 0.172155 0.558840
Si Si2 0.386708 0.665390 0.060740
Si Si3 0.328636 0.832157 0.191399
Si Si4 0.050071 0.328355 0.973939
Si Si5 0.969202 0.170788 0.277152
Si Si6 0.862802 0.327810 0.805577
Si Si7 0.611206 0.664014 0.629042
O O1 0.259676 0.229982 0.662795
O O2 0.139237 0.227175 0.601689
O O3 0.073439 0.229190 0.418564
O O4 0.154520 0.000000 0.555982
O O5 0.402342 0.500000 0.060886
O O6 0.411577 0.763819 0.037725
O O7 0.454552 0.707425 0.193936
O O8 0.280386 0.690125 0.954830
O O9 0.390766 0.748872 0.220345
O O10 0.343082 0.769234 0.270908
O O11 0.357758 0.000000 0.225945
O O12 0.053206 0.500000 0.971597
O O13 0.942834 0.273570 0.857666
O O14 0.114700 0.275368 0.103598
O O15 0.958772 0.000000 0.276868
O O16 0.864442 0.500000 0.808392
O O17 0.500000 0.665057 0.500000
O O18 0.649570 0.500000 0.683894
#
# Coordination Sequence:
#
# PCOD8082455 Si02
#       7
#     8   8   8   8   8   8   8
#     4   9  16  29  51  75  99 128 166 207 245 289
#     4  10  22  36  50  71 101 135 171 207 252 300
#     4  11  22  34  49  73 103 134 166 209 258 297
#     4   9  17  32  55  78 100 125 161 208 253 299
#     4  10  20  36  53  69  96 137 177 209 240 293
#     4   8  15  29  52  81 102 122 158 206 256 299
#     4  10  18  31  52  77 100 128 169 205 239 296
#
# _framework density 18.077026
#
# number of rings (size 3 to 8) (size 9 to 14) (size 15 to 20)
#    0.000    2.429    1.429    2.571    0.000    3.143 
#    0.000    2.143    0.000    1.714    0.000    0.000 
#    0.000    0.000    0.000    0.000    0.000    0.000 
#
# Total GULP energy -347110.473236 kJ/mol
# GULP energy per Si atom -12396.802616 kJ/mol
# Density = 1.803588 g / cm^3
# Si number density = 18.077026 Si / 1000 Ang^3
#
#
#
# Elastic Constant Matrix: (Units=GPa)
#
#
# Indices 1 2 3 4 5 6 
#
# 1 72.5902 25.5552 55.3953 0.0000 6.0873 0.0000
# 2 25.5552 42.2557 35.0443 0.0000 -3.2084 0.0000
# 3 55.3953 35.0443 116.7367 0.0000 6.5337 0.0000
# 4 0.0000 0.0000 0.0000 22.9837 0.0000 2.5953
# 5 6.0873 -3.2084 6.5337 0.0000 27.2796 0.0000
# 6 0.0000 0.0000 0.0000 2.5953 0.0000 28.2992
#
#
#
# Elastic Compliance Matrix: (Units=1/GPa)
#
#
# Indices 1 2 3 4 5 6 
#
# 1 0.023236 -0.007180 -0.008649 0.000000 -0.003958 0.000000
# 2 -0.007180 0.034747 -0.007442 0.000000 0.007471 0.000000
# 3 -0.008649 -0.007442 0.015047 0.000000 -0.002549 0.000000
# 4 0.000000 0.000000 0.000000 0.043964 0.000000 -0.004032
# 5 -0.003958 0.007471 -0.002549 0.000000 0.039030 0.000000
# 6 0.000000 0.000000 0.000000 -0.004032 0.000000 0.035706
#
#
# Mechanical properties :
#
#
# Convention : Reuss Voigt Hill
#
# Bulk Modulus (GPa) = 37.75318 51.50802 44.63060
# Shear Modulus (GPa) = 20.23449 23.41836 21.82642
#
# Velocity S-wave (km/s) = 3.34930 3.60318 3.47855
# Velocity P-wave (km/s) = 5.99058 6.77245 6.39347
#
# Compressibility (1/GPa) = 0.02648784
#
# Stress axis : x y z
#
# Youngs Moduli (GPa) = 43.03662 28.77952 66.45640
#
# Poissons Ratio (x) = 0.20663 0.57480
# Poissons Ratio (y) = 0.30900 0.49458
# Poissons Ratio (z) = 0.37224 0.21418
#
# Static dielectric constant tensor:
#      x y z
#    x 3.360310 0.000000 0.137100 
#    y 0.000000 3.047190 0.000000 
#    z 0.137100 0.000000 3.824100 
# 
# 
# High freq. dielectric constant tensor:
#      x y z
#    x 1.695380 0.000000 0.008340 
#    y 0.000000 1.664260 0.000000 
#    z 0.008340 0.000000 1.710710 
# 
# From -- ./inp_files/329619.got.cif
#   From: 2010.06.25/outbox.cif.g09.slc.cpg/sg12_165_cif.got.tgz:329619.got - 2010.06.28 00:19:55.
