data_PCOD8082440
_publ_section_title
;
Structure prediction by ZEFSAII (Michael W. Deem and Ramdas Pophale) SiO2 
 PCOD8082440
Probable space group: C 2/M
;
_chemical_formula_sum "Si O2"
_cell_formula_units_Z 56
_cell_length_a 24.415485
_cell_length_b 14.212783
_cell_length_c 9.393563
_cell_angle_alpha 90.000000
_cell_angle_beta 63.201091
_cell_angle_gamma 90.000000
_cell_volume 2909.571225
_symmetry_space_group_name_H-M "C 2/M"
_symmetry_group_IT_number 12
_symmetry_cell_setting 'monoclinic'
loop_
_space_group_symop_operation_xyz
x,y,z
-x,y,-z
-x,-y,-z
x,-y,z
1/2+x,1/2+y,z
1/2-x,1/2+y,-z
1/2-x,1/2-y,-z
1/2+x,1/2-y,z
loop_
_atom_site_type_symbol
_atom_site_label
_atom_site_fract_x
_atom_site_fract_y
_atom_site_fract_z
Si Si1 0.267670 0.605282 0.038101
Si Si2 0.700251 0.209683 0.358219
Si Si3 0.971068 0.105990 0.813445
Si Si4 0.376357 0.272217 0.798837
Si Si5 0.823096 0.286529 0.308393
Si Si6 0.094940 0.892297 0.809355
Si Si7 0.152056 0.393486 0.989822
O O1 0.294296 0.500000 0.022424
O O2 0.228829 0.628552 0.225446
O O3 0.323702 0.676964 0.955794
O O4 0.223477 0.613145 0.953015
O O5 0.646331 0.264223 0.336682
O O6 0.752174 0.283852 0.344144
O O7 0.671274 0.169437 0.539165
O O8 0.940349 0.171372 0.728297
O O9 0.041745 0.133237 0.757712
O O10 0.967039 0.000000 0.761959
O O11 0.932452 0.118606 0.002104
O O12 0.387921 0.170001 0.855553
O O13 0.849539 0.180032 0.275659
O O14 0.857700 0.355939 0.159334
O O15 0.117915 0.000000 0.758981
O O16 0.127670 0.500000 0.027578
#
# Coordination Sequence:
#
# PCOD8082440 Si02
#       7
#     8   8   8   8   8   8   8
#     4  10  18  31  52  76 101 132 169 214 259 310
#     4  10  21  31  49  74 104 140 175 206 256 321
#     4   9  17  30  56  83 105 134 174 216 259 308
#     4  11  17  34  52  78 106 135 173 218 259 307
#     4  11  19  35  50  69 108 140 170 215 259 304
#     4   9  18  33  53  82 107 135 175 215 259 311
#     4  10  19  31  50  73 100 132 169 214 257 298
#
# _framework density 19.246822999999999
#
# number of rings (size 3 to 8) (size 9 to 14) (size 15 to 20)
#    0.000    2.000    4.286    2.143    0.000    2.286 
#    0.000    4.286    0.000    3.429    0.000    0.000 
#    0.000    5.714    0.000    0.000    0.000    0.000 
#
# Total GULP energy -347097.755824 kJ/mol
# GULP energy per Si atom -12396.348422 kJ/mol
# Density = 1.920302 g / cm^3
# Si number density = 19.246823 Si / 1000 Ang^3
#
#
#
# Elastic Constant Matrix: (Units=GPa)
#
#
# Indices 1 2 3 4 5 6 
#
# 1 92.8286 38.5748 22.6641 0.0000 25.9555 0.0000
# 2 38.5748 106.3742 28.0673 0.0000 16.0130 0.0000
# 3 22.6641 28.0673 80.2937 0.0000 28.5347 0.0000
# 4 0.0000 0.0000 0.0000 14.5209 0.0000 4.1669
# 5 25.9555 16.0130 28.5347 0.0000 24.7261 0.0000
# 6 0.0000 0.0000 0.0000 4.1669 0.0000 31.0321
#
#
#
# Elastic Compliance Matrix: (Units=1/GPa)
#
#
# Indices 1 2 3 4 5 6 
#
# 1 0.017030 -0.004208 0.003473 0.000000 -0.019160 0.000000
# 2 -0.004208 0.011671 -0.003010 0.000000 0.000333 0.000000
# 3 0.003473 -0.003010 0.022257 0.000000 -0.027381 0.000000
# 4 0.000000 0.000000 0.000000 0.071626 0.000000 -0.009618
# 5 -0.019160 0.000333 -0.027381 0.000000 0.091939 0.000000
# 6 0.000000 0.000000 0.000000 -0.009618 0.000000 0.033516
#
#
# Mechanical properties :
#
#
# Convention : Reuss Voigt Hill
#
# Bulk Modulus (GPa) = 23.00546 50.90100 36.95323
# Shear Modulus (GPa) = 18.51715 26.73515 22.62615
#
# Velocity S-wave (km/s) = 3.10512 3.73106 3.43239
# Velocity P-wave (km/s) = 4.98342 6.71304 5.91183
#
# Compressibility (1/GPa) = 0.04346794
#
# Stress axis : x y z
#
# Youngs Moduli (GPa) = 58.71825 85.68343 44.92961
#
# Poissons Ratio (x) = 0.36055 -0.15603
# Poissons Ratio (y) = 0.24708 0.13524
# Poissons Ratio (z) = -0.20392 0.25792
#
# Static dielectric constant tensor:
#      x y z
#    x 3.612710 0.000000 0.341200 
#    y 0.000000 3.487150 0.000000 
#    z 0.341200 0.000000 3.323070 
# 
# 
# High freq. dielectric constant tensor:
#      x y z
#    x 1.737440 0.000000 0.030780 
#    y 0.000000 1.733850 0.000000 
#    z 0.030780 0.000000 1.720360 
# 
# From -- ./inp_files/96246.got.cif
#   From: 2010.06.25/outbox.cif.g09.slc.cpg/sg12_49_cif.got.tgz:96246.got - 2010.06.28 00:19:55.
