data_PCOD8082901
_publ_section_title
;
Structure prediction by ZEFSAII (Michael W. Deem and Ramdas Pophale) SiO2 
 PCOD8082901
Probable space group: C 2/M
;
_chemical_formula_sum "Si O2"
_cell_formula_units_Z 48
_cell_length_a 23.784617
_cell_length_b 8.825109
_cell_length_c 19.913127
_cell_angle_alpha 90.000000
_cell_angle_beta 139.681100
_cell_angle_gamma 90.000000
_cell_volume 2704.504585
_symmetry_space_group_name_H-M "C 2/M"
_symmetry_group_IT_number 12
_symmetry_cell_setting 'monoclinic'
loop_
_space_group_symop_operation_xyz
x,y,z
-x,y,-z
-x,-y,-z
x,-y,z
1/2+x,1/2+y,z
1/2-x,1/2+y,-z
1/2-x,1/2-y,-z
1/2+x,1/2-y,z
loop_
_atom_site_type_symbol
_atom_site_label
_atom_site_fract_x
_atom_site_fract_y
_atom_site_fract_z
Si Si1 0.254381 0.331358 0.757071
Si Si2 0.901118 0.820275 0.217139
Si Si3 0.081449 0.178866 0.615257
Si Si4 0.058356 0.180146 0.116086
Si Si5 0.276463 0.328279 0.935261
Si Si6 0.045731 0.320602 0.861857
O O1 0.237045 0.500000 0.714162
O O2 0.170910 0.231091 0.661566
O O3 0.342363 0.266455 0.804344
O O4 0.266152 0.333335 0.846789
O O5 0.925032 0.763435 0.313691
O O6 0.805969 0.759017 0.107945
O O7 0.969494 0.748570 0.226737
O O8 0.902297 0.000000 0.213527
O O9 0.000000 0.246744 0.500000
O O10 0.079987 0.000000 0.611950
O O11 0.029155 0.260470 0.157627
O O12 0.050139 0.000000 0.116436
O O13 0.000000 0.234811 0.000000
O O14 0.282706 0.500000 0.969708
O O15 0.362465 0.235247 0.027428
O O16 0.042435 0.500000 0.855442
#
# Coordination Sequence:
#
# PCOD8082901 Si02
#       6
#     8   8   8   8   8   8
#     4   9  18  32  53  78 103 134 172 210 252 301
#     4  10  20  34  51  73 101 134 170 210 259 311
#     4   9  19  36  58  81 103 128 163 213 268 312
#     4  10  19  35  53  72 103 143 178 210 248 299
#     4  10  18  32  50  71 102 138 173 210 252 301
#     4  12  23  32  46  72 105 141 176 210 249 297
#
# _framework density 17.748166999999999
#
# number of rings (size 3 to 8) (size 9 to 14) (size 15 to 20)
#    0.000    2.000    1.667    3.000    0.000    2.667 
#    0.000    0.000    0.000    1.000    0.000    0.000 
#    0.000    0.000    0.000    0.000    0.000    0.000 
#
# Total GULP energy -297583.918853 kJ/mol
# GULP energy per Si atom -12399.329952 kJ/mol
# Density = 1.770777 g / cm^3
# Si number density = 17.748167 Si / 1000 Ang^3
#
#
#
# Elastic Constant Matrix: (Units=GPa)
#
#
# Indices 1 2 3 4 5 6 
#
# 1 130.7864 46.6412 44.8227 0.0000 18.0118 0.0000
# 2 46.6412 64.0958 23.9544 0.0000 3.4037 0.0000
# 3 44.8227 23.9544 94.5153 0.0000 14.6726 0.0000
# 4 0.0000 0.0000 0.0000 19.5526 0.0000 3.7879
# 5 18.0118 3.4037 14.6726 0.0000 14.6873 0.0000
# 6 0.0000 0.0000 0.0000 3.7879 0.0000 31.3062
#
#
#
# Elastic Compliance Matrix: (Units=1/GPa)
#
#
# Indices 1 2 3 4 5 6 
#
# 1 0.012839 -0.007870 -0.002288 0.000000 -0.011636 0.000000
# 2 -0.007870 0.022060 -0.003034 0.000000 0.007570 0.000000
# 3 -0.002288 -0.003034 0.014072 0.000000 -0.010549 0.000000
# 4 0.000000 0.000000 0.000000 0.052372 0.000000 -0.006337
# 5 -0.011636 0.007570 -0.010549 0.000000 0.091140 0.000000
# 6 0.000000 0.000000 0.000000 -0.006337 0.000000 0.032709
#
#
# Mechanical properties :
#
#
# Convention : Reuss Voigt Hill
#
# Bulk Modulus (GPa) = 44.27165 57.80378 51.03772
# Shear Modulus (GPa) = 19.29718 24.70784 22.00251
#
# Velocity S-wave (km/s) = 3.30097 3.73518 3.52477
# Velocity P-wave (km/s) = 6.28705 7.15833 6.73679
#
# Compressibility (1/GPa) = 0.02258782
#
# Stress axis : x y z
#
# Youngs Moduli (GPa) = 77.88626 45.33023 71.06382
#
# Poissons Ratio (x) = 0.35674 0.16258
# Poissons Ratio (y) = 0.61296 0.21561
# Poissons Ratio (z) = 0.17819 0.13753
#
# Static dielectric constant tensor:
#      x y z
#    x 3.586490 0.000000 -0.032730 
#    y 0.000000 3.320170 0.000000 
#    z -0.032730 0.000000 3.261950 
# 
# 
# High freq. dielectric constant tensor:
#      x y z
#    x 1.694530 0.000000 -0.001610 
#    y 0.000000 1.687340 0.000000 
#    z -0.001610 0.000000 1.653550 
# 
# From -- ./inp_files/280763.got.cif
#   From: 2010.06.25/outbox.cif.g09.slc.cpg/sg12_141_cif.got.tgz:280763.got - 2010.06.28 00:19:55.
