data_PCOD8082049
_publ_section_title
;
Structure prediction by ZEFSAII (Michael W. Deem and Ramdas Pophale) SiO2 
 PCOD8082049
Probable space group: C 2/M
;
_chemical_formula_sum "Si O2"
_cell_formula_units_Z 56
_cell_length_a 11.603234
_cell_length_b 17.856178
_cell_length_c 15.348242
_cell_angle_alpha 90.000000
_cell_angle_beta 58.666862
_cell_angle_gamma 90.000000
_cell_volume 2716.217339
_symmetry_space_group_name_H-M "C 2/M"
_symmetry_group_IT_number 12
_symmetry_cell_setting 'monoclinic'
loop_
_space_group_symop_operation_xyz
x,y,z
-x,y,-z
-x,-y,-z
x,-y,z
1/2+x,1/2+y,z
1/2-x,1/2+y,-z
1/2-x,1/2-y,-z
1/2+x,1/2-y,z
loop_
_atom_site_type_symbol
_atom_site_label
_atom_site_fract_x
_atom_site_fract_y
_atom_site_fract_z
Si Si1 0.259717 0.642233 0.433474
Si Si2 0.160836 0.668043 0.770996
Si Si3 0.533948 0.756260 0.577477
Si Si4 0.734253 0.175336 0.257307
Si Si5 0.660254 0.918070 0.938724
Si Si6 0.374670 0.910338 0.857216
Si Si7 0.657017 0.419005 0.430692
O O1 0.370728 0.707738 0.398689
O O2 0.110893 0.669392 0.516454
O O3 0.259384 0.620742 0.330959
O O4 0.291937 0.576854 0.488780
O O5 0.152374 0.758397 0.787017
O O6 0.213543 0.637595 0.843731
O O7 0.271289 0.646145 0.653934
O O8 0.018674 0.632206 0.797607
O O9 0.500000 0.712190 0.500000
O O10 0.405086 0.779073 0.683560
O O11 0.727982 0.122486 0.174932
O O12 0.721185 0.000000 0.894483
O O13 0.500000 0.921881 0.000000
O O14 0.699923 0.893371 0.021393
O O15 0.397724 0.000000 0.835591
O O16 0.500000 0.404791 0.500000
O O17 0.689996 0.500000 0.375377
#
# Coordination Sequence:
#
# PCOD8082049 Si02
#       7
#     8   8   8   8   8   8   8
#     4  10  18  31  47  65 102 144 175 209 258 312
#     4  11  20  34  57  80 106 138 179 229 273 311
#     4   9  17  30  47  69  98 136 176 214 256 308
#     4  11  21  30  51  81 106 137 176 219 270 320
#     4   8  16  33  56  78 103 138 177 220 272 322
#     4  10  21  38  57  79 109 143 179 220 270 327
#     4  11  22  33  49  75 105 140 183 226 265 315
#
# _framework density 20.616907999999999
#
# number of rings (size 3 to 8) (size 9 to 14) (size 15 to 20)
#    0.000    2.000    0.000    7.714    0.000    1.143 
#    0.000    0.000    0.000    4.286    0.000    0.000 
#    0.000   23.429    0.000    0.000    0.000    0.000 
#
# Total GULP energy -346876.600735 kJ/mol
# GULP energy per Si atom -12388.450026 kJ/mol
# Density = 2.056998 g / cm^3
# Si number density = 20.616908 Si / 1000 Ang^3
#
#
#
# Elastic Constant Matrix: (Units=GPa)
#
#
# Indices 1 2 3 4 5 6 
#
# 1 78.5525 28.6462 34.9224 0.0000 28.5880 0.0000
# 2 28.6462 83.3337 29.8305 0.0000 15.4717 0.0000
# 3 34.9224 29.8305 95.4884 0.0000 37.7804 0.0000
# 4 0.0000 0.0000 0.0000 24.6460 0.0000 13.2803
# 5 28.5880 15.4717 37.7804 0.0000 40.8331 0.0000
# 6 0.0000 0.0000 0.0000 13.2803 0.0000 22.7577
#
#
#
# Elastic Compliance Matrix: (Units=1/GPa)
#
#
# Indices 1 2 3 4 5 6 
#
# 1 0.018511 -0.003940 -0.001581 0.000000 -0.010004 0.000000
# 2 -0.003940 0.014445 -0.003151 0.000000 0.000201 0.000000
# 3 -0.001581 -0.003151 0.017549 0.000000 -0.013936 0.000000
# 4 0.000000 0.000000 0.000000 0.059185 0.000000 -0.034537
# 5 -0.010004 0.000201 -0.013936 0.000000 0.044312 0.000000
# 6 0.000000 0.000000 0.000000 -0.034537 0.000000 0.064095
#
#
# Mechanical properties :
#
#
# Convention : Reuss Voigt Hill
#
# Bulk Modulus (GPa) = 30.15567 49.35253 39.75410
# Shear Modulus (GPa) = 20.28443 28.57906 24.43175
#
# Velocity S-wave (km/s) = 3.14008 3.72720 3.44617
# Velocity P-wave (km/s) = 5.27307 6.52017 5.92949
#
# Compressibility (1/GPa) = 0.03316126
#
# Stress axis : x y z
#
# Youngs Moduli (GPa) = 54.02255 69.22801 56.98348
#
# Poissons Ratio (x) = 0.27275 0.09008
# Poissons Ratio (y) = 0.21284 0.17956
# Poissons Ratio (z) = 0.08540 0.21814
#
# Static dielectric constant tensor:
#      x y z
#    x 3.821000 0.000000 0.422160 
#    y 0.000000 3.651800 0.000000 
#    z 0.422160 0.000000 3.786820 
# 
# 
# High freq. dielectric constant tensor:
#      x y z
#    x 1.796440 0.000000 0.027190 
#    y 0.000000 1.789720 0.000000 
#    z 0.027190 0.000000 1.794810 
# 
# From -- ./inp_files/206245.got.cif
#   From: 2010.06.25/outbox.cif.g09.slc.cpg/sg12_104_cif.got.tgz:206245.got - 2010.06.28 00:19:55.
