data_PCOD8082396
_publ_section_title
;
Structure prediction by ZEFSAII (Michael W. Deem and Ramdas Pophale) SiO2 
 PCOD8082396
Probable space group: C 2/M
;
_chemical_formula_sum "Si O2"
_cell_formula_units_Z 64
_cell_length_a 20.285376
_cell_length_b 9.139073
_cell_length_c 23.571866
_cell_angle_alpha 90.000000
_cell_angle_beta 123.155540
_cell_angle_gamma 90.000000
_cell_volume 3658.496657
_symmetry_space_group_name_H-M "C 2/M"
_symmetry_group_IT_number 12
_symmetry_cell_setting 'monoclinic'
loop_
_space_group_symop_operation_xyz
x,y,z
-x,y,-z
-x,-y,-z
x,-y,z
1/2+x,1/2+y,z
1/2-x,1/2+y,-z
1/2-x,1/2-y,-z
1/2+x,1/2-y,z
loop_
_atom_site_type_symbol
_atom_site_label
_atom_site_fract_x
_atom_site_fract_y
_atom_site_fract_z
Si Si1 0.686850 0.672810 0.679663
Si Si2 0.466752 0.326478 0.325811
Si Si3 0.128721 0.671183 0.429515
Si Si4 0.332310 0.328050 0.037013
Si Si5 0.280624 0.328498 0.430892
Si Si6 0.131929 0.171652 0.824060
Si Si7 0.283507 0.173100 0.831296
Si Si8 0.910808 0.172495 0.958541
O O1 0.688817 0.500000 0.679303
O O2 0.599744 0.720873 0.659507
O O3 0.707252 0.734155 0.626954
O O4 0.754469 0.725114 0.755349
O O5 0.482506 0.500000 0.335418
O O6 0.546388 0.241906 0.374838
O O7 0.437316 0.271259 0.249739
O O8 0.117201 0.500000 0.434223
O O9 0.191172 0.702255 0.408545
O O10 0.158322 0.742199 0.501519
O O11 0.316769 0.500000 0.028619
O O12 0.382542 0.285098 0.117162
O O13 0.250000 0.250000 0.000000
O O14 0.378889 0.274063 0.004191
O O15 0.300669 0.500000 0.444491
O O16 0.217766 0.229255 0.845152
O O17 0.134598 0.000000 0.815332
O O18 0.364968 0.251728 0.885223
O O19 0.296851 0.000000 0.840222
O O20 0.903423 0.000000 0.946854
O O21 0.000000 0.226051 0.000000
#
# Coordination Sequence:
#
# PCOD8082396 Si02
#       8
#     8   8   8   8   8   8   8   8
#     4   8  16  32  55  77  93 122 167 207 238 278
#     4   9  17  32  53  74  97 126 162 201 242 287
#     4  10  20  33  50  74 104 131 156 196 244 284
#     4  10  18  31  52  72  94 127 167 206 241 284
#     4   9  18  35  55  71  95 132 169 196 230 287
#     4   8  15  29  50  73  93 120 162 205 239 278
#     4   9  16  31  54  74  94 122 163 209 245 280
#     4  10  21  34  46  68 104 136 160 194 247 301
#
# _framework density 17.493523
#
# number of rings (size 3 to 8) (size 9 to 14) (size 15 to 20)
#    0.000    2.875    1.250    1.875    0.000    1.250 
#    2.250    6.875    0.000    0.000    0.000    0.000 
#    0.000    0.000    0.000    0.000    0.000    0.000 
#
# Total GULP energy -396642.949346 kJ/mol
# GULP energy per Si atom -12395.092167 kJ/mol
# Density = 1.745371 g / cm^3
# Si number density = 17.493523 Si / 1000 Ang^3
#
#
#
# Elastic Constant Matrix: (Units=GPa)
#
#
# Indices 1 2 3 4 5 6 
#
# 1 115.9579 38.1113 93.6352 0.0000 8.0669 0.0000
# 2 38.1113 39.7809 47.8420 0.0000 7.0122 0.0000
# 3 93.6352 47.8420 160.2849 0.0000 7.0811 0.0000
# 4 0.0000 0.0000 0.0000 25.3243 0.0000 6.7946
# 5 8.0669 7.0122 7.0811 0.0000 36.4241 0.0000
# 6 0.0000 0.0000 0.0000 6.7946 0.0000 23.7613
#
#
#
# Elastic Compliance Matrix: (Units=1/GPa)
#
#
# Indices 1 2 3 4 5 6 
#
# 1 0.017514 -0.006791 -0.008161 0.000000 -0.000985 0.000000
# 2 -0.006791 0.042896 -0.008612 0.000000 -0.005080 0.000000
# 3 -0.008161 -0.008612 0.013540 0.000000 0.000833 0.000000
# 4 0.000000 0.000000 0.000000 0.042769 0.000000 -0.012230
# 5 -0.000985 -0.005080 0.000833 0.000000 0.028489 0.000000
# 6 0.000000 0.000000 0.000000 -0.012230 0.000000 0.045582
#
#
# Mechanical properties :
#
#
# Convention : Reuss Voigt Hill
#
# Bulk Modulus (GPa) = 37.28193 75.02230 56.15211
# Shear Modulus (GPa) = 20.25440 26.19761 23.22600
#
# Velocity S-wave (km/s) = 3.40637 3.87403 3.64770
# Velocity P-wave (km/s) = 6.06871 7.93660 7.06466
#
# Compressibility (1/GPa) = 0.02682265
#
# Stress axis : x y z
#
# Youngs Moduli (GPa) = 57.09660 23.31196 73.85412
#
# Poissons Ratio (x) = 0.15831 0.60272
# Poissons Ratio (y) = 0.38773 0.63606
# Poissons Ratio (z) = 0.46597 0.20077
#
# Static dielectric constant tensor:
#      x y z
#    x 3.571930 0.000000 -0.592560 
#    y 0.000000 2.964970 0.000000 
#    z -0.592560 0.000000 3.746110 
# 
# 
# High freq. dielectric constant tensor:
#      x y z
#    x 1.666440 0.000000 -0.002840 
#    y 0.000000 1.647950 0.000000 
#    z -0.002840 0.000000 1.689020 
# 
# From -- ./inp_files/345569.got.cif
#   From: 2010.06.25/outbox.cif.g09.slc.cpg/sg12_173_cif.got.tgz:345569.got - 2010.06.28 00:19:55.
