data_PCOD8082366
_publ_section_title
;
Structure prediction by ZEFSAII (Michael W. Deem and Ramdas Pophale) SiO2 
 PCOD8082366
Probable space group: C 2/M
;
_chemical_formula_sum "Si O2"
_cell_formula_units_Z 64
_cell_length_a 19.422611
_cell_length_b 13.251028
_cell_length_c 20.602963
_cell_angle_alpha 90.000000
_cell_angle_beta 43.935586
_cell_angle_gamma 90.000000
_cell_volume 3679.187941
_symmetry_space_group_name_H-M "C 2/M"
_symmetry_group_IT_number 12
_symmetry_cell_setting 'monoclinic'
loop_
_space_group_symop_operation_xyz
x,y,z
-x,y,-z
-x,-y,-z
x,-y,z
1/2+x,1/2+y,z
1/2-x,1/2+y,-z
1/2-x,1/2-y,-z
1/2+x,1/2-y,z
loop_
_atom_site_type_symbol
_atom_site_label
_atom_site_fract_x
_atom_site_fract_y
_atom_site_fract_z
Si Si1 0.746418 0.796038 0.605005
Si Si2 0.615403 0.109785 0.914174
Si Si3 0.584371 0.116274 0.794511
Si Si4 0.335194 0.615825 0.916598
Si Si5 0.172551 0.116761 0.577589
Si Si6 0.873245 0.696714 0.963461
Si Si7 0.393878 0.616033 0.605198
Si Si8 0.449569 0.382237 0.709090
O O1 0.634732 0.822572 0.702538
O O2 0.780699 0.871916 0.525397
O O3 0.738781 0.681188 0.583751
O O4 0.820064 0.809810 0.616165
O O5 0.637335 0.148732 0.826708
O O6 0.668498 0.000000 0.891019
O O7 0.500000 0.089758 0.000000
O O8 0.647577 0.192680 0.945013
O O9 0.467494 0.134052 0.876298
O O10 0.604170 0.000000 0.768589
O O11 0.358432 0.500000 0.918015
O O12 0.390979 0.687496 0.930301
O O13 0.372638 0.643170 0.818798
O O14 0.220037 0.641431 0.005904
O O15 0.059456 0.159959 0.651355
O O16 0.176857 0.000000 0.596454
O O17 0.500000 0.620827 0.500000
O O18 0.353732 0.500000 0.631357
O O19 0.404283 0.659071 0.671939
O O20 0.464970 0.500000 0.688311
#
# Coordination Sequence:
#
# PCOD8082366 Si02
#       8
#     8   8   8   8   8   8   8   8
#     4  11  21  31  53  83 102 135 172 210 256 307
#     4   8  15  28  46  67  92 120 149 191 246 293
#     4  10  19  31  50  76 104 126 158 207 253 302
#     4  10  20  32  49  71  95 131 173 206 244 299
#     4  10  20  36  52  74 108 140 172 210 252 302
#     4  10  19  32  48  70 100 132 161 202 254 304
#     4  10  18  31  51  78 108 131 159 212 265 302
#     4   9  18  32  52  74 101 132 166 211 259 302
#
# _framework density 17.395143000000001
#
# number of rings (size 3 to 8) (size 9 to 14) (size 15 to 20)
#    0.000    2.250    1.250    3.750    1.750    0.000 
#    0.000    0.000    0.000    4.500    0.000    0.000 
#    0.000    0.000    0.000    0.000    0.000    0.000 
#
# Total GULP energy -396583.702397 kJ/mol
# GULP energy per Si atom -12393.240700 kJ/mol
# Density = 1.735555 g / cm^3
# Si number density = 17.395143 Si / 1000 Ang^3
#
#
#
# Elastic Constant Matrix: (Units=GPa)
#
#
# Indices 1 2 3 4 5 6 
#
# 1 87.9608 45.6347 22.6281 0.0000 9.2483 0.0000
# 2 45.6347 77.1508 30.9357 0.0000 16.3005 0.0000
# 3 22.6281 30.9357 91.1098 0.0000 7.2146 0.0000
# 4 0.0000 0.0000 0.0000 19.2548 0.0000 2.8405
# 5 9.2483 16.3005 7.2146 0.0000 24.5601 0.0000
# 6 0.0000 0.0000 0.0000 2.8405 0.0000 27.8232
#
#
#
# Elastic Compliance Matrix: (Units=1/GPa)
#
#
# Indices 1 2 3 4 5 6 
#
# 1 0.016469 -0.009448 -0.000909 0.000000 0.000336 0.000000
# 2 -0.009448 0.022471 -0.004488 0.000000 -0.010038 0.000000
# 3 -0.000909 -0.004488 0.012759 0.000000 -0.000427 0.000000
# 4 0.000000 0.000000 0.000000 0.052729 0.000000 -0.005383
# 5 0.000336 -0.010038 -0.000427 0.000000 0.047377 0.000000
# 6 0.000000 0.000000 0.000000 -0.005383 0.000000 0.036491
#
#
# Mechanical properties :
#
#
# Convention : Reuss Voigt Hill
#
# Bulk Modulus (GPa) = 45.43727 50.51316 47.97522
# Shear Modulus (GPa) = 22.19045 24.79582 23.49314
#
# Velocity S-wave (km/s) = 3.57553 3.77960 3.67898
# Velocity P-wave (km/s) = 6.57444 6.93894 6.75915
#
# Compressibility (1/GPa) = 0.02200836
#
# Stress axis : x y z
#
# Youngs Moduli (GPa) = 60.72090 44.50276 78.37418
#
# Poissons Ratio (x) = 0.42046 0.07123
# Poissons Ratio (y) = 0.57368 0.35177
# Poissons Ratio (z) = 0.05519 0.19975
#
# Static dielectric constant tensor:
#      x y z
#    x 3.353310 0.000000 0.109890 
#    y 0.000000 3.015630 0.000000 
#    z 0.109890 0.000000 3.430640 
# 
# 
# High freq. dielectric constant tensor:
#      x y z
#    x 1.662160 0.000000 -0.003880 
#    y 0.000000 1.632660 0.000000 
#    z -0.003880 0.000000 1.690890 
# 
# From -- ./inp_files/321266.got.cif
#   From: 2010.06.25/outbox.cif.g09.slc.cpg/sg12_161_cif.got.tgz:321266.got - 2010.06.28 00:19:55.
