data_PCOD8082169
_publ_section_title
;
Structure prediction by ZEFSAII (Michael W. Deem and Ramdas Pophale) SiO2 
 PCOD8082169
Probable space group: C 2/M
;
_chemical_formula_sum "Si O2"
_cell_formula_units_Z 48
_cell_length_a 27.681372
_cell_length_b 8.658443
_cell_length_c 11.875090
_cell_angle_alpha 90.000000
_cell_angle_beta 107.749218
_cell_angle_gamma 90.000000
_cell_volume 2710.713961
_symmetry_space_group_name_H-M "C 2/M"
_symmetry_group_IT_number 12
_symmetry_cell_setting 'monoclinic'
loop_
_space_group_symop_operation_xyz
x,y,z
-x,y,-z
-x,-y,-z
x,-y,z
1/2+x,1/2+y,z
1/2-x,1/2+y,-z
1/2-x,1/2-y,-z
1/2+x,1/2-y,z
loop_
_atom_site_type_symbol
_atom_site_label
_atom_site_fract_x
_atom_site_fract_y
_atom_site_fract_z
Si Si1 0.815641 0.817306 0.752514
Si Si2 0.871588 0.681161 0.601660
Si Si3 0.137321 0.825975 0.754917
Si Si4 0.712031 0.324024 0.611372
Si Si5 0.557541 0.683964 0.524713
Si Si6 0.196833 0.184256 0.002374
O O1 0.865383 0.756045 0.721797
O O2 0.767638 0.746957 0.653520
O O3 0.812727 0.000000 0.745613
O O4 0.817288 0.758732 0.882562
O O5 0.877866 0.500000 0.618590
O O6 0.821964 0.721968 0.494822
O O7 0.921821 0.749026 0.578079
O O8 0.188816 0.818189 0.719459
O O9 0.090840 0.746597 0.653086
O O10 0.152175 0.752298 0.886582
O O11 0.119661 0.000000 0.763707
O O12 0.713767 0.500000 0.567641
O O13 0.500000 0.737774 0.500000
O O14 0.563416 0.500000 0.523207
O O15 0.200134 0.000000 0.997739
O O16 0.250000 0.250000 0.000000
#
# Coordination Sequence:
#
# PCOD8082169 Si02
#       6
#     8   8   8   8   8   8
#     4  11  21  31  46  70 102 138 174 207 245 296
#     4  11  22  34  49  71 101 132 168 209 253 304
#     4   8  15  29  49  74 101 129 162 203 248 293
#     4  10  18  31  50  70 100 135 169 208 250 299
#     4   9  18  35  59  81 100 124 159 208 264 313
#     4  10  19  31  48  71 102 138 174 207 239 291
#
# _framework density 17.707512000000001
#
# number of rings (size 3 to 8) (size 9 to 14) (size 15 to 20)
#    0.000    2.167    1.667    4.000    0.000    1.000 
#    0.000    0.000    0.000    1.000    0.000    7.000 
#    0.000    0.000    0.000    0.000    0.000    0.000 
#
# Total GULP energy -297472.495803 kJ/mol
# GULP energy per Si atom -12394.687325 kJ/mol
# Density = 1.766721 g / cm^3
# Si number density = 17.707512 Si / 1000 Ang^3
#
#
#
# Elastic Constant Matrix: (Units=GPa)
#
#
# Indices 1 2 3 4 5 6 
#
# 1 120.5692 24.2305 62.1640 0.0000 -9.2067 0.0000
# 2 24.2305 38.0802 15.6303 0.0000 -3.6082 0.0000
# 3 62.1640 15.6303 99.1129 0.0000 -19.3997 0.0000
# 4 0.0000 0.0000 0.0000 16.3706 0.0000 -3.7806
# 5 -9.2067 -3.6082 -19.3997 0.0000 24.2613 0.0000
# 6 0.0000 0.0000 0.0000 -3.7806 0.0000 23.3463
#
#
#
# Elastic Compliance Matrix: (Units=1/GPa)
#
#
# Indices 1 2 3 4 5 6 
#
# 1 0.013291 -0.005416 -0.007887 0.000000 -0.002068 0.000000
# 2 -0.005416 0.030296 -0.001069 0.000000 0.001596 0.000000
# 3 -0.007887 -0.001069 0.017295 0.000000 0.010677 0.000000
# 4 0.000000 0.000000 0.000000 0.063458 0.000000 0.010276
# 5 -0.002068 0.001596 0.010677 0.000000 0.049208 0.000000
# 6 0.000000 0.000000 0.000000 0.010276 0.000000 0.044497
#
#
# Mechanical properties :
#
#
# Convention : Reuss Voigt Hill
#
# Bulk Modulus (GPa) = 31.11454 51.31245 41.21349
# Shear Modulus (GPa) = 19.41741 23.17812 21.29776
#
# Velocity S-wave (km/s) = 3.31503 3.62186 3.47184
# Velocity P-wave (km/s) = 5.67997 6.82137 6.27667
#
# Compressibility (1/GPa) = 0.03213931
#
# Stress axis : x y z
#
# Youngs Moduli (GPa) = 75.24008 33.00735 57.82175
#
# Poissons Ratio (x) = 0.17876 0.45603
# Poissons Ratio (y) = 0.40748 0.06179
# Poissons Ratio (z) = 0.59340 0.03527
#
# Static dielectric constant tensor:
#      x y z
#    x 3.219090 0.000000 -0.177000 
#    y 0.000000 3.124550 0.000000 
#    z -0.177000 0.000000 3.627850 
# 
# 
# High freq. dielectric constant tensor:
#      x y z
#    x 1.660390 0.000000 -0.018260 
#    y 0.000000 1.671230 0.000000 
#    z -0.018260 0.000000 1.685150 
# 
# From -- ./inp_files/172334.got.cif
#   From: 2010.06.25/outbox.cif.g09.slc.cpg/sg12_87_cif.got.tgz:172334.got - 2010.06.28 00:19:55.
