data_PCOD8082983
_publ_section_title
;
Structure prediction by ZEFSAII (Michael W. Deem and Ramdas Pophale) SiO2 
 PCOD8082983
Probable space group: C 2/M
;
_chemical_formula_sum "Si O2"
_cell_formula_units_Z 56
_cell_length_a 23.787731
_cell_length_b 8.977329
_cell_length_c 16.006966
_cell_angle_alpha 90.000000
_cell_angle_beta 56.163908
_cell_angle_gamma 90.000000
_cell_volume 2839.349305
_symmetry_space_group_name_H-M "C 2/M"
_symmetry_group_IT_number 12
_symmetry_cell_setting 'monoclinic'
loop_
_space_group_symop_operation_xyz
x,y,z
-x,y,-z
-x,-y,-z
x,-y,z
1/2+x,1/2+y,z
1/2-x,1/2+y,-z
1/2-x,1/2-y,-z
1/2+x,1/2-y,z
loop_
_atom_site_type_symbol
_atom_site_label
_atom_site_fract_x
_atom_site_fract_y
_atom_site_fract_z
Si Si1 0.579391 0.167276 0.445800
Si Si2 0.068083 0.322520 0.987366
Si Si3 0.794495 0.325804 0.392966
Si Si4 0.342146 0.324720 0.762723
Si Si5 0.205237 0.676596 0.793002
Si Si6 0.069272 0.674509 0.636777
Si Si7 0.570855 0.177428 0.175410
O O1 0.500000 0.160466 0.500000
O O2 0.611326 0.278094 0.353029
O O3 0.593319 0.235527 0.526549
O O4 0.609752 0.000000 0.409569
O O5 0.067307 0.500000 0.985082
O O6 0.133955 0.258483 0.884927
O O7 0.072218 0.266710 0.079123
O O8 0.000000 0.259895 0.000000
O O9 0.779942 0.500000 0.411415
O O10 0.750000 0.250000 0.500000
O O11 0.778084 0.262516 0.314070
O O12 0.873532 0.289637 0.342679
O O13 0.348432 0.500000 0.770374
O O14 0.264972 0.276477 0.806666
O O15 0.364902 0.243708 0.828749
O O16 0.199310 0.500000 0.791823
O O17 0.057548 0.500000 0.635187
O O18 0.997978 0.742306 0.726315
O O19 0.574507 0.000000 0.177575
#
# Coordination Sequence:
#
# PCOD8082983 Si02
#       7
#     8   8   8   8   8   8   8
#     4  10  18  32  52  74 106 138 174 220 261 303
#     4   9  17  32  58  85 103 129 176 225 266 311
#     4  10  19  33  53  75 104 136 170 210 260 313
#     4  11  22  34  49  74 112 147 175 207 260 324
#     4   9  19  34  50  75 110 141 168 216 269 308
#     4   9  17  30  51  77 101 130 167 218 268 301
#     4  10  19  34  56  80 103 131 177 224 260 304
#
# _framework density 19.722829999999998
#
# number of rings (size 3 to 8) (size 9 to 14) (size 15 to 20)
#    0.000    2.286    1.429    2.143    0.000    4.286 
#    0.000    1.429    0.000    2.143    0.000    0.000 
#    0.000    0.000    0.000    0.000    0.000    0.000 
#
# Total GULP energy -347143.500209 kJ/mol
# GULP energy per Si atom -12397.982150 kJ/mol
# Density = 1.967794 g / cm^3
# Si number density = 19.722830 Si / 1000 Ang^3
#
#
#
# Elastic Constant Matrix: (Units=GPa)
#
#
# Indices 1 2 3 4 5 6 
#
# 1 153.4715 30.8731 83.3912 0.0000 13.3411 0.0000
# 2 30.8731 27.3221 22.1824 0.0001 2.4076 -0.0001
# 3 83.3912 22.1824 142.9260 0.0000 11.9339 0.0000
# 4 0.0000 0.0001 0.0000 10.6327 0.0000 7.1384
# 5 13.3411 2.4076 11.9339 0.0000 40.5575 0.0000
# 6 0.0000 -0.0001 0.0000 7.1384 0.0000 21.1342
#
#
#
# Elastic Compliance Matrix: (Units=1/GPa)
#
#
# Indices 1 2 3 4 5 6 
#
# 1 0.011055 -0.008263 -0.005029 0.000000 -0.001666 0.000000
# 2 -0.008263 0.048066 -0.002694 -0.000001 0.000657 0.000000
# 3 -0.005029 -0.002694 0.010454 0.000000 -0.001262 0.000000
# 4 0.000000 -0.000001 0.000000 0.121631 0.000000 -0.041083
# 5 -0.001666 0.000657 -0.001262 0.000000 0.025537 0.000000
# 6 0.000000 0.000000 0.000000 -0.041083 0.000000 0.061193
#
#
# Mechanical properties :
#
#
# Convention : Reuss Voigt Hill
#
# Bulk Modulus (GPa) = 26.59224 66.29031 46.44128
# Shear Modulus (GPa) = 15.50664 26.94974 21.22819
#
# Velocity S-wave (km/s) = 2.80702 3.70053 3.28430
# Velocity P-wave (km/s) = 4.90082 7.20711 6.16281
#
# Compressibility (1/GPa) = 0.03760496
#
# Stress axis : x y z
#
# Youngs Moduli (GPa) = 90.45403 20.80469 95.65522
#
# Poissons Ratio (x) = 0.17190 0.48103
# Poissons Ratio (y) = 0.74738 0.25770
# Poissons Ratio (z) = 0.45488 0.05605
#
# Static dielectric constant tensor:
#      x y z
#    x 3.978410 0.000000 0.128340 
#    y 0.000000 3.096630 0.000000 
#    z 0.128340 0.000000 3.793640 
# 
# 
# High freq. dielectric constant tensor:
#      x y z
#    x 1.786950 0.000000 0.007780 
#    y 0.000000 1.709560 0.000000 
#    z 0.007780 0.000000 1.773730 
# 
# From -- ./inp_files/238260.got.cif
#   From: 2010.06.25/outbox.cif.g09.slc.cpg/sg12_120_cif.got.tgz:238260.got - 2010.06.28 00:19:55.
