data_PCOD8082408
_publ_section_title
;
Structure prediction by ZEFSAII (Michael W. Deem and Ramdas Pophale) SiO2 
 PCOD8082408
Probable space group: C 2/M
;
_chemical_formula_sum "Si O2"
_cell_formula_units_Z 56
_cell_length_a 25.249238
_cell_length_b 9.002377
_cell_length_c 16.701142
_cell_angle_alpha 90.000000
_cell_angle_beta 120.169320
_cell_angle_gamma 90.000000
_cell_volume 3282.001358
_symmetry_space_group_name_H-M "C 2/M"
_symmetry_group_IT_number 12
_symmetry_cell_setting 'monoclinic'
loop_
_space_group_symop_operation_xyz
x,y,z
-x,y,-z
-x,-y,-z
x,-y,z
1/2+x,1/2+y,z
1/2-x,1/2+y,-z
1/2-x,1/2-y,-z
1/2+x,1/2-y,z
loop_
_atom_site_type_symbol
_atom_site_label
_atom_site_fract_x
_atom_site_fract_y
_atom_site_fract_z
Si Si1 0.421930 0.323910 0.090810
Si Si2 0.878001 0.823800 0.888432
Si Si3 0.768796 0.670483 0.399898
Si Si4 0.157058 0.672767 0.391832
Si Si5 0.442758 0.676445 0.777622
Si Si6 0.237904 0.327973 0.783692
Si Si7 0.802505 0.824003 0.092697
O O1 0.422824 0.500000 0.085588
O O2 0.487177 0.266539 0.173043
O O3 0.368240 0.271297 0.109265
O O4 0.410163 0.259709 0.992705
O O5 0.912849 0.761816 0.837026
O O6 0.807779 0.771873 0.834651
O O7 0.881511 0.000000 0.889639
O O8 0.747124 0.500000 0.394210
O O9 0.824517 0.708006 0.502199
O O10 0.710284 0.771572 0.373293
O O11 0.791474 0.697838 0.326448
O O12 0.147506 0.500000 0.369682
O O13 0.093495 0.755654 0.325228
O O14 0.438680 0.500000 0.769417
O O15 0.234393 0.500000 0.807081
O O16 0.200461 0.229669 0.818090
O O17 0.794747 0.000000 0.081630
O O18 0.750000 0.750000 0.000000
#
# Coordination Sequence:
#
# PCOD8082408 Si02
#       7
#     8   8   8   8   8   8   8
#     4   9  18  31  49  72  97 129 171 206 234 287
#     4   9  15  27  49  74  97 124 163 201 237 287
#     4   9  18  33  51  72  99 133 167 200 244 299
#     4  10  19  30  48  75 105 129 158 204 252 297
#     4  10  18  31  52  73  97 133 168 199 242 297
#     4  10  18  32  53  74  98 129 167 206 245 292
#     4  11  21  34  51  74 101 132 169 208 248 288
#
# _framework density 17.062760000000001
#
# number of rings (size 3 to 8) (size 9 to 14) (size 15 to 20)
#    0.000    2.286    2.857    1.286    0.000    2.857 
#    0.000    1.429    0.000    1.714    0.000    6.000 
#    0.000    0.000    0.000    0.000    0.000    0.000 
#
# Total GULP energy -347174.620619 kJ/mol
# GULP energy per Si atom -12399.093594 kJ/mol
# Density = 1.702392 g / cm^3
# Si number density = 17.062760 Si / 1000 Ang^3
#
#
#
# Elastic Constant Matrix: (Units=GPa)
#
#
# Indices 1 2 3 4 5 6 
#
# 1 117.3353 32.2743 69.1716 0.0000 7.3866 0.0000
# 2 32.2743 41.0650 35.8515 0.0000 2.2619 0.0000
# 3 69.1716 35.8515 139.2309 0.0000 6.3109 0.0000
# 4 0.0000 0.0000 0.0000 27.0773 0.0000 -1.3551
# 5 7.3866 2.2619 6.3109 0.0000 27.0736 0.0000
# 6 0.0000 0.0000 0.0000 -1.3551 0.0000 21.7402
#
#
#
# Elastic Compliance Matrix: (Units=1/GPa)
#
#
# Indices 1 2 3 4 5 6 
#
# 1 0.013190 -0.005954 -0.004932 0.000000 -0.001952 0.000000
# 2 -0.005954 0.034116 -0.005833 0.000000 0.000134 0.000000
# 3 -0.004932 -0.005833 0.011169 0.000000 -0.000771 0.000000
# 4 0.000000 0.000000 0.000000 0.037047 0.000000 0.002309
# 5 -0.001952 0.000134 -0.000771 0.000000 0.037637 0.000000
# 6 0.000000 0.000000 0.000000 0.002309 0.000000 0.046142
#
#
# Mechanical properties :
#
#
# Convention : Reuss Voigt Hill
#
# Bulk Modulus (GPa) = 39.93761 63.58066 51.75913
# Shear Modulus (GPa) = 22.61581 25.86713 24.24147
#
# Velocity S-wave (km/s) = 3.64462 3.89781 3.77334
# Velocity P-wave (km/s) = 6.41624 7.58953 7.02741
#
# Compressibility (1/GPa) = 0.02503906
#
# Stress axis : x y z
#
# Youngs Moduli (GPa) = 75.81283 29.31190 89.53130
#
# Poissons Ratio (x) = 0.17452 0.44153
# Poissons Ratio (y) = 0.45137 0.52223
# Poissons Ratio (z) = 0.37388 0.17097
#
# Static dielectric constant tensor:
#      x y z
#    x 3.189830 0.000000 -0.020550 
#    y 0.000000 2.948980 0.000000 
#    z -0.020550 0.000000 3.414830 
# 
# 
# High freq. dielectric constant tensor:
#      x y z
#    x 1.637880 0.000000 -0.002580 
#    y 0.000000 1.632130 0.000000 
#    z -0.002580 0.000000 1.666140 
# 
# From -- ./inp_files/287875.got.cif
#   From: 2010.06.25/outbox.cif.g09.slc.cpg/sg12_144_cif.got.tgz:287875.got - 2010.06.28 00:19:55.
