data_PCOD8082428
_publ_section_title
;
Structure prediction by ZEFSAII (Michael W. Deem and Ramdas Pophale) SiO2 
 PCOD8082428
Probable space group: C 2/M
;
_chemical_formula_sum "Si O2"
_cell_formula_units_Z 48
_cell_length_a 29.830685
_cell_length_b 8.604557
_cell_length_c 19.446364
_cell_angle_alpha 90.000000
_cell_angle_beta 31.386106
_cell_angle_gamma 90.000000
_cell_volume 2599.580823
_symmetry_space_group_name_H-M "C 2/M"
_symmetry_group_IT_number 12
_symmetry_cell_setting 'monoclinic'
loop_
_space_group_symop_operation_xyz
x,y,z
-x,y,-z
-x,-y,-z
x,-y,z
1/2+x,1/2+y,z
1/2-x,1/2+y,-z
1/2-x,1/2-y,-z
1/2+x,1/2-y,z
loop_
_atom_site_type_symbol
_atom_site_label
_atom_site_fract_x
_atom_site_fract_y
_atom_site_fract_z
Si Si1 0.015315 0.314873 0.902878
Si Si2 0.470456 0.684123 0.613415
Si Si3 0.388609 0.183374 0.955856
Si Si4 0.036070 0.316565 0.662658
Si Si5 0.220315 0.815529 0.110462
Si Si6 0.154766 0.183898 0.620736
O O1 0.024917 0.500000 0.888169
O O2 0.101070 0.244723 0.756815
O O3 0.931857 0.255117 0.969403
O O4 0.000000 0.253547 0.000000
O O5 0.500000 0.739387 0.500000
O O6 0.475247 0.500000 0.615320
O O7 0.533574 0.759187 0.587282
O O8 0.373432 0.748780 0.748068
O O9 0.446440 0.236751 0.815219
O O10 0.388600 0.000000 0.958408
O O11 0.290664 0.243541 0.074879
O O12 0.049830 0.500000 0.647602
O O13 0.114187 0.238210 0.601541
O O14 0.219308 0.000000 0.108249
O O15 0.250000 0.750000 0.000000
O O16 0.250000 0.250000 0.500000
O O17 0.157491 0.000000 0.619498
#
# Coordination Sequence:
#
# PCOD8082428 Si02
#       6
#     8   8   8   8   8   8
#     4   9  18  35  57  83 115 147 182 226 281 335
#     4  10  21  35  50  77 115 148 181 223 276 331
#     4   8  15  29  51  77 102 136 179 221 264 315
#     4  10  19  35  58  80 106 140 185 230 278 332
#     4  10  18  31  52  75 103 138 181 224 261 314
#     4  11  22  38  60  84 112 145 187 231 279 335
#
# _framework density 18.464516
#
# number of rings (size 3 to 8) (size 9 to 14) (size 15 to 20)
#    0.000    2.333    1.667    3.000    0.000    0.667 
#    3.000    0.000    0.000    0.000    0.000    0.000 
#    0.000    0.000    0.000    0.000    0.000    0.000 
#
# Total GULP energy -297505.956259 kJ/mol
# GULP energy per Si atom -12396.081511 kJ/mol
# Density = 1.842249 g / cm^3
# Si number density = 18.464516 Si / 1000 Ang^3
#
#
#
# Elastic Constant Matrix: (Units=GPa)
#
#
# Indices 1 2 3 4 5 6 
#
# 1 165.6040 39.0102 93.0154 0.0002 5.0312 -0.0005
# 2 39.0102 57.5118 34.2037 0.0014 0.0279 -0.0041
# 3 93.0154 34.2037 131.3980 0.0003 -6.8511 -0.0035
# 4 0.0002 0.0014 0.0003 22.7055 -0.0016 1.4142
# 5 5.0312 0.0279 -6.8511 -0.0016 36.3284 0.0021
# 6 -0.0005 -0.0041 -0.0035 1.4142 0.0021 26.9224
#
#
#
# Elastic Compliance Matrix: (Units=1/GPa)
#
#
# Indices 1 2 3 4 5 6 
#
# 1 0.010772 -0.003175 -0.006945 0.000000 -0.002799 -0.000001
# 2 -0.003175 0.021547 -0.003372 -0.000001 -0.000213 0.000003
# 3 -0.006945 -0.003372 0.013589 0.000000 0.003527 0.000001
# 4 0.000000 -0.000001 0.000000 0.044187 0.000002 -0.002321
# 5 -0.002799 -0.000213 0.003527 0.000002 0.028580 -0.000002
# 6 -0.000001 0.000003 0.000001 -0.002321 -0.000002 0.037266
#
#
# Mechanical properties :
#
#
# Convention : Reuss Voigt Hill
#
# Bulk Modulus (GPa) = 52.84571 76.33025 64.58798
# Shear Modulus (GPa) = 26.42247 29.74356 28.08302
#
# Velocity S-wave (km/s) = 3.78694 4.01789 3.90413
# Velocity P-wave (km/s) = 6.91401 7.93431 7.44167
#
# Compressibility (1/GPa) = 0.01892301
#
# Stress axis : x y z
#
# Youngs Moduli (GPa) = 92.83010 46.40991 73.59122
#
# Poissons Ratio (x) = 0.14736 0.51110
# Poissons Ratio (y) = 0.29474 0.24817
# Poissons Ratio (z) = 0.64472 0.15651
#
# Static dielectric constant tensor:
#      x y z
#    x 3.909540 0.000000 -0.280180 
#    y 0.000000 3.200560 0.000010 
#    z -0.280180 0.000010 3.529030 
# 
# 
# High freq. dielectric constant tensor:
#      x y z
#    x 1.728770 0.000000 -0.011550 
#    y 0.000000 1.699490 0.000000 
#    z -0.011550 0.000000 1.703940 
# 
# From -- ./inp_files/329014.got.cif
#   From: 2010.06.25/outbox.cif.g09.slc.cpg/sg12_165_cif.got.tgz:329014.got - 2010.06.28 00:19:55.
