data_PCOD8082251
_publ_section_title
;
Structure prediction by ZEFSAII (Michael W. Deem and Ramdas Pophale) SiO2 
 PCOD8082251
Probable space group: C 2/M
;
_chemical_formula_sum "Si O2"
_cell_formula_units_Z 64
_cell_length_a 23.359616
_cell_length_b 8.876521
_cell_length_c 19.798504
_cell_angle_alpha 90.000000
_cell_angle_beta 59.010115
_cell_angle_gamma 90.000000
_cell_volume 3519.269405
_symmetry_space_group_name_H-M "C 2/M"
_symmetry_group_IT_number 12
_symmetry_cell_setting 'monoclinic'
loop_
_space_group_symop_operation_xyz
x,y,z
-x,y,-z
-x,-y,-z
x,-y,z
1/2+x,1/2+y,z
1/2-x,1/2+y,-z
1/2-x,1/2-y,-z
1/2+x,1/2-y,z
loop_
_atom_site_type_symbol
_atom_site_label
_atom_site_fract_x
_atom_site_fract_y
_atom_site_fract_z
Si Si1 0.573493 0.821056 0.590786
Si Si2 0.560520 0.330287 0.325152
Si Si3 0.195651 0.321948 0.229468
Si Si4 0.421330 0.176746 0.258551
Si Si5 0.801732 0.179783 0.917225
Si Si6 0.448395 0.666532 0.829815
Si Si7 0.782523 0.674832 0.285410
Si Si8 0.205010 0.824982 0.470443
O O1 0.503452 0.756066 0.605244
O O2 0.585054 0.765022 0.660704
O O3 0.632799 0.753038 0.510091
O O4 0.572879 0.000000 0.584826
O O5 0.563907 0.500000 0.352341
O O6 0.627846 0.242410 0.304194
O O7 0.554817 0.332812 0.248576
O O8 0.189365 0.500000 0.224762
O O9 0.211586 0.248522 0.147901
O O10 0.256462 0.279562 0.241354
O O11 0.490096 0.232164 0.181937
O O12 0.357883 0.231501 0.254263
O O13 0.423521 0.000000 0.259161
O O14 0.876030 0.224616 0.899064
O O15 0.794527 0.000000 0.916992
O O16 0.750000 0.250000 0.000000
O O17 0.462109 0.500000 0.849431
O O18 0.780987 0.500000 0.264289
O O19 0.738777 0.700314 0.378189
O O20 0.250000 0.750000 0.500000
O O21 0.197210 0.000000 0.492780
#
# Coordination Sequence:
#
# PCOD8082251 Si02
#       8
#     8   8   8   8   8   8   8   8
#     4  10  18  31  50  76 104 133 176 229 274 320
#     4   9  17  32  52  74 101 138 175 217 269 319
#     4  11  22  36  55  81 108 140 178 218 263 318
#     4   9  17  30  49  73 102 138 177 216 261 310
#     4  10  20  36  59  86 114 142 172 212 259 312
#     4   8  16  29  48  77 107 133 167 210 255 303
#     4  10  21  37  52  72 105 145 181 220 269 320
#     4  11  21  34  51  73 104 140 181 228 277 322
#
# _framework density 18.185592
#
# number of rings (size 3 to 8) (size 9 to 14) (size 15 to 20)
#    0.000    2.250    1.250    3.375    0.000    5.500 
#    0.000    0.625    0.000    4.500    0.000    5.250 
#    0.000    0.000    0.000    0.000    0.000    0.000 
#
# Total GULP energy -396761.180996 kJ/mol
# GULP energy per Si atom -12398.786906 kJ/mol
# Density = 1.814420 g / cm^3
# Si number density = 18.185592 Si / 1000 Ang^3
#
#
#
# Elastic Constant Matrix: (Units=GPa)
#
#
# Indices 1 2 3 4 5 6 
#
# 1 122.7929 49.3479 48.7339 0.0000 -23.0108 0.0001
# 2 49.3479 95.5978 36.1635 -0.0001 -8.6763 0.0005
# 3 48.7339 36.1635 65.4714 -0.0001 -22.7366 0.0001
# 4 0.0000 -0.0001 -0.0001 27.9836 0.0001 -6.9144
# 5 -23.0108 -8.6763 -22.7366 0.0001 30.5883 0.0000
# 6 0.0001 0.0005 0.0001 -6.9144 0.0000 33.6383
#
#
#
# Elastic Compliance Matrix: (Units=1/GPa)
#
#
# Indices 1 2 3 4 5 6 
#
# 1 0.012897 -0.004038 -0.005928 0.000000 0.004150 0.000000
# 2 -0.004038 0.014605 -0.006305 0.000000 -0.003582 0.000000
# 3 -0.005928 -0.006305 0.028306 0.000000 0.014792 0.000000
# 4 0.000000 0.000000 0.000000 0.037647 0.000000 0.007739
# 5 0.004150 -0.003582 0.014792 0.000000 0.045794 0.000000
# 6 0.000000 0.000000 0.000000 0.007739 0.000000 0.031319
#
#
# Mechanical properties :
#
#
# Convention : Reuss Voigt Hill
#
# Bulk Modulus (GPa) = 42.98285 61.37253 52.17769
# Shear Modulus (GPa) = 23.71163 28.41648 26.06405
#
# Velocity S-wave (km/s) = 3.61483 3.95724 3.78990
# Velocity P-wave (km/s) = 6.41168 7.39600 6.92136
#
# Compressibility (1/GPa) = 0.02326509
#
# Stress axis : x y z
#
# Youngs Moduli (GPa) = 77.53586 68.46877 35.32789
#
# Poissons Ratio (x) = 0.27650 0.20943
# Poissons Ratio (y) = 0.31312 0.22275
# Poissons Ratio (z) = 0.45965 0.43171
#
# Static dielectric constant tensor:
#      x y z
#    x 4.321700 0.000010 0.200510 
#    y 0.000010 3.429960 0.000000 
#    z 0.200510 0.000000 3.639190 
# 
# 
# High freq. dielectric constant tensor:
#      x y z
#    x 1.706140 0.000000 -0.028220 
#    y 0.000000 1.711620 0.000000 
#    z -0.028220 0.000000 1.671090 
# 
# From -- ./inp_files/323603.got.cif
#   From: 2010.06.25/outbox.cif.g09.slc.cpg/sg12_162_cif.got.tgz:323603.got - 2010.06.28 00:19:55.
