data_PCOD8082650
_publ_section_title
;
Structure prediction by ZEFSAII (Michael W. Deem and Ramdas Pophale) SiO2 
 PCOD8082650
Probable space group: C 2/M
;
_chemical_formula_sum "Si O2"
_cell_formula_units_Z 56
_cell_length_a 15.289297
_cell_length_b 9.224785
_cell_length_c 22.486663
_cell_angle_alpha 90.000000
_cell_angle_beta 108.534688
_cell_angle_gamma 90.000000
_cell_volume 3007.026818
_symmetry_space_group_name_H-M "C 2/M"
_symmetry_group_IT_number 12
_symmetry_cell_setting 'monoclinic'
loop_
_space_group_symop_operation_xyz
x,y,z
-x,y,-z
-x,-y,-z
x,-y,z
1/2+x,1/2+y,z
1/2-x,1/2+y,-z
1/2-x,1/2-y,-z
1/2+x,1/2-y,z
loop_
_atom_site_type_symbol
_atom_site_label
_atom_site_fract_x
_atom_site_fract_y
_atom_site_fract_z
Si Si1 0.661674 0.829390 0.141413
Si Si2 0.844086 0.671112 0.210126
Si Si3 0.879545 0.169575 0.568815
Si Si4 0.837513 0.669706 0.994580
Si Si5 0.324939 0.167693 0.441874
Si Si6 0.442818 0.831057 0.353001
Si Si7 0.536808 0.828901 0.873182
O O1 0.744678 0.744745 0.189621
O O2 0.645976 0.784949 0.069570
O O3 0.569077 0.778315 0.155494
O O4 0.679808 0.000000 0.151533
O O5 0.829484 0.500000 0.201683
O O6 0.896257 0.713945 0.281334
O O7 0.902448 0.736275 0.167440
O O8 0.784491 0.201201 0.583836
O O9 0.875091 0.236295 0.502135
O O10 0.962924 0.241889 0.622380
O O11 0.898619 0.000000 0.566769
O O12 0.819593 0.500000 0.996712
O O13 0.750000 0.750000 0.000000
O O14 0.923983 0.718210 0.053941
O O15 0.370196 0.209216 0.388924
O O16 0.342126 0.000000 0.461857
O O17 0.468204 0.000000 0.360344
O O18 0.539988 0.000000 0.868269
#
# Coordination Sequence:
#
# PCOD8082650 Si02
#       7
#     8   8   8   8   8   8   8
#     4  10  20  34  54  78 102 134 175 215 260 310
#     4  10  21  37  54  74 103 140 177 213 254 305
#     4  10  20  34  55  82 107 133 171 217 258 298
#     4  10  18  31  54  78 103 133 168 213 263 310
#     4   9  19  36  55  77 108 140 169 207 259 313
#     4  10  21  36  54  75 104 143 177 205 254 315
#     4   9  18  34  54  75 103 137 171 210 260 313
#
# _framework density 18.623045999999999
#
# number of rings (size 3 to 8) (size 9 to 14) (size 15 to 20)
#    0.000    2.286    1.429    1.286    0.000    6.286 
#    0.000    1.429    0.000    1.714    0.000    0.000 
#    0.000    0.000    0.000    0.000    0.000    0.000 
#
# Total GULP energy -347210.942508 kJ/mol
# GULP energy per Si atom -12400.390804 kJ/mol
# Density = 1.858066 g / cm^3
# Si number density = 18.623046 Si / 1000 Ang^3
#
#
#
# Elastic Constant Matrix: (Units=GPa)
#
#
# Indices 1 2 3 4 5 6 
#
# 1 104.7292 33.0431 50.1457 0.0000 26.5473 0.0000
# 2 33.0431 43.8793 44.3283 0.0000 13.2757 0.0000
# 3 50.1457 44.3283 120.4746 0.0000 23.7046 0.0000
# 4 0.0000 0.0000 0.0000 25.9143 0.0000 7.0958
# 5 26.5473 13.2757 23.7046 0.0000 28.0523 0.0000
# 6 0.0000 0.0000 0.0000 7.0958 0.0000 29.5756
#
#
#
# Elastic Compliance Matrix: (Units=1/GPa)
#
#
# Indices 1 2 3 4 5 6 
#
# 1 0.014895 -0.006333 -0.002022 0.000000 -0.009390 0.000000
# 2 -0.006333 0.040171 -0.011495 0.000000 -0.003305 0.000000
# 3 -0.002022 -0.011495 0.014303 0.000000 -0.004733 0.000000
# 4 0.000000 0.000000 0.000000 0.041302 0.000000 -0.009909
# 5 -0.009390 -0.003305 -0.004733 0.000000 0.050097 0.000000
# 6 0.000000 0.000000 0.000000 -0.009909 0.000000 0.036189
#
#
# Mechanical properties :
#
#
# Convention : Reuss Voigt Hill
#
# Bulk Modulus (GPa) = 33.70462 58.23525 45.96993
# Shear Modulus (GPa) = 20.28025 26.14616 23.21321
#
# Velocity S-wave (km/s) = 3.30356 3.75102 3.53438
# Velocity P-wave (km/s) = 5.71743 7.07804 6.43380
#
# Compressibility (1/GPa) = 0.02966953
#
# Stress axis : x y z
#
# Youngs Moduli (GPa) = 67.13684 24.89381 69.91671
#
# Poissons Ratio (x) = 0.15765 0.14137
# Poissons Ratio (y) = 0.42517 0.80366
# Poissons Ratio (z) = 0.13575 0.28614
#
# Static dielectric constant tensor:
#      x y z
#    x 3.697560 0.000000 -0.246760 
#    y 0.000000 3.247620 0.000000 
#    z -0.246760 0.000000 3.763860 
# 
# 
# High freq. dielectric constant tensor:
#      x y z
#    x 1.736110 0.000000 0.003870 
#    y 0.000000 1.701330 0.000000 
#    z 0.003870 0.000000 1.721670 
# 
# From -- ./inp_files/338569.got.cif
#   From: 2010.06.25/outbox.cif.g09.slc.cpg/sg12_170_cif.got.tgz:338569.got - 2010.06.28 00:19:55.
