data_PCOD8082706
_publ_section_title
;
Structure prediction by ZEFSAII (Michael W. Deem and Ramdas Pophale) SiO2 
 PCOD8082706
Probable space group: C 2/M
;
_chemical_formula_sum "Si O2"
_cell_formula_units_Z 56
_cell_length_a 20.349707
_cell_length_b 28.047548
_cell_length_c 9.285948
_cell_angle_alpha 90.000000
_cell_angle_beta 149.061308
_cell_angle_gamma 90.000000
_cell_volume 2724.860691
_symmetry_space_group_name_H-M "C 2/M"
_symmetry_group_IT_number 12
_symmetry_cell_setting 'monoclinic'
loop_
_space_group_symop_operation_xyz
x,y,z
-x,y,-z
-x,-y,-z
x,-y,z
1/2+x,1/2+y,z
1/2-x,1/2+y,-z
1/2-x,1/2-y,-z
1/2+x,1/2-y,z
loop_
_atom_site_type_symbol
_atom_site_label
_atom_site_fract_x
_atom_site_fract_y
_atom_site_fract_z
Si Si1 0.567690 0.637573 0.975595
Si Si2 0.683232 0.053728 0.915750
Si Si3 0.435018 0.085262 0.585994
Si Si4 0.277238 0.445801 0.629578
Si Si5 0.574058 0.834780 0.989176
Si Si6 0.133421 0.236535 0.171879
Si Si7 0.182572 0.897322 0.587339
O O1 0.451286 0.631207 0.643778
O O2 0.500000 0.637095 0.000000
O O3 0.656136 0.590869 0.133767
O O4 0.653288 0.686425 0.121680
O O5 0.556118 0.052341 0.775310
O O6 0.662350 0.084586 0.731909
O O7 0.721088 0.000000 0.944511
O O8 0.795916 0.077954 0.218595
O O9 0.372894 0.063275 0.615158
O O10 0.483990 0.139712 0.701851
O O11 0.315620 0.500000 0.739054
O O12 0.316947 0.436895 0.538854
O O13 0.500000 0.834667 0.000000
O O14 0.610812 0.780202 0.017437
O O15 0.708054 0.861232 0.256247
O O16 0.250000 0.250000 0.500000
O O17 0.000000 0.228410 0.000000
#
# Coordination Sequence:
#
# PCOD8082706 Si02
#       7
#     8   8   8   8   8   8   8
#     4   9  20  34  50  77 115 144 184 224 274 329
#     4  10  20  35  55  75 108 151 187 221 273 333
#     4  10  20  34  52  81 111 139 182 230 274 331
#     4  11  20  32  53  79 112 142 178 229 278 318
#     4  10  18  31  54  82 108 136 177 229 287 325
#     4  10  19  31  54  82 115 147 180 228 284 336
#     4  10  20  35  51  79 111 143 183 227 271 331
#
# _framework density 20.551511000000001
#
# number of rings (size 3 to 8) (size 9 to 14) (size 15 to 20)
#    0.000    2.000    1.429    4.714    2.000    3.143 
#    0.000    2.857    0.000    2.571    7.429    0.000 
#    0.000    0.000    0.000    0.000    0.000    0.000 
#
# Total GULP energy -346866.150413 kJ/mol
# GULP energy per Si atom -12388.076800 kJ/mol
# Density = 2.050473 g / cm^3
# Si number density = 20.551511 Si / 1000 Ang^3
#
#
#
# Elastic Constant Matrix: (Units=GPa)
#
#
# Indices 1 2 3 4 5 6 
#
# 1 25.0668 17.9222 15.3656 0.0000 -1.9963 0.0000
# 2 17.9222 205.5116 76.0412 0.0000 -6.4297 0.0000
# 3 15.3656 76.0412 138.0459 0.0000 -9.9052 0.0000
# 4 0.0000 0.0000 0.0000 21.6470 0.0000 4.0982
# 5 -1.9963 -6.4297 -9.9052 0.0000 25.1663 0.0000
# 6 0.0000 0.0000 0.0000 4.0982 0.0000 13.8144
#
#
#
# Elastic Compliance Matrix: (Units=1/GPa)
#
#
# Indices 1 2 3 4 5 6 
#
# 1 0.043896 -0.002528 -0.003385 0.000000 0.001504 0.000000
# 2 -0.002528 0.006259 -0.003155 0.000000 0.000157 0.000000
# 3 -0.003385 -0.003155 0.009551 0.000000 0.002685 0.000000
# 4 0.000000 0.000000 0.000000 0.048945 0.000000 -0.014520
# 5 0.001504 0.000157 0.002685 0.000000 0.040952 0.000000
# 6 0.000000 0.000000 0.000000 -0.014520 0.000000 0.076696
#
#
# Mechanical properties :
#
#
# Convention : Reuss Voigt Hill
#
# Bulk Modulus (GPa) = 24.05651 65.25358 44.65504
# Shear Modulus (GPa) = 19.35797 29.41190 24.38493
#
# Velocity S-wave (km/s) = 3.07241 3.78713 3.44834
# Velocity P-wave (km/s) = 4.93124 7.13746 6.13435
#
# Compressibility (1/GPa) = 0.04156880
#
# Stress axis : x y z
#
# Youngs Moduli (GPa) = 22.78106 159.77959 104.69868
#
# Poissons Ratio (x) = 0.40399 0.35444
# Poissons Ratio (y) = 0.05760 0.33031
# Poissons Ratio (z) = 0.07712 0.50408
#
# Static dielectric constant tensor:
#      x y z
#    x 3.414300 0.000000 0.340680 
#    y 0.000000 4.357620 0.000000 
#    z 0.340680 0.000000 4.948800 
# 
# 
# High freq. dielectric constant tensor:
#      x y z
#    x 1.758890 0.000000 0.020750 
#    y 0.000000 1.811810 0.000000 
#    z 0.020750 0.000000 1.799770 
# 
# From -- ./inp_files/91606.got.cif
#   From: 2010.06.25/outbox.cif.g09.slc.cpg/sg12_46_cif.got.tgz:91606.got - 2010.06.28 00:19:55.
