data_PCOD8082562
_publ_section_title
;
Structure prediction by ZEFSAII (Michael W. Deem and Ramdas Pophale) SiO2 
 PCOD8082562
Probable space group: C 2/M
;
_chemical_formula_sum "Si O2"
_cell_formula_units_Z 40
_cell_length_a 24.323367
_cell_length_b 13.634486
_cell_length_c 19.410048
_cell_angle_alpha 90.000000
_cell_angle_beta 22.330402
_cell_angle_gamma 90.000000
_cell_volume 2445.750402
_symmetry_space_group_name_H-M "C 2/M"
_symmetry_group_IT_number 12
_symmetry_cell_setting 'monoclinic'
loop_
_space_group_symop_operation_xyz
x,y,z
-x,y,-z
-x,-y,-z
x,-y,z
1/2+x,1/2+y,z
1/2-x,1/2+y,-z
1/2-x,1/2-y,-z
1/2+x,1/2-y,z
loop_
_atom_site_type_symbol
_atom_site_label
_atom_site_fract_x
_atom_site_fract_y
_atom_site_fract_z
Si Si1 0.679098 0.746296 0.988253
Si Si2 0.859873 0.253909 0.116357
Si Si3 0.661188 0.888784 0.287498
Si Si4 0.599028 0.387054 0.446936
Si Si5 0.611368 0.614381 0.184518
O O1 0.577439 0.680466 0.156165
O O2 0.594108 0.777886 0.016841
O O3 0.815606 0.676498 0.808248
O O4 0.739874 0.843648 0.954805
O O5 0.770623 0.151279 0.220079
O O6 0.755777 0.337681 0.267064
O O7 0.000000 0.244308 0.000000
O O8 0.500000 0.876837 0.500000
O O9 0.701160 0.000000 0.224200
O O10 0.500000 0.341663 0.500000
O O11 0.626701 0.500000 0.398003
O O12 0.522235 0.372255 0.609032
O O13 0.634267 0.500000 0.139506
#
# Coordination Sequence:
#
# PCOD8082562 Si02
#       5
#     8   8   8   8   8
#     4   9  19  31  48  78 102 131 166 209 255 300
#     4  10  20  33  49  75 108 136 165 205 254 307
#     4   9  17  31  51  72  98 132 172 210 243 290
#     4  10  18  32  54  76  99 132 174 213 249 295
#     4  10  18  31  53  76 101 130 168 215 254 293
#
# _framework density 16.354897999999999
#
# number of rings (size 3 to 8) (size 9 to 14) (size 15 to 20)
#    1.200    1.200    2.000    2.400    0.000    0.800 
#    0.000    1.000    0.000    0.000    0.000    2.800 
#    0.000    0.000    0.000    0.000    0.000    0.000 
#
# Total GULP energy -247784.005294 kJ/mol
# GULP energy per Si atom -12389.200265 kJ/mol
# Density = 1.631767 g / cm^3
# Si number density = 16.354898 Si / 1000 Ang^3
#
#
#
# Elastic Constant Matrix: (Units=GPa)
#
#
# Indices 1 2 3 4 5 6 
#
# 1 92.1147 21.8598 42.1787 -0.0003 -1.1644 0.0001
# 2 21.8598 71.2739 30.7265 -0.0004 2.5888 0.0002
# 3 42.1787 30.7265 66.8062 -0.0003 1.2416 0.0002
# 4 -0.0003 -0.0004 -0.0003 15.7768 0.0002 10.9360
# 5 -1.1644 2.5888 1.2416 0.0002 32.8589 -0.0001
# 6 0.0001 0.0002 0.0002 10.9360 -0.0001 14.0579
#
#
#
# Elastic Compliance Matrix: (Units=1/GPa)
#
#
# Indices 1 2 3 4 5 6 
#
# 1 0.015325 -0.000693 -0.009374 0.000000 0.000952 0.000000
# 2 -0.000693 0.017570 -0.007622 0.000001 -0.001121 -0.000001
# 3 -0.009374 -0.007622 0.024405 0.000001 -0.000654 -0.000001
# 4 0.000000 0.000001 0.000001 0.137562 -0.000001 -0.107013
# 5 0.000952 -0.001121 -0.000654 -0.000001 0.030580 0.000001
# 6 0.000000 -0.000001 -0.000001 -0.107013 0.000001 0.154382
#
#
# Mechanical properties :
#
#
# Convention : Reuss Voigt Hill
#
# Bulk Modulus (GPa) = 45.62092 46.63610 46.12851
# Shear Modulus (GPa) = 11.83401 21.56735 16.70068
#
# Velocity S-wave (km/s) = 2.69285 3.63534 3.19900
# Velocity P-wave (km/s) = 6.13380 6.79691 6.47385
#
# Compressibility (1/GPa) = 0.02191977
#
# Stress axis : x y z
#
# Youngs Moduli (GPa) = 65.25240 56.91587 40.97484
#
# Poissons Ratio (x) = 0.03947 0.38411
# Poissons Ratio (y) = 0.04525 0.31232
# Poissons Ratio (z) = 0.61170 0.43383
#
# Static dielectric constant tensor:
#      x y z
#    x 2.900820 0.000000 0.290150 
#    y 0.000000 3.219610 0.000000 
#    z 0.290150 0.000000 2.872960 
# 
# 
# High freq. dielectric constant tensor:
#      x y z
#    x 1.604020 0.000000 0.030050 
#    y 0.000000 1.640340 0.000000 
#    z 0.030050 0.000000 1.609070 
# 
# From -- ./inp_files/328097.got.cif
#   From: 2010.06.25/outbox.cif.g09.slc.cpg/sg12_165_cif.got.tgz:328097.got - 2010.06.28 00:19:55.
