data_PCOD8082024
_publ_section_title
;
Structure prediction by ZEFSAII (Michael W. Deem and Ramdas Pophale) SiO2 
 PCOD8082024
Probable space group: C 2/M
;
_chemical_formula_sum "Si O2"
_cell_formula_units_Z 52
_cell_length_a 18.561469
_cell_length_b 11.908801
_cell_length_c 22.277956
_cell_angle_alpha 90.000000
_cell_angle_beta 30.733614
_cell_angle_gamma 90.000000
_cell_volume 2516.615162
_symmetry_space_group_name_H-M "C 2/M"
_symmetry_group_IT_number 12
_symmetry_cell_setting 'monoclinic'
loop_
_space_group_symop_operation_xyz
x,y,z
-x,y,-z
-x,-y,-z
x,-y,z
1/2+x,1/2+y,z
1/2-x,1/2+y,-z
1/2-x,1/2-y,-z
1/2+x,1/2-y,z
loop_
_atom_site_type_symbol
_atom_site_label
_atom_site_fract_x
_atom_site_fract_y
_atom_site_fract_z
Si Si1 0.107679 0.733108 0.178594
Si Si2 0.371465 0.760385 0.546544
Si Si3 0.054913 0.869429 0.328186
Si Si4 0.426813 0.000000 0.488153
Si Si5 0.191914 0.367278 0.766037
Si Si6 0.100522 0.500000 0.241851
Si Si7 0.564062 0.730748 0.074246
Si Si8 0.929496 0.000000 0.987329
O O1 0.053233 0.830366 0.261021
O O2 0.052656 0.611987 0.241001
O O3 0.041673 0.752483 0.160996
O O4 0.275271 0.749467 0.058687
O O5 0.500000 0.768338 0.500000
O O6 0.420898 0.687815 0.454834
O O7 0.331776 0.886774 0.552490
O O8 0.241082 0.697985 0.670869
O O9 0.203564 0.837652 0.253863
O O10 0.028179 0.000000 0.350995
O O11 0.500000 0.000000 0.500000
O O12 0.542482 0.000000 0.351475
O O13 0.186895 0.500000 0.757692
O O14 0.034688 0.319726 0.891253
O O15 0.267424 0.500000 0.120867
O O16 0.519801 0.605566 0.087961
O O17 0.000000 0.000000 0.000000
#
# Coordination Sequence:
#
# PCOD8082024 Si02
#       8
#     8   8   8   4   8   4   8   4
#     4  10  22  40  61  84 118 159 202 247 297 372
#     4   9  18  33  55  87 120 153 199 249 305 360
#     4  10  20  35  61  85 116 157 199 252 299 358
#     4  10  18  30  58  92 118 154 202 259 297 359
#     4  10  22  38  59  88 121 159 203 254 307 354
#     4  10  20  38  62  88 118 162 203 240 319 358
#     4  10  24  40  60  86 119 157 202 244 302 360
#     4  10  24  38  64  90 123 155 192 259 310 363
#
# _framework density 20.662675
#
# number of rings (size 3 to 8) (size 9 to 14) (size 15 to 20)
#    0.000    2.154    1.538    0.462    6.462    3.077 
#    0.000    2.308    0.000    0.000    0.000    0.000 
#    0.000    0.000    0.000    0.000    0.000    0.000 
#
# Total GULP energy -322313.179430 kJ/mol
# GULP energy per Si atom -12396.660747 kJ/mol
# Density = 2.061565 g / cm^3
# Si number density = 20.662675 Si / 1000 Ang^3
#
#
#
# Elastic Constant Matrix: (Units=GPa)
#
#
# Indices 1 2 3 4 5 6 
#
# 1 50.1934 30.8784 13.2424 -0.0004 18.6033 0.0002
# 2 30.8784 142.3573 33.0274 -0.0005 12.2814 0.0002
# 3 13.2424 33.0274 54.1813 -0.0014 23.2576 0.0008
# 4 -0.0004 -0.0005 -0.0014 33.9027 0.0006 4.1733
# 5 18.6033 12.2814 23.2576 0.0006 37.3766 -0.0002
# 6 0.0002 0.0002 0.0008 4.1733 -0.0002 20.8899
#
#
#
# Elastic Compliance Matrix: (Units=1/GPa)
#
#
# Indices 1 2 3 4 5 6 
#
# 1 0.027576 -0.005353 0.002265 0.000001 -0.013376 -0.000001
# 2 -0.005353 0.009230 -0.005676 0.000000 0.003163 0.000000
# 3 0.002265 -0.005676 0.028716 0.000002 -0.017131 -0.000002
# 4 0.000001 0.000000 0.000002 0.030240 -0.000002 -0.006041
# 5 -0.013376 0.003163 -0.017131 -0.000002 0.043033 0.000001
# 6 -0.000001 0.000000 -0.000002 -0.006041 0.000001 0.049077
#
#
# Mechanical properties :
#
#
# Convention : Reuss Voigt Hill
#
# Bulk Modulus (GPa) = 20.83584 44.55870 32.69727
# Shear Modulus (GPa) = 22.58389 29.73943 26.16166
#
# Velocity S-wave (km/s) = 3.30961 3.79790 3.56213
# Velocity P-wave (km/s) = 4.97096 6.39091 5.72513
#
# Compressibility (1/GPa) = 0.04799424
#
# Stress axis : x y z
#
# Youngs Moduli (GPa) = 36.26349 108.34791 34.82336
#
# Poissons Ratio (x) = 0.57998 -0.07887
# Poissons Ratio (y) = 0.19412 0.19764
# Poissons Ratio (z) = -0.08213 0.61494
#
# Static dielectric constant tensor:
#      x y z
#    x 3.491450 0.000000 0.138170 
#    y 0.000000 4.106640 0.000000 
#    z 0.138170 0.000000 3.731750 
# 
# 
# High freq. dielectric constant tensor:
#      x y z
#    x 1.786210 0.000000 0.014760 
#    y 0.000000 1.824630 0.000000 
#    z 0.014760 0.000000 1.805220 
# 
# From -- ./inp_files/315657.got.cif
#   From: 2010.06.25/outbox.cif.g09.slc.cpg/sg12_158_cif.got.tgz:315657.got - 2010.06.28 00:19:55.
