data_PCOD8082213
_publ_section_title
;
Structure prediction by ZEFSAII (Michael W. Deem and Ramdas Pophale) SiO2 
 PCOD8082213
Probable space group: C 2/M
;
_chemical_formula_sum "Si O2"
_cell_formula_units_Z 64
_cell_length_a 23.214506
_cell_length_b 9.086804
_cell_length_c 16.822746
_cell_angle_alpha 90.000000
_cell_angle_beta 94.780413
_cell_angle_gamma 90.000000
_cell_volume 3536.340926
_symmetry_space_group_name_H-M "C 2/M"
_symmetry_group_IT_number 12
_symmetry_cell_setting 'monoclinic'
loop_
_space_group_symop_operation_xyz
x,y,z
-x,y,-z
-x,-y,-z
x,-y,z
1/2+x,1/2+y,z
1/2-x,1/2+y,-z
1/2-x,1/2-y,-z
1/2+x,1/2-y,z
loop_
_atom_site_type_symbol
_atom_site_label
_atom_site_fract_x
_atom_site_fract_y
_atom_site_fract_z
Si Si1 0.191858 0.331909 0.764588
Si Si2 0.368217 0.331637 0.597853
Si Si3 0.860913 0.667493 0.836053
Si Si4 0.048147 0.826516 0.250212
Si Si5 0.439729 0.330231 0.453478
Si Si6 0.768945 0.825830 0.921734
Si Si7 0.063638 0.329419 0.710049
Si Si8 0.722470 0.835668 0.323903
O O1 0.206947 0.500000 0.747778
O O2 0.220371 0.284661 0.851117
O O3 0.123599 0.304876 0.763467
O O4 0.217705 0.241630 0.693222
O O5 0.352318 0.500000 0.611482
O O6 0.419725 0.286228 0.663738
O O7 0.388598 0.303356 0.510577
O O8 0.309629 0.240763 0.605743
O O9 0.873302 0.500000 0.864712
O O10 0.920615 0.748397 0.820624
O O11 0.830580 0.757514 0.903426
O O12 0.819996 0.670925 0.755368
O O13 0.983620 0.764339 0.248210
O O14 0.046279 0.000000 0.234536
O O15 0.500000 0.285777 0.500000
O O16 0.442043 0.500000 0.425324
O O17 0.427941 0.225075 0.378608
O O18 0.775682 0.000000 0.934112
O O19 0.750000 0.750000 0.000000
O O20 0.045394 0.500000 0.706683
O O21 0.737750 0.000000 0.351937
#
# Coordination Sequence:
#
# PCOD8082213 Si02
#       8
#     8   8   8   8   8   8   8   8
#     4   9  20  37  53  72 104 139 169 200 251 312
#     4   9  17  30  49  69  96 131 168 211 261 309
#     4   9  17  30  49  78 108 132 165 211 252 296
#     4  10  18  31  50  73 101 137 174 211 255 303
#     4  10  19  34  50  70  99 134 175 216 261 309
#     4  10  19  34  57  83 108 136 166 204 251 302
#     4  11  22  34  50  74 102 136 174 214 255 302
#     4   9  17  29  49  74  98 125 167 216 255 294
#
# _framework density 18.097802000000001
#
# number of rings (size 3 to 8) (size 9 to 14) (size 15 to 20)
#    0.000    2.375    1.250    1.875    0.000    5.750 
#    0.000    0.625    0.000    0.750    0.000    5.250 
#    0.000    0.000    0.000    0.000    0.000    0.000 
#
# Total GULP energy -396845.825380 kJ/mol
# GULP energy per Si atom -12401.432043 kJ/mol
# Density = 1.805661 g / cm^3
# Si number density = 18.097802 Si / 1000 Ang^3
#
#
#
# Elastic Constant Matrix: (Units=GPa)
#
#
# Indices 1 2 3 4 5 6 
#
# 1 102.8153 60.4713 47.2285 0.0000 -24.6211 0.0000
# 2 60.4713 114.0377 44.8584 0.0000 -18.3814 0.0000
# 3 47.2285 44.8584 70.2249 0.0000 -22.8243 0.0000
# 4 0.0000 0.0000 0.0000 28.6720 0.0000 -10.5951
# 5 -24.6211 -18.3814 -22.8243 0.0000 27.6282 0.0000
# 6 0.0000 0.0000 0.0000 -10.5951 0.0000 33.3526
#
#
#
# Elastic Compliance Matrix: (Units=1/GPa)
#
#
# Indices 1 2 3 4 5 6 
#
# 1 0.017493 -0.005900 -0.005748 0.000000 0.006915 0.000000
# 2 -0.005900 0.013801 -0.004884 0.000000 -0.000111 0.000000
# 3 -0.005748 -0.004884 0.025297 0.000000 0.012527 0.000000
# 4 0.000000 0.000000 0.000000 0.039516 0.000000 0.012553
# 5 0.006915 -0.000111 0.012527 0.000000 0.052632 0.000000
# 6 0.000000 0.000000 0.000000 0.012553 0.000000 0.033970
#
#
# Mechanical properties :
#
#
# Convention : Reuss Voigt Hill
#
# Bulk Modulus (GPa) = 42.50542 65.79937 54.15239
# Shear Modulus (GPa) = 22.35991 26.89856 24.62924
#
# Velocity S-wave (km/s) = 3.51879 3.85942 3.69304
# Velocity P-wave (km/s) = 6.32824 7.50312 6.94059
#
# Compressibility (1/GPa) = 0.02352641
#
# Stress axis : x y z
#
# Youngs Moduli (GPa) = 57.16670 72.45827 39.53096
#
# Poissons Ratio (x) = 0.42753 0.22722
# Poissons Ratio (y) = 0.33730 0.19306
# Poissons Ratio (z) = 0.32859 0.35386
#
# Static dielectric constant tensor:
#      x y z
#    x 3.351730 0.000000 -0.211280 
#    y 0.000000 3.459580 0.000000 
#    z -0.211280 0.000000 3.081840 
# 
# 
# High freq. dielectric constant tensor:
#      x y z
#    x 1.698000 0.000000 -0.027330 
#    y 0.000000 1.711310 0.000000 
#    z -0.027330 0.000000 1.667290 
# 
# From -- ./inp_files/281403.got.cif
#   From: 2010.06.25/outbox.cif.g09.slc.cpg/sg12_141_cif.got.tgz:281403.got - 2010.06.28 00:19:55.
