data_PCOD8082949
_publ_section_title
;
Structure prediction by ZEFSAII (Michael W. Deem and Ramdas Pophale) SiO2 
 PCOD8082949
Probable space group: C 2/M
;
_chemical_formula_sum "Si O2"
_cell_formula_units_Z 36
_cell_length_a 12.847198
_cell_length_b 20.576901
_cell_length_c 13.223537
_cell_angle_alpha 90.000000
_cell_angle_beta 147.118328
_cell_angle_gamma 90.000000
_cell_volume 1897.844103
_symmetry_space_group_name_H-M "C 2/M"
_symmetry_group_IT_number 12
_symmetry_cell_setting 'monoclinic'
loop_
_space_group_symop_operation_xyz
x,y,z
-x,y,-z
-x,-y,-z
x,-y,z
1/2+x,1/2+y,z
1/2-x,1/2+y,-z
1/2-x,1/2-y,-z
1/2+x,1/2-y,z
loop_
_atom_site_type_symbol
_atom_site_label
_atom_site_fract_x
_atom_site_fract_y
_atom_site_fract_z
Si Si1 0.148565 0.805233 0.820569
Si Si2 0.904063 0.339223 0.191679
Si Si3 0.500000 0.280854 0.500000
Si Si4 0.748786 0.674143 0.401241
Si Si5 0.720889 0.574120 0.204472
O O1 0.193589 0.728084 0.848906
O O2 0.097521 0.827538 0.664661
O O3 0.972541 0.816473 0.753987
O O4 0.333575 0.844461 0.016489
O O5 0.830436 0.399457 0.196183
O O6 0.133785 0.336246 0.397046
O O7 0.334699 0.237418 0.416717
O O8 0.778508 0.612708 0.352459
O O9 0.781367 0.500000 0.271992
O O10 0.500000 0.581707 0.000000
#
# Coordination Sequence:
#
# PCOD8082949 Si02
#       5
#     8   8   4   8   8
#     4  10  20  32  50  73 108 138 173 218 255 312
#     4  10  19  33  49  73 102 141 172 207 265 307
#     4  10  18  32  51  76 101 144 174 206 270 304
#     4  11  19  34  50  76 107 138 175 212 257 320
#     4  11  21  34  54  79 110 143 174 216 266 316
#
# _framework density 18.968892
#
# number of rings (size 3 to 8) (size 9 to 14) (size 15 to 20)
#    0.000    1.556    6.667    2.667    0.000    1.778 
#    0.000    3.333    0.000    0.000    0.000    3.111 
#    0.000   12.444    0.000    0.222    0.000    0.000 
#
# Total GULP energy -223038.572370 kJ/mol
# GULP energy per Si atom -12391.031798 kJ/mol
# Density = 1.892572 g / cm^3
# Si number density = 18.968892 Si / 1000 Ang^3
#
#
#
# Elastic Constant Matrix: (Units=GPa)
#
#
# Indices 1 2 3 4 5 6 
#
# 1 47.2503 15.7042 31.1470 0.0000 -20.1889 0.0000
# 2 15.7042 61.4371 28.9846 0.0000 -13.8455 0.0000
# 3 31.1470 28.9846 144.0179 0.0000 -38.9594 0.0000
# 4 0.0000 0.0000 0.0000 17.6312 0.0000 1.7586
# 5 -20.1889 -13.8455 -38.9594 0.0000 41.9269 0.0000
# 6 0.0000 0.0000 0.0000 1.7586 0.0000 17.8935
#
#
#
# Elastic Compliance Matrix: (Units=1/GPa)
#
#
# Indices 1 2 3 4 5 6 
#
# 1 0.028443 -0.003753 -0.002707 0.000000 0.009942 0.000000
# 2 -0.003753 0.018859 -0.002388 0.000000 0.002201 0.000000
# 3 -0.002707 -0.002388 0.009943 0.000000 0.007147 0.000000
# 4 0.000000 0.000000 0.000000 0.057279 0.000000 -0.005630
# 5 0.009942 0.002201 0.007147 0.000000 0.036007 0.000000
# 6 0.000000 0.000000 0.000000 -0.005630 0.000000 0.056439
#
#
# Mechanical properties :
#
#
# Convention : Reuss Voigt Hill
#
# Bulk Modulus (GPa) = 25.28497 44.93078 35.10788
# Shear Modulus (GPa) = 21.02166 27.28163 24.15165
#
# Velocity S-wave (km/s) = 3.33260 3.79651 3.57210
# Velocity P-wave (km/s) = 5.30725 6.55408 5.96335
#
# Compressibility (1/GPa) = 0.03954918
#
# Stress axis : x y z
#
# Youngs Moduli (GPa) = 35.15753 53.02513 100.57214
#
# Poissons Ratio (x) = 0.19901 0.27223
# Poissons Ratio (y) = 0.13195 0.24020
# Poissons Ratio (z) = 0.09516 0.12664
#
# Static dielectric constant tensor:
#      x y z
#    x 3.292610 0.000000 -0.333350 
#    y 0.000000 3.169230 0.000000 
#    z -0.333350 0.000000 4.233830 
# 
# 
# High freq. dielectric constant tensor:
#      x y z
#    x 1.703480 0.000000 -0.009750 
#    y 0.000000 1.680980 0.000000 
#    z -0.009750 0.000000 1.776940 
# 
# From -- ./inp_files/78301.got.cif
#   From: 2010.06.25/outbox.cif.g09.slc.cpg/sg12_40_cif.got.tgz:78301.got - 2010.06.28 00:19:55.
