data_PCOD8082314
_publ_section_title
;
Structure prediction by ZEFSAII (Michael W. Deem and Ramdas Pophale) SiO2 
 PCOD8082314
Probable space group: C 2/M
;
_chemical_formula_sum "Si O2"
_cell_formula_units_Z 56
_cell_length_a 20.329779
_cell_length_b 8.837437
_cell_length_c 23.049386
_cell_angle_alpha 90.000000
_cell_angle_beta 50.735709
_cell_angle_gamma 90.000000
_cell_volume 3206.203187
_symmetry_space_group_name_H-M "C 2/M"
_symmetry_group_IT_number 12
_symmetry_cell_setting 'monoclinic'
loop_
_space_group_symop_operation_xyz
x,y,z
-x,y,-z
-x,-y,-z
x,-y,z
1/2+x,1/2+y,z
1/2-x,1/2+y,-z
1/2-x,1/2-y,-z
1/2+x,1/2-y,z
loop_
_atom_site_type_symbol
_atom_site_label
_atom_site_fract_x
_atom_site_fract_y
_atom_site_fract_z
Si Si1 0.139438 0.677503 0.675348
Si Si2 0.076267 0.326820 0.583710
Si Si3 0.817921 0.673975 0.587597
Si Si4 0.652730 0.178115 0.215612
Si Si5 0.700538 0.328604 0.078893
Si Si6 0.477156 0.673163 0.785357
Si Si7 0.095672 0.821875 0.356118
O O1 0.142983 0.500000 0.684108
O O2 0.118155 0.722339 0.621086
O O3 0.227264 0.748199 0.646095
O O4 0.065003 0.751264 0.757324
O O5 0.042755 0.500000 0.604413
O O6 0.151518 0.308356 0.495269
O O7 0.999970 0.218399 0.607970
O O8 0.810525 0.500000 0.610259
O O9 0.885906 0.755399 0.590903
O O10 0.718482 0.247123 0.131130
O O11 0.556320 0.226474 0.250816
O O12 0.664731 0.250043 0.272523
O O13 0.664433 0.000000 0.211332
O O14 0.732668 0.500000 0.065584
O O15 0.598073 0.320740 0.123888
O O16 0.750000 0.250000 0.000000
O O17 0.491760 0.500000 0.757328
O O18 0.107840 0.000000 0.349765
#
# Coordination Sequence:
#
# PCOD8082314 Si02
#       7
#     8   8   8   8   8   8   8
#     4  11  21  35  55  77 103 137 177 219 266 318
#     4  10  21  37  56  75  99 135 175 220 273 322
#     4  11  24  38  52  73 104 138 176 223 271 317
#     4  10  18  31  51  74 102 136 171 208 256 307
#     4   9  17  28  47  78 112 139 169 211 256 302
#     4   9  18  31  49  75 103 136 172 206 252 306
#     4  12  23  36  54  76 103 136 178 222 266 319
#
# _framework density 17.466141
#
# number of rings (size 3 to 8) (size 9 to 14) (size 15 to 20)
#    0.857    0.857    1.429    4.714    0.000    3.429 
#    0.000    0.000    0.000    0.000    0.000    1.000 
#    0.000    8.000    0.000    0.000    0.000    0.000 
#
# Total GULP energy -347048.601938 kJ/mol
# GULP energy per Si atom -12394.592926 kJ/mol
# Density = 1.742639 g / cm^3
# Si number density = 17.466141 Si / 1000 Ang^3
#
#
#
# Elastic Constant Matrix: (Units=GPa)
#
#
# Indices 1 2 3 4 5 6 
#
# 1 46.7396 25.0338 10.0978 0.0000 -8.5711 0.0004
# 2 25.0338 146.5698 38.5111 0.0001 -6.1893 0.0010
# 3 10.0978 38.5111 72.9188 0.0000 -8.0185 0.0000
# 4 0.0000 0.0001 0.0000 30.6260 0.0000 -1.6624
# 5 -8.5711 -6.1893 -8.0185 0.0000 15.5863 0.0000
# 6 0.0004 0.0010 0.0000 -1.6624 0.0000 28.3211
#
#
#
# Elastic Compliance Matrix: (Units=1/GPa)
#
#
# Indices 1 2 3 4 5 6 
#
# 1 0.025788 -0.003830 -0.000166 0.000000 0.012575 0.000000
# 2 -0.003830 0.008507 -0.004052 0.000000 -0.000813 0.000000
# 3 -0.000166 -0.004052 0.016631 0.000000 0.006856 0.000000
# 4 0.000000 0.000000 0.000000 0.032756 0.000000 0.001923
# 5 0.012575 -0.000813 0.006856 0.000000 0.074278 0.000000
# 6 0.000000 0.000000 0.000000 0.001923 0.000000 0.035422
#
#
# Mechanical properties :
#
#
# Convention : Reuss Voigt Hill
#
# Bulk Modulus (GPa) = 28.70999 45.94595 37.32797
# Shear Modulus (GPa) = 22.61539 27.74574 25.18056
#
# Velocity S-wave (km/s) = 3.60225 3.98998 3.80106
# Velocity P-wave (km/s) = 5.81161 6.89851 6.37825
#
# Compressibility (1/GPa) = 0.03483108
#
# Stress axis : x y z
#
# Youngs Moduli (GPa) = 38.77726 117.54787 60.12991
#
# Poissons Ratio (x) = 0.45021 0.00996
# Poissons Ratio (y) = 0.14852 0.24364
# Poissons Ratio (z) = 0.00642 0.47629
#
# Static dielectric constant tensor:
#      x y z
#    x 2.944360 0.000000 -0.000330 
#    y 0.000000 3.321760 0.000000 
#    z -0.000330 0.000000 3.237210 
# 
# 
# High freq. dielectric constant tensor:
#      x y z
#    x 1.634460 0.000000 -0.004960 
#    y 0.000000 1.694360 0.000000 
#    z -0.004960 0.000000 1.668620 
# 
# From -- ./inp_files/345484.got.cif
#   From: 2010.06.25/outbox.cif.g09.slc.cpg/sg12_173_cif.got.tgz:345484.got - 2010.06.28 00:19:55.
