data_PCOD8082488
_publ_section_title
;
Structure prediction by ZEFSAII (Michael W. Deem and Ramdas Pophale) SiO2 
 PCOD8082488
Probable space group: C 2/M
;
_chemical_formula_sum "Si O2"
_cell_formula_units_Z 48
_cell_length_a 24.645313
_cell_length_b 9.199286
_cell_length_c 19.581281
_cell_angle_alpha 90.000000
_cell_angle_beta 146.311098
_cell_angle_gamma 90.000000
_cell_volume 2462.490855
_symmetry_space_group_name_H-M "C 2/M"
_symmetry_group_IT_number 12
_symmetry_cell_setting 'monoclinic'
loop_
_space_group_symop_operation_xyz
x,y,z
-x,y,-z
-x,-y,-z
x,-y,z
1/2+x,1/2+y,z
1/2-x,1/2+y,-z
1/2-x,1/2-y,-z
1/2+x,1/2-y,z
loop_
_atom_site_type_symbol
_atom_site_label
_atom_site_fract_x
_atom_site_fract_y
_atom_site_fract_z
Si Si1 0.507556 0.672184 0.699219
Si Si2 0.209839 0.166245 0.521656
Si Si3 0.196276 0.669645 0.141161
Si Si4 0.612601 0.834392 0.197350
Si Si5 0.584185 0.672589 0.637911
Si Si6 0.055662 0.172880 0.900302
O O1 0.511677 0.500000 0.704543
O O2 0.396843 0.727041 0.571154
O O3 0.569850 0.732068 0.700393
O O4 0.547538 0.729950 0.813771
O O5 0.250000 0.250000 0.500000
O O6 0.279483 0.186694 0.659212
O O7 0.201652 0.000000 0.490324
O O8 0.195329 0.500000 0.121095
O O9 0.124640 0.701202 0.129955
O O10 0.307586 0.720134 0.273261
O O11 0.155148 0.760310 0.034369
O O12 0.537467 0.726043 0.153941
O O13 0.575491 0.000000 0.169038
O O14 0.500000 0.738285 0.500000
O O15 0.573888 0.500000 0.626274
O O16 0.059214 0.000000 0.908526
#
# Coordination Sequence:
#
# PCOD8082488 Si02
#       6
#     8   8   8   8   8   8
#     4   9  18  32  51  78 109 137 173 218 261 313
#     4  10  18  31  52  78 107 136 169 213 264 311
#     4  10  21  36  55  80 106 137 180 225 263 307
#     4  10  20  34  54  79 108 139 178 226 266 305
#     4   9  17  33  58  82 103 133 175 221 267 314
#     4  11  22  35  52  77 110 146 178 213 265 323
#
# _framework density 19.492457999999999
#
# number of rings (size 3 to 8) (size 9 to 14) (size 15 to 20)
#    0.000    2.167    1.667    2.000    0.000    7.333 
#    0.000    0.000    0.000    2.500    0.000    0.000 
#    0.000    0.000    0.000    0.000    0.000    0.000 
#
# Total GULP energy -297553.741812 kJ/mol
# GULP energy per Si atom -12398.072575 kJ/mol
# Density = 1.944809 g / cm^3
# Si number density = 19.492458 Si / 1000 Ang^3
#
#
#
# Elastic Constant Matrix: (Units=GPa)
#
#
# Indices 1 2 3 4 5 6 
#
# 1 112.6052 26.0581 46.2511 0.0000 -4.8149 0.0000
# 2 26.0581 42.4591 32.0958 0.0000 -3.1238 0.0000
# 3 46.2511 32.0958 126.7440 0.0000 -8.0978 0.0000
# 4 0.0000 0.0000 0.0000 26.5269 0.0000 -1.5573
# 5 -4.8149 -3.1238 -8.0978 0.0000 33.0372 0.0000
# 6 0.0000 0.0000 0.0000 -1.5573 0.0000 19.2665
#
#
#
# Elastic Compliance Matrix: (Units=1/GPa)
#
#
# Indices 1 2 3 4 5 6 
#
# 1 0.011152 -0.004645 -0.002862 0.000000 0.000485 0.000000
# 2 -0.004645 0.031093 -0.006130 0.000000 0.000760 0.000000
# 3 -0.002862 -0.006130 0.010589 0.000000 0.001599 0.000000
# 4 0.000000 0.000000 0.000000 0.037877 0.000000 0.003062
# 5 0.000485 0.000760 0.001599 0.000000 0.030803 0.000000
# 6 0.000000 0.000000 0.000000 0.003062 0.000000 0.052151
#
#
# Mechanical properties :
#
#
# Convention : Reuss Voigt Hill
#
# Bulk Modulus (GPa) = 39.12544 54.51316 46.81930
# Shear Modulus (GPa) = 23.87103 27.59300 25.73201
#
# Velocity S-wave (km/s) = 3.50327 3.76649 3.63726
# Velocity P-wave (km/s) = 6.03983 6.85144 6.45840
#
# Compressibility (1/GPa) = 0.02555882
#
# Stress axis : x y z
#
# Youngs Moduli (GPa) = 89.67153 32.16206 94.43834
#
# Poissons Ratio (x) = 0.14939 0.27031
# Poissons Ratio (y) = 0.41650 0.57892
# Poissons Ratio (z) = 0.25667 0.19716
#
# Static dielectric constant tensor:
#      x y z
#    x 4.061810 0.000000 -0.361620 
#    y 0.000000 3.214540 0.000000 
#    z -0.361620 0.000000 3.625320 
# 
# 
# High freq. dielectric constant tensor:
#      x y z
#    x 1.762840 0.000000 -0.003700 
#    y 0.000000 1.709740 0.000000 
#    z -0.003700 0.000000 1.777020 
# 
# From -- ./inp_files/327313.got.cif
#   From: 2010.06.25/outbox.cif.g09.slc.cpg/sg12_164_cif.got.tgz:327313.got - 2010.06.28 00:19:55.
