data_PCOD8082679
_publ_section_title
;
Structure prediction by ZEFSAII (Michael W. Deem and Ramdas Pophale) SiO2 
 PCOD8082679
Probable space group: C 2/M
;
_chemical_formula_sum "Si O2"
_cell_formula_units_Z 56
_cell_length_a 15.246665
_cell_length_b 9.475466
_cell_length_c 24.309771
_cell_angle_alpha 90.000000
_cell_angle_beta 61.141341
_cell_angle_gamma 90.000000
_cell_volume 3075.867995
_symmetry_space_group_name_H-M "C 2/M"
_symmetry_group_IT_number 12
_symmetry_cell_setting 'monoclinic'
loop_
_space_group_symop_operation_xyz
x,y,z
-x,y,-z
-x,-y,-z
x,-y,z
1/2+x,1/2+y,z
1/2-x,1/2+y,-z
1/2-x,1/2-y,-z
1/2+x,1/2-y,z
loop_
_atom_site_type_symbol
_atom_site_label
_atom_site_fract_x
_atom_site_fract_y
_atom_site_fract_z
Si Si1 0.000492 0.663664 0.647241
Si Si2 0.512988 0.665471 0.857648
Si Si3 0.341558 0.663752 0.994749
Si Si4 0.307000 0.333890 0.126642
Si Si5 0.916233 0.666266 0.791395
Si Si6 0.271939 0.163783 0.439044
Si Si7 0.420612 0.335393 0.570214
O O1 0.986344 0.500000 0.637180
O O2 0.951072 0.703444 0.719845
O O3 0.942476 0.750825 0.618774
O O4 0.117746 0.702958 0.615798
O O5 0.510167 0.500000 0.843847
O O6 0.439062 0.700599 0.930286
O O7 0.622133 0.717305 0.845120
O O8 0.489033 0.754682 0.811187
O O9 0.313693 0.500000 0.998835
O O10 0.250000 0.750000 0.000000
O O11 0.357670 0.708503 0.053328
O O12 0.297609 0.500000 0.133744
O O13 0.195524 0.270865 0.166660
O O14 0.922514 0.500000 0.801610
O O15 0.250000 0.250000 0.500000
O O16 0.191253 0.202525 0.416430
O O17 0.262298 0.000000 0.457481
O O18 0.500000 0.288290 0.500000
O O19 0.432157 0.500000 0.580069
#
# Coordination Sequence:
#
# PCOD8082679 Si02
#       7
#     8   8   8   8   8   8   8
#     4  10  22  37  55  80 109 141 178 217 261 319
#     4  10  20  34  55  81 105 137 185 226 260 313
#     4  10  18  31  54  80 105 137 178 224 270 311
#     4   9  18  34  55  76 106 144 177 215 267 320
#     4  10  21  38  55  75 108 146 178 214 267 321
#     4  10  20  35  55  80 108 137 171 214 264 313
#     4  10  20  35  56  81 107 136 172 214 263 314
#
# _framework density 18.206244000000002
#
# number of rings (size 3 to 8) (size 9 to 14) (size 15 to 20)
#    0.000    2.143    2.857    0.429    0.000    4.286 
#    0.000    1.429    0.000    1.714    0.000    0.000 
#    0.000    0.000    0.000    0.000    0.000    0.000 
#
# Total GULP energy -347206.647293 kJ/mol
# GULP energy per Si atom -12400.237403 kJ/mol
# Density = 1.816481 g / cm^3
# Si number density = 18.206244 Si / 1000 Ang^3
#
#
#
# Elastic Constant Matrix: (Units=GPa)
#
#
# Indices 1 2 3 4 5 6 
#
# 1 136.8412 43.2234 41.2289 0.0000 22.5274 0.0000
# 2 43.2234 42.4446 39.1505 0.0000 13.6387 0.0000
# 3 41.2289 39.1505 95.7998 0.0000 20.3988 0.0000
# 4 0.0000 0.0000 0.0000 25.1497 0.0000 6.7625
# 5 22.5274 13.6387 20.3988 0.0000 27.3786 0.0000
# 6 0.0000 0.0000 0.0000 6.7625 0.0000 31.2995
#
#
#
# Elastic Compliance Matrix: (Units=1/GPa)
#
#
# Indices 1 2 3 4 5 6 
#
# 1 0.011169 -0.010277 0.000309 0.000000 -0.004300 0.000000
# 2 -0.010277 0.049100 -0.014542 0.000000 -0.005168 0.000000
# 3 0.000309 -0.014542 0.017543 0.000000 -0.006081 0.000000
# 4 0.000000 0.000000 0.000000 0.042214 0.000000 -0.009121
# 5 -0.004300 -0.005168 -0.006081 0.000000 0.047169 0.000000
# 6 0.000000 0.000000 0.000000 -0.009121 0.000000 0.033920
#
#
# Mechanical properties :
#
#
# Convention : Reuss Voigt Hill
#
# Bulk Modulus (GPa) = 34.73243 58.03236 46.38239
# Shear Modulus (GPa) = 19.25057 26.86440 23.05748
#
# Velocity S-wave (km/s) = 3.25524 3.84547 3.56260
# Velocity P-wave (km/s) = 5.76605 7.18756 6.51569
#
# Compressibility (1/GPa) = 0.02879153
#
# Stress axis : x y z
#
# Youngs Moduli (GPa) = 89.53608 20.36661 57.00160
#
# Poissons Ratio (x) = 0.20930 -0.01761
# Poissons Ratio (y) = 0.92013 0.82894
# Poissons Ratio (z) = -0.02765 0.29618
#
# Static dielectric constant tensor:
#      x y z
#    x 4.093420 0.000000 -1.134900 
#    y 0.000000 3.158260 0.000000 
#    z -1.134900 0.000000 4.896410 
# 
# 
# High freq. dielectric constant tensor:
#      x y z
#    x 1.720360 0.000000 -0.002140 
#    y 0.000000 1.684280 0.000000 
#    z -0.002140 0.000000 1.705160 
# 
# From -- ./inp_files/309455.got.cif
#   From: 2010.06.25/outbox.cif.g09.slc.cpg/sg12_155_cif.got.tgz:309455.got - 2010.06.28 00:19:55.
