data_PCOD8082222
_publ_section_title
;
Structure prediction by ZEFSAII (Michael W. Deem and Ramdas Pophale) SiO2 
 PCOD8082222
Probable space group: C 2/M
;
_chemical_formula_sum "Si O2"
_cell_formula_units_Z 48
_cell_length_a 22.870592
_cell_length_b 8.514973
_cell_length_c 29.393573
_cell_angle_alpha 90.000000
_cell_angle_beta 152.199324
_cell_angle_gamma 90.000000
_cell_volume 2669.739471
_symmetry_space_group_name_H-M "C 2/M"
_symmetry_group_IT_number 12
_symmetry_cell_setting 'monoclinic'
loop_
_space_group_symop_operation_xyz
x,y,z
-x,y,-z
-x,-y,-z
x,-y,z
1/2+x,1/2+y,z
1/2-x,1/2+y,-z
1/2-x,1/2-y,-z
1/2+x,1/2-y,z
loop_
_atom_site_type_symbol
_atom_site_label
_atom_site_fract_x
_atom_site_fract_y
_atom_site_fract_z
Si Si1 0.028079 0.314200 0.949077
Si Si2 0.447645 0.315103 0.715554
Si Si3 0.299482 0.813948 0.850880
Si Si4 0.111629 0.314155 0.909560
Si Si5 0.533779 0.816433 0.679412
Si Si6 0.204424 0.186287 0.516676
O O1 0.030385 0.500000 0.950605
O O2 0.892086 0.260652 0.873844
O O3 0.052126 0.246082 0.915366
O O4 0.138690 0.258366 0.058992
O O5 0.446242 0.500000 0.720290
O O6 0.528203 0.239903 0.810556
O O7 0.510504 0.272580 0.710791
O O8 0.305315 0.249231 0.622685
O O9 0.170981 0.721329 0.755094
O O10 0.274391 0.000000 0.833126
O O11 0.117023 0.500000 0.914768
O O12 0.250000 0.250000 0.000000
O O13 0.435386 0.756207 0.573045
O O14 0.515540 0.000000 0.675295
O O15 0.250000 0.250000 0.500000
O O16 0.199985 0.000000 0.514800
#
# Coordination Sequence:
#
# PCOD8082222 Si02
#       6
#     8   8   8   8   8   8
#     4   8  17  32  52  73  99 132 169 205 245 294
#     4  11  21  34  50  72 102 137 169 207 251 296
#     4   9  16  32  54  75  97 130 169 207 246 293
#     4  11  21  34  51  76 105 137 170 204 245 297
#     4  11  20  31  49  77 105 131 163 206 252 300
#     4  10  18  31  50  73  99 130 164 205 250 299
#
# _framework density 17.979281
#
# number of rings (size 3 to 8) (size 9 to 14) (size 15 to 20)
#    0.000    2.000    0.000    9.000    0.000    1.333 
#    0.000    4.167    0.000    1.000    0.000    7.000 
#    0.000    0.000    0.000    0.000    0.000    0.000 
#
# Total GULP energy -297537.280070 kJ/mol
# GULP energy per Si atom -12397.386670 kJ/mol
# Density = 1.793836 g / cm^3
# Si number density = 17.979281 Si / 1000 Ang^3
#
#
#
# Elastic Constant Matrix: (Units=GPa)
#
#
# Indices 1 2 3 4 5 6 
#
# 1 89.2796 14.5872 59.9183 0.0000 7.8120 0.0001
# 2 14.5872 41.4420 10.9393 0.0002 3.1509 0.0003
# 3 59.9183 10.9393 155.7401 0.0002 14.7339 0.0001
# 4 0.0000 0.0002 0.0002 33.2011 0.0000 4.9670
# 5 7.8120 3.1509 14.7339 0.0000 28.6112 0.0000
# 6 0.0001 0.0003 0.0001 4.9670 0.0000 19.1238
#
#
#
# Elastic Compliance Matrix: (Units=1/GPa)
#
#
# Indices 1 2 3 4 5 6 
#
# 1 0.015752 -0.003971 -0.005693 0.000000 -0.000932 0.000000
# 2 -0.003971 0.025687 -0.000117 0.000000 -0.001684 0.000000
# 3 -0.005693 -0.000117 0.008905 0.000000 -0.003018 0.000000
# 4 0.000000 0.000000 0.000000 0.031337 0.000000 -0.008139
# 5 -0.000932 -0.001684 -0.003018 0.000000 0.036946 0.000000
# 6 0.000000 0.000000 0.000000 -0.008139 0.000000 0.054405
#
#
# Mechanical properties :
#
#
# Convention : Reuss Voigt Hill
#
# Bulk Modulus (GPa) = 32.48727 50.81682 41.65205
# Shear Modulus (GPa) = 24.64819 29.58834 27.11827
#
# Velocity S-wave (km/s) = 3.70661 4.06111 3.88791
# Velocity P-wave (km/s) = 6.03549 7.09335 6.58570
#
# Compressibility (1/GPa) = 0.03078128
#
# Stress axis : x y z
#
# Youngs Moduli (GPa) = 63.48401 38.93052 112.29476
#
# Poissons Ratio (x) = 0.15459 0.63932
# Poissons Ratio (y) = 0.25209 0.01316
# Poissons Ratio (z) = 0.36143 0.00456
#
# Static dielectric constant tensor:
#      x y z
#    x 3.369150 0.000000 0.083680 
#    y 0.000000 3.261170 0.000000 
#    z 0.083680 0.000000 3.859560 
# 
# 
# High freq. dielectric constant tensor:
#      x y z
#    x 1.663370 0.000000 0.015160 
#    y 0.000000 1.696040 0.000000 
#    z 0.015160 0.000000 1.711180 
# 
# From -- ./inp_files/365574.got.cif
#   From: 2010.06.25/outbox.cif.g09.slc.cpg/sg12_183_cif.got.tgz:365574.got - 2010.06.28 00:19:55.
