data_PCOD8082184
_publ_section_title
;
Structure prediction by ZEFSAII (Michael W. Deem and Ramdas Pophale) SiO2 
 PCOD8082184
Probable space group: C 2/M
;
_chemical_formula_sum "Si O2"
_cell_formula_units_Z 56
_cell_length_a 14.503704
_cell_length_b 27.605096
_cell_length_c 12.392144
_cell_angle_alpha 90.000000
_cell_angle_beta 37.996771
_cell_angle_gamma 90.000000
_cell_volume 3054.395638
_symmetry_space_group_name_H-M "C 2/M"
_symmetry_group_IT_number 12
_symmetry_cell_setting 'monoclinic'
loop_
_space_group_symop_operation_xyz
x,y,z
-x,y,-z
-x,-y,-z
x,-y,z
1/2+x,1/2+y,z
1/2-x,1/2+y,-z
1/2-x,1/2-y,-z
1/2+x,1/2-y,z
loop_
_atom_site_type_symbol
_atom_site_label
_atom_site_fract_x
_atom_site_fract_y
_atom_site_fract_z
Si Si1 0.335186 0.443063 0.170615
Si Si2 0.487539 0.817771 0.273765
Si Si3 0.650542 0.184246 0.912991
Si Si4 0.443746 0.093543 0.668494
Si Si5 0.040053 0.225128 0.348211
Si Si6 0.722517 0.055859 0.510689
Si Si7 0.706175 0.354930 0.424388
O O1 0.329263 0.500000 0.160553
O O2 0.231198 0.420538 0.171650
O O3 0.289303 0.428409 0.333897
O O4 0.500000 0.421940 0.000000
O O5 0.537026 0.848974 0.331846
O O6 0.498039 0.760779 0.289438
O O7 0.314807 0.826192 0.404807
O O8 0.595623 0.837233 0.077705
O O9 0.780188 0.222088 0.821030
O O10 0.723990 0.145399 0.761713
O O11 0.500000 0.208743 0.000000
O O12 0.500000 0.076636 0.500000
O O13 0.542471 0.065674 0.669234
O O14 0.000000 0.249234 0.500000
O O15 0.953747 0.172945 0.420368
O O16 0.802479 0.089117 0.528471
O O17 0.754117 0.000000 0.511039
#
# Coordination Sequence:
#
# PCOD8082184 Si02
#       7
#     8   8   8   8   8   8   8
#     4   9  17  29  45  69 100 127 155 198 247 287
#     4  10  18  31  50  71  96 126 161 198 238 288
#     4   9  19  34  49  67  94 128 161 197 239 279
#     4   9  17  29  46  70  97 126 159 196 238 288
#     4  10  19  32  50  71  96 127 160 195 241 292
#     4   9  17  31  52  72  93 128 166 197 237 290
#     4   9  19  33  51  72  97 127 162 201 240 282
#
# _framework density 18.334233000000001
#
# number of rings (size 3 to 8) (size 9 to 14) (size 15 to 20)
#    0.000    2.714    0.000    1.714    0.000    2.857 
#    0.000    0.714    0.000   15.429    0.000    0.000 
#    0.000    0.000    0.000    0.000    0.000    0.000 
#
# Total GULP energy -346885.389090 kJ/mol
# GULP energy per Si atom -12388.763896 kJ/mol
# Density = 1.829250 g / cm^3
# Si number density = 18.334233 Si / 1000 Ang^3
#
#
#
# Elastic Constant Matrix: (Units=GPa)
#
#
# Indices 1 2 3 4 5 6 
#
# 1 82.7352 37.5979 36.0067 0.0000 -12.9435 0.0000
# 2 37.5979 87.2216 27.8164 0.0000 3.2645 0.0000
# 3 36.0067 27.8164 69.9375 0.0000 -17.6291 0.0000
# 4 0.0000 0.0000 0.0000 12.5949 0.0000 1.8045
# 5 -12.9435 3.2645 -17.6291 0.0000 33.3653 0.0000
# 6 0.0000 0.0000 0.0000 1.8045 0.0000 30.7315
#
#
#
# Elastic Compliance Matrix: (Units=1/GPa)
#
#
# Indices 1 2 3 4 5 6 
#
# 1 0.018083 -0.006148 -0.005705 0.000000 0.004602 0.000000
# 2 -0.006148 0.015882 -0.004781 0.000000 -0.006465 0.000000
# 3 -0.005705 -0.004781 0.021570 0.000000 0.009652 0.000000
# 4 0.000000 0.000000 0.000000 0.080071 0.000000 -0.004702
# 5 0.004602 -0.006465 0.009652 0.000000 0.037489 0.000000
# 6 0.000000 0.000000 0.000000 -0.004702 0.000000 0.032816
#
#
# Mechanical properties :
#
#
# Convention : Reuss Voigt Hill
#
# Bulk Modulus (GPa) = 44.90821 49.19293 47.05057
# Shear Modulus (GPa) = 20.27561 24.56987 22.42274
#
# Velocity S-wave (km/s) = 3.32910 3.66472 3.50093
# Velocity P-wave (km/s) = 6.27093 6.69301 6.48540
#
# Compressibility (1/GPa) = 0.02226764
#
# Stress axis : x y z
#
# Youngs Moduli (GPa) = 55.29948 62.96438 46.36066
#
# Poissons Ratio (x) = 0.38710 0.26447
# Poissons Ratio (y) = 0.33998 0.22166
# Poissons Ratio (z) = 0.31546 0.30105
#
# Static dielectric constant tensor:
#      x y z
#    x 3.569580 0.000000 -0.129820 
#    y 0.000000 3.052800 0.000000 
#    z -0.129820 0.000000 3.478580 
# 
# 
# High freq. dielectric constant tensor:
#      x y z
#    x 1.717010 0.000000 -0.010240 
#    y 0.000000 1.677320 0.000000 
#    z -0.010240 0.000000 1.703590 
# 
# From -- ./inp_files/67061.got.cif
#   From: 2010.06.25/outbox.cif.g09.slc.cpg/sg12_34_cif.got.tgz:67061.got - 2010.06.28 00:19:55.
