data_PCOD8082294
_publ_section_title
;
Structure prediction by ZEFSAII (Michael W. Deem and Ramdas Pophale) SiO2 
 PCOD8082294
Probable space group: C 2/M
;
_chemical_formula_sum "Si O2"
_cell_formula_units_Z 64
_cell_length_a 24.404624
_cell_length_b 9.628208
_cell_length_c 19.998196
_cell_angle_alpha 90.000000
_cell_angle_beta 125.273749
_cell_angle_gamma 90.000000
_cell_volume 3836.300366
_symmetry_space_group_name_H-M "C 2/M"
_symmetry_group_IT_number 12
_symmetry_cell_setting 'monoclinic'
loop_
_space_group_symop_operation_xyz
x,y,z
-x,y,-z
-x,-y,-z
x,-y,z
1/2+x,1/2+y,z
1/2-x,1/2+y,-z
1/2-x,1/2-y,-z
1/2+x,1/2-y,z
loop_
_atom_site_type_symbol
_atom_site_label
_atom_site_fract_x
_atom_site_fract_y
_atom_site_fract_z
Si Si1 0.671088 0.341160 0.003681
Si Si2 0.319678 0.337821 0.279547
Si Si3 0.202286 0.159591 0.881100
Si Si4 0.809306 0.658587 0.620576
Si Si5 0.658993 0.339299 0.476827
Si Si6 0.074244 0.165064 0.541910
Si Si7 0.827026 0.662576 0.785678
Si Si8 0.423242 0.338664 0.944917
O O1 0.694279 0.500000 0.028084
O O2 0.730331 0.247730 0.073388
O O3 0.604730 0.311309 0.999916
O O4 0.657620 0.307007 0.915495
O O5 0.316905 0.500000 0.294393
O O6 0.339263 0.307622 0.215820
O O7 0.376550 0.269996 0.366738
O O8 0.245597 0.278387 0.242956
O O9 0.225501 0.000000 0.896947
O O10 0.822028 0.500000 0.609049
O O11 0.730155 0.692737 0.561970
O O12 0.850377 0.753132 0.597705
O O13 0.836233 0.689279 0.713423
O O14 0.652256 0.500000 0.453090
O O15 0.601226 0.293119 0.487813
O O16 0.000000 0.228095 0.500000
O O17 0.072338 0.000000 0.548167
O O18 0.834468 0.500000 0.808603
O O19 0.884366 0.747869 0.863367
O O20 0.416342 0.500000 0.919871
O O21 0.500000 0.290301 0.000000
#
# Coordination Sequence:
#
# PCOD8082294 Si02
#       8
#     8   8   8   8   8   8   8   8
#     4   9  17  29  45  68  94 121 152 187 234 283
#     4   9  15  26  45  69  94 119 154 200 239 270
#     4   9  16  27  47  70  91 117 153 197 235 272
#     4   9  17  29  47  70  96 123 155 201 244 275
#     4   9  16  28  46  70  98 126 158 195 237 284
#     4   9  16  27  45  71 101 128 156 195 240 281
#     4  10  18  31  51  72  93 122 164 206 237 274
#     4  10  21  35  48  67 101 134 155 189 242 292
#
# _framework density 16.682739999999999
#
# number of rings (size 3 to 8) (size 9 to 14) (size 15 to 20)
#    0.000    2.750    2.500    0.000    0.000    0.750 
#    0.000    1.250    0.000    5.625    0.000    0.000 
#    0.000    0.000    0.000    0.000    0.000    0.000 
#
# Total GULP energy -396678.028395 kJ/mol
# GULP energy per Si atom -12396.188387 kJ/mol
# Density = 1.664477 g / cm^3
# Si number density = 16.682740 Si / 1000 Ang^3
#
#
#
# Elastic Constant Matrix: (Units=GPa)
#
#
# Indices 1 2 3 4 5 6 
#
# 1 131.8217 41.3758 75.8207 0.0000 -7.4163 0.0000
# 2 41.3758 41.4256 43.0667 0.0000 -4.9129 0.0000
# 3 75.8207 43.0667 120.4697 0.0000 -5.7503 0.0000
# 4 0.0000 0.0000 0.0000 24.0359 0.0000 -4.0089
# 5 -7.4163 -4.9129 -5.7503 0.0000 26.6394 0.0000
# 6 0.0000 0.0000 0.0000 -4.0089 0.0000 17.4034
#
#
#
# Elastic Compliance Matrix: (Units=1/GPa)
#
#
# Indices 1 2 3 4 5 6 
#
# 1 0.013143 -0.007082 -0.005686 0.000000 0.001125 0.000000
# 2 -0.007082 0.042696 -0.010634 0.000000 0.003607 0.000000
# 3 -0.005686 -0.010634 0.015674 0.000000 -0.000161 0.000000
# 4 0.000000 0.000000 0.000000 0.043267 0.000000 0.009967
# 5 0.001125 0.003607 -0.000161 0.000000 0.038482 0.000000
# 6 0.000000 0.000000 0.000000 0.009967 0.000000 0.059756
#
#
# Mechanical properties :
#
#
# Convention : Reuss Voigt Hill
#
# Bulk Modulus (GPa) = 40.47284 68.24926 54.36105
# Shear Modulus (GPa) = 18.65265 22.51265 20.58265
#
# Velocity S-wave (km/s) = 3.34740 3.67748 3.51632
# Velocity P-wave (km/s) = 6.26523 7.68315 7.01013
#
# Compressibility (1/GPa) = 0.02470793
#
# Stress axis : x y z
#
# Youngs Moduli (GPa) = 76.08719 23.42122 63.80171
#
# Poissons Ratio (x) = 0.16587 0.36280
# Poissons Ratio (y) = 0.53885 0.67847
# Poissons Ratio (z) = 0.43266 0.24906
#
# Static dielectric constant tensor:
#      x y z
#    x 3.195480 0.000000 -0.187260 
#    y 0.000000 2.916930 0.000000 
#    z -0.187260 0.000000 3.204680 
# 
# 
# High freq. dielectric constant tensor:
#      x y z
#    x 1.634020 0.000000 -0.023890 
#    y 0.000000 1.614420 0.000000 
#    z -0.023890 0.000000 1.640280 
# 
# From -- ./inp_files/288853.got.cif
#   From: 2010.06.25/outbox.cif.g09.slc.cpg/sg12_145_cif.got.tgz:288853.got - 2010.06.28 00:19:55.
