data_PCOD8082111
_publ_section_title
;
Structure prediction by ZEFSAII (Michael W. Deem and Ramdas Pophale) SiO2 
 PCOD8082111
Probable space group: C 2/M
;
_chemical_formula_sum "Si O2"
_cell_formula_units_Z 64
_cell_length_a 25.080234
_cell_length_b 9.003309
_cell_length_c 21.077243
_cell_angle_alpha 90.000000
_cell_angle_beta 126.920109
_cell_angle_gamma 90.000000
_cell_volume 3804.975127
_symmetry_space_group_name_H-M "C 2/M"
_symmetry_group_IT_number 12
_symmetry_cell_setting 'monoclinic'
loop_
_space_group_symop_operation_xyz
x,y,z
-x,y,-z
-x,-y,-z
x,-y,z
1/2+x,1/2+y,z
1/2-x,1/2+y,-z
1/2-x,1/2-y,-z
1/2+x,1/2-y,z
loop_
_atom_site_type_symbol
_atom_site_label
_atom_site_fract_x
_atom_site_fract_y
_atom_site_fract_z
Si Si1 0.938704 0.172863 0.176204
Si Si2 0.642976 0.674561 0.659060
Si Si3 0.009151 0.670353 0.903590
Si Si4 0.253137 0.674438 0.814628
Si Si5 0.608663 0.170452 0.086800
Si Si6 0.482327 0.328627 0.346373
Si Si7 0.435870 0.167696 0.498582
Si Si8 0.701719 0.824484 0.915427
O O1 0.986914 0.220527 0.153510
O O2 0.978252 0.206289 0.269153
O O3 0.872548 0.269988 0.124927
O O4 0.919616 0.000000 0.157618
O O5 0.651623 0.500000 0.658484
O O6 0.712656 0.744329 0.730268
O O7 0.587410 0.719021 0.671325
O O8 0.623642 0.740171 0.576479
O O9 0.012957 0.500000 0.883671
O O10 0.939325 0.701374 0.888098
O O11 0.070006 0.705519 0.994275
O O12 0.245825 0.500000 0.799726
O O13 0.329846 0.719079 0.863906
O O14 0.224572 0.725382 0.862007
O O15 0.633193 0.000000 0.104587
O O16 0.496465 0.500000 0.370978
O O17 0.544312 0.236935 0.419328
O O18 0.500000 0.176783 0.500000
O O19 0.411517 0.000000 0.491594
O O20 0.704876 0.000000 0.926604
O O21 0.750000 0.750000 0.000000
#
# Coordination Sequence:
#
# PCOD8082111 Si02
#       8
#     8   8   8   8   8   8   8   8
#     4  11  21  33  50  74 102 132 167 206 247 294
#     4  10  18  31  49  68  97 135 167 199 241 294
#     4   9  19  36  55  74  95 127 169 213 255 298
#     4  11  22  33  48  73 101 129 166 209 251 292
#     4   9  19  36  55  72  95 128 169 211 255 302
#     4   9  18  31  46  68  98 133 168 198 237 294
#     4   9  17  28  45  69  97 128 163 203 243 284
#     4  11  23  35  48  68  99 135 168 203 246 299
#
# _framework density 16.820084000000001
#
# number of rings (size 3 to 8) (size 9 to 14) (size 15 to 20)
#    0.000    2.125    1.250    3.375    0.000    7.500 
#    0.000    1.250    0.000    0.000    0.000    0.875 
#    0.000    0.000    0.000    0.000    0.000    0.000 
#
# Total GULP energy -396902.712304 kJ/mol
# GULP energy per Si atom -12403.209759 kJ/mol
# Density = 1.678180 g / cm^3
# Si number density = 16.820084 Si / 1000 Ang^3
#
#
#
# Elastic Constant Matrix: (Units=GPa)
#
#
# Indices 1 2 3 4 5 6 
#
# 1 59.0407 27.9294 34.5310 0.0000 -7.1700 0.0000
# 2 27.9294 78.8732 53.8661 0.0000 -2.7548 0.0000
# 3 34.5310 53.8661 106.7923 0.0000 -9.2793 0.0000
# 4 0.0000 0.0000 0.0000 34.1914 0.0000 0.8161
# 5 -7.1700 -2.7548 -9.2793 0.0000 15.2123 0.0000
# 6 0.0000 0.0000 0.0000 0.8161 0.0000 26.3732
#
#
#
# Elastic Compliance Matrix: (Units=1/GPa)
#
#
# Indices 1 2 3 4 5 6 
#
# 1 0.022580 -0.004858 -0.004226 0.000000 0.007185 0.000000
# 2 -0.004858 0.020483 -0.009121 0.000000 -0.004144 0.000000
# 3 -0.004226 -0.009121 0.015855 0.000000 0.006028 0.000000
# 4 0.000000 0.000000 0.000000 0.029269 0.000000 -0.000906
# 5 0.007185 -0.004144 0.006028 0.000000 0.072049 0.000000
# 6 0.000000 0.000000 0.000000 -0.000906 0.000000 0.037945
#
#
# Mechanical properties :
#
#
# Convention : Reuss Voigt Hill
#
# Bulk Modulus (GPa) = 44.43074 53.03992 48.73533
# Shear Modulus (GPa) = 20.65306 23.71403 22.18355
#
# Velocity S-wave (km/s) = 3.50791 3.75889 3.63557
# Velocity P-wave (km/s) = 6.54828 7.10219 6.83085
#
# Compressibility (1/GPa) = 0.02250694
#
# Stress axis : x y z
#
# Youngs Moduli (GPa) = 44.28670 48.82018 63.07202
#
# Poissons Ratio (x) = 0.23719 0.26656
# Poissons Ratio (y) = 0.21516 0.57528
# Poissons Ratio (z) = 0.18717 0.44529
#
# Static dielectric constant tensor:
#      x y z
#    x 2.896520 0.000000 -0.030630 
#    y 0.000000 3.341830 0.000000 
#    z -0.030630 0.000000 3.329160 
# 
# 
# High freq. dielectric constant tensor:
#      x y z
#    x 1.611120 0.000000 -0.003720 
#    y 0.000000 1.659070 0.000000 
#    z -0.003720 0.000000 1.653230 
# 
# From -- ./inp_files/324092.got.cif
#   From: 2010.06.25/outbox.cif.g09.slc.cpg/sg12_163_cif.got.tgz:324092.got - 2010.06.28 00:19:55.
