data_PCOD8082372
_publ_section_title
;
Structure prediction by ZEFSAII (Michael W. Deem and Ramdas Pophale) SiO2 
 PCOD8082372
Probable space group: C 2/M
;
_chemical_formula_sum "Si O2"
_cell_formula_units_Z 52
_cell_length_a 24.087620
_cell_length_b 21.574639
_cell_length_c 7.371862
_cell_angle_alpha 90.000000
_cell_angle_beta 52.260411
_cell_angle_gamma 90.000000
_cell_volume 3029.575137
_symmetry_space_group_name_H-M "C 2/M"
_symmetry_group_IT_number 12
_symmetry_cell_setting 'monoclinic'
loop_
_space_group_symop_operation_xyz
x,y,z
-x,y,-z
-x,-y,-z
x,-y,z
1/2+x,1/2+y,z
1/2-x,1/2+y,-z
1/2-x,1/2-y,-z
1/2+x,1/2-y,z
loop_
_atom_site_type_symbol
_atom_site_label
_atom_site_fract_x
_atom_site_fract_y
_atom_site_fract_z
Si Si1 0.000071 0.750922 0.213207
Si Si2 0.000000 0.856739 0.500000
Si Si3 0.282217 0.348267 0.649304
Si Si4 0.717780 0.652085 0.779724
Si Si5 0.849800 0.721524 0.512493
Si Si6 0.650199 0.221173 0.911278
Si Si7 0.854541 0.072982 0.790225
O O1 0.931182 0.710413 0.404691
O O2 0.000388 0.815376 0.318163
O O3 0.000000 0.767463 0.000000
O O4 0.068786 0.710060 0.128799
O O5 0.067613 0.899981 0.365746
O O6 0.289203 0.360971 0.420751
O O7 0.326573 0.288907 0.630922
O O8 0.201133 0.334494 0.873914
O O9 0.311472 0.407328 0.696841
O O10 0.798864 0.665981 0.679767
O O11 0.673445 0.711575 0.937793
O O12 0.688627 0.593130 0.944603
O O13 0.838876 0.725534 0.322428
O O14 0.860549 0.000000 0.779237
#
# Coordination Sequence:
#
# PCOD8082372 Si02
#       7
#     8   4   8   8   8   8   8
#     4  10  18  31  51  79 108 130 151 191 254 314
#     4  12  23  34  48  68 100 138 175 204 232 278
#     4   9  18  34  52  73  98 126 164 211 251 289
#     4   9  18  34  52  73  98 126 164 211 251 289
#     4   8  15  29  53  78 100 125 155 197 256 311
#     4   8  15  29  53  78 100 125 155 197 256 311
#     4  12  25  36  49  68  96 140 184 209 231 274
#
# _framework density 17.164121999999999
#
# number of rings (size 3 to 8) (size 9 to 14) (size 15 to 20)
#    0.000    2.462    3.077    2.077    0.000    4.308 
#    0.000    0.000    0.000    2.769    0.000    2.154 
#    0.000    6.154    0.000    0.000    0.000    0.000 
#
# Total GULP energy -322137.570327 kJ/mol
# GULP energy per Si atom -12389.906551 kJ/mol
# Density = 1.712506 g / cm^3
# Si number density = 17.164122 Si / 1000 Ang^3
#
#
#
# Elastic Constant Matrix: (Units=GPa)
#
#
# Indices 1 2 3 4 5 6 
#
# 1 96.9708 43.6796 66.8361 0.0000 -23.9929 0.0000
# 2 43.6796 69.9684 45.0048 0.0000 -10.7613 0.0000
# 3 66.8361 45.0048 102.3596 0.0000 -26.3130 0.0000
# 4 0.0000 0.0000 0.0000 18.8319 0.0000 1.3411
# 5 -23.9929 -10.7613 -26.3130 0.0000 43.8076 0.0000
# 6 0.0000 0.0000 0.0000 1.3411 0.0000 18.9456
#
#
#
# Elastic Compliance Matrix: (Units=1/GPa)
#
#
# Indices 1 2 3 4 5 6 
#
# 1 0.020868 -0.006008 -0.009964 0.000000 0.003968 0.000000
# 2 -0.006008 0.021665 -0.006008 0.000000 -0.001577 0.000000
# 3 -0.009964 -0.006008 0.020264 0.000000 0.005238 0.000000
# 4 0.000000 0.000000 0.000000 0.053370 0.000000 -0.003778
# 5 0.003968 -0.001577 0.005238 0.000000 0.027759 0.000000
# 6 0.000000 0.000000 0.000000 -0.003778 0.000000 0.053050
#
#
# Mechanical properties :
#
#
# Convention : Reuss Voigt Hill
#
# Bulk Modulus (GPa) = 53.08902 64.48221 58.78561
# Shear Modulus (GPa) = 20.22523 23.90224 22.06373
#
# Velocity S-wave (km/s) = 3.43642 3.73576 3.58922
# Velocity P-wave (km/s) = 6.83687 7.50050 7.17636
#
# Compressibility (1/GPa) = 0.01883629
#
# Stress axis : x y z
#
# Youngs Moduli (GPa) = 47.91942 46.15832 49.34898
#
# Poissons Ratio (x) = 0.27732 0.49173
# Poissons Ratio (y) = 0.28790 0.29648
# Poissons Ratio (z) = 0.47749 0.27731
#
# Static dielectric constant tensor:
#      x y z
#    x 3.490380 0.000000 -0.340680 
#    y 0.000000 2.723050 0.000000 
#    z -0.340680 0.000000 3.517960 
# 
# 
# High freq. dielectric constant tensor:
#      x y z
#    x 1.676730 0.000000 -0.007710 
#    y 0.000000 1.593970 0.000000 
#    z -0.007710 0.000000 1.677330 
# 
# From -- ./inp_files/106336.got.cif
#   From: 2010.06.25/outbox.cif.g09.slc.cpg/sg12_54_cif.got.tgz:106336.got - 2010.06.28 00:19:55.
