data_PCOD8082008
_publ_section_title
;
Structure prediction by ZEFSAII (Michael W. Deem and Ramdas Pophale) SiO2 
 PCOD8082008
Probable space group: C 2/M
;
_chemical_formula_sum "Si O2"
_cell_formula_units_Z 64
_cell_length_a 17.401949
_cell_length_b 19.128472
_cell_length_c 29.244545
_cell_angle_alpha 90.000000
_cell_angle_beta 159.968925
_cell_angle_gamma 90.000000
_cell_volume 3334.427907
_symmetry_space_group_name_H-M "C 2/M"
_symmetry_group_IT_number 12
_symmetry_cell_setting 'monoclinic'
loop_
_space_group_symop_operation_xyz
x,y,z
-x,y,-z
-x,-y,-z
x,-y,z
1/2+x,1/2+y,z
1/2-x,1/2+y,-z
1/2-x,1/2-y,-z
1/2+x,1/2-y,z
loop_
_atom_site_type_symbol
_atom_site_label
_atom_site_fract_x
_atom_site_fract_y
_atom_site_fract_z
Si Si1 0.965821 0.210654 0.603895
Si Si2 0.128381 0.921475 0.501490
Si Si3 0.005002 0.325867 0.557042
Si Si4 0.663280 0.077708 0.293246
Si Si5 0.598216 0.422601 0.228057
Si Si6 0.604178 0.577198 0.338645
Si Si7 0.101271 0.416269 0.937598
Si Si8 0.821552 0.650286 0.862627
O O1 0.750000 0.250000 0.500000
O O2 0.894604 0.129949 0.554513
O O3 0.042958 0.249781 0.600693
O O4 0.168950 0.211699 0.754545
O O5 0.305135 0.889423 0.638134
O O6 0.893860 0.926271 0.395323
O O7 0.196259 0.000000 0.522782
O O8 0.781816 0.363150 0.453356
O O9 0.000000 0.314167 0.500000
O O10 0.214067 0.373570 0.689162
O O11 0.487970 0.115187 0.160917
O O12 0.574545 0.000000 0.253134
O O13 0.618488 0.500000 0.217423
O O14 0.635875 0.428325 0.302617
O O15 0.354938 0.389410 0.082692
O O16 0.657156 0.500000 0.389071
O O17 0.348854 0.596806 0.208075
O O18 0.085373 0.500000 0.930394
O O19 0.954857 0.388392 0.897371
O O20 0.000000 0.679488 0.000000
#
# Coordination Sequence:
#
# PCOD8082008 Si02
#       8
#     8   8   8   8   8   8   8   8
#     4  12  25  41  57  83 117 157 199 244 291 350
#     4   9  18  34  57  81 109 142 186 238 291 342
#     4  10  22  39  59  83 116 156 201 238 292 349
#     4   8  15  29  52  84 108 133 178 236 289 334
#     4   9  18  34  56  83 117 153 193 235 281 350
#     4  10  19  34  58  86 117 154 193 236 286 349
#     4  10  18  30  54  88 121 147 184 242 299 349
#     4  12  23  36  55  81 121 157 196 240 302 355
#
# _framework density 19.193697
#
# number of rings (size 3 to 8) (size 9 to 14) (size 15 to 20)
#    0.000    2.000    3.750    1.500    1.750    2.500 
#    0.000    1.875    0.000    0.000    0.000    0.000 
#    0.000    5.500    0.000    0.000    0.000    0.000 
#
# Total GULP energy -396470.375709 kJ/mol
# GULP energy per Si atom -12389.699241 kJ/mol
# Density = 1.915001 g / cm^3
# Si number density = 19.193697 Si / 1000 Ang^3
#
#
#
# Elastic Constant Matrix: (Units=GPa)
#
#
# Indices 1 2 3 4 5 6 
#
# 1 50.0123 28.8121 41.4240 -0.0093 -5.2083 -0.0179
# 2 28.8121 87.0389 41.8844 -0.0029 -4.5280 -0.0074
# 3 41.4240 41.8844 133.5420 0.0506 -4.4682 -0.0357
# 4 -0.0093 -0.0029 0.0506 23.2141 0.0074 -2.3362
# 5 -5.2083 -4.5280 -4.4682 0.0074 29.3240 0.0060
# 6 -0.0179 -0.0074 -0.0357 -2.3362 0.0060 13.7561
#
#
#
# Elastic Compliance Matrix: (Units=1/GPa)
#
#
# Indices 1 2 3 4 5 6 
#
# 1 0.029910 -0.006265 -0.007204 0.000028 0.003247 0.000020
# 2 -0.006265 0.014905 -0.002706 0.000004 0.000777 -0.000007
# 3 -0.007204 -0.002706 0.010569 -0.000025 -0.000087 0.000012
# 4 0.000028 0.000004 -0.000025 0.043826 -0.000011 0.007443
# 5 0.003247 0.000777 -0.000087 -0.000011 0.034785 -0.000013
# 6 0.000020 -0.000007 0.000012 0.007443 -0.000013 0.073959
#
#
# Mechanical properties :
#
#
# Convention : Reuss Voigt Hill
#
# Bulk Modulus (GPa) = 43.41418 54.98157 49.19788
# Shear Modulus (GPa) = 20.16272 23.82367 21.99320
#
# Velocity S-wave (km/s) = 3.24464 3.52692 3.38872
# Velocity P-wave (km/s) = 6.05846 6.73004 6.40306
#
# Compressibility (1/GPa) = 0.02303395
#
# Stress axis : x y z
#
# Youngs Moduli (GPa) = 33.43399 67.08982 94.61941
#
# Poissons Ratio (x) = 0.42033 0.68165
# Poissons Ratio (y) = 0.20947 0.25600
# Poissons Ratio (z) = 0.24086 0.18152
#
# Static dielectric constant tensor:
#      x y z
#    x 3.480110 -0.000380 -0.364300 
#    y -0.000380 3.721340 0.000290 
#    z -0.364300 0.000290 4.007020 
# 
# 
# High freq. dielectric constant tensor:
#      x y z
#    x 1.732650 0.000000 -0.012280 
#    y 0.000000 1.720030 -0.000020 
#    z -0.012280 -0.000020 1.749170 
# 
# From -- ./inp_files/379884.got.cif
#   From: 2010.06.25/outbox.cif.g09.slc.cpg/sg12_190_cif.got.tgz:379884.got - 2010.06.28 00:19:55.
