data_PCOD8082494
_publ_section_title
;
Structure prediction by ZEFSAII (Michael W. Deem and Ramdas Pophale) SiO2 
 PCOD8082494
Probable space group: C 2/M
;
_chemical_formula_sum "Si O2"
_cell_formula_units_Z 64
_cell_length_a 33.616420
_cell_length_b 8.970500
_cell_length_c 11.891933
_cell_angle_alpha 90.000000
_cell_angle_beta 93.865565
_cell_angle_gamma 90.000000
_cell_volume 3577.926456
_symmetry_space_group_name_H-M "C 2/M"
_symmetry_group_IT_number 12
_symmetry_cell_setting 'monoclinic'
loop_
_space_group_symop_operation_xyz
x,y,z
-x,y,-z
-x,-y,-z
x,-y,z
1/2+x,1/2+y,z
1/2-x,1/2+y,-z
1/2-x,1/2-y,-z
1/2+x,1/2-y,z
loop_
_atom_site_type_symbol
_atom_site_label
_atom_site_fract_x
_atom_site_fract_y
_atom_site_fract_z
Si Si1 0.582865 0.173509 0.576144
Si Si2 0.021509 0.324999 0.753689
Si Si3 0.856017 0.175004 0.267076
Si Si4 0.433034 0.825196 0.684153
Si Si5 0.878757 0.823564 0.850463
Si Si6 0.418214 0.326190 0.087440
Si Si7 0.702139 0.824950 0.101739
Si Si8 0.282942 0.825114 0.152576
O O1 0.545935 0.223432 0.647373
O O2 0.622167 0.266946 0.616477
O O3 0.570921 0.211333 0.447565
O O4 0.592575 0.000000 0.594734
O O5 0.022539 0.500000 0.769013
O O6 0.040903 0.254152 0.868942
O O7 0.976341 0.268919 0.732498
O O8 0.882819 0.218800 0.164982
O O9 0.813954 0.258068 0.247582
O O10 0.848353 0.000000 0.274279
O O11 0.399866 0.730292 0.741543
O O12 0.426977 0.000000 0.707158
O O13 0.836042 0.746496 0.847424
O O14 0.872550 0.000000 0.848867
O O15 0.905776 0.772596 0.961195
O O16 0.426751 0.500000 0.093276
O O17 0.740724 0.752672 0.166997
O O18 0.702642 0.000000 0.124563
O O19 0.701673 0.787250 0.969500
O O20 0.278247 0.000000 0.171231
#
# Coordination Sequence:
#
# PCOD8082494 Si02
#       8
#     8   8   8   8   8   8   8   8
#     4   9  18  34  55  77 102 133 174 222 269 310
#     4   9  18  33  55  78 100 130 172 223 269 310
#     4  10  18  31  52  78 108 137 172 215 259 306
#     4  10  21  36  53  75 102 136 178 221 264 313
#     4  11  22  36  52  72 106 145 178 212 255 313
#     4   9  19  33  49  72 104 139 171 211 261 309
#     4  10  20  33  52  78 108 140 173 211 253 303
#     4  10  19  31  52  81 110 138 170 208 256 308
#
# _framework density 17.887456
#
# number of rings (size 3 to 8) (size 9 to 14) (size 15 to 20)
#    0.000    2.250    1.250    1.875    0.000    5.500 
#    0.000    2.500    0.000    4.500    0.000    0.000 
#    0.000    0.000    0.000    0.000    0.000    0.000 
#
# Total GULP energy -396914.641143 kJ/mol
# GULP energy per Si atom -12403.582536 kJ/mol
# Density = 1.784674 g / cm^3
# Si number density = 17.887456 Si / 1000 Ang^3
#
#
#
# Elastic Constant Matrix: (Units=GPa)
#
#
# Indices 1 2 3 4 5 6 
#
# 1 140.4472 53.7311 34.7065 0.0000 9.5230 0.0000
# 2 53.7311 64.2070 20.9950 0.0000 3.6782 0.0000
# 3 34.7065 20.9950 35.1573 0.0000 -2.9301 0.0000
# 4 0.0000 0.0000 0.0000 26.5854 0.0000 3.6724
# 5 9.5230 3.6782 -2.9301 0.0000 23.6749 0.0000
# 6 0.0000 0.0000 0.0000 3.6724 0.0000 32.5387
#
#
#
# Elastic Compliance Matrix: (Units=1/GPa)
#
#
# Indices 1 2 3 4 5 6 
#
# 1 0.012255 -0.007324 -0.008124 0.000000 -0.004797 0.000000
# 2 -0.007324 0.024214 -0.007374 0.000000 -0.001728 0.000000
# 3 -0.008124 -0.007374 0.041664 0.000000 0.009570 0.000000
# 4 0.000000 0.000000 0.000000 0.038210 0.000000 -0.004312
# 5 -0.004797 -0.001728 0.009570 0.000000 0.045621 0.000000
# 6 0.000000 0.000000 0.000000 -0.004312 0.000000 0.031219
#
#
# Mechanical properties :
#
#
# Convention : Reuss Voigt Hill
#
# Bulk Modulus (GPa) = 30.77895 50.96409 40.87152
# Shear Modulus (GPa) = 20.02747 25.25172 22.63960
#
# Velocity S-wave (km/s) = 3.34973 3.76134 3.56148
# Velocity P-wave (km/s) = 5.67497 6.88599 6.30960
#
# Compressibility (1/GPa) = 0.03248974
#
# Stress axis : x y z
#
# Youngs Moduli (GPa) = 81.59994 41.29844 24.00148
#
# Poissons Ratio (x) = 0.30248 0.19498
# Poissons Ratio (y) = 0.59766 0.17698
# Poissons Ratio (z) = 0.66290 0.30452
#
# Static dielectric constant tensor:
#      x y z
#    x 3.354200 0.000000 0.149320 
#    y 0.000000 3.260260 0.000000 
#    z 0.149320 0.000000 3.142460 
# 
# 
# High freq. dielectric constant tensor:
#      x y z
#    x 1.695290 0.000000 0.016190 
#    y 0.000000 1.695470 0.000000 
#    z 0.016190 0.000000 1.668410 
# 
# From -- ./inp_files/187408.got.cif
#   From: 2010.06.25/outbox.cif.g09.slc.cpg/sg12_94_cif.got.tgz:187408.got - 2010.06.28 00:19:55.
