data_PCOD8082227
_publ_section_title
;
Structure prediction by ZEFSAII (Michael W. Deem and Ramdas Pophale) SiO2 
 PCOD8082227
Probable space group: C 2/M
;
_chemical_formula_sum "Si O2"
_cell_formula_units_Z 56
_cell_length_a 9.543104
_cell_length_b 22.997985
_cell_length_c 16.746873
_cell_angle_alpha 90.000000
_cell_angle_beta 62.405010
_cell_angle_gamma 90.000000
_cell_volume 3257.365712
_symmetry_space_group_name_H-M "C 2/M"
_symmetry_group_IT_number 12
_symmetry_cell_setting 'monoclinic'
loop_
_space_group_symop_operation_xyz
x,y,z
-x,y,-z
-x,-y,-z
x,-y,z
1/2+x,1/2+y,z
1/2-x,1/2+y,-z
1/2-x,1/2-y,-z
1/2+x,1/2-y,z
loop_
_atom_site_type_symbol
_atom_site_label
_atom_site_fract_x
_atom_site_fract_y
_atom_site_fract_z
Si Si1 0.863091 0.126123 0.356998
Si Si2 0.445057 0.852701 0.662539
Si Si3 0.798087 0.567530 0.831878
Si Si4 0.976011 0.933011 0.829959
Si Si5 0.161155 0.568623 0.995421
Si Si6 0.645754 0.937544 0.521149
Si Si7 0.072467 0.238026 0.568010
O O1 0.700193 0.146712 0.360128
O O2 0.810968 0.076628 0.433476
O O3 0.951378 0.177664 0.379600
O O4 0.985377 0.101442 0.260650
O O5 0.395952 0.883769 0.757845
O O6 0.601940 0.887403 0.594598
O O7 0.499055 0.785562 0.649354
O O8 0.851238 0.500000 0.800046
O O9 0.613436 0.573819 0.859604
O O10 0.826461 0.585232 0.915400
O O11 0.954623 0.000000 0.812075
O O12 0.814334 0.906376 0.908747
O O13 0.162197 0.500000 0.985214
O O14 0.000000 0.594901 0.000000
O O15 0.500000 0.942966 0.500000
O O16 0.668438 0.000000 0.558249
O O17 0.250000 0.250000 0.500000
O O18 0.000000 0.237251 0.500000
#
# Coordination Sequence:
#
# PCOD8082227 Si02
#       7
#     8   8   8   8   8   8   8
#     4  10  19  32  50  74 100 130 170 215 251 294
#     4  10  18  31  50  74 101 129 171 215 248 294
#     4   9  17  30  52  79 102 130 169 209 251 298
#     4   9  17  31  53  78 102 131 169 208 250 300
#     4   9  17  31  49  73 108 139 161 196 249 311
#     4   9  15  25  45  72 101 129 158 202 253 295
#     4  12  21  37  54  72  99 138 180 215 251 299
#
# _framework density 17.191806
#
# number of rings (size 3 to 8) (size 9 to 14) (size 15 to 20)
#    0.000    2.286    2.857    1.714    0.000    5.143 
#    2.571    0.000    0.000    2.571    0.000    0.000 
#    0.000    0.000    0.000    0.000    0.000    0.000 
#
# Total GULP energy -346942.992906 kJ/mol
# GULP energy per Si atom -12390.821175 kJ/mol
# Density = 1.715268 g / cm^3
# Si number density = 17.191806 Si / 1000 Ang^3
#
#
#
# Elastic Constant Matrix: (Units=GPa)
#
#
# Indices 1 2 3 4 5 6 
#
# 1 79.4766 35.6035 62.6661 0.0000 -2.1228 0.0000
# 2 35.6035 98.2131 53.9127 0.0000 2.4889 0.0000
# 3 62.6661 53.9127 130.3046 0.0000 -3.8768 0.0000
# 4 0.0000 0.0000 0.0000 21.0793 0.0000 4.7031
# 5 -2.1228 2.4889 -3.8768 0.0000 19.0470 0.0000
# 6 0.0000 0.0000 0.0000 4.7031 0.0000 9.9328
#
#
#
# Elastic Compliance Matrix: (Units=1/GPa)
#
#
# Indices 1 2 3 4 5 6 
#
# 1 0.020802 -0.002698 -0.008862 0.000000 0.000867 0.000000
# 2 -0.002698 0.013679 -0.004451 0.000000 -0.002994 0.000000
# 3 -0.008862 -0.004451 0.013850 0.000000 0.002413 0.000000
# 4 0.000000 0.000000 0.000000 0.053044 0.000000 -0.025116
# 5 0.000867 -0.002994 0.002413 0.000000 0.053481 0.000000
# 6 0.000000 0.000000 0.000000 -0.025116 0.000000 0.112569
#
#
# Mechanical properties :
#
#
# Convention : Reuss Voigt Hill
#
# Bulk Modulus (GPa) = 61.31901 68.03986 64.67944
# Shear Modulus (GPa) = 16.39978 20.39927 18.39953
#
# Velocity S-wave (km/s) = 3.09193 3.44840 3.27502
# Velocity P-wave (km/s) = 6.96360 7.45105 7.21144
#
# Compressibility (1/GPa) = 0.01630816
#
# Stress axis : x y z
#
# Youngs Moduli (GPa) = 48.07336 73.10257 72.20469
#
# Poissons Ratio (x) = 0.19725 0.63985
# Poissons Ratio (y) = 0.12972 0.32140
# Poissons Ratio (z) = 0.42601 0.32539
#
# Static dielectric constant tensor:
#      x y z
#    x 3.105350 0.000000 -0.105450 
#    y 0.000000 2.897810 0.000000 
#    z -0.105450 0.000000 3.245780 
# 
# 
# High freq. dielectric constant tensor:
#      x y z
#    x 1.645140 0.000000 -0.009470 
#    y 0.000000 1.643360 0.000000 
#    z -0.009470 0.000000 1.662800 
# 
# From -- ./inp_files/198384.got.cif
#   From: 2010.06.25/outbox.cif.g09.slc.cpg/sg12_100_cif.got.tgz:198384.got - 2010.06.28 00:19:55.
