data_PCOD8082126
_publ_section_title
;
Structure prediction by ZEFSAII (Michael W. Deem and Ramdas Pophale) SiO2 
 PCOD8082126
Probable space group: C 2/M
;
_chemical_formula_sum "Si O2"
_cell_formula_units_Z 64
_cell_length_a 20.328180
_cell_length_b 17.783920
_cell_length_c 27.291254
_cell_angle_alpha 90.000000
_cell_angle_beta 159.284840
_cell_angle_gamma 90.000000
_cell_volume 3489.891920
_symmetry_space_group_name_H-M "C 2/M"
_symmetry_group_IT_number 12
_symmetry_cell_setting 'monoclinic'
loop_
_space_group_symop_operation_xyz
x,y,z
-x,y,-z
-x,-y,-z
x,-y,z
1/2+x,1/2+y,z
1/2-x,1/2+y,-z
1/2-x,1/2-y,-z
1/2+x,1/2-y,z
loop_
_atom_site_type_symbol
_atom_site_label
_atom_site_fract_x
_atom_site_fract_y
_atom_site_fract_z
Si Si1 0.164894 0.416076 0.148650
Si Si2 0.646415 0.838055 0.331769
Si Si3 0.236214 0.585046 0.911970
Si Si4 0.917990 0.915445 0.586788
Si Si5 0.550397 0.832302 0.156786
Si Si6 0.871156 0.771945 0.957958
Si Si7 0.818593 0.914952 0.078334
Si Si8 0.495992 0.693271 0.719512
O O1 0.102333 0.500000 0.119119
O O2 0.359347 0.416756 0.256584
O O3 0.192864 0.368084 0.217262
O O4 0.000000 0.379880 0.000000
O O5 0.475195 0.891988 0.224866
O O6 0.832583 0.882784 0.476931
O O7 0.656344 0.816410 0.281328
O O8 0.631853 0.761383 0.352010
O O9 0.241428 0.500000 0.894978
O O10 0.326696 0.639939 0.934690
O O11 0.350042 0.590887 0.041999
O O12 0.865824 0.858436 0.594189
O O13 0.842359 0.000000 0.543161
O O14 0.470669 0.755702 0.077466
O O15 0.391245 0.893874 0.054257
O O16 0.680170 0.724026 0.819273
O O17 0.000000 0.762487 0.000000
O O18 0.955342 0.856389 0.199208
O O19 0.856943 0.000000 0.123558
#
# Coordination Sequence:
#
# PCOD8082126 Si02
#       8
#     8   8   8   8   8   8   8   8
#     4  10  20  33  50  73  99 127 159 196 238 285
#     4  10  21  34  49  69  97 131 164 196 242 292
#     4   9  18  32  49  71  99 127 160 204 246 285
#     4  11  22  34  50  72  98 128 162 197 237 290
#     4  10  18  31  49  71 100 130 159 197 239 285
#     4  10  19  31  50  73  96 127 165 202 243 284
#     4   9  16  28  50  76  98 125 161 199 240 280
#     4  10  19  33  50  70  97 127 162 204 240 281
#
# _framework density 18.338677000000001
#
# number of rings (size 3 to 8) (size 9 to 14) (size 15 to 20)
#    0.000    2.125    0.000    4.875    0.000    6.250 
#    0.000    1.250    0.000    0.375    0.000    0.000 
#    0.000    0.000    0.000   28.875    0.000    2.250 
#
# Total GULP energy -396692.542716 kJ/mol
# GULP energy per Si atom -12396.641960 kJ/mol
# Density = 1.829694 g / cm^3
# Si number density = 18.338677 Si / 1000 Ang^3
#
#
#
# Elastic Constant Matrix: (Units=GPa)
#
#
# Indices 1 2 3 4 5 6 
#
# 1 75.4850 41.2061 25.5871 -0.0139 -14.2432 -0.0020
# 2 41.2061 136.7958 33.9128 0.0844 -12.1007 0.0211
# 3 25.5871 33.9128 73.9509 0.1960 -20.2027 0.0355
# 4 -0.0139 0.0844 0.1960 25.2716 0.0610 -5.6553
# 5 -14.2432 -12.1007 -20.2027 0.0610 24.1704 0.0055
# 6 -0.0020 0.0211 0.0355 -5.6553 0.0055 26.4546
#
#
#
# Elastic Compliance Matrix: (Units=1/GPa)
#
#
# Indices 1 2 3 4 5 6 
#
# 1 0.017498 -0.004109 -0.002482 0.000031 0.006180 0.000013
# 2 -0.004109 0.009242 -0.002869 -0.000012 -0.000192 -0.000006
# 3 -0.002482 -0.002869 0.019316 -0.000189 0.013247 -0.000067
# 4 0.000031 -0.000012 -0.000189 0.041561 -0.000252 0.008885
# 5 0.006180 -0.000192 0.013247 -0.000252 0.055991 -0.000083
# 6 0.000013 -0.000006 -0.000067 0.008885 -0.000083 0.039700
#
#
# Mechanical properties :
#
#
# Convention : Reuss Voigt Hill
#
# Bulk Modulus (GPa) = 36.85057 54.18263 45.51660
# Shear Modulus (GPa) = 23.66596 27.54770 25.60683
#
# Velocity S-wave (km/s) = 3.59624 3.87998 3.74080
# Velocity P-wave (km/s) = 6.11408 7.04855 6.59788
#
# Compressibility (1/GPa) = 0.02713662
#
# Stress axis : x y z
#
# Youngs Moduli (GPa) = 57.14945 108.20012 51.76926
#
# Poissons Ratio (x) = 0.44458 0.12849
# Poissons Ratio (y) = 0.23482 0.14853
# Poissons Ratio (z) = 0.14184 0.31044
#
# Static dielectric constant tensor:
#      x y z
#    x 3.187580 0.000010 -0.214570 
#    y 0.000010 3.574870 -0.000220 
#    z -0.214570 -0.000220 3.123430 
# 
# 
# High freq. dielectric constant tensor:
#      x y z
#    x 1.689270 0.000000 -0.022570 
#    y 0.000000 1.727650 -0.000020 
#    z -0.022570 -0.000020 1.683380 
# 
# From -- ./inp_files/177108.got.cif
#   From: 2010.06.25/outbox.cif.g09.slc.cpg/sg12_89_cif.got.tgz:177108.got - 2010.06.28 00:19:55.
