data_PCOD8082631
_publ_section_title
;
Structure prediction by ZEFSAII (Michael W. Deem and Ramdas Pophale) SiO2 
 PCOD8082631
Probable space group: C 2/M
;
_chemical_formula_sum "Si O2"
_cell_formula_units_Z 48
_cell_length_a 18.284929
_cell_length_b 8.868580
_cell_length_c 18.953351
_cell_angle_alpha 90.000000
_cell_angle_beta 63.292621
_cell_angle_gamma 90.000000
_cell_volume 2745.600061
_symmetry_space_group_name_H-M "C 2/M"
_symmetry_group_IT_number 12
_symmetry_cell_setting 'monoclinic'
loop_
_space_group_symop_operation_xyz
x,y,z
-x,y,-z
-x,-y,-z
x,-y,z
1/2+x,1/2+y,z
1/2-x,1/2+y,-z
1/2-x,1/2-y,-z
1/2+x,1/2-y,z
loop_
_atom_site_type_symbol
_atom_site_label
_atom_site_fract_x
_atom_site_fract_y
_atom_site_fract_z
Si Si1 0.923221 0.676747 0.984437
Si Si2 0.946424 0.669629 0.293752
Si Si3 0.765824 0.321059 0.136231
Si Si4 0.707519 0.169950 0.720090
Si Si5 0.090645 0.178189 0.158181
Si Si6 0.799052 0.178010 0.415273
O O1 0.916334 0.500000 0.971003
O O2 0.935487 0.763695 0.906554
O O3 0.841464 0.740187 0.057483
O O4 0.000000 0.714190 0.000000
O O5 0.964733 0.500000 0.312347
O O6 0.891838 0.665456 0.245332
O O7 0.892694 0.758418 0.376157
O O8 0.031178 0.754544 0.243429
O O9 0.772506 0.500000 0.138389
O O10 0.770375 0.256595 0.214071
O O11 0.682380 0.266619 0.135952
O O12 0.743923 0.271710 0.640327
O O13 0.743175 0.000000 0.697886
O O14 0.083591 0.000000 0.163784
O O15 0.750000 0.250000 0.500000
O O16 0.799227 0.000000 0.422614
#
# Coordination Sequence:
#
# PCOD8082631 Si02
#       6
#     8   8   8   8   8   8
#     4  10  20  35  54  72  96 138 184 220 256 305
#     4   9  18  33  53  74 100 135 173 211 253 304
#     4   9  18  33  51  73 103 139 176 211 259 313
#     4   8  16  32  53  74  99 134 174 211 250 302
#     4  11  21  32  49  75 106 137 171 218 264 306
#     4  10  18  31  53  83 109 132 166 210 256 303
#
# _framework density 17.482517000000001
#
# number of rings (size 3 to 8) (size 9 to 14) (size 15 to 20)
#    1.000    1.500    0.000    3.500    0.000    3.000 
#    0.000    3.333    0.000    1.000    0.000    7.000 
#    0.000    0.000    0.000    0.000    0.000    0.000 
#
# Total GULP energy -297442.917986 kJ/mol
# GULP energy per Si atom -12393.454916 kJ/mol
# Density = 1.744273 g / cm^3
# Si number density = 17.482517 Si / 1000 Ang^3
#
#
#
# Elastic Constant Matrix: (Units=GPa)
#
#
# Indices 1 2 3 4 5 6 
#
# 1 64.2255 32.3782 38.8516 0.0000 -18.2932 0.0000
# 2 32.3782 95.9855 53.6541 0.0000 -10.8954 0.0001
# 3 38.8516 53.6541 137.2403 0.0000 -18.9881 0.0000
# 4 0.0000 0.0000 0.0000 31.6138 0.0000 -1.8272
# 5 -18.2932 -10.8954 -18.9881 0.0000 22.9113 0.0000
# 6 0.0000 0.0001 0.0000 -1.8272 0.0000 17.5089
#
#
#
# Elastic Compliance Matrix: (Units=1/GPa)
#
#
# Indices 1 2 3 4 5 6 
#
# 1 0.023818 -0.004794 -0.002883 0.000000 0.014348 0.000000
# 2 -0.004794 0.014403 -0.004355 0.000000 -0.000588 0.000000
# 3 -0.002883 -0.004355 0.010392 0.000000 0.004239 0.000000
# 4 0.000000 0.000000 0.000000 0.031824 0.000000 0.003321
# 5 0.014348 -0.000588 0.004239 0.000000 0.058336 0.000000
# 6 0.000000 0.000000 0.000000 0.003321 0.000000 0.057460
#
#
# Mechanical properties :
#
#
# Convention : Reuss Voigt Hill
#
# Bulk Modulus (GPa) = 40.73657 60.80213 50.76935
# Shear Modulus (GPa) = 21.88375 25.91130 23.89753
#
# Velocity S-wave (km/s) = 3.54185 3.85402 3.70122
# Velocity P-wave (km/s) = 6.33073 7.39317 6.88248
#
# Compressibility (1/GPa) = 0.02454797
#
# Stress axis : x y z
#
# Youngs Moduli (GPa) = 41.98558 69.42976 96.22901
#
# Poissons Ratio (x) = 0.33284 0.27746
# Poissons Ratio (y) = 0.20128 0.41908
# Poissons Ratio (z) = 0.12106 0.30237
#
# Static dielectric constant tensor:
#      x y z
#    x 3.109630 0.000000 -0.058210 
#    y 0.000000 3.088070 0.000000 
#    z -0.058210 0.000000 3.197140 
# 
# 
# High freq. dielectric constant tensor:
#      x y z
#    x 1.652770 0.000000 -0.004180 
#    y 0.000000 1.666160 0.000000 
#    z -0.004180 0.000000 1.673200 
# 
# From -- ./inp_files/313590.got.cif
#   From: 2010.06.25/outbox.cif.g09.slc.cpg/sg12_157_cif.got.tgz:313590.got - 2010.06.28 00:19:55.
