data_PCOD8082274
_publ_section_title
;
Structure prediction by ZEFSAII (Michael W. Deem and Ramdas Pophale) SiO2 
 PCOD8082274
Probable space group: C 2/M
;
_chemical_formula_sum "Si O2"
_cell_formula_units_Z 56
_cell_length_a 19.099037
_cell_length_b 8.864845
_cell_length_c 27.453101
_cell_angle_alpha 90.000000
_cell_angle_beta 137.936439
_cell_angle_gamma 90.000000
_cell_volume 3114.005667
_symmetry_space_group_name_H-M "C 2/M"
_symmetry_group_IT_number 12
_symmetry_cell_setting 'monoclinic'
loop_
_space_group_symop_operation_xyz
x,y,z
-x,y,-z
-x,-y,-z
x,-y,z
1/2+x,1/2+y,z
1/2-x,1/2+y,-z
1/2-x,1/2-y,-z
1/2+x,1/2-y,z
loop_
_atom_site_type_symbol
_atom_site_label
_atom_site_fract_x
_atom_site_fract_y
_atom_site_fract_z
Si Si1 0.403213 0.826280 0.052820
Si Si2 0.571990 0.178616 0.641113
Si Si3 0.123036 0.828618 0.571054
Si Si4 0.200887 0.676162 0.797962
Si Si5 0.790969 0.326717 0.091379
Si Si6 0.832290 0.320763 0.504366
Si Si7 0.433721 0.678068 0.920283
O O1 0.376964 0.793210 0.095323
O O2 0.507075 0.729763 0.097724
O O3 0.425818 0.000000 0.054420
O O4 0.310369 0.775136 0.969211
O O5 0.639556 0.248003 0.631586
O O6 0.624648 0.244950 0.717660
O O7 0.450150 0.226268 0.580512
O O8 0.579883 0.000000 0.639986
O O9 0.184857 0.743302 0.559362
O O10 0.000000 0.822451 0.500000
O O11 0.164596 0.000000 0.594395
O O12 0.207706 0.500000 0.790662
O O13 0.156310 0.709007 0.829141
O O14 0.317393 0.746513 0.857122
O O15 0.751801 0.500000 0.069088
O O16 0.816746 0.500000 0.495763
O O17 0.750000 0.250000 0.500000
O O18 0.427573 0.500000 0.921263
O O19 0.500000 0.744745 0.000000
#
# Coordination Sequence:
#
# PCOD8082274 Si02
#       7
#     8   8   8   8   8   8   8
#     4  10  19  29  46  71  97 122 159 215 257 288
#     4   9  18  33  53  76 101 133 170 208 251 301
#     4   9  17  31  52  76 103 134 167 203 245 297
#     4   9  17  32  53  72  94 130 172 206 243 301
#     4   9  17  32  50  67  91 128 166 198 246 306
#     4  10  19  32  53  80 107 135 171 211 249 295
#     4  10  18  31  51  70  92 128 168 203 244 300
#
# _framework density 17.983267999999999
#
# number of rings (size 3 to 8) (size 9 to 14) (size 15 to 20)
#    0.000    2.571    1.429    1.286    0.000    3.143 
#    0.000    2.857    0.000    1.714    0.000    0.000 
#    0.000    0.000    0.000    0.000    0.000    0.000 
#
# Total GULP energy -347037.488354 kJ/mol
# GULP energy per Si atom -12394.196013 kJ/mol
# Density = 1.794234 g / cm^3
# Si number density = 17.983268 Si / 1000 Ang^3
#
#
#
# Elastic Constant Matrix: (Units=GPa)
#
#
# Indices 1 2 3 4 5 6 
#
# 1 133.3622 33.5503 58.2088 0.0000 -17.0733 0.0000
# 2 33.5503 36.4239 22.1047 0.0000 -2.7741 0.0001
# 3 58.2088 22.1047 113.0024 0.0000 -21.1370 0.0000
# 4 0.0000 0.0000 0.0000 14.2789 0.0000 -3.4673
# 5 -17.0733 -2.7741 -21.1370 0.0000 26.7874 0.0000
# 6 0.0000 0.0001 0.0000 -3.4673 0.0000 33.2032
#
#
#
# Elastic Compliance Matrix: (Units=1/GPa)
#
#
# Indices 1 2 3 4 5 6 
#
# 1 0.011649 -0.008198 -0.003715 0.000000 0.003644 0.000000
# 2 -0.008198 0.037000 -0.003843 0.000000 -0.004425 0.000000
# 3 -0.003715 -0.003843 0.012902 0.000000 0.007414 0.000000
# 4 0.000000 0.000000 0.000000 0.071856 0.000000 0.007504
# 5 0.003644 -0.004425 0.007414 0.000000 0.045046 0.000000
# 6 0.000000 0.000000 0.000000 0.007504 0.000000 0.030901
#
#
# Mechanical properties :
#
#
# Convention : Reuss Voigt Hill
#
# Bulk Modulus (GPa) = 33.28943 56.72401 45.00672
# Shear Modulus (GPa) = 19.93003 26.11554 23.02278
#
# Velocity S-wave (km/s) = 3.33266 3.81493 3.58192
# Velocity P-wave (km/s) = 5.77584 7.14255 6.49524
#
# Compressibility (1/GPa) = 0.03003956
#
# Stress axis : x y z
#
# Youngs Moduli (GPa) = 85.84592 27.02676 77.50923
#
# Poissons Ratio (x) = 0.22155 0.28797
# Poissons Ratio (y) = 0.70373 0.29785
# Poissons Ratio (z) = 0.31894 0.10386
#
# Static dielectric constant tensor:
#      x y z
#    x 3.467580 0.000000 -0.173320 
#    y 0.000000 3.204630 0.000000 
#    z -0.173320 0.000000 3.372890 
# 
# 
# High freq. dielectric constant tensor:
#      x y z
#    x 1.703360 0.000000 -0.018910 
#    y 0.000000 1.682060 0.000000 
#    z -0.018910 0.000000 1.670490 
# 
# From -- ./inp_files/313298.got.cif
#   From: 2010.06.25/outbox.cif.g09.slc.cpg/sg12_157_cif.got.tgz:313298.got - 2010.06.28 00:19:55.
