data_PCOD8082989
_publ_section_title
;
Structure prediction by ZEFSAII (Michael W. Deem and Ramdas Pophale) SiO2 
 PCOD8082989
Probable space group: C 2/M
;
_chemical_formula_sum "Si O2"
_cell_formula_units_Z 64
_cell_length_a 30.057810
_cell_length_b 8.584777
_cell_length_c 14.939144
_cell_angle_alpha 90.000000
_cell_angle_beta 101.687770
_cell_angle_gamma 90.000000
_cell_volume 3774.963664
_symmetry_space_group_name_H-M "C 2/M"
_symmetry_group_IT_number 12
_symmetry_cell_setting 'monoclinic'
loop_
_space_group_symop_operation_xyz
x,y,z
-x,y,-z
-x,-y,-z
x,-y,z
1/2+x,1/2+y,z
1/2-x,1/2+y,-z
1/2-x,1/2-y,-z
1/2+x,1/2-y,z
loop_
_atom_site_type_symbol
_atom_site_label
_atom_site_fract_x
_atom_site_fract_y
_atom_site_fract_z
Si Si1 0.038560 0.819061 0.123203
Si Si2 0.191316 0.815234 0.115466
Si Si3 0.629858 0.317349 0.252503
Si Si4 0.283157 0.681042 0.386461
Si Si5 0.686301 0.181291 0.425198
Si Si6 0.054151 0.681622 0.939650
Si Si7 0.791630 0.682581 0.201294
Si Si8 0.644015 0.683266 0.916327
O O1 0.077033 0.781925 0.212173
O O2 0.993467 0.721543 0.128650
O O3 0.025990 0.000000 0.117757
O O4 0.057936 0.775839 0.033667
O O5 0.159959 0.750501 0.182793
O O6 0.242511 0.753902 0.149382
O O7 0.190345 0.000000 0.116667
O O8 0.172333 0.752934 0.013248
O O9 0.638975 0.500000 0.268607
O O10 0.642893 0.228534 0.348582
O O11 0.287980 0.500000 0.365426
O O12 0.315526 0.723949 0.482870
O O13 0.231495 0.727524 0.388908
O O14 0.298734 0.782325 0.308500
O O15 0.685496 0.000000 0.447957
O O16 0.056044 0.500000 0.961606
O O17 0.095326 0.732271 0.892706
O O18 0.796803 0.500000 0.185348
O O19 0.829749 0.775123 0.163009
O O20 0.636136 0.500000 0.919542
#
# Coordination Sequence:
#
# PCOD8082989 Si02
#       8
#     8   8   8   8   8   8   8   8
#     4  10  19  33  53  73  99 134 169 205 254 307
#     4   9  18  32  49  70 100 137 174 209 244 291
#     4  10  18  32  52  75 101 135 170 204 250 305
#     4  10  20  34  50  71  98 134 172 208 251 302
#     4  10  20  32  50  75 101 130 166 211 257 299
#     4  11  21  33  49  73 101 130 169 215 258 295
#     4  11  21  34  51  73 101 134 173 216 256 292
#     4  11  21  36  52  70  99 138 179 211 249 302
#
# _framework density 16.953807000000001
#
# number of rings (size 3 to 8) (size 9 to 14) (size 15 to 20)
#    0.000    1.750    2.500    4.125    0.000    2.000 
#    0.000    1.875    0.000    0.000    0.000    0.875 
#    0.000    7.000    0.000    0.000    0.000    0.000 
#
# Total GULP energy -396930.049129 kJ/mol
# GULP energy per Si atom -12404.064035 kJ/mol
# Density = 1.691522 g / cm^3
# Si number density = 16.953807 Si / 1000 Ang^3
#
#
#
# Elastic Constant Matrix: (Units=GPa)
#
#
# Indices 1 2 3 4 5 6 
#
# 1 97.6984 22.7757 42.3530 0.0000 4.3494 0.0000
# 2 22.7757 45.0243 18.0050 0.0000 5.5447 0.0000
# 3 42.3530 18.0050 90.0182 0.0000 8.7106 0.0000
# 4 0.0000 0.0000 0.0000 25.8661 0.0000 0.2370
# 5 4.3494 5.5447 8.7106 0.0000 22.3919 0.0000
# 6 0.0000 0.0000 0.0000 0.2370 0.0000 24.7834
#
#
#
# Elastic Compliance Matrix: (Units=1/GPa)
#
#
# Indices 1 2 3 4 5 6 
#
# 1 0.013740 -0.004808 -0.005570 0.000000 0.000688 0.000000
# 2 -0.004808 0.026221 -0.002540 0.000000 -0.004571 0.000000
# 3 -0.005570 -0.002540 0.014622 0.000000 -0.003977 0.000000
# 4 0.000000 0.000000 0.000000 0.038664 0.000000 -0.000370
# 5 0.000688 -0.004571 -0.003977 0.000000 0.047204 0.000000
# 6 0.000000 0.000000 0.000000 -0.000370 0.000000 0.040353
#
#
# Mechanical properties :
#
#
# Convention : Reuss Voigt Hill
#
# Bulk Modulus (GPa) = 34.78507 44.33425 39.55966
# Shear Modulus (GPa) = 23.12420 24.58208 23.85314
#
# Velocity S-wave (km/s) = 3.69718 3.81194 3.75500
# Velocity P-wave (km/s) = 6.22797 6.75140 6.49496
#
# Compressibility (1/GPa) = 0.02874796
#
# Stress axis : x y z
#
# Youngs Moduli (GPa) = 72.77868 38.13725 68.38881
#
# Poissons Ratio (x) = 0.18337 0.38090
# Poissons Ratio (y) = 0.34992 0.17372
# Poissons Ratio (z) = 0.40535 0.09687
#
# Static dielectric constant tensor:
#      x y z
#    x 3.121260 0.000000 0.140980 
#    y 0.000000 3.061760 0.000000 
#    z 0.140980 0.000000 3.050470 
# 
# 
# High freq. dielectric constant tensor:
#      x y z
#    x 1.636960 0.000000 0.012110 
#    y 0.000000 1.656580 0.000000 
#    z 0.012110 0.000000 1.637040 
# 
# From -- ./inp_files/248231.got.cif
#   From: 2010.06.25/outbox.cif.g09.slc.cpg/sg12_125_cif.got.tgz:248231.got - 2010.06.28 00:19:55.
