data_PCOD8082740
_publ_section_title
;
Structure prediction by ZEFSAII (Michael W. Deem and Ramdas Pophale) SiO2 
 PCOD8082740
Probable space group: C 2/M
;
_chemical_formula_sum "Si O2"
_cell_formula_units_Z 56
_cell_length_a 17.624730
_cell_length_b 29.656586
_cell_length_c 8.431224
_cell_angle_alpha 90.000000
_cell_angle_beta 138.828643
_cell_angle_gamma 90.000000
_cell_volume 2901.127669
_symmetry_space_group_name_H-M "C 2/M"
_symmetry_group_IT_number 12
_symmetry_cell_setting 'monoclinic'
loop_
_space_group_symop_operation_xyz
x,y,z
-x,y,-z
-x,-y,-z
x,-y,z
1/2+x,1/2+y,z
1/2-x,1/2+y,-z
1/2-x,1/2-y,-z
1/2+x,1/2-y,z
loop_
_atom_site_type_symbol
_atom_site_label
_atom_site_fract_x
_atom_site_fract_y
_atom_site_fract_z
Si Si1 0.064743 0.623246 0.245613
Si Si2 0.330256 0.126824 0.021681
Si Si3 0.735273 0.382223 0.221527
Si Si4 0.941017 0.050418 0.164947
Si Si5 0.196241 0.698099 0.263044
Si Si6 0.675757 0.449438 0.677537
Si Si7 0.368955 0.704147 0.801516
O O1 0.173735 0.599485 0.502466
O O2 0.107136 0.670126 0.232911
O O3 0.000000 0.595650 0.000000
O O4 0.968783 0.630510 0.230657
O O5 0.278382 0.172476 0.862857
O O6 0.281282 0.085621 0.835302
O O7 0.295623 0.118967 0.146687
O O8 0.699220 0.331240 0.197949
O O9 0.625073 0.415241 0.055579
O O10 0.881114 0.052227 0.240114
O O11 0.075868 0.063982 0.393575
O O12 0.930968 0.000000 0.078200
O O13 0.317700 0.704916 0.543166
O O14 0.141651 0.746580 0.136430
O O15 0.721777 0.500000 0.715267
O O16 0.500000 0.688627 0.000000
#
# Coordination Sequence:
#
# PCOD8082740 Si02
#       7
#     8   8   8   8   8   8   8
#     4   9  18  35  54  70  99 143 175 202 255 324
#     4  10  18  31  55  79 105 129 175 226 259 298
#     4  10  20  31  53  84 101 128 176 227 262 290
#     4   8  15  30  49  73 108 139 164 205 265 321
#     4   9  20  36  53  72  99 146 179 202 260 320
#     4   8  15  28  49  76 106 139 168 203 261 320
#     4  10  20  35  52  72 104 141 178 209 251 323
#
# _framework density 19.302838999999999
#
# number of rings (size 3 to 8) (size 9 to 14) (size 15 to 20)
#    0.000    2.857    0.000    2.571    2.000    0.571 
#    0.000    0.714    0.000   15.857    0.000    0.000 
#    0.000    0.000    0.000    0.000    0.000    0.000 
#
# Total GULP energy -346948.484878 kJ/mol
# GULP energy per Si atom -12391.017317 kJ/mol
# Density = 1.925890 g / cm^3
# Si number density = 19.302839 Si / 1000 Ang^3
#
#
#
# Elastic Constant Matrix: (Units=GPa)
#
#
# Indices 1 2 3 4 5 6 
#
# 1 37.6054 7.8028 26.1585 0.0000 2.5946 0.0000
# 2 7.8028 86.3613 52.0627 0.0000 -0.9252 0.0000
# 3 26.1585 52.0627 140.3165 0.0000 3.8548 0.0000
# 4 0.0000 0.0000 0.0000 30.4640 0.0000 -2.6394
# 5 2.5946 -0.9252 3.8548 0.0000 25.4498 0.0000
# 6 0.0000 0.0000 0.0000 -2.6394 0.0000 10.0668
#
#
#
# Elastic Compliance Matrix: (Units=1/GPa)
#
#
# Indices 1 2 3 4 5 6 
#
# 1 0.030727 0.000795 -0.005963 0.000000 -0.002201 0.000000
# 2 0.000795 0.014985 -0.005745 0.000000 0.001334 0.000000
# 3 -0.005963 -0.005745 0.010402 0.000000 -0.001177 0.000000
# 4 0.000000 0.000000 0.000000 0.033589 0.000000 0.008807
# 5 -0.002201 0.001334 -0.001177 0.000000 0.039744 0.000000
# 6 0.000000 0.000000 0.000000 0.008807 0.000000 0.101645
#
#
# Mechanical properties :
#
#
# Convention : Reuss Voigt Hill
#
# Bulk Modulus (GPa) = 29.16437 48.48125 38.82281
# Shear Modulus (GPa) = 18.91457 25.08006 21.99732
#
# Velocity S-wave (km/s) = 3.13371 3.60848 3.37944
# Velocity P-wave (km/s) = 5.31368 6.52167 5.94842
#
# Compressibility (1/GPa) = 0.03428841
#
# Stress axis : x y z
#
# Youngs Moduli (GPa) = 32.54518 66.73354 96.13359
#
# Poissons Ratio (x) = -0.05304 0.57321
# Poissons Ratio (y) = -0.02587 0.55227
# Poissons Ratio (z) = 0.19406 0.38337
#
# Static dielectric constant tensor:
#      x y z
#    x 3.199100 0.000000 0.146310 
#    y 0.000000 3.550460 0.000000 
#    z 0.146310 0.000000 4.001410 
# 
# 
# High freq. dielectric constant tensor:
#      x y z
#    x 1.725650 0.000000 0.009110 
#    y 0.000000 1.734290 0.000000 
#    z 0.009110 0.000000 1.766300 
# 
# From -- ./inp_files/80477.got.cif
#   From: 2010.06.25/outbox.cif.g09.slc.cpg/sg12_41_cif.got.tgz:80477.got - 2010.06.28 00:19:55.
