data_PCOD8082634
_publ_section_title
;
Structure prediction by ZEFSAII (Michael W. Deem and Ramdas Pophale) SiO2 
 PCOD8082634
Probable space group: C 2/M
;
_chemical_formula_sum "Si O2"
_cell_formula_units_Z 48
_cell_length_a 17.680717
_cell_length_b 19.559517
_cell_length_c 8.933192
_cell_angle_alpha 90.000000
_cell_angle_beta 122.027695
_cell_angle_gamma 90.000000
_cell_volume 2619.111002
_symmetry_space_group_name_H-M "C 2/M"
_symmetry_group_IT_number 12
_symmetry_cell_setting 'monoclinic'
loop_
_space_group_symop_operation_xyz
x,y,z
-x,y,-z
-x,-y,-z
x,-y,z
1/2+x,1/2+y,z
1/2-x,1/2+y,-z
1/2-x,1/2-y,-z
1/2+x,1/2-y,z
loop_
_atom_site_type_symbol
_atom_site_label
_atom_site_fract_x
_atom_site_fract_y
_atom_site_fract_z
Si Si1 0.640412 0.924300 0.378607
Si Si2 0.678692 0.291666 0.022329
Si Si3 0.279191 0.074429 0.210454
Si Si4 0.334690 0.777342 0.675337
Si Si5 0.488169 0.255419 0.321858
Si Si6 0.459983 0.899413 0.304339
O O1 0.677953 0.908139 0.583471
O O2 0.672778 0.860129 0.313758
O O3 0.531823 0.922820 0.255945
O O4 0.672575 0.000000 0.356433
O O5 0.709222 0.368381 0.090577
O O6 0.660332 0.250750 0.153754
O O7 0.750000 0.250000 0.000000
O O8 0.584263 0.301419 0.840053
O O9 0.361073 0.070268 0.176713
O O10 0.231437 0.000000 0.162278
O O11 0.250000 0.750000 0.500000
O O12 0.419744 0.751107 0.671348
O O13 0.500000 0.287799 0.500000
O O14 0.444505 0.181424 0.294900
O O15 0.500000 0.928348 0.500000
#
# Coordination Sequence:
#
# PCOD8082634 Si02
#       6
#     8   8   8   8   8   8
#     4   9  17  31  54  82 117 151 184 228 290 350
#     4  12  22  36  57  85 117 155 193 235 280 338
#     4  10  18  31  53  83 116 151 192 232 279 343
#     4  11  21  36  57  85 117 149 191 238 286 339
#     4  10  20  36  59  83 113 147 193 241 288 336
#     4   8  14  27  50  81 110 143 178 221 278 345
#
# _framework density 18.326829
#
# number of rings (size 3 to 8) (size 9 to 14) (size 15 to 20)
#    0.000    2.000    3.333    3.000    0.000    2.000 
#    0.000    0.833    0.000    5.500    0.000    0.000 
#    0.000    0.000    0.000    0.000    0.000    0.000 
#
# Total GULP energy -297384.050325 kJ/mol
# GULP energy per Si atom -12391.002097 kJ/mol
# Density = 1.828512 g / cm^3
# Si number density = 18.326829 Si / 1000 Ang^3
#
#
#
# Elastic Constant Matrix: (Units=GPa)
#
#
# Indices 1 2 3 4 5 6 
#
# 1 93.2685 49.3748 49.8316 0.0000 2.1108 0.0000
# 2 49.3748 140.9926 51.3795 0.0000 8.9437 0.0000
# 3 49.8316 51.3795 105.4197 0.0000 5.8526 0.0000
# 4 0.0000 0.0000 0.0000 22.1442 0.0000 2.4077
# 5 2.1108 8.9437 5.8526 0.0000 31.6167 0.0000
# 6 0.0000 0.0000 0.0000 2.4077 0.0000 19.9851
#
#
#
# Elastic Compliance Matrix: (Units=1/GPa)
#
#
# Indices 1 2 3 4 5 6 
#
# 1 0.015586 -0.003424 -0.005754 0.000000 0.000993 0.000000
# 2 -0.003424 0.009466 -0.002888 0.000000 -0.001914 0.000000
# 3 -0.005754 -0.002888 0.013687 0.000000 -0.001333 0.000000
# 4 0.000000 0.000000 0.000000 0.045758 0.000000 -0.005513
# 5 0.000993 -0.001914 -0.001333 0.000000 0.032351 0.000000
# 6 0.000000 0.000000 0.000000 -0.005513 0.000000 0.050702
#
#
# Mechanical properties :
#
#
# Convention : Reuss Voigt Hill
#
# Bulk Modulus (GPa) = 68.46394 71.20583 69.83489
# Shear Modulus (GPa) = 25.43863 27.35552 26.39708
#
# Velocity S-wave (km/s) = 3.72970 3.86767 3.79931
# Velocity P-wave (km/s) = 7.48237 7.67352 7.57855
#
# Compressibility (1/GPa) = 0.01460623
#
# Stress axis : x y z
#
# Youngs Moduli (GPa) = 64.15929 105.64329 73.06000
#
# Poissons Ratio (x) = 0.36177 0.42036
# Poissons Ratio (y) = 0.21971 0.21103
# Poissons Ratio (z) = 0.36915 0.30514
#
# Static dielectric constant tensor:
#      x y z
#    x 3.341800 0.000000 0.065090 
#    y 0.000000 3.392140 0.000000 
#    z 0.065090 0.000000 3.234550 
# 
# 
# High freq. dielectric constant tensor:
#      x y z
#    x 1.695940 0.000000 0.004920 
#    y 0.000000 1.703390 0.000000 
#    z 0.004920 0.000000 1.690740 
# 
# From -- ./inp_files/63637.got.cif
#   From: 2010.06.25/outbox.cif.g09.slc.cpg/sg12_32_cif.got.tgz:63637.got - 2010.06.28 00:19:55.
