data_PCOD8082275
_publ_section_title
;
Structure prediction by ZEFSAII (Michael W. Deem and Ramdas Pophale) SiO2 
 PCOD8082275
Probable space group: C 2/M
;
_chemical_formula_sum "Si O2"
_cell_formula_units_Z 64
_cell_length_a 29.266663
_cell_length_b 8.943607
_cell_length_c 15.771073
_cell_angle_alpha 90.000000
_cell_angle_beta 117.495345
_cell_angle_gamma 90.000000
_cell_volume 3661.798529
_symmetry_space_group_name_H-M "C 2/M"
_symmetry_group_IT_number 12
_symmetry_cell_setting 'monoclinic'
loop_
_space_group_symop_operation_xyz
x,y,z
-x,y,-z
-x,-y,-z
x,-y,z
1/2+x,1/2+y,z
1/2-x,1/2+y,-z
1/2-x,1/2-y,-z
1/2+x,1/2-y,z
loop_
_atom_site_type_symbol
_atom_site_label
_atom_site_fract_x
_atom_site_fract_y
_atom_site_fract_z
Si Si1 0.534776 0.822699 0.850299
Si Si2 0.931843 0.827440 0.773076
Si Si3 0.186120 0.677614 0.068452
Si Si4 0.288053 0.822975 0.221877
Si Si5 0.826097 0.823373 0.601950
Si Si6 0.863643 0.675873 0.146650
Si Si7 0.279962 0.175826 0.407088
Si Si8 0.411087 0.673871 0.949117
O O1 0.479298 0.763289 0.772865
O O2 0.577364 0.770185 0.816815
O O3 0.533512 0.000000 0.859145
O O4 0.549523 0.752923 0.953432
O O5 0.878636 0.763624 0.689012
O O6 0.933272 0.804366 0.874659
O O7 0.938389 0.000000 0.754257
O O8 0.184218 0.500000 0.076807
O O9 0.241966 0.737762 0.137536
O O10 0.145028 0.750342 0.097279
O O11 0.171891 0.732574 0.961397
O O12 0.339978 0.772080 0.216424
O O13 0.293163 0.771749 0.323386
O O14 0.278002 0.000000 0.206950
O O15 0.778167 0.772828 0.619866
O O16 0.820726 0.754104 0.503960
O O17 0.827139 0.000000 0.594385
O O18 0.863226 0.500000 0.142907
O O19 0.286331 0.000000 0.423227
O O20 0.406071 0.500000 0.968503
#
# Coordination Sequence:
#
# PCOD8082275 Si02
#       8
#     8   8   8   8   8   8   8   8
#     4  10  20  33  48  70  99 127 160 200 239 275
#     4  10  20  33  50  71  94 126 165 196 231 284
#     4  10  19  30  45  71 103 128 158 197 236 278
#     4  10  18  31  51  70  93 127 163 195 233 284
#     4   9  18  33  50  70  98 123 147 188 238 285
#     4   8  17  32  47  66  95 129 161 197 235 273
#     4   9  18  32  51  74  95 119 153 190 232 284
#     4  10  19  32  49  69  97 131 164 194 230 281
#
# _framework density 17.47775
#
# number of rings (size 3 to 8) (size 9 to 14) (size 15 to 20)
#    0.000    2.500    0.000    3.375    0.000    5.500 
#    0.000    5.625    0.000    0.750    0.000    5.250 
#    0.000    0.000    0.000    0.000    0.000    0.000 
#
# Total GULP energy -396742.619886 kJ/mol
# GULP energy per Si atom -12398.206871 kJ/mol
# Density = 1.743797 g / cm^3
# Si number density = 17.477750 Si / 1000 Ang^3
#
#
#
# Elastic Constant Matrix: (Units=GPa)
#
#
# Indices 1 2 3 4 5 6 
#
# 1 128.1944 41.7047 69.7843 0.0000 3.0746 0.0000
# 2 41.7047 50.9803 31.8396 0.0000 1.5027 0.0000
# 3 69.7843 31.8396 91.8746 0.0000 2.9828 0.0000
# 4 0.0000 0.0000 0.0000 26.0700 0.0000 4.9875
# 5 3.0746 1.5027 2.9828 0.0000 29.4246 0.0000
# 6 0.0000 0.0000 0.0000 4.9875 0.0000 24.8493
#
#
#
# Elastic Compliance Matrix: (Units=1/GPa)
#
#
# Indices 1 2 3 4 5 6 
#
# 1 0.014817 -0.006495 -0.008993 0.000000 -0.000305 0.000000
# 2 -0.006495 0.027886 -0.004722 0.000000 -0.000267 0.000000
# 3 -0.008993 -0.004722 0.019377 0.000000 -0.000783 0.000000
# 4 0.000000 0.000000 0.000000 0.039890 0.000000 -0.008006
# 5 -0.000305 -0.000267 -0.000783 0.000000 0.034110 0.000000
# 6 0.000000 0.000000 0.000000 -0.008006 0.000000 0.041850
#
#
# Mechanical properties :
#
#
# Convention : Reuss Voigt Hill
#
# Bulk Modulus (GPa) = 46.17028 61.96739 54.06884
# Shear Modulus (GPa) = 22.16616 24.58348 23.37482
#
# Velocity S-wave (km/s) = 3.56511 3.75448 3.66102
# Velocity P-wave (km/s) = 6.58944 7.37067 6.99098
#
# Compressibility (1/GPa) = 0.02165896
#
# Stress axis : x y z
#
# Youngs Moduli (GPa) = 67.49206 35.86076 51.60719
#
# Poissons Ratio (x) = 0.23292 0.46412
# Poissons Ratio (y) = 0.43836 0.24368
# Poissons Ratio (z) = 0.60697 0.16933
#
# Static dielectric constant tensor:
#      x y z
#    x 3.609180 0.000000 -0.068340 
#    y 0.000000 3.146550 0.000000 
#    z -0.068340 0.000000 3.154370 
# 
# 
# High freq. dielectric constant tensor:
#      x y z
#    x 1.678930 0.000000 0.001910 
#    y 0.000000 1.667430 0.000000 
#    z 0.001910 0.000000 1.653210 
# 
# From -- ./inp_files/249225.got.cif
#   From: 2010.06.25/outbox.cif.g09.slc.cpg/sg12_125_cif.got.tgz:249225.got - 2010.06.28 00:19:55.
