data_PCOD8082554
_publ_section_title
;
Structure prediction by ZEFSAII (Michael W. Deem and Ramdas Pophale) SiO2 
 PCOD8082554
Probable space group: C 2/M
;
_chemical_formula_sum "Si O2"
_cell_formula_units_Z 64
_cell_length_a 20.008744
_cell_length_b 9.273027
_cell_length_c 24.425225
_cell_angle_alpha 90.000000
_cell_angle_beta 125.066302
_cell_angle_gamma 90.000000
_cell_volume 3709.301322
_symmetry_space_group_name_H-M "C 2/M"
_symmetry_group_IT_number 12
_symmetry_cell_setting 'monoclinic'
loop_
_space_group_symop_operation_xyz
x,y,z
-x,y,-z
-x,-y,-z
x,-y,z
1/2+x,1/2+y,z
1/2-x,1/2+y,-z
1/2-x,1/2-y,-z
1/2+x,1/2-y,z
loop_
_atom_site_type_symbol
_atom_site_label
_atom_site_fract_x
_atom_site_fract_y
_atom_site_fract_z
Si Si1 0.782615 0.330932 0.321476
Si Si2 0.215703 0.167375 0.174486
Si Si3 0.376256 0.667051 0.698218
Si Si4 0.885233 0.665472 0.208421
Si Si5 0.492739 0.329891 0.658672
Si Si6 0.003238 0.665570 0.171213
Si Si7 0.551173 0.831032 0.075474
Si Si8 0.463978 0.170642 0.424718
O O1 0.794043 0.500000 0.319941
O O2 0.747261 0.270510 0.247622
O O3 0.719732 0.293244 0.341340
O O4 0.871426 0.267539 0.377623
O O5 0.288224 0.191681 0.164404
O O6 0.138170 0.254222 0.117288
O O7 0.191445 0.000000 0.167996
O O8 0.390698 0.500000 0.716808
O O9 0.410762 0.707858 0.654681
O O10 0.423210 0.746074 0.768604
O O11 0.904958 0.500000 0.234415
O O12 0.928719 0.767979 0.272856
O O13 0.918099 0.700143 0.162564
O O14 0.504083 0.500000 0.655885
O O15 0.482314 0.251576 0.595706
O O16 0.027021 0.500000 0.190125
O O17 0.997502 0.704660 0.104377
O O18 0.568244 0.000000 0.077575
O O19 0.500000 0.771835 0.000000
O O20 0.500000 0.214558 0.500000
O O21 0.469641 0.000000 0.417564
#
# Coordination Sequence:
#
# PCOD8082554 Si02
#       8
#     8   8   8   8   8   8   8   8
#     4   9  16  30  51  74  97 124 163 207 244 281
#     4  10  18  31  53  75  96 125 165 211 246 283
#     4   9  17  30  49  72  98 126 158 201 250 291
#     4   9  17  31  51  74  98 124 163 209 246 286
#     4  10  19  30  48  74 102 130 158 197 251 299
#     4   9  17  30  49  71  96 128 164 201 243 290
#     4  10  21  35  49  70 104 138 164 198 250 304
#     4  10  20  35  54  73  98 135 172 203 241 292
#
# _framework density 17.253924000000001
#
# number of rings (size 3 to 8) (size 9 to 14) (size 15 to 20)
#    0.000    2.500    2.500    0.375    0.000    1.500 
#    0.000    1.875    0.000    0.000    0.000    0.000 
#    0.000    0.000    0.000    0.000    0.000    0.000 
#
# Total GULP energy -396682.969337 kJ/mol
# GULP energy per Si atom -12396.342792 kJ/mol
# Density = 1.721465 g / cm^3
# Si number density = 17.253924 Si / 1000 Ang^3
#
#
#
# Elastic Constant Matrix: (Units=GPa)
#
#
# Indices 1 2 3 4 5 6 
#
# 1 132.4420 35.8850 71.2001 0.0000 -9.6571 0.0000
# 2 35.8850 40.7895 36.4600 0.0000 -7.0690 0.0000
# 3 71.2001 36.4600 119.1617 0.0000 -8.0297 0.0000
# 4 0.0000 0.0000 0.0000 19.8725 0.0000 0.4063
# 5 -9.6571 -7.0690 -8.0297 0.0000 27.1221 0.0000
# 6 0.0000 0.0000 0.0000 0.4063 0.0000 22.0705
#
#
#
# Elastic Compliance Matrix: (Units=1/GPa)
#
#
# Indices 1 2 3 4 5 6 
#
# 1 0.012060 -0.005545 -0.005426 0.000000 0.001243 0.000000
# 2 -0.005545 0.037231 -0.007712 0.000000 0.005446 0.000000
# 3 -0.005426 -0.007712 0.014007 0.000000 0.000205 0.000000
# 4 0.000000 0.000000 0.000000 0.050340 0.000000 -0.000927
# 5 0.001243 0.005446 0.000205 0.000000 0.038793 0.000000
# 6 0.000000 0.000000 0.000000 -0.000927 0.000000 0.045326
#
#
# Mechanical properties :
#
#
# Convention : Reuss Voigt Hill
#
# Bulk Modulus (GPa) = 38.55906 64.38704 51.47305
# Shear Modulus (GPa) = 20.51136 23.73623 22.12379
#
# Velocity S-wave (km/s) = 3.45163 3.71307 3.58473
# Velocity P-wave (km/s) = 6.18721 7.46866 6.85793
#
# Compressibility (1/GPa) = 0.02593424
#
# Stress axis : x y z
#
# Youngs Moduli (GPa) = 82.91606 26.85919 71.39150
#
# Poissons Ratio (x) = 0.14893 0.38736
# Poissons Ratio (y) = 0.45977 0.55054
# Poissons Ratio (z) = 0.44989 0.20712
#
# Static dielectric constant tensor:
#      x y z
#    x 3.609910 0.000000 -0.105930 
#    y 0.000000 3.095740 0.000000 
#    z -0.105930 0.000000 3.035980 
# 
# 
# High freq. dielectric constant tensor:
#      x y z
#    x 1.685840 0.000000 -0.009200 
#    y 0.000000 1.651830 0.000000 
#    z -0.009200 0.000000 1.632750 
# 
# From -- ./inp_files/346194.got.cif
#   From: 2010.06.25/outbox.cif.g09.slc.cpg/sg12_174_cif.got.tgz:346194.got - 2010.06.28 00:19:55.
