data_PCOD8082652
_publ_section_title
;
Structure prediction by ZEFSAII (Michael W. Deem and Ramdas Pophale) SiO2 
 PCOD8082652
Probable space group: C 2/M
;
_chemical_formula_sum "Si O2"
_cell_formula_units_Z 56
_cell_length_a 30.080032
_cell_length_b 8.674709
_cell_length_c 22.135365
_cell_angle_alpha 90.000000
_cell_angle_beta 33.271809
_cell_angle_gamma 90.000000
_cell_volume 3168.726922
_symmetry_space_group_name_H-M "C 2/M"
_symmetry_group_IT_number 12
_symmetry_cell_setting 'monoclinic'
loop_
_space_group_symop_operation_xyz
x,y,z
-x,y,-z
-x,-y,-z
x,-y,z
1/2+x,1/2+y,z
1/2-x,1/2+y,-z
1/2-x,1/2-y,-z
1/2+x,1/2-y,z
loop_
_atom_site_type_symbol
_atom_site_label
_atom_site_fract_x
_atom_site_fract_y
_atom_site_fract_z
Si Si1 0.622666 0.180367 0.656490
Si Si2 0.488400 0.316831 0.634410
Si Si3 0.163773 0.183236 0.394562
Si Si4 0.208958 0.317637 0.987317
Si Si5 0.669182 0.682799 0.252678
Si Si6 0.253452 0.819206 0.588026
Si Si7 0.038641 0.818242 0.199272
O O1 0.671834 0.227169 0.540261
O O2 0.672930 0.231297 0.658091
O O3 0.538113 0.270942 0.753771
O O4 0.605134 0.000000 0.679145
O O5 0.487785 0.500000 0.634839
O O6 0.573710 0.256221 0.512261
O O7 0.416503 0.250699 0.674125
O O8 0.474783 0.255629 0.717652
O O9 0.185086 0.239156 0.302774
O O10 0.227709 0.264607 0.365834
O O11 0.170256 0.000000 0.395032
O O12 0.211767 0.500000 0.989430
O O13 0.117837 0.260698 0.081732
O O14 0.250000 0.250000 0.000000
O O15 0.258625 0.259252 0.872380
O O16 0.663470 0.500000 0.258287
O O17 0.236575 0.000000 0.604874
O O18 0.050949 0.000000 0.183961
#
# Coordination Sequence:
#
# PCOD8082652 Si02
#       7
#     8   8   8   8   8   8   8
#     4  10  20  34  53  78 106 138 175 213 260 314
#     4   9  16  28  49  77 105 134 172 213 255 305
#     4  10  18  31  54  78 104 140 177 215 259 311
#     4  11  21  35  53  76 105 141 183 224 261 303
#     4   9  18  32  51  76 104 139 183 219 253 306
#     4  10  20  33  51  77 110 139 169 212 263 317
#     4  11  20  33  54  79 107 139 175 218 267 311
#
# _framework density 17.672712000000001
#
# number of rings (size 3 to 8) (size 9 to 14) (size 15 to 20)
#    0.000    2.000    2.857    2.143    0.000    2.857 
#    0.000    1.429    0.000    1.714    0.000    6.000 
#    0.000    0.000    0.000    0.000    0.000    0.000 
#
# Total GULP energy -347263.628087 kJ/mol
# GULP energy per Si atom -12402.272432 kJ/mol
# Density = 1.763249 g / cm^3
# Si number density = 17.672712 Si / 1000 Ang^3
#
#
#
# Elastic Constant Matrix: (Units=GPa)
#
#
# Indices 1 2 3 4 5 6 
#
# 1 134.4753 19.3226 64.4041 0.0201 0.8717 -0.0100
# 2 19.3226 38.9424 20.6188 0.0362 1.8515 -0.0164
# 3 64.4041 20.6188 111.5398 0.0157 4.7250 -0.0183
# 4 0.0201 0.0362 0.0157 22.2613 -0.0178 -3.6618
# 5 0.8717 1.8515 4.7250 -0.0178 28.9144 0.0044
# 6 -0.0100 -0.0164 -0.0183 -3.6618 0.0044 28.4151
#
#
#
# Elastic Compliance Matrix: (Units=1/GPa)
#
#
# Indices 1 2 3 4 5 6 
#
# 1 0.010463 -0.002230 -0.005661 -0.000002 0.000752 -0.000002
# 2 -0.002230 0.028967 -0.004019 -0.000042 -0.001131 0.000008
# 3 -0.005661 -0.004019 0.013049 0.000002 -0.001704 0.000005
# 4 -0.000002 -0.000042 0.000002 0.045894 0.000030 0.005914
# 5 0.000752 -0.001131 -0.001704 0.000030 0.034913 -0.000003
# 6 -0.000002 0.000008 0.000005 0.005914 -0.000003 0.035955
#
#
# Mechanical properties :
#
#
# Convention : Reuss Voigt Hill
#
# Bulk Modulus (GPa) = 34.89299 54.84983 44.87141
# Shear Modulus (GPa) = 24.67726 27.95894 26.31810
#
# Velocity S-wave (km/s) = 3.74083 3.98180 3.86319
# Velocity P-wave (km/s) = 6.20042 7.22797 6.73382
#
# Compressibility (1/GPa) = 0.02865905
#
# Stress axis : x y z
#
# Youngs Moduli (GPa) = 95.57338 34.52164 76.63181
#
# Poissons Ratio (x) = 0.07698 0.43383
# Poissons Ratio (y) = 0.21313 0.30800
# Poissons Ratio (z) = 0.54106 0.13875
#
# Static dielectric constant tensor:
#      x y z
#    x 3.335550 -0.000010 -0.009960 
#    y -0.000010 3.046380 0.000030 
#    z -0.009960 0.000030 3.343280 
# 
# 
# High freq. dielectric constant tensor:
#      x y z
#    x 1.685720 0.000000 -0.009230 
#    y 0.000000 1.665570 0.000000 
#    z -0.009230 0.000000 1.668480 
# 
# From -- ./inp_files/237377.got.cif
#   From: 2010.06.25/outbox.cif.g09.slc.cpg/sg12_119_cif.got.tgz:237377.got - 2010.06.28 00:19:55.
