data_PCOD8082836
_publ_section_title
;
Structure prediction by ZEFSAII (Michael W. Deem and Ramdas Pophale) SiO2 
 PCOD8082836
Probable space group: C 2/M
;
_chemical_formula_sum "Si O2"
_cell_formula_units_Z 48
_cell_length_a 14.045577
_cell_length_b 19.059983
_cell_length_c 9.381698
_cell_angle_alpha 90.000000
_cell_angle_beta 112.816828
_cell_angle_gamma 90.000000
_cell_volume 2315.028584
_symmetry_space_group_name_H-M "C 2/M"
_symmetry_group_IT_number 12
_symmetry_cell_setting 'monoclinic'
loop_
_space_group_symop_operation_xyz
x,y,z
-x,y,-z
-x,-y,-z
x,-y,z
1/2+x,1/2+y,z
1/2-x,1/2+y,-z
1/2-x,1/2-y,-z
1/2+x,1/2-y,z
loop_
_atom_site_type_symbol
_atom_site_label
_atom_site_fract_x
_atom_site_fract_y
_atom_site_fract_z
Si Si1 0.601478 0.851145 0.462126
Si Si2 0.377371 0.500000 0.794332
Si Si3 0.899808 0.714946 0.842904
Si Si4 0.602465 0.500000 0.856887
Si Si5 0.257206 0.880102 0.937595
Si Si6 0.914201 0.500000 0.063019
Si Si7 0.713270 0.351061 0.232301
Si Si8 0.062827 0.500000 0.397424
O O1 0.500000 0.849343 0.500000
O O2 0.579676 0.808606 0.306313
O O3 0.695386 0.822111 0.612735
O O4 0.631193 0.929940 0.425261
O O5 0.479877 0.500000 0.752617
O O6 0.314013 0.428964 0.726515
O O7 0.395781 0.500000 0.972465
O O8 0.883308 0.798319 0.815066
O O9 0.794285 0.679032 0.845456
O O10 0.000000 0.700231 0.000000
O O11 0.657738 0.428087 0.831405
O O12 0.352216 0.930536 0.005770
O O13 0.242914 0.846504 0.083712
O O14 0.963308 0.500000 0.242783
O O15 0.000000 0.500000 0.000000
O O16 0.000000 0.500000 0.500000
#
# Coordination Sequence:
#
# PCOD8082836 Si02
#       8
#     8   4   8   4   8   4   8   4
#     4  11  23  41  61  91 126 160 204 252 316 371
#     4   9  19  39  64  89 120 156 227 250 302 354
#     4  12  25  39  61  92 127 165 205 254 313 372
#     4   8  18  34  63  91 122 165 198 271 295 357
#     4  10  20  36  59  92 126 156 206 250 311 362
#     4  11  19  32  56  90 124 154 184 251 310 367
#     4  11  23  40  64  88 123 166 210 257 305 366
#     4  10  18  31  59  81 111 150 191 233 299 359
#
# _framework density 20.734085
#
# number of rings (size 3 to 8) (size 9 to 14) (size 15 to 20)
#    0.000    1.500    0.000    7.500    4.667    0.667 
#    0.000    0.000    0.000    1.000    0.000    0.000 
#    0.000    0.000    0.000    0.000    0.000    0.000 
#
# Total GULP energy -297324.036116 kJ/mol
# GULP energy per Si atom -12388.501505 kJ/mol
# Density = 2.068689 g / cm^3
# Si number density = 20.734085 Si / 1000 Ang^3
#
#
#
# Elastic Constant Matrix: (Units=GPa)
#
#
# Indices 1 2 3 4 5 6 
#
# 1 98.6768 33.0911 42.9707 0.0000 -8.6033 0.0000
# 2 33.0911 112.9964 34.7209 0.0000 -17.0114 0.0000
# 3 42.9707 34.7209 83.1725 0.0000 -3.9742 0.0000
# 4 0.0000 0.0000 0.0000 24.7940 0.0000 -2.1257
# 5 -8.6033 -17.0114 -3.9742 0.0000 26.8571 0.0000
# 6 0.0000 0.0000 0.0000 -2.1257 0.0000 55.8857
#
#
#
# Elastic Compliance Matrix: (Units=1/GPa)
#
#
# Indices 1 2 3 4 5 6 
#
# 1 0.013620 -0.001729 -0.006203 0.000000 0.002350 0.000000
# 2 -0.001729 0.011372 -0.003562 0.000000 0.006122 0.000000
# 3 -0.006203 -0.003562 0.016629 0.000000 -0.001782 0.000000
# 4 0.000000 0.000000 0.000000 0.040464 0.000000 0.001539
# 5 0.002350 0.006122 -0.001782 0.000000 0.041601 0.000000
# 6 0.000000 0.000000 0.000000 0.001539 0.000000 0.017952
#
#
# Mechanical properties :
#
#
# Convention : Reuss Voigt Hill
#
# Bulk Modulus (GPa) = 53.66180 57.37901 55.52041
# Shear Modulus (GPa) = 29.26766 33.77824 31.52295
#
# Velocity S-wave (km/s) = 3.76117 4.04061 3.90339
# Velocity P-wave (km/s) = 6.69320 7.03580 6.86664
#
# Compressibility (1/GPa) = 0.01863523
#
# Stress axis : x y z
#
# Youngs Moduli (GPa) = 73.42254 87.93329 60.13440
#
# Poissons Ratio (x) = 0.15203 0.37299
# Poissons Ratio (y) = 0.12694 0.21418
# Poissons Ratio (z) = 0.45541 0.31319
#
# Static dielectric constant tensor:
#      x y z
#    x 3.891000 0.000000 -0.022210 
#    y 0.000000 4.183610 0.000000 
#    z -0.022210 0.000000 3.568060 
# 
# 
# High freq. dielectric constant tensor:
#      x y z
#    x 1.809130 0.000000 -0.003630 
#    y 0.000000 1.819350 0.000000 
#    z -0.003630 0.000000 1.793940 
# 
# From -- ./inp_files/63682.got.cif
#   From: 2010.06.25/outbox.cif.g09.slc.cpg/sg12_32_cif.got.tgz:63682.got - 2010.06.28 00:19:55.
