data_PCOD8082449
_publ_section_title
;
Structure prediction by ZEFSAII (Michael W. Deem and Ramdas Pophale) SiO2 
 PCOD8082449
Probable space group: C 2/M
;
_chemical_formula_sum "Si O2"
_cell_formula_units_Z 56
_cell_length_a 31.671201
_cell_length_b 13.175398
_cell_length_c 9.608853
_cell_angle_alpha 90.000000
_cell_angle_beta 49.634125
_cell_angle_gamma 90.000000
_cell_volume 3055.002615
_symmetry_space_group_name_H-M "C 2/M"
_symmetry_group_IT_number 12
_symmetry_cell_setting 'monoclinic'
loop_
_space_group_symop_operation_xyz
x,y,z
-x,y,-z
-x,-y,-z
x,-y,z
1/2+x,1/2+y,z
1/2-x,1/2+y,-z
1/2-x,1/2-y,-z
1/2+x,1/2-y,z
loop_
_atom_site_type_symbol
_atom_site_label
_atom_site_fract_x
_atom_site_fract_y
_atom_site_fract_z
Si Si1 0.817971 0.738443 0.986144
Si Si2 0.408844 0.387213 0.693253
Si Si3 0.002534 0.888561 0.721960
Si Si4 0.616595 0.117740 0.925459
Si Si5 0.882303 0.618625 0.394104
Si Si6 0.500533 0.181233 0.843250
Si Si7 0.782264 0.620867 0.801345
O O1 0.862760 0.801860 0.803953
O O2 0.794427 0.651270 0.935034
O O3 0.842314 0.684479 0.069928
O O4 0.771230 0.817322 0.137348
O O5 0.382048 0.500000 0.757439
O O6 0.452630 0.374662 0.722222
O O7 0.439345 0.373340 0.481055
O O8 0.996546 0.803413 0.852074
O O9 0.000309 0.000000 0.796705
O O10 0.621253 0.160880 0.757065
O O11 0.633369 0.000000 0.901705
O O12 0.553164 0.132211 0.117335
O O13 0.878176 0.500000 0.392209
O O14 0.940388 0.647376 0.347070
O O15 0.832096 0.658581 0.595545
O O16 0.500000 0.138795 0.000000
O O17 0.772254 0.500000 0.814078
#
# Coordination Sequence:
#
# PCOD8082449 Si02
#       7
#     8   8   8   8   8   8   8
#     4  11  20  34  56  77 102 131 170 219 255 293
#     4   9  17  30  49  71  97 132 167 203 248 300
#     4   9  17  29  46  71 102 132 165 202 246 297
#     4  10  20  34  54  79 103 132 172 213 254 303
#     4   9  19  36  54  74 106 140 168 204 253 309
#     4  10  18  31  52  76 104 137 168 204 255 306
#     4  10  22  37  53  76 104 136 171 209 257 305
#
# _framework density 18.330587999999999
#
# number of rings (size 3 to 8) (size 9 to 14) (size 15 to 20)
#    0.000    2.286    1.429    3.000    0.000    2.571 
#    0.000    0.000    0.000    4.286    0.000    0.000 
#    0.000    0.000    0.000    0.000    0.000    0.000 
#
# Total GULP energy -347059.128687 kJ/mol
# GULP energy per Si atom -12394.968882 kJ/mol
# Density = 1.828887 g / cm^3
# Si number density = 18.330588 Si / 1000 Ang^3
#
#
#
# Elastic Constant Matrix: (Units=GPa)
#
#
# Indices 1 2 3 4 5 6 
#
# 1 88.4102 31.0751 41.1668 0.0000 -13.8155 0.0000
# 2 31.0751 72.3677 36.4637 0.0000 -10.4956 0.0000
# 3 41.1668 36.4637 70.3367 0.0000 -18.4272 0.0000
# 4 0.0000 0.0000 0.0000 29.1140 0.0000 -3.8359
# 5 -13.8155 -10.4956 -18.4272 0.0000 26.5147 0.0000
# 6 0.0000 0.0000 0.0000 -3.8359 0.0000 26.2696
#
#
#
# Elastic Compliance Matrix: (Units=1/GPa)
#
#
# Indices 1 2 3 4 5 6 
#
# 1 0.016086 -0.002891 -0.007360 0.000000 0.002122 0.000000
# 2 -0.002891 0.019238 -0.008168 0.000000 0.000432 0.000000
# 3 -0.007360 -0.008168 0.025562 0.000000 0.010697 0.000000
# 4 0.000000 0.000000 0.000000 0.035022 0.000000 0.005114
# 5 0.002122 0.000432 0.010697 0.000000 0.046426 0.000000
# 6 0.000000 0.000000 0.000000 0.005114 0.000000 0.038814
#
#
# Mechanical properties :
#
#
# Convention : Reuss Voigt Hill
#
# Bulk Modulus (GPa) = 41.58430 49.83619 45.71025
# Shear Modulus (GPa) = 22.12388 24.54027 23.33208
#
# Velocity S-wave (km/s) = 3.47787 3.66288 3.57157
# Velocity P-wave (km/s) = 6.23397 6.71829 6.48066
#
# Compressibility (1/GPa) = 0.02404754
#
# Stress axis : x y z
#
# Youngs Moduli (GPa) = 62.16690 51.98036 39.12094
#
# Poissons Ratio (x) = 0.15028 0.28793
# Poissons Ratio (y) = 0.17973 0.31954
# Poissons Ratio (z) = 0.45754 0.42457
#
# Static dielectric constant tensor:
#      x y z
#    x 3.281350 0.000000 -0.187610 
#    y 0.000000 3.423530 0.000000 
#    z -0.187610 0.000000 3.461020 
# 
# 
# High freq. dielectric constant tensor:
#      x y z
#    x 1.698860 0.000000 -0.014780 
#    y 0.000000 1.716870 0.000000 
#    z -0.014780 0.000000 1.698040 
# 
# From -- ./inp_files/111570.got.cif
#   From: 2010.06.25/outbox.cif.g09.slc.cpg/sg12_56_cif.got.tgz:111570.got - 2010.06.28 00:19:55.
