data_PCOD8082108
_publ_section_title
;
Structure prediction by ZEFSAII (Michael W. Deem and Ramdas Pophale) SiO2 
 PCOD8082108
Probable space group: C 2/M
;
_chemical_formula_sum "Si O2"
_cell_formula_units_Z 56
_cell_length_a 27.912960
_cell_length_b 9.679142
_cell_length_c 11.137007
_cell_angle_alpha 90.000000
_cell_angle_beta 86.566666
_cell_angle_gamma 90.000000
_cell_volume 3003.523648
_symmetry_space_group_name_H-M "C 2/M"
_symmetry_group_IT_number 12
_symmetry_cell_setting 'monoclinic'
loop_
_space_group_symop_operation_xyz
x,y,z
-x,y,-z
-x,-y,-z
x,-y,z
1/2+x,1/2+y,z
1/2-x,1/2+y,-z
1/2-x,1/2-y,-z
1/2+x,1/2-y,z
loop_
_atom_site_type_symbol
_atom_site_label
_atom_site_fract_x
_atom_site_fract_y
_atom_site_fract_z
Si Si1 0.130792 0.655799 0.569021
Si Si2 0.772492 0.657958 0.338808
Si Si3 0.022973 0.664788 0.122448
Si Si4 0.474562 0.165081 0.380204
Si Si5 0.213118 0.653058 0.942163
Si Si6 0.370304 0.838777 0.889892
Si Si7 0.816177 0.343147 0.669654
O O1 0.129378 0.500000 0.619573
O O2 0.178416 0.726054 0.618037
O O3 0.079988 0.725668 0.610426
O O4 0.137744 0.659126 0.424673
O O5 0.764870 0.500000 0.387784
O O6 0.778604 0.660397 0.197562
O O7 0.727005 0.752409 0.380377
O O8 0.021898 0.500000 0.121020
O O9 0.076893 0.727428 0.114998
O O10 0.998011 0.717325 0.250622
O O11 0.000000 0.719396 0.000000
O O12 0.500000 0.219001 0.500000
O O13 0.474357 0.000000 0.384177
O O14 0.222601 0.500000 0.991876
O O15 0.250000 0.750000 0.000000
O O16 0.157721 0.692587 0.981671
O O17 0.336078 0.777678 0.790059
O O18 0.377543 0.000000 0.862626
O O19 0.797068 0.500000 0.688905
#
# Coordination Sequence:
#
# PCOD8082108 Si02
#       7
#     8   8   8   8   8   8   8
#     4   9  18  29  44  65  92 125 155 189 237 280
#     4  10  20  31  45  68  98 125 155 194 234 275
#     4   9  17  26  40  63  91 122 154 190 235 284
#     4   9  16  27  42  61  88 122 158 191 228 283
#     4  10  19  31  47  67  95 127 157 191 230 276
#     4   9  17  28  43  63  90 124 156 185 227 278
#     4  10  18  31  49  67  93 128 159 188 227 281
#
# _framework density 18.644766000000001
#
# number of rings (size 3 to 8) (size 9 to 14) (size 15 to 20)
#    0.000    2.571    1.429    1.286    2.000    3.429 
#    0.000    0.000    0.000    0.000    0.000    0.000 
#    0.000   14.857    0.000    0.000    0.000    0.000 
#
# Total GULP energy -346885.880627 kJ/mol
# GULP energy per Si atom -12388.781451 kJ/mol
# Density = 1.860233 g / cm^3
# Si number density = 18.644766 Si / 1000 Ang^3
#
#
#
# Elastic Constant Matrix: (Units=GPa)
#
#
# Indices 1 2 3 4 5 6 
#
# 1 154.7309 26.7017 42.6339 0.0000 -4.7474 0.0000
# 2 26.7017 25.6458 11.5502 0.0000 -1.9723 0.0000
# 3 42.6339 11.5502 77.2801 0.0000 -2.2712 0.0000
# 4 0.0000 0.0000 0.0000 10.0422 0.0000 0.4415
# 5 -4.7474 -1.9723 -2.2712 0.0000 36.7386 0.0000
# 6 0.0000 0.0000 0.0000 0.4415 0.0000 15.4676
#
#
#
# Elastic Compliance Matrix: (Units=1/GPa)
#
#
# Indices 1 2 3 4 5 6 
#
# 1 0.008787 -0.007433 -0.003722 0.000000 0.000506 0.000000
# 2 -0.007433 0.048223 -0.003064 0.000000 0.001439 0.000000
# 3 -0.003722 -0.003064 0.015460 0.000000 0.000310 0.000000
# 4 0.000000 0.000000 0.000000 0.099705 0.000000 -0.002846
# 5 0.000506 0.001439 0.000310 0.000000 0.027381 0.000000
# 6 0.000000 0.000000 0.000000 -0.002846 0.000000 0.064732
#
#
# Mechanical properties :
#
#
# Convention : Reuss Voigt Hill
#
# Bulk Modulus (GPa) = 22.71111 46.60318 34.65715
# Shear Modulus (GPa) = 16.26531 24.23443 20.24987
#
# Velocity S-wave (km/s) = 2.95681 3.60918 3.29916
# Velocity P-wave (km/s) = 4.88512 6.51290 5.75683
#
# Compressibility (1/GPa) = 0.04403131
#
# Stress axis : x y z
#
# Youngs Moduli (GPa) = 113.81062 20.73711 64.68257
#
# Poissons Ratio (x) = 0.15414 0.24072
# Poissons Ratio (y) = 0.84599 0.19820
# Poissons Ratio (z) = 0.42355 0.06354
#
# Static dielectric constant tensor:
#      x y z
#    x 3.672400 0.000000 -0.148790 
#    y 0.000000 2.871770 0.000000 
#    z -0.148790 0.000000 3.413810 
# 
# 
# High freq. dielectric constant tensor:
#      x y z
#    x 1.736340 0.000000 -0.005410 
#    y 0.000000 1.636610 0.000000 
#    z -0.005410 0.000000 1.742850 
# 
# From -- ./inp_files/173932.got.cif
#   From: 2010.06.25/outbox.cif.g09.slc.cpg/sg12_87_cif.got.tgz:173932.got - 2010.06.28 00:19:55.
