data_PCOD8082337
_publ_section_title
;
Structure prediction by ZEFSAII (Michael W. Deem and Ramdas Pophale) SiO2 
 PCOD8082337
Probable space group: C 2/M
;
_chemical_formula_sum "Si O2"
_cell_formula_units_Z 56
_cell_length_a 19.817191
_cell_length_b 9.134184
_cell_length_c 31.043971
_cell_angle_alpha 90.000000
_cell_angle_beta 149.383099
_cell_angle_gamma 90.000000
_cell_volume 2861.928523
_symmetry_space_group_name_H-M "C 2/M"
_symmetry_group_IT_number 12
_symmetry_cell_setting 'monoclinic'
loop_
_space_group_symop_operation_xyz
x,y,z
-x,y,-z
-x,-y,-z
x,-y,z
1/2+x,1/2+y,z
1/2-x,1/2+y,-z
1/2-x,1/2-y,-z
1/2+x,1/2-y,z
loop_
_atom_site_type_symbol
_atom_site_label
_atom_site_fract_x
_atom_site_fract_y
_atom_site_fract_z
Si Si1 0.002542 0.672451 0.099121
Si Si2 0.228353 0.668888 0.733928
Si Si3 0.923228 0.167706 0.134414
Si Si4 0.146567 0.671514 0.593496
Si Si5 0.696021 0.163962 0.078018
Si Si6 0.393291 0.174173 0.700659
Si Si7 0.618071 0.832492 0.761579
O O1 0.995361 0.500000 0.104842
O O2 0.150413 0.729539 0.185942
O O3 0.903817 0.757756 0.077304
O O4 0.949810 0.703870 0.021096
O O5 0.274871 0.500000 0.758869
O O6 0.167552 0.715909 0.654933
O O7 0.115480 0.692233 0.708710
O O8 0.790619 0.179538 0.088653
O O9 0.043620 0.257621 0.221848
O O10 0.969574 0.000000 0.154646
O O11 0.168586 0.500000 0.598001
O O12 0.246102 0.758988 0.616602
O O13 0.000000 0.720607 0.500000
O O14 0.747787 0.263192 0.145140
O O15 0.697088 0.000000 0.097081
O O16 0.482064 0.227585 0.708366
O O17 0.384799 0.000000 0.699643
O O18 0.629039 0.000000 0.780556
#
# Coordination Sequence:
#
# PCOD8082337 Si02
#       7
#     8   8   8   8   8   8   8
#     4  11  21  32  49  77 111 144 184 231 276 314
#     4  10  21  38  57  78 108 146 184 222 272 329
#     4  10  18  31  51  75 106 145 186 224 268 323
#     4  10  21  38  61  86 110 139 178 222 271 332
#     4   9  20  34  49  74 109 148 186 227 270 317
#     4  10  19  34  57  83 110 140 178 226 274 320
#     4   9  20  37  56  78 108 148 188 224 265 319
#
# _framework density 19.567225000000001
#
# number of rings (size 3 to 8) (size 9 to 14) (size 15 to 20)
#    0.000    2.143    1.429    1.714    0.000    3.714 
#    0.000    3.571    0.000    0.000    0.000    0.000 
#    0.000    0.000    0.000    0.000    0.000    0.000 
#
# Total GULP energy -347110.090344 kJ/mol
# GULP energy per Si atom -12396.788941 kJ/mol
# Density = 1.952269 g / cm^3
# Si number density = 19.567225 Si / 1000 Ang^3
#
#
#
# Elastic Constant Matrix: (Units=GPa)
#
#
# Indices 1 2 3 4 5 6 
#
# 1 72.9859 28.9700 42.4779 0.0000 -8.5031 0.0000
# 2 28.9700 67.9228 36.5984 0.0001 5.8613 -0.0003
# 3 42.4779 36.5984 111.4739 0.0001 11.5986 0.0000
# 4 0.0000 0.0001 0.0001 27.0710 0.0000 4.8408
# 5 -8.5031 5.8613 11.5986 0.0000 20.0460 0.0000
# 6 0.0000 -0.0003 0.0000 4.8408 0.0000 23.2680
#
#
#
# Elastic Compliance Matrix: (Units=1/GPa)
#
#
# Indices 1 2 3 4 5 6 
#
# 1 0.023210 -0.006849 -0.008330 0.000000 0.016667 0.000000
# 2 -0.006849 0.019980 -0.003234 0.000000 -0.006876 0.000000
# 3 -0.008330 -0.003234 0.014339 0.000000 -0.010884 0.000000
# 4 0.000000 0.000000 0.000000 0.038367 0.000000 -0.007982
# 5 0.016667 -0.006876 -0.010884 0.000000 0.065263 0.000000
# 6 0.000000 0.000000 0.000000 -0.007982 0.000000 0.044638
#
#
# Mechanical properties :
#
#
# Convention : Reuss Voigt Hill
#
# Bulk Modulus (GPa) = 48.30399 52.05280 50.17840
# Shear Modulus (GPa) = 20.03810 23.69941 21.86876
#
# Velocity S-wave (km/s) = 3.20357 3.48398 3.34671
# Velocity P-wave (km/s) = 6.19868 6.54552 6.37446
#
# Compressibility (1/GPa) = 0.02070222
#
# Stress axis : x y z
#
# Youngs Moduli (GPa) = 43.08561 50.05010 69.73934
#
# Poissons Ratio (x) = 0.34281 0.58090
# Poissons Ratio (y) = 0.29511 0.22556
# Poissons Ratio (z) = 0.35889 0.16188
#
# Static dielectric constant tensor:
#      x y z
#    x 3.748890 0.000000 0.022080 
#    y 0.000000 3.530800 0.000000 
#    z 0.022080 0.000000 3.433780 
# 
# 
# High freq. dielectric constant tensor:
#      x y z
#    x 1.771650 0.000000 0.003790 
#    y 0.000000 1.759530 0.000000 
#    z 0.003790 0.000000 1.737040 
# 
# From -- ./inp_files/329549.got.cif
#   From: 2010.06.25/outbox.cif.g09.slc.cpg/sg12_165_cif.got.tgz:329549.got - 2010.06.28 00:19:55.
