data_PCOD8082730
_publ_section_title
;
Structure prediction by ZEFSAII (Michael W. Deem and Ramdas Pophale) SiO2 
 PCOD8082730
Probable space group: C 2/M
;
_chemical_formula_sum "Si O2"
_cell_formula_units_Z 64
_cell_length_a 29.305846
_cell_length_b 9.085629
_cell_length_c 14.272532
_cell_angle_alpha 90.000000
_cell_angle_beta 121.415134
_cell_angle_gamma 90.000000
_cell_volume 3243.169279
_symmetry_space_group_name_H-M "C 2/M"
_symmetry_group_IT_number 12
_symmetry_cell_setting 'monoclinic'
loop_
_space_group_symop_operation_xyz
x,y,z
-x,y,-z
-x,-y,-z
x,-y,z
1/2+x,1/2+y,z
1/2-x,1/2+y,-z
1/2-x,1/2-y,-z
1/2+x,1/2-y,z
loop_
_atom_site_type_symbol
_atom_site_label
_atom_site_fract_x
_atom_site_fract_y
_atom_site_fract_z
Si Si1 0.605131 0.332878 0.277400
Si Si2 0.801906 0.675212 0.513890
Si Si3 0.668684 0.825333 0.661031
Si Si4 0.946508 0.664773 0.477034
Si Si5 0.595125 0.830167 0.888566
Si Si6 0.299127 0.174352 0.102659
Si Si7 0.979906 0.661504 0.718349
Si Si8 0.558448 0.331389 0.033212
O O1 0.617609 0.500000 0.321577
O O2 0.647839 0.224736 0.369978
O O3 0.545236 0.287859 0.244282
O O4 0.602932 0.318233 0.162924
O O5 0.796852 0.500000 0.514567
O O6 0.750000 0.750000 0.500000
O O7 0.806004 0.729780 0.409814
O O8 0.608947 0.757010 0.611160
O O9 0.702639 0.779649 0.788884
O O10 0.661998 0.000000 0.647270
O O11 0.948108 0.500000 0.434409
O O12 0.946158 0.658594 0.588006
O O13 0.000000 0.751185 0.500000
O O14 0.646278 0.767324 0.887236
O O15 0.542631 0.804675 0.767597
O O16 0.605338 0.000000 0.921120
O O17 0.585534 0.752727 0.976873
O O18 0.293901 0.000000 0.087446
O O19 0.250000 0.250000 0.000000
O O20 0.974829 0.500000 0.761453
O O21 0.549873 0.500000 0.994355
O O22 0.500000 0.265639 0.000000
#
# Coordination Sequence:
#
# PCOD8082730 Si02
#       8
#     8   8   8   8   8   8   8   8
#     4  11  22  37  57  82 115 156 196 238 287 344
#     4  11  23  41  63  89 118 153 197 242 291 344
#     4   9  18  35  59  84 113 148 188 232 279 341
#     4   9  15  26  51  85 113 141 180 225 278 343
#     4  10  21  35  57  89 119 147 192 252 301 341
#     4  10  22  41  61  85 115 151 196 243 288 340
#     4  10  18  31  54  85 116 146 184 236 294 349
#     4  10  21  37  56  81 117 162 203 237 286 356
#
# _framework density 19.733782999999999
#
# number of rings (size 3 to 8) (size 9 to 14) (size 15 to 20)
#    0.000    2.000    2.500    1.500    0.000    5.750 
#    0.000    5.000    0.000    0.375    0.000    0.000 
#    0.000    0.000    0.000    0.000    0.000    0.000 
#
# Total GULP energy -396608.153368 kJ/mol
# GULP energy per Si atom -12394.004793 kJ/mol
# Density = 1.968887 g / cm^3
# Si number density = 19.733783 Si / 1000 Ang^3
#
#
#
# Elastic Constant Matrix: (Units=GPa)
#
#
# Indices 1 2 3 4 5 6 
#
# 1 127.8899 33.0412 55.9480 0.0000 4.9567 0.0000
# 2 33.0412 48.7079 32.9867 0.0000 0.5839 0.0000
# 3 55.9480 32.9867 129.5765 0.0000 6.7926 0.0000
# 4 0.0000 0.0000 0.0000 27.6158 0.0000 4.8745
# 5 4.9567 0.5839 6.7926 0.0000 30.5913 0.0000
# 6 0.0000 0.0000 0.0000 4.8745 0.0000 25.8544
#
#
#
# Elastic Compliance Matrix: (Units=1/GPa)
#
#
# Indices 1 2 3 4 5 6 
#
# 1 0.010554 -0.004947 -0.003251 0.000000 -0.000894 0.000000
# 2 -0.004947 0.027153 -0.004848 0.000000 0.001360 0.000000
# 3 -0.003251 -0.004848 0.010444 0.000000 -0.001700 0.000000
# 4 0.000000 0.000000 0.000000 0.037458 0.000000 -0.007062
# 5 -0.000894 0.001360 -0.001700 0.000000 0.033185 0.000000
# 6 0.000000 0.000000 0.000000 -0.007062 0.000000 0.040010
#
#
# Mechanical properties :
#
#
# Convention : Reuss Voigt Hill
#
# Bulk Modulus (GPa) = 45.33019 61.12513 53.22766
# Shear Modulus (GPa) = 26.00794 29.09218 27.55006
#
# Velocity S-wave (km/s) = 3.63428 3.84374 3.74048
# Velocity P-wave (km/s) = 6.37428 7.12329 6.75916
#
# Compressibility (1/GPa) = 0.02206036
#
# Stress axis : x y z
#
# Youngs Moduli (GPa) = 94.74978 36.82801 95.74664
#
# Poissons Ratio (x) = 0.18220 0.31125
# Poissons Ratio (y) = 0.46875 0.46415
# Poissons Ratio (z) = 0.30801 0.17853
#
# Static dielectric constant tensor:
#      x y z
#    x 3.717020 0.000000 0.019370 
#    y 0.000000 3.290760 0.000000 
#    z 0.019370 0.000000 3.697040 
# 
# 
# High freq. dielectric constant tensor:
#      x y z
#    x 1.770580 0.000000 0.000900 
#    y 0.000000 1.730220 0.000000 
#    z 0.000900 0.000000 1.779930 
# 
# From -- ./inp_files/249218.got.cif
#   From: 2010.06.25/outbox.cif.g09.slc.cpg/sg12_125_cif.got.tgz:249218.got - 2010.06.28 00:19:55.
