data_PCOD8082725
_publ_section_title
;
Structure prediction by ZEFSAII (Michael W. Deem and Ramdas Pophale) SiO2 
 PCOD8082725
Probable space group: C 2/M
;
_chemical_formula_sum "Si O2"
_cell_formula_units_Z 40
_cell_length_a 28.867346
_cell_length_b 10.530762
_cell_length_c 10.976912
_cell_angle_alpha 90.000000
_cell_angle_beta 139.707159
_cell_angle_gamma 90.000000
_cell_volume 2157.972928
_symmetry_space_group_name_H-M "C 2/M"
_symmetry_group_IT_number 12
_symmetry_cell_setting 'monoclinic'
loop_
_space_group_symop_operation_xyz
x,y,z
-x,y,-z
-x,-y,-z
x,-y,z
1/2+x,1/2+y,z
1/2-x,1/2+y,-z
1/2-x,1/2-y,-z
1/2+x,1/2-y,z
loop_
_atom_site_type_symbol
_atom_site_label
_atom_site_fract_x
_atom_site_fract_y
_atom_site_fract_z
Si Si1 0.468219 0.644341 0.566723
Si Si2 0.617026 0.357514 0.951907
Si Si3 0.760502 0.143616 0.622209
Si Si4 0.179242 0.729231 0.687663
Si Si5 0.690917 0.136470 0.967649
O O1 0.500000 0.688449 0.500000
O O2 0.440672 0.500000 0.501558
O O3 0.531284 0.656912 0.794982
O O4 0.403733 0.732279 0.482434
O O5 0.634206 0.500000 0.936644
O O6 0.640545 0.254501 0.899608
O O7 0.659482 0.335211 0.162870
O O8 0.750000 0.250000 0.500000
O O9 0.699797 0.159795 0.603428
O O10 0.754122 0.000000 0.555815
O O11 0.196460 0.632927 0.832436
O O12 0.231172 0.850243 0.812996
O O13 0.659526 0.000000 0.947638
#
# Coordination Sequence:
#
# PCOD8082725 Si02
#       5
#     8   8   8   8   8
#     4  10  18  31  54  84 116 148 179 214 266 332
#     4   9  19  36  56  81 113 143 176 224 271 318
#     4  10  22  40  60  79 105 143 190 236 274 314
#     4  10  20  33  53  80 113 144 178 225 273 320
#     4  10  19  31  52  82 112 143 177 216 270 331
#
# _framework density 18.535914999999999
#
# number of rings (size 3 to 8) (size 9 to 14) (size 15 to 20)
#    0.000    2.200    2.000    1.200    0.000    8.800 
#    0.000    4.000    0.000    4.800    0.000    0.000 
#    0.000    0.000    0.000    0.000    0.000    0.000 
#
# Total GULP energy -247834.059808 kJ/mol
# GULP energy per Si atom -12391.702990 kJ/mol
# Density = 1.849373 g / cm^3
# Si number density = 18.535915 Si / 1000 Ang^3
#
#
#
# Elastic Constant Matrix: (Units=GPa)
#
#
# Indices 1 2 3 4 5 6 
#
# 1 58.7900 37.6551 42.6327 0.0000 3.5259 0.0000
# 2 37.6551 128.8835 45.3677 0.0000 -4.6077 0.0000
# 3 42.6327 45.3677 107.6715 0.0000 15.0845 0.0000
# 4 0.0000 0.0000 0.0000 10.1166 0.0000 2.1904
# 5 3.5259 -4.6077 15.0845 0.0000 35.0840 0.0000
# 6 0.0000 0.0000 0.0000 2.1904 0.0000 26.8073
#
#
#
# Elastic Compliance Matrix: (Units=1/GPa)
#
#
# Indices 1 2 3 4 5 6 
#
# 1 0.026062 -0.004636 -0.008421 0.000000 0.000392 0.000000
# 2 -0.004636 0.010248 -0.002911 0.000000 0.003064 0.000000
# 3 -0.008421 -0.002911 0.014667 0.000000 -0.005842 0.000000
# 4 0.000000 0.000000 0.000000 0.100627 0.000000 -0.008222
# 5 0.000392 0.003064 -0.005842 0.000000 0.031378 0.000000
# 6 0.000000 0.000000 0.000000 -0.008222 0.000000 0.037975
#
#
# Mechanical properties :
#
#
# Convention : Reuss Voigt Hill
#
# Bulk Modulus (GPa) = 52.52105 60.73955 56.63030
# Shear Modulus (GPa) = 19.28708 25.71422 22.50065
#
# Velocity S-wave (km/s) = 3.22922 3.72864 3.48788
# Velocity P-wave (km/s) = 6.50385 7.16776 6.84386
#
# Compressibility (1/GPa) = 0.01903998
#
# Stress axis : x y z
#
# Youngs Moduli (GPa) = 38.36974 97.58135 68.18032
#
# Poissons Ratio (x) = 0.45241 0.57414
# Poissons Ratio (y) = 0.17789 0.19850
# Poissons Ratio (z) = 0.32311 0.28410
#
# Static dielectric constant tensor:
#      x y z
#    x 3.043700 0.000000 0.153590 
#    y 0.000000 3.353720 0.000000 
#    z 0.153590 0.000000 3.526950 
# 
# 
# High freq. dielectric constant tensor:
#      x y z
#    x 1.677880 0.000000 0.013080 
#    y 0.000000 1.719870 0.000000 
#    z 0.013080 0.000000 1.720720 
# 
# From -- ./inp_files/187004.got.cif
#   From: 2010.06.25/outbox.cif.g09.slc.cpg/sg12_94_cif.got.tgz:187004.got - 2010.06.28 00:19:55.
