data_PCOD8082089
_publ_section_title
;
Structure prediction by ZEFSAII (Michael W. Deem and Ramdas Pophale) SiO2 
 PCOD8082089
Probable space group: C 2/M
;
_chemical_formula_sum "Si O2"
_cell_formula_units_Z 56
_cell_length_a 17.612145
_cell_length_b 23.458693
_cell_length_c 7.241912
_cell_angle_alpha 90.000000
_cell_angle_beta 92.121635
_cell_angle_gamma 90.000000
_cell_volume 2990.002078
_symmetry_space_group_name_H-M "C 2/M"
_symmetry_group_IT_number 12
_symmetry_cell_setting 'monoclinic'
loop_
_space_group_symop_operation_xyz
x,y,z
-x,y,-z
-x,-y,-z
x,-y,z
1/2+x,1/2+y,z
1/2-x,1/2+y,-z
1/2-x,1/2-y,-z
1/2+x,1/2-y,z
loop_
_atom_site_type_symbol
_atom_site_label
_atom_site_fract_x
_atom_site_fract_y
_atom_site_fract_z
Si Si1 0.431055 0.767289 0.606405
Si Si2 0.674360 0.721192 0.135268
Si Si3 0.476929 0.116450 0.785792
Si Si4 0.711049 0.171553 0.571095
Si Si5 0.126692 0.563904 0.688773
Si Si6 0.671718 0.936957 0.116499
Si Si7 0.237520 0.829802 0.815506
O O1 0.500000 0.738245 0.500000
O O2 0.402235 0.719207 0.750251
O O3 0.468120 0.819547 0.717943
O O4 0.361344 0.787494 0.470012
O O5 0.745850 0.691124 0.242313
O O6 0.693314 0.788520 0.110142
O O7 0.664773 0.689758 0.934275
O O8 0.540129 0.086182 0.663054
O O9 0.397158 0.082977 0.755428
O O10 0.500000 0.116874 0.000000
O O11 0.683984 0.106080 0.586839
O O12 0.771148 0.177763 0.406049
O O13 0.134611 0.500000 0.607137
O O14 0.145192 0.563263 0.905173
O O15 0.743168 0.895238 0.142871
O O16 0.697507 0.000000 0.179741
#
# Coordination Sequence:
#
# PCOD8082089 Si02
#       7
#     8   8   8   8   8   8   8
#     4  11  20  34  50  75  98 134 181 217 259 314
#     4  10  21  36  53  70 101 133 174 224 264 304
#     4  10  19  32  47  69 106 142 182 214 248 293
#     4  11  20  35  53  74 101 135 178 219 259 303
#     4  10  20  32  49  71 106 146 178 212 254 297
#     4  10  18  31  48  71 103 140 179 216 252 303
#     4  10  19  32  52  71  93 130 177 209 264 305
#
# _framework density 18.729082999999999
#
# number of rings (size 3 to 8) (size 9 to 14) (size 15 to 20)
#    0.000    1.714    5.714    2.143    0.000    2.286 
#    2.571    0.714    0.000    0.000    0.000    0.000 
#    0.000    2.286    0.000    7.000    0.000    0.286 
#
# Total GULP energy -347032.875031 kJ/mol
# GULP energy per Si atom -12394.031251 kJ/mol
# Density = 1.868645 g / cm^3
# Si number density = 18.729083 Si / 1000 Ang^3
#
#
#
# Elastic Constant Matrix: (Units=GPa)
#
#
# Indices 1 2 3 4 5 6 
#
# 1 58.9589 32.2966 35.4430 0.0000 -30.1222 0.0000
# 2 32.2966 80.8848 23.3568 0.0000 -18.9476 0.0000
# 3 35.4430 23.3568 65.0658 0.0000 -29.7376 0.0000
# 4 0.0000 0.0000 0.0000 25.7152 0.0000 -3.7311
# 5 -30.1222 -18.9476 -29.7376 0.0000 36.3167 0.0000
# 6 0.0000 0.0000 0.0000 -3.7311 0.0000 23.5874
#
#
#
# Elastic Compliance Matrix: (Units=1/GPa)
#
#
# Indices 1 2 3 4 5 6 
#
# 1 0.035595 -0.007430 -0.007991 0.000000 0.019103 0.000000
# 2 -0.007430 0.015942 -0.001104 0.000000 0.001251 0.000000
# 3 -0.007991 -0.001104 0.026889 0.000000 0.014814 0.000000
# 4 0.000000 0.000000 0.000000 0.039801 0.000000 0.006296
# 5 0.019103 0.001251 0.014814 0.000000 0.056163 0.000000
# 6 0.000000 0.000000 0.000000 0.006296 0.000000 0.043391
#
#
# Mechanical properties :
#
#
# Convention : Reuss Voigt Hill
#
# Bulk Modulus (GPa) = 22.03830 43.01137 32.52484
# Shear Modulus (GPa) = 18.80012 24.71139 21.75576
#
# Velocity S-wave (km/s) = 3.17171 3.63631 3.41193
# Velocity P-wave (km/s) = 5.02050 6.37536 5.73806
#
# Compressibility (1/GPa) = 0.04537554
#
# Stress axis : x y z
#
# Youngs Moduli (GPa) = 28.09389 62.72840 37.19054
#
# Poissons Ratio (x) = 0.46608 0.29720
# Poissons Ratio (y) = 0.20874 0.04104
# Poissons Ratio (z) = 0.22450 0.06922
#
# Static dielectric constant tensor:
#      x y z
#    x 3.262030 0.000000 -0.395210 
#    y 0.000000 3.495930 0.000000 
#    z -0.395210 0.000000 3.733720 
# 
# 
# High freq. dielectric constant tensor:
#      x y z
#    x 1.670540 0.000000 -0.021380 
#    y 0.000000 1.706400 0.000000 
#    z -0.021380 0.000000 1.752590 
# 
# From -- ./inp_files/78470.got.cif
#   From: 2010.06.25/outbox.cif.g09.slc.cpg/sg12_40_cif.got.tgz:78470.got - 2010.06.28 00:19:55.
