data_PCOD8082495
_publ_section_title
;
Structure prediction by ZEFSAII (Michael W. Deem and Ramdas Pophale) SiO2 
 PCOD8082495
Probable space group: C 2/M
;
_chemical_formula_sum "Si O2"
_cell_formula_units_Z 56
_cell_length_a 22.928224
_cell_length_b 17.373686
_cell_length_c 10.521782
_cell_angle_alpha 90.000000
_cell_angle_beta 138.913543
_cell_angle_gamma 90.000000
_cell_volume 2754.528860
_symmetry_space_group_name_H-M "C 2/M"
_symmetry_group_IT_number 12
_symmetry_cell_setting 'monoclinic'
loop_
_space_group_symop_operation_xyz
x,y,z
-x,y,-z
-x,-y,-z
x,-y,z
1/2+x,1/2+y,z
1/2-x,1/2+y,-z
1/2-x,1/2-y,-z
1/2+x,1/2-y,z
loop_
_atom_site_type_symbol
_atom_site_label
_atom_site_fract_x
_atom_site_fract_y
_atom_site_fract_z
Si Si1 0.128146 0.827202 0.477116
Si Si2 0.710102 0.089297 0.349571
Si Si3 0.403056 0.138004 0.327299
Si Si4 0.105568 0.650687 0.410954
Si Si5 0.462538 0.412327 0.296579
Si Si6 0.590144 0.911700 0.923431
Si Si7 0.837464 0.795231 0.188336
O O1 0.195546 0.868267 0.490969
O O2 0.116154 0.741256 0.405950
O O3 0.174614 0.831134 0.691867
O O4 0.034783 0.873196 0.322428
O O5 0.659506 0.102295 0.397797
O O6 0.728914 0.000000 0.359655
O O7 0.650566 0.121566 0.135463
O O8 0.500000 0.100847 0.500000
O O9 0.355109 0.125296 0.385068
O O10 0.358221 0.098723 0.128760
O O11 0.413347 0.229699 0.320280
O O12 0.000980 0.635182 0.229147
O O13 0.500000 0.411167 0.500000
O O14 0.442585 0.500000 0.219658
O O15 0.371164 0.361722 0.146155
O O16 0.567955 0.000000 0.913462
O O17 0.750000 0.750000 0.000000
#
# Coordination Sequence:
#
# PCOD8082495 Si02
#       7
#     8   8   8   8   8   8   8
#     4  10  20  34  53  75 104 143 185 222 263 321
#     4  11  22  35  53  80 111 140 178 230 280 324
#     4   9  18  33  52  76 106 142 177 212 261 324
#     4  10  20  34  53  77 108 147 184 219 270 330
#     4   9  17  31  52  77 106 140 176 218 269 319
#     4  10  20  34  54  81 111 139 173 224 280 326
#     4  10  18  31  52  78 108 137 174 220 265 315
#
# _framework density 20.330155999999999
#
# number of rings (size 3 to 8) (size 9 to 14) (size 15 to 20)
#    0.000    2.143    0.000    5.571    0.000    4.857 
#    0.000    0.714    0.000    1.714    0.000    0.000 
#    0.000   17.143    0.000    0.000    0.000    0.000 
#
# Total GULP energy -347009.165681 kJ/mol
# GULP energy per Si atom -12393.184489 kJ/mol
# Density = 2.028388 g / cm^3
# Si number density = 20.330156 Si / 1000 Ang^3
#
#
#
# Elastic Constant Matrix: (Units=GPa)
#
#
# Indices 1 2 3 4 5 6 
#
# 1 105.6389 32.2264 41.7939 0.0000 -3.4067 0.0000
# 2 32.2264 83.8635 34.5452 0.0000 7.3157 0.0000
# 3 41.7939 34.5452 61.0425 0.0000 2.9480 0.0000
# 4 0.0000 0.0000 0.0000 24.6052 0.0000 2.4741
# 5 -3.4067 7.3157 2.9480 0.0000 28.4682 0.0000
# 6 0.0000 0.0000 0.0000 2.4741 0.0000 33.6237
#
#
#
# Elastic Compliance Matrix: (Units=1/GPa)
#
#
# Indices 1 2 3 4 5 6 
#
# 1 0.013421 -0.002051 -0.008172 0.000000 0.002979 0.000000
# 2 -0.002051 0.016139 -0.007555 0.000000 -0.003610 0.000000
# 3 -0.008172 -0.007555 0.026338 0.000000 -0.001764 0.000000
# 4 0.000000 0.000000 0.000000 0.040945 0.000000 -0.003013
# 5 0.002979 -0.003610 -0.001764 0.000000 0.036594 0.000000
# 6 0.000000 0.000000 0.000000 -0.003013 0.000000 0.029963
#
#
# Mechanical properties :
#
#
# Convention : Reuss Voigt Hill
#
# Bulk Modulus (GPa) = 49.15911 51.96397 50.56154
# Shear Modulus (GPa) = 24.30292 26.80472 25.55382
#
# Velocity S-wave (km/s) = 3.46122 3.63502 3.54918
# Velocity P-wave (km/s) = 6.34085 6.57520 6.45909
#
# Compressibility (1/GPa) = 0.02034211
#
# Stress axis : x y z
#
# Youngs Moduli (GPa) = 74.50934 61.96073 37.96795
#
# Poissons Ratio (x) = 0.12708 0.31028
# Poissons Ratio (y) = 0.15281 0.28685
# Poissons Ratio (z) = 0.60891 0.46811
#
# Static dielectric constant tensor:
#      x y z
#    x 3.712490 0.000000 -0.079960 
#    y 0.000000 3.782700 0.000000 
#    z -0.079960 0.000000 3.490330 
# 
# 
# High freq. dielectric constant tensor:
#      x y z
#    x 1.789770 0.000000 0.006290 
#    y 0.000000 1.798210 0.000000 
#    z 0.006290 0.000000 1.761570 
# 
# From -- ./inp_files/177184.got.cif
#   From: 2010.06.25/outbox.cif.g09.slc.cpg/sg12_89_cif.got.tgz:177184.got - 2010.06.28 00:19:55.
