data_PCOD8082971
_publ_section_title
;
Structure prediction by ZEFSAII (Michael W. Deem and Ramdas Pophale) SiO2 
 PCOD8082971
Probable space group: C 2/M
;
_chemical_formula_sum "Si O2"
_cell_formula_units_Z 56
_cell_length_a 20.238791
_cell_length_b 13.314614
_cell_length_c 12.273360
_cell_angle_alpha 90.000000
_cell_angle_beta 113.042766
_cell_angle_gamma 90.000000
_cell_volume 3043.441519
_symmetry_space_group_name_H-M "C 2/M"
_symmetry_group_IT_number 12
_symmetry_cell_setting 'monoclinic'
loop_
_space_group_symop_operation_xyz
x,y,z
-x,y,-z
-x,-y,-z
x,-y,z
1/2+x,1/2+y,z
1/2-x,1/2+y,-z
1/2-x,1/2-y,-z
1/2+x,1/2-y,z
loop_
_atom_site_type_symbol
_atom_site_label
_atom_site_fract_x
_atom_site_fract_y
_atom_site_fract_z
Si Si1 0.934554 0.115951 0.263410
Si Si2 0.202386 0.887962 0.684088
Si Si3 0.327716 0.296102 0.547701
Si Si4 0.936147 0.203194 0.031550
Si Si5 0.844479 0.737604 0.787140
Si Si6 0.482670 0.885213 0.823730
Si Si7 0.529093 0.793117 0.403598
O O1 0.862218 0.145882 0.279630
O O2 0.922134 0.135080 0.127316
O O3 0.999244 0.182595 0.352110
O O4 0.954781 0.000000 0.296037
O O5 0.175655 0.888119 0.539987
O O6 0.266401 0.810793 0.747651
O O7 0.227944 0.000000 0.729088
O O8 0.250000 0.250000 0.500000
O O9 0.348153 0.317853 0.687973
O O10 0.384702 0.215835 0.536079
O O11 0.958179 0.317336 0.077358
O O12 0.863728 0.205521 0.911841
O O13 0.000000 0.155035 0.000000
O O14 0.902772 0.650709 0.802707
O O15 0.494471 0.874492 0.701372
O O16 0.494079 0.000000 0.866551
O O17 0.500000 0.831357 0.500000
#
# Coordination Sequence:
#
# PCOD8082971 Si02
#       7
#     8   8   8   8   8   8   8
#     4  10  21  34  51  77 104 133 173 217 255 299
#     4  10  19  31  50  76 101 129 171 216 256 302
#     4   9  18  33  50  73 100 132 166 207 255 302
#     4   9  19  35  52  73 101 133 171 211 256 309
#     4   9  18  32  52  72  99 136 168 205 259 308
#     4   9  18  31  50  77 101 126 166 211 255 305
#     4  10  18  32  52  73 104 135 167 208 254 310
#
# _framework density 18.400223
#
# number of rings (size 3 to 8) (size 9 to 14) (size 15 to 20)
#    0.000    2.571    1.429    1.286    0.000    5.143 
#    0.000    0.714    0.000    0.000    0.000    0.000 
#    0.000    0.000    0.000    0.000    0.000    0.000 
#
# Total GULP energy -346991.479104 kJ/mol
# GULP energy per Si atom -12392.552825 kJ/mol
# Density = 1.835834 g / cm^3
# Si number density = 18.400223 Si / 1000 Ang^3
#
#
#
# Elastic Constant Matrix: (Units=GPa)
#
#
# Indices 1 2 3 4 5 6 
#
# 1 98.1890 17.3854 42.5373 0.0000 -7.8489 0.0000
# 2 17.3854 41.7158 7.9346 0.0000 -2.4158 0.0000
# 3 42.5373 7.9346 107.5373 0.0000 -9.3566 0.0000
# 4 0.0000 0.0000 0.0000 14.3457 0.0000 -1.3410
# 5 -7.8489 -2.4158 -9.3566 0.0000 32.7623 0.0000
# 6 0.0000 0.0000 0.0000 -1.3410 0.0000 10.9700
#
#
#
# Elastic Compliance Matrix: (Units=1/GPa)
#
#
# Indices 1 2 3 4 5 6 
#
# 1 0.013152 -0.004494 -0.004743 0.000000 0.001465 0.000000
# 2 -0.004494 0.025904 -0.000063 0.000000 0.000816 0.000000
# 3 -0.004743 -0.000063 0.011363 0.000000 0.002104 0.000000
# 4 0.000000 0.000000 0.000000 0.070513 0.000000 0.008620
# 5 0.001465 0.000816 0.002104 0.000000 0.031535 0.000000
# 6 0.000000 0.000000 0.000000 0.008620 0.000000 0.092212
#
#
# Mechanical properties :
#
#
# Convention : Reuss Voigt Hill
#
# Bulk Modulus (GPa) = 31.42813 42.57299 37.00056
# Shear Modulus (GPa) = 18.25581 23.58793 20.92187
#
# Velocity S-wave (km/s) = 3.15326 3.58430 3.37567
# Velocity P-wave (km/s) = 5.51133 6.34957 5.94524
#
# Compressibility (1/GPa) = 0.03181863
#
# Stress axis : x y z
#
# Youngs Moduli (GPa) = 76.03277 38.60429 88.00416
#
# Poissons Ratio (x) = 0.17350 0.41744
# Poissons Ratio (y) = 0.34171 0.00551
# Poissons Ratio (z) = 0.36066 0.00242
#
# Static dielectric constant tensor:
#      x y z
#    x 3.442890 0.000000 -0.146250 
#    y 0.000000 2.992850 0.000000 
#    z -0.146250 0.000000 3.806500 
# 
# 
# High freq. dielectric constant tensor:
#      x y z
#    x 1.715970 0.000000 -0.008660 
#    y 0.000000 1.669250 0.000000 
#    z -0.008660 0.000000 1.731020 
# 
# From -- ./inp_files/156150.got.cif
#   From: 2010.06.25/outbox.cif.g09.slc.cpg/sg12_79_cif.got.tgz:156150.got - 2010.06.28 00:19:55.
