data_PCOD8082065
_publ_section_title
;
Structure prediction by ZEFSAII (Michael W. Deem and Ramdas Pophale) SiO2 
 PCOD8082065
Probable space group: C 2/M
;
_chemical_formula_sum "Si O2"
_cell_formula_units_Z 64
_cell_length_a 28.308749
_cell_length_b 8.793981
_cell_length_c 20.863484
_cell_angle_alpha 90.000000
_cell_angle_beta 44.240243
_cell_angle_gamma 90.000000
_cell_volume 3623.615675
_symmetry_space_group_name_H-M "C 2/M"
_symmetry_group_IT_number 12
_symmetry_cell_setting 'monoclinic'
loop_
_space_group_symop_operation_xyz
x,y,z
-x,y,-z
-x,-y,-z
x,-y,z
1/2+x,1/2+y,z
1/2-x,1/2+y,-z
1/2-x,1/2-y,-z
1/2+x,1/2-y,z
loop_
_atom_site_type_symbol
_atom_site_label
_atom_site_fract_x
_atom_site_fract_y
_atom_site_fract_z
Si Si1 0.842568 0.328712 0.499002
Si Si2 0.999257 0.669465 0.677997
Si Si3 0.441729 0.181610 0.605088
Si Si4 0.047326 0.324392 0.899007
Si Si5 0.041815 0.322269 0.764378
Si Si6 0.183420 0.824646 0.603172
Si Si7 0.180080 0.822255 0.347887
Si Si8 0.191324 0.176337 0.739622
O O1 0.820766 0.500000 0.540673
O O2 0.796454 0.278727 0.480448
O O3 0.842455 0.213625 0.558057
O O4 0.919725 0.325447 0.402377
O O5 0.971904 0.500000 0.696660
O O6 0.962067 0.753967 0.655202
O O7 0.985543 0.726657 0.764670
O O8 0.500000 0.236668 0.500000
O O9 0.370080 0.249494 0.655044
O O10 0.437192 0.000000 0.608331
O O11 0.059386 0.500000 0.903401
O O12 0.010472 0.301857 0.865848
O O13 0.120250 0.249257 0.825330
O O14 0.000000 0.250070 0.000000
O O15 0.063242 0.500000 0.733103
O O16 0.106415 0.213777 0.695850
O O17 0.219716 0.794787 0.638001
O O18 0.187826 0.000000 0.577904
O O19 0.254269 0.750205 0.265198
O O20 0.182721 0.000000 0.333658
O O21 0.184252 0.000000 0.760245
#
# Coordination Sequence:
#
# PCOD8082065 Si02
#       8
#     8   8   8   8   8   8   8   8
#     4  10  18  31  48  66  90 127 168 201 241 289
#     4   8  14  26  46  67  89 123 164 202 234 277
#     4  10  18  32  50  67  91 126 169 210 248 289
#     4   9  17  31  53  80 107 130 154 191 238 288
#     4   8  14  26  45  70  98 129 160 187 229 290
#     4   9  17  29  45  67  92 121 160 203 241 277
#     4  12  24  34  46  67  95 126 166 211 252 288
#     4  10  21  36  51  68  96 131 164 198 240 294
#
# _framework density 17.661918
#
# number of rings (size 3 to 8) (size 9 to 14) (size 15 to 20)
#    0.000    2.500    1.250    3.000    0.000    2.500 
#    0.000    0.625    0.000    0.000    0.000    0.875 
#    0.000    0.000    0.000    0.000    0.000    0.000 
#
# Total GULP energy -396476.058194 kJ/mol
# GULP energy per Si atom -12389.876819 kJ/mol
# Density = 1.762172 g / cm^3
# Si number density = 17.661918 Si / 1000 Ang^3
#
#
#
# Elastic Constant Matrix: (Units=GPa)
#
#
# Indices 1 2 3 4 5 6 
#
# 1 163.6510 31.8130 43.0232 0.0049 16.8440 -0.0037
# 2 31.8130 55.8955 23.0615 -0.0028 2.8501 -0.0089
# 3 43.0232 23.0615 78.7161 -0.0009 9.3347 -0.0033
# 4 0.0049 -0.0028 -0.0009 15.8989 0.0009 -2.0851
# 5 16.8440 2.8501 9.3347 0.0009 18.7526 0.0014
# 6 -0.0037 -0.0089 -0.0033 -2.0851 0.0014 22.9849
#
#
#
# Elastic Compliance Matrix: (Units=1/GPa)
#
#
# Indices 1 2 3 4 5 6 
#
# 1 0.008008 -0.003118 -0.002834 -0.000003 -0.005308 0.000000
# 2 -0.003118 0.021565 -0.004843 0.000005 0.001934 0.000007
# 3 -0.002834 -0.004843 0.016241 0.000001 -0.004803 0.000000
# 4 -0.000003 0.000005 0.000001 0.063655 -0.000002 0.005775
# 5 -0.005308 0.001934 -0.004803 -0.000002 0.060191 -0.000005
# 6 0.000000 0.000007 0.000000 0.005775 -0.000005 0.044031
#
#
# Mechanical properties :
#
#
# Convention : Reuss Voigt Hill
#
# Bulk Modulus (GPa) = 41.28096 54.89534 48.08815
# Shear Modulus (GPa) = 20.54615 24.88495 22.71555
#
# Velocity S-wave (km/s) = 3.41442 3.75768 3.59016
# Velocity P-wave (km/s) = 6.24243 7.06934 6.66872
#
# Compressibility (1/GPa) = 0.02422424
#
# Stress axis : x y z
#
# Youngs Moduli (GPa) = 124.87387 46.37232 61.57165
#
# Poissons Ratio (x) = 0.14458 0.17449
# Poissons Ratio (y) = 0.38934 0.29819
# Poissons Ratio (z) = 0.35389 0.22458
#
# Static dielectric constant tensor:
#      x y z
#    x 3.673330 -0.000010 0.236200 
#    y -0.000010 3.150190 0.000010 
#    z 0.236200 0.000010 3.229020 
# 
# 
# High freq. dielectric constant tensor:
#      x y z
#    x 1.695220 0.000000 0.011750 
#    y 0.000000 1.670480 0.000000 
#    z 0.011750 0.000000 1.643920 
# 
# From -- ./inp_files/326844.got.cif
#   From: 2010.06.25/outbox.cif.g09.slc.cpg/sg12_164_cif.got.tgz:326844.got - 2010.06.28 00:19:55.
