data_PCOD8082329
_publ_section_title
;
Structure prediction by ZEFSAII (Michael W. Deem and Ramdas Pophale) SiO2 
 PCOD8082329
Probable space group: C 2/M
;
_chemical_formula_sum "Si O2"
_cell_formula_units_Z 56
_cell_length_a 31.337984
_cell_length_b 9.291673
_cell_length_c 14.871100
_cell_angle_alpha 90.000000
_cell_angle_beta 135.108989
_cell_angle_gamma 90.000000
_cell_volume 3056.084599
_symmetry_space_group_name_H-M "C 2/M"
_symmetry_group_IT_number 12
_symmetry_cell_setting 'monoclinic'
loop_
_space_group_symop_operation_xyz
x,y,z
-x,y,-z
-x,-y,-z
x,-y,z
1/2+x,1/2+y,z
1/2-x,1/2+y,-z
1/2-x,1/2-y,-z
1/2+x,1/2-y,z
loop_
_atom_site_type_symbol
_atom_site_label
_atom_site_fract_x
_atom_site_fract_y
_atom_site_fract_z
Si Si1 0.935164 0.667100 0.075870
Si Si2 0.686919 0.668929 0.807328
Si Si3 0.674997 0.167184 0.965111
Si Si4 0.238928 0.665576 0.393646
Si Si5 0.600914 0.835734 0.176122
Si Si6 0.553351 0.671286 0.276171
Si Si7 0.153393 0.170391 0.565143
O O1 0.949167 0.500000 0.114494
O O2 0.871776 0.711463 0.026631
O O3 0.987730 0.763035 0.197932
O O4 0.934580 0.699128 0.968479
O O5 0.678008 0.500000 0.808451
O O6 0.657833 0.748176 0.848917
O O7 0.651894 0.725592 0.665906
O O8 0.757801 0.707902 0.901807
O O9 0.670277 0.000000 0.935172
O O10 0.253623 0.500000 0.435860
O O11 0.250000 0.750000 0.500000
O O12 0.171135 0.686786 0.257656
O O13 0.284780 0.727648 0.387640
O O14 0.580075 0.728684 0.222526
O O15 0.588349 0.000000 0.188424
O O16 0.549443 0.500000 0.264373
O O17 0.595771 0.723399 0.421903
O O18 0.155461 0.000000 0.570271
#
# Coordination Sequence:
#
# PCOD8082329 Si02
#       7
#     8   8   8   8   8   8   8
#     4  10  21  37  54  73 101 139 178 212 252 307
#     4   9  17  33  58  81 102 131 164 205 259 314
#     4   9  18  34  56  81 104 127 164 214 260 301
#     4  10  18  31  51  75 103 133 167 208 252 299
#     4  10  20  34  54  76 100 137 179 212 253 309
#     4  11  22  35  51  74 105 139 175 216 255 297
#     4   9  18  33  52  75 105 138 169 203 254 311
#
# _framework density 18.324100999999999
#
# number of rings (size 3 to 8) (size 9 to 14) (size 15 to 20)
#    0.000    2.286    1.429    1.714    0.000    6.286 
#    0.000    2.857    0.000    7.714    0.000    0.000 
#    0.000    0.000    0.000    0.000    0.000    0.000 
#
# Total GULP energy -347189.273398 kJ/mol
# GULP energy per Si atom -12399.616907 kJ/mol
# Density = 1.828239 g / cm^3
# Si number density = 18.324101 Si / 1000 Ang^3
#
#
#
# Elastic Constant Matrix: (Units=GPa)
#
#
# Indices 1 2 3 4 5 6 
#
# 1 77.0453 33.0786 44.8045 0.0000 -10.3785 0.0000
# 2 33.0786 50.6460 40.8912 0.0000 -2.7262 0.0000
# 3 44.8045 40.8912 116.8086 0.0000 -10.6777 0.0000
# 4 0.0000 0.0000 0.0000 27.5438 0.0000 -0.7450
# 5 -10.3785 -2.7262 -10.6777 0.0000 31.3500 0.0000
# 6 0.0000 0.0000 0.0000 -0.7450 0.0000 29.8544
#
#
#
# Elastic Compliance Matrix: (Units=1/GPa)
#
#
# Indices 1 2 3 4 5 6 
#
# 1 0.019991 -0.009695 -0.003867 0.000000 0.004458 0.000000
# 2 -0.009695 0.032252 -0.007853 0.000000 -0.003080 0.000000
# 3 -0.003867 -0.007853 0.013019 0.000000 0.002471 0.000000
# 4 0.000000 0.000000 0.000000 0.036330 0.000000 0.000907
# 5 0.004458 -0.003080 0.002471 0.000000 0.033948 0.000000
# 6 0.000000 0.000000 0.000000 0.000907 0.000000 0.033519
#
#
# Mechanical properties :
#
#
# Convention : Reuss Voigt Hill
#
# Bulk Modulus (GPa) = 44.57807 53.56096 49.06951
# Shear Modulus (GPa) = 22.79303 26.13135 24.46219
#
# Velocity S-wave (km/s) = 3.53070 3.78042 3.65769
# Velocity P-wave (km/s) = 6.40324 6.95332 6.68394
#
# Compressibility (1/GPa) = 0.02243255
#
# Stress axis : x y z
#
# Youngs Moduli (GPa) = 50.02293 31.00595 76.80969
#
# Poissons Ratio (x) = 0.30060 0.29698
# Poissons Ratio (y) = 0.48497 0.60320
# Poissons Ratio (z) = 0.19341 0.24350
#
# Static dielectric constant tensor:
#      x y z
#    x 3.526840 0.000000 0.156930 
#    y 0.000000 3.142630 0.000000 
#    z 0.156930 0.000000 3.850630 
# 
# 
# High freq. dielectric constant tensor:
#      x y z
#    x 1.706940 0.000000 0.000410 
#    y 0.000000 1.689730 0.000000 
#    z 0.000410 0.000000 1.715500 
# 
# From -- ./inp_files/237895.got.cif
#   From: 2010.06.25/outbox.cif.g09.slc.cpg/sg12_119_cif.got.tgz:237895.got - 2010.06.28 00:19:55.
