data_PCOD8082035
_publ_section_title
;
Structure prediction by ZEFSAII (Michael W. Deem and Ramdas Pophale) SiO2 
 PCOD8082035
Probable space group: C 2/M
;
_chemical_formula_sum "Si O2"
_cell_formula_units_Z 56
_cell_length_a 28.510264
_cell_length_b 9.044739
_cell_length_c 17.845847
_cell_angle_alpha 90.000000
_cell_angle_beta 130.463732
_cell_angle_gamma 90.000000
_cell_volume 3501.181304
_symmetry_space_group_name_H-M "C 2/M"
_symmetry_group_IT_number 12
_symmetry_cell_setting 'monoclinic'
loop_
_space_group_symop_operation_xyz
x,y,z
-x,y,-z
-x,-y,-z
x,-y,z
1/2+x,1/2+y,z
1/2-x,1/2+y,-z
1/2-x,1/2-y,-z
1/2+x,1/2-y,z
loop_
_atom_site_type_symbol
_atom_site_label
_atom_site_fract_x
_atom_site_fract_y
_atom_site_fract_z
Si Si1 0.708168 0.330030 0.122835
Si Si2 0.571648 0.670888 0.563720
Si Si3 0.685225 0.673814 0.418629
Si Si4 0.311355 0.170660 0.038230
Si Si5 0.779664 0.827688 0.702523
Si Si6 0.354597 0.824373 0.485636
Si Si7 0.851569 0.666905 0.236914
O O1 0.688624 0.500000 0.094716
O O2 0.693904 0.264388 0.191470
O O3 0.780603 0.307152 0.184255
O O4 0.667499 0.240726 0.019299
O O5 0.500000 0.700357 0.500000
O O6 0.586277 0.500000 0.563174
O O7 0.592648 0.767866 0.514831
O O8 0.606001 0.718735 0.675176
O O9 0.688937 0.500000 0.439964
O O10 0.750000 0.750000 0.500000
O O11 0.672242 0.701140 0.316057
O O12 0.635123 0.751847 0.420812
O O13 0.361104 0.191455 0.156963
O O14 0.296287 0.000000 0.010104
O O15 0.250000 0.250000 0.000000
O O16 0.711338 0.765259 0.613440
O O17 0.769101 0.000000 0.704945
O O18 0.358108 0.000000 0.497053
O O19 0.870620 0.500000 0.279209
#
# Coordination Sequence:
#
# PCOD8082035 Si02
#       7
#     8   8   8   8   8   8   8
#     4   9  15  26  42  62  87 115 144 173 206 250
#     4  11  23  34  45  64  86 109 146 192 228 261
#     4   9  16  26  41  62  86 115 147 178 214 256
#     4   9  17  27  39  59  83 110 142 175 210 252
#     4   8  14  25  41  61  87 115 142 172 207 249
#     4  10  18  31  46  59  82 115 148 183 220 259
#     4   9  17  30  45  58  81 114 146 179 215 256
#
# _framework density 15.994600999999999
#
# number of rings (size 3 to 8) (size 9 to 14) (size 15 to 20)
#    0.000    2.714    1.429    3.429    0.000    4.000 
#    0.000    1.429    0.000    0.000    0.000    0.000 
#    0.000    1.143    0.000   12.857    0.000    6.429 
#
# Total GULP energy -346913.996872 kJ/mol
# GULP energy per Si atom -12389.785603 kJ/mol
# Density = 1.595820 g / cm^3
# Si number density = 15.994601 Si / 1000 Ang^3
#
#
#
# Elastic Constant Matrix: (Units=GPa)
#
#
# Indices 1 2 3 4 5 6 
#
# 1 80.0082 45.9451 50.1822 0.0000 -33.6927 0.0000
# 2 45.9451 88.2583 39.0788 0.0000 -18.6936 0.0000
# 3 50.1822 39.0788 65.6332 0.0000 -34.0666 0.0000
# 4 0.0000 0.0000 0.0000 23.5754 0.0000 -7.3846
# 5 -33.6927 -18.6936 -34.0666 0.0000 34.1843 0.0000
# 6 0.0000 0.0000 0.0000 -7.3846 0.0000 22.3155
#
#
#
# Elastic Compliance Matrix: (Units=1/GPa)
#
#
# Indices 1 2 3 4 5 6 
#
# 1 0.029636 -0.007680 -0.010575 0.000000 0.014471 0.000000
# 2 -0.007680 0.017414 -0.007214 0.000000 -0.005236 0.000000
# 3 -0.010575 -0.007214 0.041760 0.000000 0.027248 0.000000
# 4 0.000000 0.000000 0.000000 0.047322 0.000000 0.015660
# 5 0.014471 -0.005236 0.027248 0.000000 0.067807 0.000000
# 6 0.000000 0.000000 0.000000 0.015660 0.000000 0.049994
#
#
# Mechanical properties :
#
#
# Convention : Reuss Voigt Hill
#
# Bulk Modulus (GPa) = 26.40540 56.03468 41.22004
# Shear Modulus (GPa) = 15.74822 22.59461 19.17141
#
# Velocity S-wave (km/s) = 3.14123 3.76259 3.46586
# Velocity P-wave (km/s) = 5.44988 7.34749 6.46865
#
# Compressibility (1/GPa) = 0.03787104
#
# Stress axis : x y z
#
# Youngs Moduli (GPa) = 33.74262 57.42627 23.94622
#
# Poissons Ratio (x) = 0.44105 0.25324
# Poissons Ratio (y) = 0.25915 0.17275
# Poissons Ratio (z) = 0.35684 0.41427
#
# Static dielectric constant tensor:
#      x y z
#    x 3.194740 0.000000 -0.832100 
#    y 0.000000 3.141690 0.000000 
#    z -0.832100 0.000000 3.600810 
# 
# 
# High freq. dielectric constant tensor:
#      x y z
#    x 1.583930 0.000000 -0.054390 
#    y 0.000000 1.616690 0.000000 
#    z -0.054390 0.000000 1.588430 
# 
# From -- ./inp_files/281747.got.cif
#   From: 2010.06.25/outbox.cif.g09.slc.cpg/sg12_141_cif.got.tgz:281747.got - 2010.06.28 00:19:55.
