data_PCOD8082379
_publ_section_title
;
Structure prediction by ZEFSAII (Michael W. Deem and Ramdas Pophale) SiO2 
 PCOD8082379
Probable space group: C 2/M
;
_chemical_formula_sum "Si O2"
_cell_formula_units_Z 48
_cell_length_a 19.032408
_cell_length_b 22.155701
_cell_length_c 13.584710
_cell_angle_alpha 90.000000
_cell_angle_beta 151.899562
_cell_angle_gamma 90.000000
_cell_volume 2698.159918
_symmetry_space_group_name_H-M "C 2/M"
_symmetry_group_IT_number 12
_symmetry_cell_setting 'monoclinic'
loop_
_space_group_symop_operation_xyz
x,y,z
-x,y,-z
-x,-y,-z
x,-y,z
1/2+x,1/2+y,z
1/2-x,1/2+y,-z
1/2-x,1/2-y,-z
1/2+x,1/2-y,z
loop_
_atom_site_type_symbol
_atom_site_label
_atom_site_fract_x
_atom_site_fract_y
_atom_site_fract_z
Si Si1 0.528846 0.371580 0.148610
Si Si2 0.834522 0.625683 0.989079
Si Si3 0.161188 0.633419 0.376884
Si Si4 0.893124 0.069422 0.162464
Si Si5 0.205145 0.930641 0.638752
Si Si6 0.015419 0.735267 0.902954
O O1 0.706959 0.378093 0.383087
O O2 0.440823 0.418112 0.108623
O O3 0.500000 0.387469 0.000000
O O4 0.471818 0.305160 0.109859
O O5 0.741125 0.614826 0.973624
O O6 0.749665 0.585124 0.804240
O O7 0.841714 0.696283 0.961716
O O8 0.004890 0.602668 0.218669
O O9 0.195472 0.608011 0.311851
O O10 0.132574 0.705520 0.328970
O O11 0.030797 0.082974 0.405511
O O12 0.840961 0.000000 0.105327
O O13 0.239283 0.000000 0.659132
O O14 0.000000 0.728569 0.000000
#
# Coordination Sequence:
#
# PCOD8082379 Si02
#       6
#     8   8   8   8   8   8
#     4  10  21  37  58  72 100 142 190 224 260 298
#     4  10  18  31  51  80 112 135 163 215 268 324
#     4   9  18  33  52  81 106 139 175 218 257 315
#     4  10  22  36  52  78 109 144 180 214 263 314
#     4  10  18  31  52  80 115 146 168 201 261 333
#     4   9  17  33  55  82 108 135 169 212 267 323
#
# _framework density 17.789902000000001
#
# number of rings (size 3 to 8) (size 9 to 14) (size 15 to 20)
#    1.000    1.333    1.667    2.000    0.000    4.333 
#    0.000    0.833    0.000    1.000    0.000    0.000 
#    0.000    0.000    0.000    0.000    0.000    0.000 
#
# Total GULP energy -297375.676086 kJ/mol
# GULP energy per Si atom -12390.653170 kJ/mol
# Density = 1.774941 g / cm^3
# Si number density = 17.789902 Si / 1000 Ang^3
#
#
#
# Elastic Constant Matrix: (Units=GPa)
#
#
# Indices 1 2 3 4 5 6 
#
# 1 87.0587 30.1361 56.3939 0.0000 7.5150 0.0000
# 2 30.1361 63.6781 18.7516 0.0000 10.5233 0.0000
# 3 56.3939 18.7516 85.0912 0.0000 0.0482 0.0000
# 4 0.0000 0.0000 0.0000 21.0515 0.0000 -3.1378
# 5 7.5150 10.5233 0.0482 0.0000 27.5925 0.0000
# 6 0.0000 0.0000 0.0000 -3.1378 0.0000 15.0425
#
#
#
# Elastic Compliance Matrix: (Units=1/GPa)
#
#
# Indices 1 2 3 4 5 6 
#
# 1 0.022894 -0.006124 -0.013821 0.000000 -0.003875 0.000000
# 2 -0.006124 0.019643 -0.000267 0.000000 -0.005823 0.000000
# 3 -0.013821 -0.000267 0.020969 0.000000 0.003829 0.000000
# 4 0.000000 0.000000 0.000000 0.049027 0.000000 0.010227
# 5 -0.003875 -0.005823 0.003829 0.000000 0.039511 0.000000
# 6 0.000000 0.000000 0.000000 0.010227 0.000000 0.068612
#
#
# Mechanical properties :
#
#
# Convention : Reuss Voigt Hill
#
# Bulk Modulus (GPa) = 43.32441 49.59902 46.46171
# Shear Modulus (GPa) = 18.60307 21.44041 20.02174
#
# Velocity S-wave (km/s) = 3.23725 3.47537 3.35842
# Velocity P-wave (km/s) = 6.19510 6.63665 6.41968
#
# Compressibility (1/GPa) = 0.02308168
#
# Stress axis : x y z
#
# Youngs Moduli (GPa) = 43.67993 50.90835 47.69057
#
# Poissons Ratio (x) = 0.31178 0.65913
# Poissons Ratio (y) = 0.26751 0.01272
# Poissons Ratio (z) = 0.60370 0.01357
#
# Static dielectric constant tensor:
#      x y z
#    x 3.072750 0.000000 0.079130 
#    y 0.000000 3.263600 0.000000 
#    z 0.079130 0.000000 3.195100 
# 
# 
# High freq. dielectric constant tensor:
#      x y z
#    x 1.674770 0.000000 0.005210 
#    y 0.000000 1.681920 0.000000 
#    z 0.005210 0.000000 1.676950 
# 
# From -- ./inp_files/160507.got.cif
#   From: 2010.06.25/outbox.cif.g09.slc.cpg/sg12_81_cif.got.tgz:160507.got - 2010.06.28 00:19:55.
