data_PCOD8082531
_publ_section_title
;
Structure prediction by ZEFSAII (Michael W. Deem and Ramdas Pophale) SiO2 
 PCOD8082531
Probable space group: C 2/M
;
_chemical_formula_sum "Si O2"
_cell_formula_units_Z 64
_cell_length_a 22.796727
_cell_length_b 18.213318
_cell_length_c 9.542599
_cell_angle_alpha 90.000000
_cell_angle_beta 58.614815
_cell_angle_gamma 90.000000
_cell_volume 3382.409154
_symmetry_space_group_name_H-M "C 2/M"
_symmetry_group_IT_number 12
_symmetry_cell_setting 'monoclinic'
loop_
_space_group_symop_operation_xyz
x,y,z
-x,y,-z
-x,-y,-z
x,-y,z
1/2+x,1/2+y,z
1/2-x,1/2+y,-z
1/2-x,1/2-y,-z
1/2+x,1/2-y,z
loop_
_atom_site_type_symbol
_atom_site_label
_atom_site_fract_x
_atom_site_fract_y
_atom_site_fract_z
Si Si1 0.870700 0.419480 0.629135
Si Si2 0.210024 0.917217 0.400173
Si Si3 0.204986 0.151799 0.117384
Si Si4 0.642345 0.799800 0.140301
Si Si5 0.689345 0.303117 0.627872
Si Si6 0.922936 0.290948 0.076396
Si Si7 0.635562 0.084214 0.686366
Si Si8 0.285198 0.579948 0.170369
O O1 0.907940 0.500000 0.601892
O O2 0.896930 0.355978 0.703748
O O3 0.875489 0.392199 0.462115
O O4 0.793145 0.432843 0.772164
O O5 0.200325 0.906345 0.247851
O O6 0.163033 0.855528 0.534114
O O7 0.286936 0.900867 0.359350
O O8 0.187951 0.000000 0.466838
O O9 0.156848 0.223034 0.203031
O O10 0.284535 0.173283 0.007216
O O11 0.176388 0.111212 0.014271
O O12 0.593889 0.788264 0.066868
O O13 0.750000 0.250000 0.500000
O O14 0.626393 0.258774 0.767931
O O15 0.716309 0.359399 0.709330
O O16 0.916242 0.372638 0.147670
O O17 0.000000 0.261930 0.000000
O O18 0.616391 0.000000 0.728873
O O19 0.316679 0.500000 0.176390
#
# Coordination Sequence:
#
# PCOD8082531 Si02
#       8
#     8   8   8   8   8   8   8   8
#     4   9  18  31  54  85 116 149 191 238 285 338
#     4  11  21  33  58  93 121 146 190 245 299 347
#     4  10  19  31  55  87 119 144 189 242 296 345
#     4  10  20  34  53  85 115 156 189 239 290 342
#     4  12  21  36  60  87 115 152 194 245 285 337
#     4  12  25  41  58  84 120 159 199 236 288 348
#     4  10  20  36  56  85 121 157 195 234 281 343
#     4  10  18  31  52  82 119 148 180 234 301 347
#
# _framework density 18.921426
#
# number of rings (size 3 to 8) (size 9 to 14) (size 15 to 20)
#    0.000    1.500    5.000    0.750    5.250    1.250 
#    0.000    0.625    0.000    3.000    0.000    0.875 
#    0.000    0.000    0.000    0.000    0.000    0.000 
#
# Total GULP energy -396525.152831 kJ/mol
# GULP energy per Si atom -12391.411026 kJ/mol
# Density = 1.887836 g / cm^3
# Si number density = 18.921426 Si / 1000 Ang^3
#
#
#
# Elastic Constant Matrix: (Units=GPa)
#
#
# Indices 1 2 3 4 5 6 
#
# 1 67.6681 39.8205 38.3728 0.0000 12.8356 0.0000
# 2 39.8205 129.0842 50.1385 0.0000 12.2683 0.0000
# 3 38.3728 50.1385 73.5728 0.0000 22.6677 0.0000
# 4 0.0000 0.0000 0.0000 33.1113 0.0000 11.0475
# 5 12.8356 12.2683 22.6677 0.0000 30.1710 0.0000
# 6 0.0000 0.0000 0.0000 11.0475 0.0000 12.4656
#
#
#
# Elastic Compliance Matrix: (Units=1/GPa)
#
#
# Indices 1 2 3 4 5 6 
#
# 1 0.021934 -0.003206 -0.008824 0.000000 -0.001398 0.000000
# 2 -0.003206 0.011053 -0.006370 0.000000 0.001656 0.000000
# 3 -0.008824 -0.006370 0.026780 0.000000 -0.013775 0.000000
# 4 0.000000 0.000000 0.000000 0.042881 0.000000 -0.038002
# 5 -0.001398 0.001656 -0.013775 0.000000 0.043416 0.000000
# 6 0.000000 0.000000 0.000000 -0.038002 0.000000 0.113900
#
#
# Mechanical properties :
#
#
# Convention : Reuss Voigt Hill
#
# Bulk Modulus (GPa) = 43.54393 58.55432 51.04912
# Shear Modulus (GPa) = 16.42474 24.61581 20.52027
#
# Velocity S-wave (km/s) = 2.94946 3.61078 3.29675
# Velocity P-wave (km/s) = 5.88745 6.95679 6.44434
#
# Compressibility (1/GPa) = 0.02296531
#
# Stress axis : x y z
#
# Youngs Moduli (GPa) = 45.59173 90.47456 37.34130
#
# Poissons Ratio (x) = 0.29004 0.32952
# Poissons Ratio (y) = 0.14616 0.23788
# Poissons Ratio (z) = 0.40232 0.57636
#
# Static dielectric constant tensor:
#      x y z
#    x 3.039940 0.000000 0.363520 
#    y 0.000000 4.116840 0.000000 
#    z 0.363520 0.000000 3.498740 
# 
# 
# High freq. dielectric constant tensor:
#      x y z
#    x 1.681010 0.000000 0.045550 
#    y 0.000000 1.757100 0.000000 
#    z 0.045550 0.000000 1.723680 
# 
# From -- ./inp_files/99091.got.cif
#   From: 2010.06.25/outbox.cif.g09.slc.cpg/sg12_50_cif.got.tgz:99091.got - 2010.06.28 00:19:55.
