data_PCOD8082931
_publ_section_title
;
Structure prediction by ZEFSAII (Michael W. Deem and Ramdas Pophale) SiO2 
 PCOD8082931
Probable space group: C 2/M
;
_chemical_formula_sum "Si O2"
_cell_formula_units_Z 64
_cell_length_a 35.057383
_cell_length_b 8.744646
_cell_length_c 19.042455
_cell_angle_alpha 90.000000
_cell_angle_beta 140.650600
_cell_angle_gamma 90.000000
_cell_volume 3701.405699
_symmetry_space_group_name_H-M "C 2/M"
_symmetry_group_IT_number 12
_symmetry_cell_setting 'monoclinic'
loop_
_space_group_symop_operation_xyz
x,y,z
-x,y,-z
-x,-y,-z
x,-y,z
1/2+x,1/2+y,z
1/2-x,1/2+y,-z
1/2-x,1/2-y,-z
1/2+x,1/2-y,z
loop_
_atom_site_type_symbol
_atom_site_label
_atom_site_fract_x
_atom_site_fract_y
_atom_site_fract_z
Si Si1 0.947301 0.319854 0.474603
Si Si2 0.362658 0.680763 0.134132
Si Si3 0.795431 0.680101 0.907306
Si Si4 0.565129 0.827781 0.127151
Si Si5 0.617355 0.678316 0.073499
Si Si6 0.510135 0.321165 0.174940
Si Si7 0.500239 0.680025 0.682087
Si Si8 0.826545 0.319353 0.225638
O O1 0.952807 0.500000 0.487184
O O2 0.953728 0.254133 0.561836
O O3 0.883514 0.268054 0.352942
O O4 0.000000 0.252603 0.500000
O O5 0.355867 0.500000 0.112175
O O6 0.431991 0.731422 0.240039
O O7 0.327026 0.731548 0.152414
O O8 0.335247 0.767231 0.029240
O O9 0.784349 0.500000 0.894825
O O10 0.828636 0.724504 0.882605
O O11 0.732246 0.768181 0.816359
O O12 0.610543 0.726130 0.145333
O O13 0.560283 0.763193 0.199244
O O14 0.589711 0.000000 0.164865
O O15 0.500000 0.818763 0.000000
O O16 0.632578 0.500000 0.090008
O O17 0.557123 0.719926 0.945108
O O18 0.521532 0.500000 0.183102
O O19 0.517536 0.264222 0.265298
O O20 0.494714 0.500000 0.669085
O O21 0.826319 0.500000 0.211131
#
# Coordination Sequence:
#
# PCOD8082931 Si02
#       8
#     8   8   8   8   8   8   8   8
#     4  10  21  37  55  76 100 131 173 219 266 308
#     4  11  21  36  54  76 104 137 175 213 259 311
#     4  12  24  36  52  76 105 138 176 217 258 308
#     4   9  17  28  44  72 104 136 171 207 250 301
#     4  10  18  32  51  72 103 140 173 207 253 308
#     4   9  17  31  48  72 103 137 172 207 252 306
#     4  10  20  33  53  78 104 136 174 214 257 308
#     4  11  23  39  55  73 101 137 176 219 262 310
#
# _framework density 17.290728999999999
#
# number of rings (size 3 to 8) (size 9 to 14) (size 15 to 20)
#    0.000    1.750    2.500    3.000    0.000    4.250 
#    0.000    0.000    0.000    0.000    0.000    0.875 
#    0.000    0.000    0.000    0.000    0.000    0.000 
#
# Total GULP energy -396906.464757 kJ/mol
# GULP energy per Si atom -12403.327024 kJ/mol
# Density = 1.725137 g / cm^3
# Si number density = 17.290729 Si / 1000 Ang^3
#
#
#
# Elastic Constant Matrix: (Units=GPa)
#
#
# Indices 1 2 3 4 5 6 
#
# 1 118.2122 23.3513 35.6911 0.0000 -11.1849 0.0000
# 2 23.3513 44.4089 17.8817 0.0000 -1.6320 0.0000
# 3 35.6911 17.8817 53.0110 0.0000 0.5933 0.0000
# 4 0.0000 0.0000 0.0000 23.7461 0.0000 -3.6187
# 5 -11.1849 -1.6320 0.5933 0.0000 19.9461 0.0000
# 6 0.0000 0.0000 0.0000 -3.6187 0.0000 33.2529
#
#
#
# Elastic Compliance Matrix: (Units=1/GPa)
#
#
# Indices 1 2 3 4 5 6 
#
# 1 0.011806 -0.003166 -0.006954 0.000000 0.006568 0.000000
# 2 -0.003166 0.027021 -0.006990 0.000000 0.000643 0.000000
# 3 -0.006954 -0.006990 0.025963 0.000000 -0.005244 0.000000
# 4 0.000000 0.000000 0.000000 0.042822 0.000000 0.004660
# 5 0.006568 0.000643 -0.005244 0.000000 0.054027 0.000000
# 6 0.000000 0.000000 0.000000 0.004660 0.000000 0.030580
#
#
# Mechanical properties :
#
#
# Convention : Reuss Voigt Hill
#
# Bulk Modulus (GPa) = 32.71333 41.05336 36.88335
# Shear Modulus (GPa) = 21.13009 24.63622 22.88316
#
# Velocity S-wave (km/s) = 3.49957 3.77878 3.64185
# Velocity P-wave (km/s) = 5.94054 6.54472 6.24994
#
# Compressibility (1/GPa) = 0.03056858
#
# Stress axis : x y z
#
# Youngs Moduli (GPa) = 84.70352 37.00792 38.51683
#
# Poissons Ratio (x) = 0.11718 0.26785
# Poissons Ratio (y) = 0.26820 0.26924
# Poissons Ratio (z) = 0.58904 0.25869
#
# Static dielectric constant tensor:
#      x y z
#    x 3.417100 0.000000 -0.074590 
#    y 0.000000 3.221680 0.000000 
#    z -0.074590 0.000000 3.023500 
# 
# 
# High freq. dielectric constant tensor:
#      x y z
#    x 1.674970 0.000000 -0.008650 
#    y 0.000000 1.674790 0.000000 
#    z -0.008650 0.000000 1.629390 
# 
# From -- ./inp_files/295623.got.cif
#   From: 2010.06.25/outbox.cif.g09.slc.cpg/sg12_148_cif.got.tgz:295623.got - 2010.06.28 00:19:55.
