data_PCOD8082988
_publ_section_title
;
Structure prediction by ZEFSAII (Michael W. Deem and Ramdas Pophale) SiO2 
 PCOD8082988
Probable space group: C 2/M
;
_chemical_formula_sum "Si O2"
_cell_formula_units_Z 52
_cell_length_a 25.779327
_cell_length_b 17.028280
_cell_length_c 6.574609
_cell_angle_alpha 90.000000
_cell_angle_beta 88.838016
_cell_angle_gamma 90.000000
_cell_volume 2885.512567
_symmetry_space_group_name_H-M "C 2/M"
_symmetry_group_IT_number 12
_symmetry_cell_setting 'monoclinic'
loop_
_space_group_symop_operation_xyz
x,y,z
-x,y,-z
-x,-y,-z
x,-y,z
1/2+x,1/2+y,z
1/2-x,1/2+y,-z
1/2-x,1/2-y,-z
1/2+x,1/2-y,z
loop_
_atom_site_type_symbol
_atom_site_label
_atom_site_fract_x
_atom_site_fract_y
_atom_site_fract_z
Si Si1 0.500000 0.758236 0.500000
Si Si2 0.253074 0.909875 0.937827
Si Si3 0.157959 0.347070 0.806525
Si Si4 0.046857 0.812901 0.121280
Si Si5 0.159357 0.804792 0.067435
Si Si6 0.205142 0.699961 0.402424
Si Si7 0.454896 0.155154 0.126144
O O1 0.465160 0.698659 0.638297
O O2 0.531717 0.815458 0.647615
O O3 0.267785 0.867961 0.728624
O O4 0.240871 0.000000 0.893335
O O5 0.300063 0.902808 0.092737
O O6 0.202277 0.871028 0.038350
O O7 0.168370 0.343727 0.565972
O O8 0.101223 0.386434 0.852960
O O9 0.161860 0.256878 0.882027
O O10 0.103854 0.850945 0.087831
O O11 0.052641 0.727270 0.025302
O O12 0.000000 0.857630 0.000000
O O13 0.168934 0.756539 0.272640
O O14 0.250000 0.750000 0.500000
O O15 0.500000 0.104546 0.000000
#
# Coordination Sequence:
#
# PCOD8082988 Si02
#       7
#     4   8   8   8   8   8   8
#     4   8  12  24  38  70 102 120 152 202 254 282
#     4  11  23  35  49  74 106 134 169 210 256 306
#     4  10  18  33  53  74 103 133 167 211 252 296
#     4   8  15  25  42  70 100 126 159 205 252 288
#     4  10  18  32  52  75 101 134 172 206 249 305
#     4  11  18  33  54  79  98 135 174 207 250 304
#     4   8  15  25  44  72  99 125 158 204 253 291
#
# _framework density 18.021062000000001
#
# number of rings (size 3 to 8) (size 9 to 14) (size 15 to 20)
#    0.000    2.769    3.077    1.846    0.000    1.846 
#    0.000    0.000    0.000    0.923    0.000    2.154 
#    0.000    0.000    0.000    0.000    0.000    0.000 
#
# Total GULP energy -322105.261404 kJ/mol
# GULP energy per Si atom -12388.663900 kJ/mol
# Density = 1.798005 g / cm^3
# Si number density = 18.021062 Si / 1000 Ang^3
#
#
#
# Elastic Constant Matrix: (Units=GPa)
#
#
# Indices 1 2 3 4 5 6 
#
# 1 136.5893 18.6905 38.0510 0.0000 -9.1201 0.0000
# 2 18.6905 51.8578 17.3784 0.0000 -1.4311 0.0000
# 3 38.0510 17.3784 122.0291 0.0000 -9.3072 0.0000
# 4 0.0000 0.0000 0.0000 8.1223 0.0000 2.7040
# 5 -9.1201 -1.4311 -9.3072 0.0000 21.3999 0.0000
# 6 0.0000 0.0000 0.0000 2.7040 0.0000 -0.7776
#
#
#
# Elastic Compliance Matrix: (Units=1/GPa)
#
#
# Indices 1 2 3 4 5 6 
#
# 1 0.008382 -0.002247 -0.002102 0.000000 0.002508 0.000000
# 2 -0.002247 0.020853 -0.002312 0.000000 -0.000569 0.000000
# 3 -0.002102 -0.002312 0.009412 0.000000 0.003043 0.000000
# 4 0.000000 0.000000 0.000000 0.057063 0.000000 0.198417
# 5 0.002508 -0.000569 0.003043 0.000000 0.049083 0.000000
# 6 0.000000 0.000000 0.000000 0.198417 0.000000 -0.596004
#
#
# Mechanical properties :
#
#
# Convention : Reuss Voigt Hill
#
# Bulk Modulus (GPa) = 39.49079 50.96845 45.22962
# Shear Modulus (GPa) = -11.64288 21.50599 4.93156
#
# Velocity S-wave (km/s) = -2.54455 3.45828 1.65605
# Velocity P-wave (km/s) = 3.65079 6.65510 5.36743
#
# Compressibility (1/GPa) = 0.02532236
#
# Stress axis : x y z
#
# Youngs Moduli (GPa) = 119.30590 47.95558 106.25094
#
# Poissons Ratio (x) = 0.10777 0.22337
# Poissons Ratio (y) = 0.26811 0.24569
# Poissons Ratio (z) = 0.25082 0.11089
#
# Static dielectric constant tensor:
#      x y z
#    x 4.347230 0.000000 -0.157670 
#    y 0.000000 2.631930 0.000000 
#    z -0.157670 0.000000 3.615330 
# 
# 
# High freq. dielectric constant tensor:
#      x y z
#    x 1.722780 0.000000 -0.006210 
#    y 0.000000 1.616720 0.000000 
#    z -0.006210 0.000000 1.712180 
# 
# From -- ./inp_files/28554.got.cif
#   From: 2010.06.25/outbox.cif.g09.slc.cpg/sg12_15_cif.got.tgz:28554.got - 2010.06.28 00:19:55.
