data_PCOD8082090
_publ_section_title
;
Structure prediction by ZEFSAII (Michael W. Deem and Ramdas Pophale) SiO2 
 PCOD8082090
Probable space group: C 2/M
;
_chemical_formula_sum "Si O2"
_cell_formula_units_Z 48
_cell_length_a 23.892513
_cell_length_b 8.346805
_cell_length_c 13.571931
_cell_angle_alpha 90.000000
_cell_angle_beta 73.248041
_cell_angle_gamma 90.000000
_cell_volume 2591.733969
_symmetry_space_group_name_H-M "C 2/M"
_symmetry_group_IT_number 12
_symmetry_cell_setting 'monoclinic'
loop_
_space_group_symop_operation_xyz
x,y,z
-x,y,-z
-x,-y,-z
x,-y,z
1/2+x,1/2+y,z
1/2-x,1/2+y,-z
1/2-x,1/2-y,-z
1/2+x,1/2-y,z
loop_
_atom_site_type_symbol
_atom_site_label
_atom_site_fract_x
_atom_site_fract_y
_atom_site_fract_z
Si Si1 0.293571 0.310574 0.772272
Si Si2 0.993261 0.314800 0.115952
Si Si3 0.892184 0.183578 0.855689
Si Si4 0.771972 0.689955 0.385016
Si Si5 0.374406 0.314740 0.217253
Si Si6 0.183062 0.685007 0.940530
O O1 0.288218 0.500000 0.773415
O O2 0.359765 0.260747 0.769982
O O3 0.274395 0.246523 0.674376
O O4 0.247713 0.250695 0.879169
O O5 0.976596 0.500000 0.122698
O O6 0.052691 0.293402 0.147841
O O7 0.943247 0.217099 0.199642
O O8 0.000000 0.250163 0.000000
O O9 0.912868 0.000000 0.839061
O O10 0.842508 0.199412 0.963686
O O11 0.776982 0.500000 0.381810
O O12 0.750000 0.750000 0.500000
O O13 0.835942 0.764952 0.331819
O O14 0.363694 0.500000 0.198042
O O15 0.356902 0.200779 0.135991
O O16 0.181330 0.500000 0.975772
#
# Coordination Sequence:
#
# PCOD8082090 Si02
#       6
#     8   8   8   8   8   8
#     4   8  18  33  50  74 106 138 171 215 265 314
#     4  11  22  35  51  72 107 149 183 218 264 310
#     4  11  20  31  49  74 104 142 182 216 254 308
#     4  10  20  38  61  84 109 136 171 218 272 320
#     4  11  21  34  54  80 106 138 182 224 262 310
#     4  10  18  31  48  71 106 144 175 213 262 310
#
# _framework density 18.520420000000001
#
# number of rings (size 3 to 8) (size 9 to 14) (size 15 to 20)
#    0.000    1.833    1.667    5.000    0.000    0.667 
#    0.000    9.167    0.000    1.000    0.000    7.000 
#    0.000    0.000    0.000    0.000    0.000    0.000 
#
# Total GULP energy -297513.722923 kJ/mol
# GULP energy per Si atom -12396.405122 kJ/mol
# Density = 1.847827 g / cm^3
# Si number density = 18.520420 Si / 1000 Ang^3
#
#
#
# Elastic Constant Matrix: (Units=GPa)
#
#
# Indices 1 2 3 4 5 6 
#
# 1 129.1211 21.9113 48.8397 0.0000 -3.6421 0.0000
# 2 21.9113 60.3564 14.5529 0.0000 -8.0851 0.0000
# 3 48.8397 14.5529 92.3202 0.0000 -10.3790 0.0000
# 4 0.0000 0.0000 0.0000 24.6945 0.0000 -4.3196
# 5 -3.6421 -8.0851 -10.3790 0.0000 14.3029 0.0000
# 6 0.0000 0.0000 0.0000 -4.3196 0.0000 21.8767
#
#
#
# Elastic Compliance Matrix: (Units=1/GPa)
#
#
# Indices 1 2 3 4 5 6 
#
# 1 0.010115 -0.002786 -0.005226 0.000000 -0.002791 0.000000
# 2 -0.002786 0.018984 -0.000427 0.000000 0.009712 0.000000
# 3 -0.005226 -0.000427 0.014685 0.000000 0.009084 0.000000
# 4 0.000000 0.000000 0.000000 0.041944 0.000000 0.008282
# 5 -0.002791 0.009712 0.009084 0.000000 0.081287 0.000000
# 6 0.000000 0.000000 0.000000 0.008282 0.000000 0.047346
#
#
# Mechanical properties :
#
#
# Convention : Reuss Voigt Hill
#
# Bulk Modulus (GPa) = 37.16566 50.26727 43.71647
# Shear Modulus (GPa) = 20.81539 25.27441 23.04490
#
# Velocity S-wave (km/s) = 3.35612 3.69816 3.53129
# Velocity P-wave (km/s) = 5.92698 6.74060 6.34684
#
# Compressibility (1/GPa) = 0.02690656
#
# Stress axis : x y z
#
# Youngs Moduli (GPa) = 98.85909 52.67720 68.09634
#
# Poissons Ratio (x) = 0.14676 0.35587
# Poissons Ratio (y) = 0.27543 0.02906
# Poissons Ratio (z) = 0.51663 0.02248
#
# Static dielectric constant tensor:
#      x y z
#    x 4.295580 0.000000 0.853730 
#    y 0.000000 3.227440 0.000000 
#    z 0.853730 0.000000 4.204810 
# 
# 
# High freq. dielectric constant tensor:
#      x y z
#    x 1.724750 0.000000 -0.000590 
#    y 0.000000 1.716670 0.000000 
#    z -0.000590 0.000000 1.676600 
# 
# From -- ./inp_files/236583.got.cif
#   From: 2010.06.25/outbox.cif.g09.slc.cpg/sg12_119_cif.got.tgz:236583.got - 2010.06.28 00:19:55.
