data_PCOD8082103
_publ_section_title
;
Structure prediction by ZEFSAII (Michael W. Deem and Ramdas Pophale) SiO2 
 PCOD8082103
Probable space group: C 2/M
;
_chemical_formula_sum "Si O2"
_cell_formula_units_Z 48
_cell_length_a 24.469434
_cell_length_b 7.861996
_cell_length_c 15.360345
_cell_angle_alpha 90.000000
_cell_angle_beta 72.964784
_cell_angle_gamma 90.000000
_cell_volume 2825.350480
_symmetry_space_group_name_H-M "C 2/M"
_symmetry_group_IT_number 12
_symmetry_cell_setting 'monoclinic'
loop_
_space_group_symop_operation_xyz
x,y,z
-x,y,-z
-x,-y,-z
x,-y,z
1/2+x,1/2+y,z
1/2-x,1/2+y,-z
1/2-x,1/2-y,-z
1/2+x,1/2-y,z
loop_
_atom_site_type_symbol
_atom_site_label
_atom_site_fract_x
_atom_site_fract_y
_atom_site_fract_z
Si Si1 0.407969 0.500000 0.565184
Si Si2 0.336750 0.805206 0.006442
Si Si3 0.976308 0.688816 0.745159
Si Si4 0.273388 0.198631 0.865963
Si Si5 0.020223 0.000000 0.629295
Si Si6 0.135317 0.694054 0.314699
Si Si7 0.959656 0.806065 0.942820
O O1 0.465687 0.500000 0.592903
O O2 0.422435 0.500000 0.455843
O O3 0.372466 0.328326 0.603319
O O4 0.289311 0.784522 0.104873
O O5 0.354353 0.000000 0.986561
O O6 0.310805 0.728503 0.928911
O O7 0.393923 0.704020 0.004454
O O8 0.998971 0.500000 0.709663
O O9 0.913814 0.718745 0.734114
O O10 0.970447 0.697638 0.851367
O O11 0.020202 0.829996 0.688296
O O12 0.304783 0.237320 0.760306
O O13 0.265185 0.000000 0.884579
O O14 0.134903 0.500000 0.351363
O O15 0.976045 0.000000 0.914974
O O16 0.000000 0.732309 0.000000
#
# Coordination Sequence:
#
# PCOD8082103 Si02
#       7
#     4   8   8   8   4   8   8
#     4   9  18  28  46  66  94 128 155 196 248 285
#     4  10  19  29  44  67  91 125 167 198 234 281
#     4  10  18  31  49  66  91 129 164 198 237 285
#     4   9  17  29  43  65  95 126 160 197 235 281
#     4   9  18  32  43  68  94 122 163 200 238 292
#     4   9  17  28  45  68  95 127 161 192 237 293
#     4  11  22  34  48  67  95 132 169 205 242 282
#
# _framework density 16.989042000000001
#
# number of rings (size 3 to 8) (size 9 to 14) (size 15 to 20)
#    0.000    2.333    2.500    1.000    1.167    2.667 
#    0.000    3.333    0.000    0.000    0.000    0.000 
#    0.000    1.333    0.667    0.000    0.000    0.000 
#
# Total GULP energy -297562.076460 kJ/mol
# GULP energy per Si atom -12398.419852 kJ/mol
# Density = 1.695037 g / cm^3
# Si number density = 16.989042 Si / 1000 Ang^3
#
#
#
# Elastic Constant Matrix: (Units=GPa)
#
#
# Indices 1 2 3 4 5 6 
#
# 1 67.1793 21.3477 38.1214 0.0000 -10.2050 0.0000
# 2 21.3477 96.2635 51.7515 0.0000 -13.8880 0.0000
# 3 38.1214 51.7515 97.2064 0.0000 -26.7806 0.0000
# 4 0.0000 0.0000 0.0000 22.7597 0.0000 -6.5421
# 5 -10.2050 -13.8880 -26.7806 0.0000 20.7157 0.0000
# 6 0.0000 0.0000 0.0000 -6.5421 0.0000 16.1050
#
#
#
# Elastic Compliance Matrix: (Units=1/GPa)
#
#
# Indices 1 2 3 4 5 6 
#
# 1 0.019155 -0.000291 -0.007472 0.000000 -0.000419 0.000000
# 2 -0.000291 0.014560 -0.007747 0.000000 -0.000397 0.000000
# 3 -0.007472 -0.007747 0.023138 0.000000 0.021038 0.000000
# 4 0.000000 0.000000 0.000000 0.049746 0.000000 0.020208
# 5 -0.000419 -0.000397 0.021038 0.000000 0.074997 0.000000
# 6 0.000000 0.000000 0.000000 0.020208 0.000000 0.070301
#
#
# Mechanical properties :
#
#
# Convention : Reuss Voigt Hill
#
# Bulk Modulus (GPa) = 38.71150 53.67672 46.19411
# Shear Modulus (GPa) = 17.15100 21.87798 19.51449
#
# Velocity S-wave (km/s) = 3.18076 3.59244 3.39285
# Velocity P-wave (km/s) = 6.02705 6.99078 6.52673
#
# Compressibility (1/GPa) = 0.02583212
#
# Stress axis : x y z
#
# Youngs Moduli (GPa) = 52.20672 68.68048 43.21878
#
# Poissons Ratio (x) = 0.01999 0.32295
# Poissons Ratio (y) = 0.01520 0.33481
# Poissons Ratio (z) = 0.39011 0.53206
#
# Static dielectric constant tensor:
#      x y z
#    x 2.877550 0.000000 -0.258380 
#    y 0.000000 3.285340 0.000000 
#    z -0.258380 0.000000 3.080780 
# 
# 
# High freq. dielectric constant tensor:
#      x y z
#    x 1.605930 0.000000 -0.031300 
#    y 0.000000 1.669820 0.000000 
#    z -0.031300 0.000000 1.630270 
# 
# From -- ./inp_files/172996.got.cif
#   From: 2010.06.25/outbox.cif.g09.slc.cpg/sg12_87_cif.got.tgz:172996.got - 2010.06.28 00:19:55.
