data_PCOD8082702
_publ_section_title
;
Structure prediction by ZEFSAII (Michael W. Deem and Ramdas Pophale) SiO2 
 PCOD8082702
Probable space group: C 2/M
;
_chemical_formula_sum "Si O2"
_cell_formula_units_Z 64
_cell_length_a 24.520111
_cell_length_b 8.967212
_cell_length_c 29.020934
_cell_angle_alpha 90.000000
_cell_angle_beta 34.082787
_cell_angle_gamma 90.000000
_cell_volume 3575.870536
_symmetry_space_group_name_H-M "C 2/M"
_symmetry_group_IT_number 12
_symmetry_cell_setting 'monoclinic'
loop_
_space_group_symop_operation_xyz
x,y,z
-x,y,-z
-x,-y,-z
x,-y,z
1/2+x,1/2+y,z
1/2-x,1/2+y,-z
1/2-x,1/2-y,-z
1/2+x,1/2-y,z
loop_
_atom_site_type_symbol
_atom_site_label
_atom_site_fract_x
_atom_site_fract_y
_atom_site_fract_z
Si Si1 0.640980 0.173589 0.623031
Si Si2 0.403415 0.677051 0.013078
Si Si3 0.658742 0.676060 0.040624
Si Si4 0.655516 0.826167 0.508535
Si Si5 0.721645 0.326138 0.709769
Si Si6 0.593464 0.323999 0.463644
Si Si7 0.120362 0.176753 0.870397
Si Si8 0.039370 0.172659 0.771906
O O1 0.613844 0.205043 0.588730
O O2 0.735925 0.263595 0.572053
O O3 0.552305 0.230587 0.716395
O O4 0.661563 0.000000 0.616771
O O5 0.411020 0.500000 0.005442
O O6 0.349526 0.725262 0.098515
O O7 0.344882 0.735425 0.009638
O O8 0.513043 0.742225 0.935067
O O9 0.671025 0.500000 0.033823
O O10 0.560590 0.725794 0.135034
O O11 0.750000 0.750000 0.000000
O O12 0.586137 0.747678 0.519727
O O13 0.660552 0.000000 0.493481
O O14 0.750566 0.500000 0.688382
O O15 0.810333 0.229683 0.629518
O O16 0.698248 0.267901 0.778079
O O17 0.626464 0.295351 0.746129
O O18 0.500000 0.271980 0.500000
O O19 0.596982 0.500000 0.466856
O O20 0.114408 0.000000 0.870304
O O21 0.035152 0.000000 0.761005
#
# Coordination Sequence:
#
# PCOD8082702 Si02
#       8
#     8   8   8   8   8   8   8   8
#     4  10  20  33  54  83 110 136 173 222 270 316
#     4   8  13  25  47  74 103 131 164 208 258 303
#     4  10  20  34  51  75 108 144 178 214 261 316
#     4  10  20  35  55  80 108 139 176 218 266 318
#     4  10  18  31  54  82 105 130 174 223 267 312
#     4  11  24  39  54  76 108 144 179 216 267 324
#     4   8  13  24  48  79 102 124 162 216 263 299
#     4  10  19  32  52  79 108 139 179 223 265 312
#
# _framework density 17.897741
#
# number of rings (size 3 to 8) (size 9 to 14) (size 15 to 20)
#    0.000    2.375    2.500    1.875    0.000    3.000 
#    0.000    1.250    0.000    5.250    0.000    1.750 
#    0.000    0.000    0.000    0.000    0.000    0.000 
#
# Total GULP energy -396694.263863 kJ/mol
# GULP energy per Si atom -12396.695746 kJ/mol
# Density = 1.785700 g / cm^3
# Si number density = 17.897741 Si / 1000 Ang^3
#
#
#
# Elastic Constant Matrix: (Units=GPa)
#
#
# Indices 1 2 3 4 5 6 
#
# 1 153.6455 48.7595 68.2950 0.0027 13.2708 0.0026
# 2 48.7595 54.0353 34.4455 0.0021 2.7521 0.0262
# 3 68.2950 34.4455 94.3451 -0.0018 12.8133 0.0121
# 4 0.0027 0.0021 -0.0018 22.5267 -0.0031 -1.3890
# 5 13.2708 2.7521 12.8133 -0.0031 34.3403 -0.0010
# 6 0.0026 0.0262 0.0121 -1.3890 -0.0010 25.4829
#
#
#
# Elastic Compliance Matrix: (Units=1/GPa)
#
#
# Indices 1 2 3 4 5 6 
#
# 1 0.011146 -0.006487 -0.005463 -0.000001 -0.001749 0.000008
# 2 -0.006487 0.027961 -0.005846 -0.000004 0.002447 -0.000025
# 3 -0.005463 -0.005846 0.017210 0.000002 -0.003842 -0.000002
# 4 -0.000001 -0.000004 0.000002 0.044541 0.000004 0.002428
# 5 -0.001749 0.002447 -0.003842 0.000004 0.031034 0.000001
# 6 0.000008 -0.000025 -0.000002 0.002428 0.000001 0.039374
#
#
# Mechanical properties :
#
#
# Convention : Reuss Voigt Hill
#
# Bulk Modulus (GPa) = 48.24473 67.22512 57.73493
# Shear Modulus (GPa) = 23.39005 26.50503 24.94754
#
# Velocity S-wave (km/s) = 3.61899 3.85244 3.73754
# Velocity P-wave (km/s) = 6.66911 7.57830 7.13820
#
# Compressibility (1/GPa) = 0.02072765
#
# Stress axis : x y z
#
# Youngs Moduli (GPa) = 89.71580 35.76363 58.10645
#
# Poissons Ratio (x) = 0.23198 0.31742
# Poissons Ratio (y) = 0.58195 0.33966
# Poissons Ratio (z) = 0.49010 0.20906
#
# Static dielectric constant tensor:
#      x y z
#    x 3.567010 -0.000010 0.338920 
#    y -0.000010 3.052120 0.000000 
#    z 0.338920 0.000000 3.397770 
# 
# 
# High freq. dielectric constant tensor:
#      x y z
#    x 1.694920 0.000000 0.026920 
#    y 0.000000 1.666950 0.000000 
#    z 0.026920 0.000000 1.683390 
# 
# From -- ./inp_files/382374.got.cif
#   From: 2010.06.25/outbox.cif.g09.slc.cpg/sg12_192_cif.got.tgz:382374.got - 2010.06.28 00:19:55.
