data_PCOD8082382
_publ_section_title
;
Structure prediction by ZEFSAII (Michael W. Deem and Ramdas Pophale) SiO2 
 PCOD8082382
Probable space group: C 2/M
;
_chemical_formula_sum "Si O2"
_cell_formula_units_Z 48
_cell_length_a 15.052090
_cell_length_b 16.902137
_cell_length_c 13.869506
_cell_angle_alpha 90.000000
_cell_angle_beta 136.555191
_cell_angle_gamma 90.000000
_cell_volume 2426.444465
_symmetry_space_group_name_H-M "C 2/M"
_symmetry_group_IT_number 12
_symmetry_cell_setting 'monoclinic'
loop_
_space_group_symop_operation_xyz
x,y,z
-x,y,-z
-x,-y,-z
x,-y,z
1/2+x,1/2+y,z
1/2-x,1/2+y,-z
1/2-x,1/2-y,-z
1/2+x,1/2-y,z
loop_
_atom_site_type_symbol
_atom_site_label
_atom_site_fract_x
_atom_site_fract_y
_atom_site_fract_z
Si Si1 0.421318 0.406904 0.218413
Si Si2 0.450781 0.088273 0.854164
Si Si3 0.612269 0.286553 0.418283
Si Si4 0.180991 0.408286 0.907979
Si Si5 0.418010 0.826397 0.344055
Si Si6 0.811040 0.169270 0.320699
O O1 0.453991 0.500000 0.235874
O O2 0.551724 0.354748 0.300861
O O3 0.362043 0.389422 0.277969
O O4 0.318142 0.377128 0.056679
O O5 0.562444 0.127363 0.876376
O O6 0.330928 0.147076 0.755554
O O7 0.410915 0.000000 0.785827
O O8 0.500000 0.081095 0.000000
O O9 0.750000 0.250000 0.500000
O O10 0.517636 0.211930 0.346983
O O11 0.603101 0.331501 0.514601
O O12 0.180927 0.500000 0.929081
O O13 0.160544 0.392591 0.777637
O O14 0.500000 0.861074 0.500000
O O15 0.311556 0.761105 0.288953
#
# Coordination Sequence:
#
# PCOD8082382 Si02
#       6
#     8   8   8   8   8   8
#     4  10  20  35  55  81 112 142 178 225 278 333
#     4  10  18  31  51  80 117 141 169 219 269 329
#     4  10  21  36  52  77 111 146 185 226 268 328
#     4  10  20  35  56  82 110 145 184 225 278 328
#     4   9  20  37  55  77 108 144 190 230 266 322
#     4  10  19  33  54  79 111 145 182 221 268 325
#
# _framework density 19.782031
#
# number of rings (size 3 to 8) (size 9 to 14) (size 15 to 20)
#    0.000    2.167    1.667    3.000    0.000    5.000 
#    3.000    0.833    0.000    1.000    0.000    9.333 
#    0.000    0.000    0.000    0.000    0.000    0.000 
#
# Total GULP energy -297330.857679 kJ/mol
# GULP energy per Si atom -12388.785737 kJ/mol
# Density = 1.973701 g / cm^3
# Si number density = 19.782031 Si / 1000 Ang^3
#
#
#
# Elastic Constant Matrix: (Units=GPa)
#
#
# Indices 1 2 3 4 5 6 
#
# 1 59.8937 33.1782 44.7358 0.0000 9.6753 0.0001
# 2 33.1782 38.8890 49.4682 0.0000 6.5242 0.0000
# 3 44.7358 49.4682 121.6378 0.0000 -2.0244 0.0001
# 4 0.0000 0.0000 0.0000 39.3026 0.0000 8.7674
# 5 9.6753 6.5242 -2.0244 0.0000 37.4493 0.0001
# 6 0.0001 0.0000 0.0001 8.7674 0.0001 36.1332
#
#
#
# Elastic Compliance Matrix: (Units=1/GPa)
#
#
# Indices 1 2 3 4 5 6 
#
# 1 0.032386 -0.024182 -0.002147 0.000000 -0.004270 0.000000
# 2 -0.024182 0.075765 -0.022055 0.000000 -0.008144 0.000000
# 3 -0.002147 -0.022055 0.018070 0.000000 0.005374 0.000000
# 4 0.000000 0.000000 0.000000 0.026900 0.000000 -0.006527
# 5 -0.004270 -0.008144 0.005374 0.000000 0.029515 0.000000
# 6 0.000000 0.000000 0.000000 -0.006527 0.000000 0.029259
#
#
# Mechanical properties :
#
#
# Convention : Reuss Voigt Hill
#
# Bulk Modulus (GPa) = 33.95241 52.79830 43.37535
# Shear Modulus (GPa) = 15.69958 28.77957 22.23957
#
# Velocity S-wave (km/s) = 2.82020 3.81837 3.35659
# Velocity P-wave (km/s) = 5.27306 6.79617 6.08248
#
# Compressibility (1/GPa) = 0.02945299
#
# Stress axis : x y z
#
# Youngs Moduli (GPa) = 30.87793 13.19865 55.34156
#
# Poissons Ratio (x) = 0.31917 0.11884
# Poissons Ratio (y) = 0.74668 1.22053
# Poissons Ratio (z) = 0.06631 0.29109
#
# Static dielectric constant tensor:
#      x y z
#    x 4.062860 0.000000 0.908150 
#    y 0.000000 3.458480 0.000000 
#    z 0.908150 0.000000 4.928130 
# 
# 
# High freq. dielectric constant tensor:
#      x y z
#    x 1.745590 0.000000 0.002800 
#    y 0.000000 1.750370 0.000000 
#    z 0.002800 0.000000 1.785100 
# 
# From -- ./inp_files/168345.got.cif
#   From: 2010.06.25/outbox.cif.g09.slc.cpg/sg12_85_cif.got.tgz:168345.got - 2010.06.28 00:19:55.
