data_PCOD8082391
_publ_section_title
;
Structure prediction by ZEFSAII (Michael W. Deem and Ramdas Pophale) SiO2 
 PCOD8082391
Probable space group: C 2/M
;
_chemical_formula_sum "Si O2"
_cell_formula_units_Z 56
_cell_length_a 21.559175
_cell_length_b 19.541782
_cell_length_c 22.117222
_cell_angle_alpha 90.000000
_cell_angle_beta 161.051174
_cell_angle_gamma 90.000000
_cell_volume 3025.802929
_symmetry_space_group_name_H-M "C 2/M"
_symmetry_group_IT_number 12
_symmetry_cell_setting 'monoclinic'
loop_
_space_group_symop_operation_xyz
x,y,z
-x,y,-z
-x,-y,-z
x,-y,z
1/2+x,1/2+y,z
1/2-x,1/2+y,-z
1/2-x,1/2-y,-z
1/2+x,1/2-y,z
loop_
_atom_site_type_symbol
_atom_site_label
_atom_site_fract_x
_atom_site_fract_y
_atom_site_fract_z
Si Si1 0.019349 0.859987 0.585714
Si Si2 0.648267 0.312304 0.322657
Si Si3 0.507253 0.196678 0.438823
Si Si4 0.083895 0.669749 0.014085
Si Si5 0.650882 0.079724 0.286804
Si Si6 0.409704 0.825997 0.669036
Si Si7 0.266520 0.300065 0.914941
O O1 0.992338 0.778398 0.563795
O O2 0.875154 0.900926 0.496425
O O3 0.000000 0.887525 0.500000
O O4 0.231033 0.876820 0.803786
O O5 0.792669 0.330249 0.401928
O O6 0.651194 0.231104 0.338604
O O7 0.732352 0.346129 0.461413
O O8 0.440003 0.340737 0.108500
O O9 0.500000 0.168341 0.500000
O O10 0.326512 0.167984 0.232300
O O11 0.136217 0.728085 0.013457
O O12 0.000000 0.701202 0.000000
O O13 0.925992 0.619036 0.842699
O O14 0.546299 0.105679 0.251850
O O15 0.614533 0.000000 0.246807
O O16 0.592770 0.795301 0.802406
#
# Coordination Sequence:
#
# PCOD8082391 Si02
#       7
#     8   8   8   8   8   8   8
#     4  10  19  35  51  68 100 142 178 221 254 296
#     4  10  18  31  52  72 101 133 167 226 265 322
#     4   9  18  29  48  77 106 135 166 201 259 323
#     4  11  22  36  55  80 110 141 181 221 269 320
#     4  12  25  39  54  72 105 150 193 227 257 305
#     4  10  21  35  49  77 100 130 186 223 273 318
#     4  10  20  30  55  79 102 141 166 218 280 321
#
# _framework density 18.507484999999999
#
# number of rings (size 3 to 8) (size 9 to 14) (size 15 to 20)
#    0.000    1.714    4.286    0.429    6.000    1.143 
#    0.000    0.000    0.000    0.000    0.000    0.000 
#    0.000    9.714    0.000    2.286    0.000    0.000 
#
# Total GULP energy -346924.059616 kJ/mol
# GULP energy per Si atom -12390.144986 kJ/mol
# Density = 1.846536 g / cm^3
# Si number density = 18.507485 Si / 1000 Ang^3
#
#
#
# Elastic Constant Matrix: (Units=GPa)
#
#
# Indices 1 2 3 4 5 6 
#
# 1 104.6513 19.6049 41.2879 0.0351 -2.8991 0.0124
# 2 19.6049 29.1522 1.5648 0.0136 4.8732 0.0088
# 3 41.2879 1.5648 130.9693 -0.1714 -2.5703 -0.0107
# 4 0.0351 0.0136 -0.1714 9.1445 -0.0264 0.6011
# 5 -2.8991 4.8732 -2.5703 -0.0264 28.2440 0.0210
# 6 0.0124 0.0088 -0.0107 0.6011 0.0210 10.6568
#
#
#
# Elastic Compliance Matrix: (Units=1/GPa)
#
#
# Indices 1 2 3 4 5 6 
#
# 1 0.012809 -0.008821 -0.003884 -0.000101 0.002483 -0.000011
# 2 -0.008821 0.041434 0.002131 -0.000010 -0.007860 -0.000006
# 3 -0.003884 0.002131 0.008835 0.000177 0.000038 0.000002
# 4 -0.000101 -0.000010 0.000177 0.109766 0.000115 -0.006191
# 5 0.002483 -0.007860 0.000038 0.000115 0.037021 -0.000076
# 6 -0.000011 -0.000006 0.000002 -0.006191 -0.000076 0.094186
#
#
# Mechanical properties :
#
#
# Convention : Reuss Voigt Hill
#
# Bulk Modulus (GPa) = 23.84821 43.29866 33.57343
# Shear Modulus (GPa) = 14.74165 23.09676 18.91920
#
# Velocity S-wave (km/s) = 2.82534 3.53649 3.20073
# Velocity P-wave (km/s) = 4.85356 6.33417 5.64264
#
# Compressibility (1/GPa) = 0.04193187
#
# Stress axis : x y z
#
# Youngs Moduli (GPa) = 78.06897 24.13467 113.18188
#
# Poissons Ratio (x) = 0.21289 0.43961
# Poissons Ratio (y) = 0.68862 -0.24124
# Poissons Ratio (z) = 0.30323 -0.05144
#
# Static dielectric constant tensor:
#      x y z
#    x 3.569170 -0.000080 -0.136420 
#    y -0.000080 2.643560 -0.000050 
#    z -0.136420 -0.000050 3.913650 
# 
# 
# High freq. dielectric constant tensor:
#      x y z
#    x 1.733760 -0.000010 -0.005820 
#    y -0.000010 1.617950 -0.000010 
#    z -0.005820 -0.000010 1.745640 
# 
# From -- ./inp_files/322730.got.cif
#   From: 2010.06.25/outbox.cif.g09.slc.cpg/sg12_162_cif.got.tgz:322730.got - 2010.06.28 00:19:55.
