data_PCOD8082600
_publ_section_title
;
Structure prediction by ZEFSAII (Michael W. Deem and Ramdas Pophale) SiO2 
 PCOD8082600
Probable space group: C 2/M
;
_chemical_formula_sum "Si O2"
_cell_formula_units_Z 56
_cell_length_a 28.492987
_cell_length_b 15.783880
_cell_length_c 12.278441
_cell_angle_alpha 90.000000
_cell_angle_beta 33.663903
_cell_angle_gamma 90.000000
_cell_volume 3060.945978
_symmetry_space_group_name_H-M "C 2/M"
_symmetry_group_IT_number 12
_symmetry_cell_setting 'monoclinic'
loop_
_space_group_symop_operation_xyz
x,y,z
-x,y,-z
-x,-y,-z
x,-y,z
1/2+x,1/2+y,z
1/2-x,1/2+y,-z
1/2-x,1/2-y,-z
1/2+x,1/2-y,z
loop_
_atom_site_type_symbol
_atom_site_label
_atom_site_fract_x
_atom_site_fract_y
_atom_site_fract_z
Si Si1 0.947428 0.906902 0.210373
Si Si2 0.517541 0.150373 0.293990
Si Si3 0.085523 0.809081 0.049657
Si Si4 0.745190 0.595724 0.820217
Si Si5 0.118036 0.403897 0.285974
Si Si6 0.850595 0.754262 0.307544
Si Si7 0.393811 0.094915 0.361402
O O1 0.875760 0.834269 0.335851
O O2 0.015296 0.882124 0.171592
O O3 0.907261 0.000000 0.315230
O O4 0.000000 0.914751 0.000000
O O5 0.542750 0.243668 0.212503
O O6 0.444163 0.156850 0.526189
O O7 0.601094 0.107470 0.189119
O O8 0.482414 0.100052 0.256583
O O9 0.167630 0.842781 0.951964
O O10 0.110914 0.766361 0.886297
O O11 0.711708 0.500000 0.877296
O O12 0.785441 0.614795 0.862513
O O13 0.815594 0.612309 0.592550
O O14 0.095884 0.500000 0.364413
O O15 0.750000 0.750000 0.500000
O O16 0.890581 0.666572 0.274525
O O17 0.387799 0.000000 0.321985
#
# Coordination Sequence:
#
# PCOD8082600 Si02
#       7
#     8   8   8   8   8   8   8
#     4   9  19  34  53  73  99 135 178 221 256 293
#     4  10  18  31  53  79 104 132 168 222 265 306
#     4  11  20  31  52  79 109 132 175 221 262 305
#     4   9  18  32  53  77 101 135 179 221 258 303
#     4   9  18  35  56  77 101 137 182 218 259 318
#     4  11  21  35  51  75 109 141 176 215 255 318
#     4  10  19  34  53  74 104 145 178 208 258 315
#
# _framework density 18.294998
#
# number of rings (size 3 to 8) (size 9 to 14) (size 15 to 20)
#    0.000    2.143    2.857    3.000    0.000    1.714 
#    0.000    2.857    0.000    0.000    0.000   12.000 
#    0.000    0.000    0.000    0.000    0.000    0.000 
#
# Total GULP energy -346961.131729 kJ/mol
# GULP energy per Si atom -12391.468990 kJ/mol
# Density = 1.825336 g / cm^3
# Si number density = 18.294998 Si / 1000 Ang^3
#
#
#
# Elastic Constant Matrix: (Units=GPa)
#
#
# Indices 1 2 3 4 5 6 
#
# 1 141.7105 68.1169 29.9495 0.0000 -22.8742 0.0000
# 2 68.1169 142.1695 38.0297 0.0000 -14.1101 0.0000
# 3 29.9495 38.0297 35.5053 0.0000 -10.8759 0.0000
# 4 0.0000 0.0000 0.0000 180.0045 0.0000 101.3688
# 5 -22.8742 -14.1101 -10.8759 0.0000 22.0600 0.0000
# 6 0.0000 0.0000 0.0000 101.3688 0.0000 103.7009
#
#
#
# Elastic Compliance Matrix: (Units=1/GPa)
#
#
# Indices 1 2 3 4 5 6 
#
# 1 0.010545 -0.003571 -0.002851 0.000000 0.007245 0.000000
# 2 -0.003571 0.011099 -0.009230 0.000000 -0.001154 0.000000
# 3 -0.002851 -0.009230 0.044455 0.000000 0.013057 0.000000
# 4 0.000000 0.000000 0.000000 0.012359 0.000000 -0.012081
# 5 0.007245 -0.001154 0.013057 0.000000 0.058542 0.000000
# 6 0.000000 0.000000 0.000000 -0.012081 0.000000 0.021452
#
#
# Mechanical properties :
#
#
# Convention : Reuss Voigt Hill
#
# Bulk Modulus (GPa) = 28.73865 65.73082 47.23474
# Shear Modulus (GPa) = 24.83189 73.37237 49.10213
#
# Velocity S-wave (km/s) = 3.68816 6.33973 5.18627
# Velocity P-wave (km/s) = 5.82059 9.46551 7.85733
#
# Compressibility (1/GPa) = 0.03479634
#
# Stress axis : x y z
#
# Youngs Moduli (GPa) = 94.83244 90.09802 22.49450
#
# Poissons Ratio (x) = 0.32171 0.06414
# Poissons Ratio (y) = 0.33861 0.20762
# Poissons Ratio (z) = 0.27039 0.83157
#
# Static dielectric constant tensor:
#      x y z
#    x 3.897930 0.000000 -0.172570 
#    y 0.000000 3.572950 0.000000 
#    z -0.172570 0.000000 2.899620 
# 
# 
# High freq. dielectric constant tensor:
#      x y z
#    x 1.729550 0.000000 -0.020480 
#    y 0.000000 1.710080 0.000000 
#    z -0.020480 0.000000 1.653960 
# 
# From -- ./inp_files/189628.got.cif
#   From: 2010.06.25/outbox.cif.g09.slc.cpg/sg12_95_cif.got.tgz:189628.got - 2010.06.28 00:19:55.
