data_PCOD8082731
_publ_section_title
;
Structure prediction by ZEFSAII (Michael W. Deem and Ramdas Pophale) SiO2 
 PCOD8082731
Probable space group: C 2/M
;
_chemical_formula_sum "Si O2"
_cell_formula_units_Z 60
_cell_length_a 23.422448
_cell_length_b 15.411796
_cell_length_c 16.986572
_cell_angle_alpha 90.000000
_cell_angle_beta 30.589471
_cell_angle_gamma 90.000000
_cell_volume 3120.393903
_symmetry_space_group_name_H-M "C 2/M"
_symmetry_group_IT_number 12
_symmetry_cell_setting 'monoclinic'
loop_
_space_group_symop_operation_xyz
x,y,z
-x,y,-z
-x,-y,-z
x,-y,z
1/2+x,1/2+y,z
1/2-x,1/2+y,-z
1/2-x,1/2-y,-z
1/2+x,1/2-y,z
loop_
_atom_site_type_symbol
_atom_site_label
_atom_site_fract_x
_atom_site_fract_y
_atom_site_fract_z
Si Si1 0.158639 0.786337 0.389117
Si Si2 0.087615 0.735667 0.963155
Si Si3 0.885020 0.401268 0.938022
Si Si4 0.628281 0.405256 0.285519
Si Si5 0.546195 0.599647 0.633666
Si Si6 0.338543 0.097664 0.823556
Si Si7 0.500000 0.845431 0.500000
Si Si8 0.399117 0.601023 0.954798
O O1 0.288989 0.771755 0.219982
O O2 0.104158 0.851880 0.391794
O O3 0.143856 0.831479 0.493260
O O4 0.082806 0.702174 0.463546
O O5 0.060553 0.667810 0.066170
O O6 0.071567 0.835744 0.007910
O O7 0.000000 0.712313 0.000000
O O8 0.935691 0.500000 0.887760
O O9 0.896114 0.363819 0.834885
O O10 0.755527 0.403225 0.110062
O O11 0.587015 0.500000 0.356425
O O12 0.559620 0.369972 0.292919
O O13 0.584954 0.500000 0.572822
O O14 0.505879 0.609730 0.770782
O O15 0.421131 0.099040 0.650977
O O16 0.309963 0.000000 0.881515
O O17 0.217328 0.138637 0.944820
O O18 0.384956 0.500000 0.998746
#
# Coordination Sequence:
#
# PCOD8082731 Si02
#       8
#     8   8   8   8   8   8   4   8
#     4  11  21  32  50  85 118 147 191 236 298 349
#     4  11  25  42  59  83 115 165 210 244 285 344
#     4   9  19  35  59  86 115 151 192 238 294 360
#     4   9  15  27  48  79 117 145 170 217 286 358
#     4  10  18  31  54  85 118 148 183 239 303 354
#     4  10  20  36  56  86 122 153 189 237 304 369
#     4  12  21  30  53  90 122 150 182 238 313 358
#     4  10  21  38  62  88 116 156 201 247 296 351
#
# _framework density 19.228342000000001
#
# number of rings (size 3 to 8) (size 9 to 14) (size 15 to 20)
#    0.000    1.867    4.000    0.600    1.867    2.667 
#    0.000    0.667    0.000    0.000    0.000    0.000 
#    0.000    0.000    0.000    0.000    0.000    0.000 
#
# Total GULP energy -371679.354929 kJ/mol
# GULP energy per Si atom -12389.311831 kJ/mol
# Density = 1.918458 g / cm^3
# Si number density = 19.228342 Si / 1000 Ang^3
#
#
#
# Elastic Constant Matrix: (Units=GPa)
#
#
# Indices 1 2 3 4 5 6 
#
# 1 70.6941 30.2830 17.7614 0.0000 7.8629 0.0000
# 2 30.2830 74.2291 22.4043 0.0000 8.4796 0.0000
# 3 17.7614 22.4043 72.1771 0.0000 15.8646 0.0000
# 4 0.0000 0.0000 0.0000 31.8068 0.0000 9.1936
# 5 7.8629 8.4796 15.8646 0.0000 21.6485 0.0000
# 6 0.0000 0.0000 0.0000 9.1936 0.0000 22.6641
#
#
#
# Elastic Compliance Matrix: (Units=1/GPa)
#
#
# Indices 1 2 3 4 5 6 
#
# 1 0.017602 -0.006344 -0.001792 0.000000 -0.002595 0.000000
# 2 -0.006344 0.017306 -0.003370 0.000000 -0.002005 0.000000
# 3 -0.001792 -0.003370 0.017771 0.000000 -0.011052 0.000000
# 4 0.000000 0.000000 0.000000 0.035616 0.000000 -0.014447
# 5 -0.002595 -0.002005 -0.011052 0.000000 0.056020 0.000000
# 6 0.000000 0.000000 0.000000 -0.014447 0.000000 0.049983
#
#
# Mechanical properties :
#
#
# Convention : Reuss Voigt Hill
#
# Bulk Modulus (GPa) = 33.70695 39.77752 36.74224
# Shear Modulus (GPa) = 22.00720 25.00066 23.50393
#
# Velocity S-wave (km/s) = 3.38674 3.60974 3.50002
# Velocity P-wave (km/s) = 5.73247 6.17296 5.95679
#
# Compressibility (1/GPa) = 0.02966747
#
# Stress axis : x y z
#
# Youngs Moduli (GPa) = 56.81276 57.78337 56.27077
#
# Poissons Ratio (x) = 0.36655 0.10083
# Poissons Ratio (y) = 0.36040 0.18964
# Poissons Ratio (z) = 0.10180 0.19474
#
# Static dielectric constant tensor:
#      x y z
#    x 3.153720 0.000000 0.202800 
#    y 0.000000 3.645590 0.000000 
#    z 0.202800 0.000000 3.775750 
# 
# 
# High freq. dielectric constant tensor:
#      x y z
#    x 1.698980 0.000000 0.016830 
#    y 0.000000 1.746900 0.000000 
#    z 0.016830 0.000000 1.755700 
# 
# From -- ./inp_files/233876.got.cif
#   From: 2010.06.25/outbox.cif.g09.slc.cpg/sg12_117_cif.got.tgz:233876.got - 2010.06.28 00:19:55.
