data_PCOD8082422
_publ_section_title
;
Structure prediction by ZEFSAII (Michael W. Deem and Ramdas Pophale) SiO2 
 PCOD8082422
Probable space group: C 2/M
;
_chemical_formula_sum "Si O2"
_cell_formula_units_Z 48
_cell_length_a 18.354956
_cell_length_b 8.691154
_cell_length_c 18.755612
_cell_angle_alpha 90.000000
_cell_angle_beta 119.353471
_cell_angle_gamma 90.000000
_cell_volume 2607.866304
_symmetry_space_group_name_H-M "C 2/M"
_symmetry_group_IT_number 12
_symmetry_cell_setting 'monoclinic'
loop_
_space_group_symop_operation_xyz
x,y,z
-x,y,-z
-x,-y,-z
x,-y,z
1/2+x,1/2+y,z
1/2-x,1/2+y,-z
1/2-x,1/2-y,-z
1/2+x,1/2-y,z
loop_
_atom_site_type_symbol
_atom_site_label
_atom_site_fract_x
_atom_site_fract_y
_atom_site_fract_z
Si Si1 0.415547 0.818464 0.163420
Si Si2 0.000334 0.179924 0.668290
Si Si3 0.078467 0.180851 0.989124
Si Si4 0.246473 0.682847 0.077168
Si Si5 0.667524 0.319101 0.493829
Si Si6 0.413956 0.172601 0.416692
O O1 0.489467 0.770708 0.252586
O O2 0.436373 0.752071 0.095777
O O3 0.329447 0.747834 0.155319
O O4 0.407427 0.000000 0.153624
O O5 0.073886 0.229518 0.649284
O O6 0.910173 0.225912 0.593809
O O7 0.007643 0.000000 0.686366
O O8 0.091907 0.000000 0.986939
O O9 0.159560 0.253814 0.068047
O O10 0.000000 0.222564 0.000000
O O11 0.247076 0.500000 0.078287
O O12 0.250000 0.750000 0.000000
O O13 0.676213 0.500000 0.505654
O O14 0.750000 0.250000 0.500000
O O15 0.656382 0.250071 0.567621
O O16 0.500000 0.171106 0.500000
O O17 0.385624 0.000000 0.383087
#
# Coordination Sequence:
#
# PCOD8082422 Si02
#       6
#     8   8   8   8   8   8
#     4  11  21  34  54  78 105 136 173 217 263 310
#     4  10  20  35  54  77 105 136 173 217 263 308
#     4  10  20  35  55  78 106 139 174 213 259 312
#     4  10  18  31  52  75 101 132 170 210 249 301
#     4  10  20  34  54  78 106 140 176 215 260 312
#     4   9  17  31  52  76 101 131 169 209 251 304
#
# _framework density 18.405850999999998
#
# number of rings (size 3 to 8) (size 9 to 14) (size 15 to 20)
#    0.000    2.000    0.000    7.000    0.000    5.333 
#    0.000    1.667    0.000    6.000    0.000    0.000 
#    0.000    0.000    0.000    0.000    0.000    0.000 
#
# Total GULP energy -297571.485677 kJ/mol
# GULP energy per Si atom -12398.811903 kJ/mol
# Density = 1.836396 g / cm^3
# Si number density = 18.405851 Si / 1000 Ang^3
#
#
#
# Elastic Constant Matrix: (Units=GPa)
#
#
# Indices 1 2 3 4 5 6 
#
# 1 139.5179 62.6367 40.7318 0.0000 -2.2492 0.0000
# 2 62.6367 129.3235 36.4566 0.0000 2.3006 0.0000
# 3 40.7318 36.4566 73.1506 0.0000 -3.3891 0.0000
# 4 0.0000 0.0000 0.0000 28.8308 0.0000 -0.7449
# 5 -2.2492 2.3006 -3.3891 0.0000 18.9848 0.0000
# 6 0.0000 0.0000 0.0000 -0.7449 0.0000 34.4532
#
#
#
# Elastic Compliance Matrix: (Units=1/GPa)
#
#
# Indices 1 2 3 4 5 6 
#
# 1 0.009948 -0.003825 -0.003587 0.000000 0.001002 0.000000
# 2 -0.003825 0.010536 -0.003228 0.000000 -0.002306 0.000000
# 3 -0.003587 -0.003228 0.017419 0.000000 0.003076 0.000000
# 4 0.000000 0.000000 0.000000 0.034705 0.000000 0.000750
# 5 0.001002 -0.002306 0.003076 0.000000 0.053621 0.000000
# 6 0.000000 0.000000 0.000000 0.000750 0.000000 0.029041
#
#
# Mechanical properties :
#
#
# Convention : Reuss Voigt Hill
#
# Bulk Modulus (GPa) = 60.15457 69.07135 64.61296
# Shear Modulus (GPa) = 27.45899 29.93156 28.69528
#
# Velocity S-wave (km/s) = 3.86665 4.03699 3.95274
# Velocity P-wave (km/s) = 7.25865 7.70312 7.48418
#
# Compressibility (1/GPa) = 0.01662384
#
# Stress axis : x y z
#
# Youngs Moduli (GPa) = 100.52266 94.91131 57.40937
#
# Poissons Ratio (x) = 0.36303 0.20590
# Poissons Ratio (y) = 0.38450 0.18532
# Poissons Ratio (z) = 0.36053 0.30637
#
# Static dielectric constant tensor:
#      x y z
#    x 3.608520 0.000000 0.200030 
#    y 0.000000 3.545130 0.000000 
#    z 0.200030 0.000000 3.406270 
# 
# 
# High freq. dielectric constant tensor:
#      x y z
#    x 1.705900 0.000000 0.003250 
#    y 0.000000 1.735130 0.000000 
#    z 0.003250 0.000000 1.693160 
# 
# From -- ./inp_files/274611.got.cif
#   From: 2010.06.25/outbox.cif.g09.slc.cpg/sg12_138_cif.got.tgz:274611.got - 2010.06.28 00:19:55.
