data_PCOD8082039
_publ_section_title
;
Structure prediction by ZEFSAII (Michael W. Deem and Ramdas Pophale) SiO2 
 PCOD8082039
Probable space group: C 2/M
;
_chemical_formula_sum "Si O2"
_cell_formula_units_Z 56
_cell_length_a 13.974448
_cell_length_b 17.790540
_cell_length_c 28.085666
_cell_angle_alpha 90.000000
_cell_angle_beta 27.930428
_cell_angle_gamma 90.000000
_cell_volume 3270.578374
_symmetry_space_group_name_H-M "C 2/M"
_symmetry_group_IT_number 12
_symmetry_cell_setting 'monoclinic'
loop_
_space_group_symop_operation_xyz
x,y,z
-x,y,-z
-x,-y,-z
x,-y,z
1/2+x,1/2+y,z
1/2-x,1/2+y,-z
1/2-x,1/2-y,-z
1/2+x,1/2-y,z
loop_
_atom_site_type_symbol
_atom_site_label
_atom_site_fract_x
_atom_site_fract_y
_atom_site_fract_z
Si Si1 0.013059 0.585604 0.380053
Si Si2 0.734933 0.192971 0.575172
Si Si3 0.694009 0.308326 0.348879
Si Si4 0.796998 0.865167 0.410151
Si Si5 0.211128 0.588612 0.882988
Si Si6 0.132827 0.143937 0.726184
Si Si7 0.214402 0.084607 0.256361
O O1 0.958960 0.500000 0.391882
O O2 0.257130 0.595695 0.280388
O O3 0.929082 0.636679 0.374657
O O4 0.916951 0.614503 0.471933
O O5 0.761876 0.163703 0.617128
O O6 0.646163 0.276893 0.612052
O O7 0.947353 0.194847 0.452146
O O8 0.804445 0.229563 0.291868
O O9 0.789100 0.364266 0.267594
O O10 0.784045 0.887296 0.360686
O O11 0.969094 0.913192 0.361363
O O12 0.255596 0.500000 0.867029
O O13 0.388171 0.632753 0.834053
O O14 0.199569 0.613376 0.832515
O O15 0.000000 0.611830 0.000000
O O16 0.287931 0.000000 0.234596
#
# Coordination Sequence:
#
# PCOD8082039 Si02
#       7
#     8   8   8   8   8   8   8
#     4  12  21  28  43  71 103 133 166 203 238 280
#     4  10  20  32  46  64 100 146 174 192 228 278
#     4  10  19  33  49  68  97 137 175 201 229 278
#     4  10  18  31  46  66  97 132 167 197 233 288
#     4   9  19  37  57  76  98 122 154 203 260 308
#     4  10  20  32  50  73  97 128 163 200 248 295
#     4  10  19  31  51  74  96 127 165 204 244 285
#
# _framework density 17.122353
#
# number of rings (size 3 to 8) (size 9 to 14) (size 15 to 20)
#    0.000    1.857    2.857    2.571    0.000    2.857 
#    0.000    2.143    0.000    0.000    0.000    0.000 
#    0.000    5.143    0.000    0.000    0.000    0.000 
#
# Total GULP energy -347121.931785 kJ/mol
# GULP energy per Si atom -12397.211849 kJ/mol
# Density = 1.708338 g / cm^3
# Si number density = 17.122353 Si / 1000 Ang^3
#
#
#
# Elastic Constant Matrix: (Units=GPa)
#
#
# Indices 1 2 3 4 5 6 
#
# 1 78.4665 36.9125 38.5918 0.0198 -5.4932 -0.0070
# 2 36.9125 75.5462 23.7967 0.0123 -4.9107 -0.0090
# 3 38.5918 23.7967 81.1157 0.0024 -1.0034 -0.0355
# 4 0.0198 0.0123 0.0024 15.8737 -0.0171 3.3435
# 5 -5.4932 -4.9107 -1.0034 -0.0171 16.0313 0.0033
# 6 -0.0070 -0.0090 -0.0355 3.3435 0.0033 24.8351
#
#
#
# Elastic Compliance Matrix: (Units=1/GPa)
#
#
# Indices 1 2 3 4 5 6 
#
# 1 0.020054 -0.007202 -0.007376 -0.000012 0.004204 -0.000006
# 2 -0.007202 0.017460 -0.001661 -0.000002 0.002777 0.000002
# 3 -0.007376 -0.001661 0.016300 0.000001 -0.002016 0.000021
# 4 -0.000012 -0.000002 0.000001 0.064836 0.000066 -0.008729
# 5 0.004204 0.002777 -0.002016 0.000066 0.064543 -0.000018
# 6 -0.000006 0.000002 0.000021 -0.008729 -0.000018 0.041441
#
#
# Mechanical properties :
#
#
# Convention : Reuss Voigt Hill
#
# Bulk Modulus (GPa) = 46.87186 48.19225 47.53206
# Shear Modulus (GPa) = 18.92330 20.40317 19.66324
#
# Velocity S-wave (km/s) = 3.32803 3.45572 3.39248
# Velocity P-wave (km/s) = 6.49629 6.64301 6.57006
#
# Compressibility (1/GPa) = 0.02133476
#
# Stress axis : x y z
#
# Youngs Moduli (GPa) = 49.86417 57.27481 61.35004
#
# Poissons Ratio (x) = 0.41249 0.45254
# Poissons Ratio (y) = 0.35912 0.10192
# Poissons Ratio (z) = 0.36782 0.09515
#
# Static dielectric constant tensor:
#      x y z
#    x 3.270750 0.000010 0.041180 
#    y 0.000010 3.102970 0.000070 
#    z 0.041180 0.000070 2.913140 
# 
# 
# High freq. dielectric constant tensor:
#      x y z
#    x 1.667950 0.000000 -0.000080 
#    y 0.000000 1.656240 0.000000 
#    z -0.000080 0.000000 1.614380 
# 
# From -- ./inp_files/361458.got.cif
#   From: 2010.06.25/outbox.cif.g09.slc.cpg/sg12_181_cif.got.tgz:361458.got - 2010.06.28 00:19:55.
