data_PCOD8082491
_publ_section_title
;
Structure prediction by ZEFSAII (Michael W. Deem and Ramdas Pophale) SiO2 
 PCOD8082491
Probable space group: C 2/M
;
_chemical_formula_sum "Si O2"
_cell_formula_units_Z 56
_cell_length_a 19.099365
_cell_length_b 8.614727
_cell_length_c 31.490537
_cell_angle_alpha 90.000000
_cell_angle_beta 145.281828
_cell_angle_gamma 90.000000
_cell_volume 2950.970945
_symmetry_space_group_name_H-M "C 2/M"
_symmetry_group_IT_number 12
_symmetry_cell_setting 'monoclinic'
loop_
_space_group_symop_operation_xyz
x,y,z
-x,y,-z
-x,-y,-z
x,-y,z
1/2+x,1/2+y,z
1/2-x,1/2+y,-z
1/2-x,1/2-y,-z
1/2+x,1/2-y,z
loop_
_atom_site_type_symbol
_atom_site_label
_atom_site_fract_x
_atom_site_fract_y
_atom_site_fract_z
Si Si1 0.181833 0.819773 0.097865
Si Si2 0.967034 0.320980 0.044154
Si Si3 0.077586 0.179647 0.747260
Si Si4 0.397059 0.820995 0.807232
Si Si5 0.861546 0.680371 0.309184
Si Si6 0.121320 0.678666 0.296971
Si Si7 0.601704 0.682099 0.583826
O O1 0.094983 0.717858 0.084643
O O2 0.322470 0.778506 0.176773
O O3 0.159431 0.000000 0.095839
O O4 0.144943 0.781183 0.030513
O O5 0.935089 0.500000 0.020667
O O6 0.987145 0.285488 0.104284
O O7 0.071385 0.227828 0.695089
O O8 0.945333 0.213265 0.702114
O O9 0.110356 0.000000 0.767474
O O10 0.283540 0.714079 0.764308
O O11 0.436150 0.788083 0.778331
O O12 0.353515 0.000000 0.790234
O O13 0.883804 0.500000 0.312807
O O14 0.921669 0.731213 0.383555
O O15 0.102770 0.500000 0.300700
O O16 0.264845 0.723725 0.368365
O O17 0.500000 0.740718 0.500000
O O18 0.590876 0.500000 0.587380
#
# Coordination Sequence:
#
# PCOD8082491 Si02
#       7
#     8   8   8   8   8   8   8
#     4  11  21  32  49  76 108 143 183 235 283 322
#     4  10  18  31  52  78 107 143 184 228 277 332
#     4  12  23  37  54  77 110 148 189 229 276 330
#     4   9  18  34  56  79 108 144 184 228 274 329
#     4  11  21  33  56  85 112 143 183 228 269 319
#     4   9  19  36  57  83 112 142 178 222 273 325
#     4   9  19  39  65  89 115 146 177 214 265 326
#
# _framework density 18.976804000000001
#
# number of rings (size 3 to 8) (size 9 to 14) (size 15 to 20)
#    0.000    1.857    1.429    6.000    0.000    3.143 
#    0.000    1.429    0.000    0.000    0.000    0.000 
#    0.000    0.000    0.000    0.000    0.000    0.000 
#
# Total GULP energy -347242.288650 kJ/mol
# GULP energy per Si atom -12401.510309 kJ/mol
# Density = 1.893361 g / cm^3
# Si number density = 18.976804 Si / 1000 Ang^3
#
#
#
# Elastic Constant Matrix: (Units=GPa)
#
#
# Indices 1 2 3 4 5 6 
#
# 1 95.0883 28.3156 42.6566 0.0000 -10.3143 -0.0001
# 2 28.3156 74.1351 27.3930 0.0002 -6.5429 -0.0003
# 3 42.6566 27.3930 124.1393 0.0000 -18.5660 0.0000
# 4 0.0000 0.0002 0.0000 23.7673 0.0000 0.8697
# 5 -10.3143 -6.5429 -18.5660 0.0000 21.9033 0.0000
# 6 -0.0001 -0.0003 0.0000 0.8697 0.0000 26.2921
#
#
#
# Elastic Compliance Matrix: (Units=1/GPa)
#
#
# Indices 1 2 3 4 5 6 
#
# 1 0.013400 -0.003638 -0.003459 0.000000 0.002291 0.000000
# 2 -0.003638 0.015742 -0.002034 0.000000 0.001265 0.000000
# 3 -0.003459 -0.002034 0.010717 0.000000 0.006848 0.000000
# 4 0.000000 0.000000 0.000000 0.042126 0.000000 -0.001393
# 5 0.002291 0.001265 0.006848 0.000000 0.052916 0.000000
# 6 0.000000 0.000000 0.000000 -0.001393 0.000000 0.038080
#
#
# Mechanical properties :
#
#
# Convention : Reuss Voigt Hill
#
# Bulk Modulus (GPa) = 46.30428 54.45480 50.37954
# Shear Modulus (GPa) = 25.19622 27.39237 26.29429
#
# Velocity S-wave (km/s) = 3.64777 3.80342 3.72641
# Velocity P-wave (km/s) = 6.49577 6.93150 6.71717
#
# Compressibility (1/GPa) = 0.02159628
#
# Stress axis : x y z
#
# Youngs Moduli (GPa) = 74.62633 63.52565 93.30859
#
# Poissons Ratio (x) = 0.23109 0.32277
# Poissons Ratio (y) = 0.27147 0.18983
# Poissons Ratio (z) = 0.25814 0.12924
#
# Static dielectric constant tensor:
#      x y z
#    x 3.270570 0.000000 -0.276000 
#    y 0.000000 3.391850 0.000000 
#    z -0.276000 0.000000 3.642810 
# 
# 
# High freq. dielectric constant tensor:
#      x y z
#    x 1.714350 0.000000 -0.020860 
#    y 0.000000 1.739360 0.000000 
#    z -0.020860 0.000000 1.732460 
# 
# From -- ./inp_files/377725.got.cif
#   From: 2010.06.25/outbox.cif.g09.slc.cpg/sg12_189_cif.got.tgz:377725.got - 2010.06.28 00:19:55.
