data_PCOD8082607
_publ_section_title
;
Structure prediction by ZEFSAII (Michael W. Deem and Ramdas Pophale) SiO2 
 PCOD8082607
Probable space group: C 2/M
;
_chemical_formula_sum "Si O2"
_cell_formula_units_Z 64
_cell_length_a 15.516616
_cell_length_b 8.940114
_cell_length_c 23.922910
_cell_angle_alpha 90.000000
_cell_angle_beta 88.805539
_cell_angle_gamma 90.000000
_cell_volume 3317.872514
_symmetry_space_group_name_H-M "C 2/M"
_symmetry_group_IT_number 12
_symmetry_cell_setting 'monoclinic'
loop_
_space_group_symop_operation_xyz
x,y,z
-x,y,-z
-x,-y,-z
x,-y,z
1/2+x,1/2+y,z
1/2-x,1/2+y,-z
1/2-x,1/2-y,-z
1/2+x,1/2-y,z
loop_
_atom_site_type_symbol
_atom_site_label
_atom_site_fract_x
_atom_site_fract_y
_atom_site_fract_z
Si Si1 0.407366 0.324053 0.376697
Si Si2 0.590485 0.177520 0.889628
Si Si3 0.248309 0.177570 0.184963
Si Si4 0.341753 0.324185 0.497783
Si Si5 0.658014 0.673462 0.996816
Si Si6 0.097634 0.177128 0.384843
Si Si7 0.257177 0.178009 0.311073
Si Si8 0.916090 0.173072 0.880583
O O1 0.393127 0.500000 0.368127
O O2 0.391441 0.277594 0.441124
O O3 0.505200 0.273582 0.361305
O O4 0.345243 0.236126 0.336334
O O5 0.667646 0.235654 0.848994
O O6 0.600787 0.250189 0.950164
O O7 0.500684 0.231855 0.864173
O O8 0.591220 0.000000 0.895653
O O9 0.250678 0.238695 0.248046
O O10 0.162105 0.236977 0.155921
O O11 0.247763 0.000000 0.183714
O O12 0.328149 0.500000 0.500942
O O13 0.250000 0.250000 0.500000
O O14 0.394313 0.266754 0.551249
O O15 0.671742 0.500000 0.982563
O O16 0.750000 0.750000 0.000000
O O17 0.606706 0.695096 0.054594
O O18 0.175135 0.243269 0.346167
O O19 0.103333 0.000000 0.383825
O O20 0.258677 0.000000 0.312644
O O21 0.934175 0.000000 0.866502
#
# Coordination Sequence:
#
# PCOD8082607 Si02
#       8
#     8   8   8   8   8   8   8   8
#     4  10  20  34  54  81 111 139 174 228 278 320
#     4  11  22  38  58  85 116 148 185 228 279 333
#     4   9  20  39  58  77 109 149 185 226 276 322
#     4  10  18  31  53  79 108 140 175 218 271 328
#     4  11  21  36  60  87 116 149 184 226 279 335
#     4   9  18  33  54  79 106 142 181 214 266 333
#     4  10  20  37  59  78 103 145 190 225 265 326
#     4  10  21  39  59  83 114 148 184 227 276 330
#
# _framework density 19.289469
#
# number of rings (size 3 to 8) (size 9 to 14) (size 15 to 20)
#    0.000    2.000    2.500    1.500    0.000    5.000 
#    0.000    4.375    0.000    1.500    0.000    0.000 
#    0.000    0.000    0.000    0.000    0.000    0.000 
#
# Total GULP energy -396824.250297 kJ/mol
# GULP energy per Si atom -12400.757822 kJ/mol
# Density = 1.924557 g / cm^3
# Si number density = 19.289469 Si / 1000 Ang^3
#
#
#
# Elastic Constant Matrix: (Units=GPa)
#
#
# Indices 1 2 3 4 5 6 
#
# 1 167.9762 33.0664 69.2901 0.0000 17.7364 0.0000
# 2 33.0664 41.7040 31.5939 0.0000 4.2948 0.0000
# 3 69.2901 31.5939 141.2604 0.0000 16.9565 0.0000
# 4 0.0000 0.0000 0.0000 20.5263 0.0000 4.7982
# 5 17.7364 4.2948 16.9565 0.0000 17.4573 0.0000
# 6 0.0000 0.0000 0.0000 4.7982 0.0000 34.8685
#
#
#
# Elastic Compliance Matrix: (Units=1/GPa)
#
#
# Indices 1 2 3 4 5 6 
#
# 1 0.008359 -0.004168 -0.002572 0.000000 -0.004970 0.000000
# 2 -0.004168 0.030962 -0.005065 0.000000 0.001537 0.000000
# 3 -0.002572 -0.005065 0.010199 0.000000 -0.006048 0.000000
# 4 0.000000 0.000000 0.000000 0.050337 0.000000 -0.006927
# 5 -0.004970 0.001537 -0.006048 0.000000 0.067828 0.000000
# 6 0.000000 0.000000 0.000000 -0.006927 0.000000 0.029632
#
#
# Mechanical properties :
#
#
# Convention : Reuss Voigt Hill
#
# Bulk Modulus (GPa) = 38.59274 68.76014 53.67644
# Shear Modulus (GPa) = 21.78041 29.03645 25.40843
#
# Velocity S-wave (km/s) = 3.36391 3.88403 3.63329
# Velocity P-wave (km/s) = 5.92777 7.47249 6.74450
#
# Compressibility (1/GPa) = 0.02591161
#
# Stress axis : x y z
#
# Youngs Moduli (GPa) = 119.62864 32.29767 98.04600
#
# Poissons Ratio (x) = 0.13461 0.25213
# Poissons Ratio (y) = 0.49860 0.49660
# Poissons Ratio (z) = 0.30763 0.16359
#
# Static dielectric constant tensor:
#      x y z
#    x 3.861340 0.000000 0.004240 
#    y 0.000000 3.229460 0.000000 
#    z 0.004240 0.000000 3.837770 
# 
# 
# High freq. dielectric constant tensor:
#      x y z
#    x 1.767300 0.000000 0.002560 
#    y 0.000000 1.718690 0.000000 
#    z 0.002560 0.000000 1.752030 
# 
# From -- ./inp_files/338692.got.cif
#   From: 2010.06.25/outbox.cif.g09.slc.cpg/sg12_170_cif.got.tgz:338692.got - 2010.06.28 00:19:55.
