data_PCOD8082658
_publ_section_title
;
Structure prediction by ZEFSAII (Michael W. Deem and Ramdas Pophale) SiO2 
 PCOD8082658
Probable space group: C 2/M
;
_chemical_formula_sum "Si O2"
_cell_formula_units_Z 64
_cell_length_a 14.552101
_cell_length_b 13.655737
_cell_length_c 20.629157
_cell_angle_alpha 90.000000
_cell_angle_beta 61.546482
_cell_angle_gamma 90.000000
_cell_volume 3604.225406
_symmetry_space_group_name_H-M "C 2/M"
_symmetry_group_IT_number 12
_symmetry_cell_setting 'monoclinic'
loop_
_space_group_symop_operation_xyz
x,y,z
-x,y,-z
-x,-y,-z
x,-y,z
1/2+x,1/2+y,z
1/2-x,1/2+y,-z
1/2-x,1/2-y,-z
1/2+x,1/2-y,z
loop_
_atom_site_type_symbol
_atom_site_label
_atom_site_fract_x
_atom_site_fract_y
_atom_site_fract_z
Si Si1 0.529952 0.796100 0.062556
Si Si2 0.665557 0.616755 0.325761
Si Si3 0.839069 0.613816 0.172168
Si Si4 0.010069 0.113180 0.712466
Si Si5 0.205690 0.885085 0.564087
Si Si6 0.042087 0.890869 0.128161
Si Si7 0.377555 0.272735 0.530168
Si Si8 0.284859 0.110161 0.050576
O O1 0.461632 0.859433 0.136873
O O2 0.501799 0.683019 0.086684
O O3 0.500000 0.825207 0.000000
O O4 0.652588 0.826098 0.025270
O O5 0.659417 0.500000 0.339646
O O6 0.771796 0.653391 0.255091
O O7 0.568744 0.656521 0.314898
O O8 0.667098 0.670687 0.393394
O O9 0.818604 0.500000 0.178213
O O10 0.797270 0.657906 0.118076
O O11 0.129984 0.130399 0.651465
O O12 0.988879 0.155423 0.791468
O O13 0.980568 0.000000 0.727802
O O14 0.314547 0.828715 0.540074
O O15 0.141957 0.843989 0.524013
O O16 0.230230 0.000000 0.545045
O O17 0.164497 0.892813 0.074673
O O18 0.994247 0.000000 0.134579
O O19 0.500000 0.249079 0.500000
O O20 0.331585 0.000000 0.033840
#
# Coordination Sequence:
#
# PCOD8082658 Si02
#       8
#     8   8   8   8   8   8   8   8
#     4  10  20  30  45  69  98 130 166 205 255 305
#     4  10  18  31  54  79 104 131 168 218 269 309
#     4   9  17  30  47  71  98 124 156 204 258 303
#     4   9  17  32  53  74  97 132 172 215 262 305
#     4  10  22  38  55  80 115 146 180 218 264 323
#     4  10  19  31  48  69  95 130 170 209 249 297
#     4  11  22  35  57  86 110 141 182 221 269 315
#     4   9  16  30  49  68  91 121 162 206 253 304
#
# _framework density 17.756934999999999
#
# number of rings (size 3 to 8) (size 9 to 14) (size 15 to 20)
#    0.000    2.250    2.500    1.125    1.750    2.500 
#    0.000    0.000    0.000    0.000    0.000    1.750 
#    0.000    0.000    0.000    0.000    0.000    0.000 
#
# Total GULP energy -396524.001588 kJ/mol
# GULP energy per Si atom -12391.375050 kJ/mol
# Density = 1.771652 g / cm^3
# Si number density = 17.756935 Si / 1000 Ang^3
#
#
#
# Elastic Constant Matrix: (Units=GPa)
#
#
# Indices 1 2 3 4 5 6 
#
# 1 66.8210 25.1018 36.1312 0.0000 -17.4742 0.0000
# 2 25.1018 64.4943 37.4894 0.0000 -6.2826 0.0000
# 3 36.1312 37.4894 97.9983 0.0000 -20.1271 0.0000
# 4 0.0000 0.0000 0.0000 26.2240 0.0000 1.1271
# 5 -17.4742 -6.2826 -20.1271 0.0000 23.0616 0.0000
# 6 0.0000 0.0000 0.0000 1.1271 0.0000 18.7033
#
#
#
# Elastic Compliance Matrix: (Units=1/GPa)
#
#
# Indices 1 2 3 4 5 6 
#
# 1 0.022091 -0.005311 -0.003621 0.000000 0.012131 0.000000
# 2 -0.005311 0.021258 -0.007080 0.000000 -0.004413 0.000000
# 3 -0.003621 -0.007080 0.016190 0.000000 0.009457 0.000000
# 4 0.000000 0.000000 0.000000 0.038232 0.000000 -0.002304
# 5 0.012131 -0.004413 0.009457 0.000000 0.059606 0.000000
# 6 0.000000 0.000000 0.000000 -0.002304 0.000000 0.053605
#
#
# Mechanical properties :
#
#
# Convention : Reuss Voigt Hill
#
# Bulk Modulus (GPa) = 36.34563 47.41760 41.88162
# Shear Modulus (GPa) = 19.82702 22.30385 21.06543
#
# Velocity S-wave (km/s) = 3.34515 3.54794 3.44804
# Velocity P-wave (km/s) = 5.95255 6.59891 6.28405
#
# Compressibility (1/GPa) = 0.02751362
#
# Stress axis : x y z
#
# Youngs Moduli (GPa) = 45.26689 47.04038 61.76472
#
# Poissons Ratio (x) = 0.24984 0.22368
# Poissons Ratio (y) = 0.24042 0.43732
# Poissons Ratio (z) = 0.16393 0.33307
#
# Static dielectric constant tensor:
#      x y z
#    x 3.123870 0.000000 -0.186850 
#    y 0.000000 3.191640 0.000000 
#    z -0.186850 0.000000 3.550500 
# 
# 
# High freq. dielectric constant tensor:
#      x y z
#    x 1.665140 0.000000 -0.018770 
#    y 0.000000 1.664060 0.000000 
#    z -0.018770 0.000000 1.700980 
# 
# From -- ./inp_files/269897.got.cif
#   From: 2010.06.25/outbox.cif.g09.slc.cpg/sg12_135_cif.got.tgz:269897.got - 2010.06.28 00:19:55.
