data_PCOD8082720
_publ_section_title
;
Structure prediction by ZEFSAII (Michael W. Deem and Ramdas Pophale) SiO2 
 PCOD8082720
Probable space group: C 2/M
;
_chemical_formula_sum "Si O2"
_cell_formula_units_Z 40
_cell_length_a 18.175687
_cell_length_b 8.610283
_cell_length_c 18.810538
_cell_angle_alpha 90.000000
_cell_angle_beta 136.557878
_cell_angle_gamma 90.000000
_cell_volume 2024.225597
_symmetry_space_group_name_H-M "C 2/M"
_symmetry_group_IT_number 12
_symmetry_cell_setting 'monoclinic'
loop_
_space_group_symop_operation_xyz
x,y,z
-x,y,-z
-x,-y,-z
x,-y,z
1/2+x,1/2+y,z
1/2-x,1/2+y,-z
1/2-x,1/2-y,-z
1/2+x,1/2-y,z
loop_
_atom_site_type_symbol
_atom_site_label
_atom_site_fract_x
_atom_site_fract_y
_atom_site_fract_z
Si Si1 0.730940 0.818184 0.909559
Si Si2 0.174620 0.818419 0.291124
Si Si3 0.985095 0.680288 0.708186
Si Si4 0.379649 0.180816 0.895649
Si Si5 0.332025 0.316570 0.500500
O O1 0.609820 0.786926 0.801745
O O2 0.805995 0.722925 0.909981
O O3 0.759405 0.000000 0.927704
O O4 0.750000 0.750000 0.000000
O O5 0.075281 0.757859 0.267836
O O6 0.155826 0.781788 0.196099
O O7 0.288768 0.741938 0.393957
O O8 0.184332 0.000000 0.309720
O O9 0.956903 0.500000 0.691050
O O10 0.947515 0.749962 0.605372
O O11 0.368859 0.000000 0.869172
O O12 0.500000 0.225122 0.000000
O O13 0.336443 0.500000 0.504565
O O14 0.250000 0.250000 0.500000
#
# Coordination Sequence:
#
# PCOD8082720 Si02
#       5
#     8   8   8   8   8
#     4  11  24  40  60  85 114 149 187 232 282 335
#     4  11  21  35  58  86 116 150 189 232 278 331
#     4  10  20  36  57  84 117 150 188 232 279 329
#     4  11  24  41  60  83 113 148 187 234 284 334
#     4  10  18  31  54  83 114 149 189 230 275 328
#
# _framework density 19.760643000000002
#
# number of rings (size 3 to 8) (size 9 to 14) (size 15 to 20)
#    0.000    1.400    0.000    9.000    0.000    9.600 
#    0.000    1.000    0.000    6.000    0.000    0.000 
#    0.000    0.000    0.000    0.000    0.000    0.000 
#
# Total GULP energy -248031.178501 kJ/mol
# GULP energy per Si atom -12401.558925 kJ/mol
# Density = 1.971567 g / cm^3
# Si number density = 19.760643 Si / 1000 Ang^3
#
#
#
# Elastic Constant Matrix: (Units=GPa)
#
#
# Indices 1 2 3 4 5 6 
#
# 1 77.4589 24.4993 44.5065 0.0000 -2.8153 0.0000
# 2 24.4993 127.1539 63.6495 0.0000 9.7822 0.0000
# 3 44.5065 63.6495 151.2514 0.0000 2.7946 0.0000
# 4 0.0000 0.0000 0.0000 35.8351 0.0000 -8.3249
# 5 -2.8153 9.7822 2.7946 0.0000 27.8019 0.0000
# 6 0.0000 0.0000 0.0000 -8.3249 0.0000 21.4546
#
#
#
# Elastic Compliance Matrix: (Units=1/GPa)
#
#
# Indices 1 2 3 4 5 6 
#
# 1 0.015773 -0.001114 -0.004217 0.000000 0.002413 0.000000
# 2 -0.001114 0.010314 -0.003951 0.000000 -0.003345 0.000000
# 3 -0.004217 -0.003951 0.009515 0.000000 0.000007 0.000000
# 4 0.000000 0.000000 0.000000 0.030670 0.000000 0.011901
# 5 0.002413 -0.003345 0.000007 0.000000 0.037389 0.000000
# 6 0.000000 0.000000 0.000000 0.011901 0.000000 0.051228
#
#
# Mechanical properties :
#
#
# Convention : Reuss Voigt Hill
#
# Bulk Modulus (GPa) = 58.69034 69.01941 63.85487
# Shear Modulus (GPa) = 27.91229 31.89893 29.90561
#
# Velocity S-wave (km/s) = 3.76243 4.02215 3.89445
# Velocity P-wave (km/s) = 6.97421 7.52156 7.25305
#
# Compressibility (1/GPa) = 0.01703858
#
# Stress axis : x y z
#
# Youngs Moduli (GPa) = 63.39872 96.95509 105.09807
#
# Poissons Ratio (x) = 0.10798 0.44323
# Poissons Ratio (y) = 0.07061 0.41523
# Poissons Ratio (z) = 0.26737 0.38305
#
# Static dielectric constant tensor:
#      x y z
#    x 3.318640 0.000000 0.149980 
#    y 0.000000 3.760480 0.000000 
#    z 0.149980 0.000000 4.294940 
# 
# 
# High freq. dielectric constant tensor:
#      x y z
#    x 1.739590 0.000000 0.004010 
#    y 0.000000 1.791200 0.000000 
#    z 0.004010 0.000000 1.798270 
# 
# From -- ./inp_files/274672.got.cif
#   From: 2010.06.25/outbox.cif.g09.slc.cpg/sg12_138_cif.got.tgz:274672.got - 2010.06.28 00:19:55.
