data_PCOD8082434
_publ_section_title
;
Structure prediction by ZEFSAII (Michael W. Deem and Ramdas Pophale) SiO2 
 PCOD8082434
Probable space group: C 2/M
;
_chemical_formula_sum "Si O2"
_cell_formula_units_Z 64
_cell_length_a 19.722145
_cell_length_b 9.037292
_cell_length_c 24.382630
_cell_angle_alpha 90.000000
_cell_angle_beta 50.820205
_cell_angle_gamma 90.000000
_cell_volume 3368.747551
_symmetry_space_group_name_H-M "C 2/M"
_symmetry_group_IT_number 12
_symmetry_cell_setting 'monoclinic'
loop_
_space_group_symop_operation_xyz
x,y,z
-x,y,-z
-x,-y,-z
x,-y,z
1/2+x,1/2+y,z
1/2-x,1/2+y,-z
1/2-x,1/2-y,-z
1/2+x,1/2-y,z
loop_
_atom_site_type_symbol
_atom_site_label
_atom_site_fract_x
_atom_site_fract_y
_atom_site_fract_z
Si Si1 0.457036 0.325123 0.372286
Si Si2 0.762453 0.175860 0.669200
Si Si3 0.428420 0.174366 0.993843
Si Si4 0.419723 0.174610 0.874222
Si Si5 0.155370 0.824537 0.262784
Si Si6 0.731184 0.676353 0.109827
Si Si7 0.413715 0.323984 0.514262
Si Si8 0.420245 0.825079 0.281872
O O1 0.451002 0.500000 0.367466
O O2 0.556799 0.270049 0.321079
O O3 0.411935 0.272465 0.451834
O O4 0.408633 0.246640 0.347139
O O5 0.789007 0.239837 0.714945
O O6 0.827831 0.238011 0.588882
O O7 0.664002 0.228008 0.709019
O O8 0.770060 0.000000 0.665597
O O9 0.452380 0.215689 0.918872
O O10 0.427758 0.000000 0.002936
O O11 0.500000 0.243145 0.000000
O O12 0.330695 0.234623 0.055340
O O13 0.327948 0.254374 0.908253
O O14 0.493689 0.231393 0.794071
O O15 0.404584 0.000000 0.877196
O O16 0.194145 0.763048 0.186371
O O17 0.160294 0.000000 0.259901
O O18 0.726138 0.500000 0.106886
O O19 0.500000 0.260132 0.500000
O O20 0.417229 0.500000 0.514944
O O21 0.422418 0.000000 0.287416
#
# Coordination Sequence:
#
# PCOD8082434 Si02
#       8
#     8   8   8   8   8   8   8   8
#     4  10  18  31  52  75  98 125 163 208 246 286
#     4   9  17  29  46  72 101 127 162 206 249 290
#     4   9  19  33  51  78 105 127 160 206 248 284
#     4  10  20  34  51  72 101 135 165 197 241 294
#     4   9  16  27  48  76  97 120 163 210 242 276
#     4  10  19  32  54  78  99 129 165 203 244 286
#     4   9  15  26  47  74  98 122 160 210 251 282
#     4  10  21  33  48  72 103 134 160 197 249 297
#
# _framework density 18.998159000000001
#
# number of rings (size 3 to 8) (size 9 to 14) (size 15 to 20)
#    0.000    2.500    2.500    0.375    1.750    0.500 
#    0.000    0.000    0.000    3.375    0.000    0.000 
#    0.000    0.000    0.000    0.000    0.000    0.000 
#
# Total GULP energy -396715.551807 kJ/mol
# GULP energy per Si atom -12397.360994 kJ/mol
# Density = 1.895492 g / cm^3
# Si number density = 18.998159 Si / 1000 Ang^3
#
#
#
# Elastic Constant Matrix: (Units=GPa)
#
#
# Indices 1 2 3 4 5 6 
#
# 1 136.5747 21.1505 47.0221 -0.0001 9.7861 -0.0002
# 2 21.1505 13.0735 13.9838 -0.0003 1.6726 -0.0010
# 3 47.0221 13.9838 104.1119 0.0000 9.0949 0.0000
# 4 -0.0001 -0.0003 0.0000 15.5776 0.0000 3.6400
# 5 9.7861 1.6726 9.0949 0.0000 37.5374 0.0000
# 6 -0.0002 -0.0010 0.0000 3.6400 0.0000 20.3454
#
#
#
# Elastic Compliance Matrix: (Units=1/GPa)
#
#
# Indices 1 2 3 4 5 6 
#
# 1 0.010529 -0.013893 -0.002762 0.000000 -0.001457 -0.000001
# 2 -0.013893 0.107700 -0.008263 0.000001 0.000825 0.000005
# 3 -0.002762 -0.008263 0.012124 0.000000 -0.001849 0.000000
# 4 0.000000 0.000001 0.000000 0.066996 0.000000 -0.011986
# 5 -0.001457 0.000825 -0.001849 0.000000 0.027431 0.000000
# 6 -0.000001 0.000005 0.000000 -0.011986 0.000000 0.051296
#
#
# Mechanical properties :
#
#
# Convention : Reuss Voigt Hill
#
# Bulk Modulus (GPa) = 12.41983 46.45255 29.43619
# Shear Modulus (GPa) = 14.17433 26.13232 20.15332
#
# Velocity S-wave (km/s) = 2.73443 3.71282 3.26053
# Velocity P-wave (km/s) = 4.06461 6.54860 5.45001
#
# Compressibility (1/GPa) = 0.08051638
#
# Stress axis : x y z
#
# Youngs Moduli (GPa) = 94.97691 9.28506 82.48148
#
# Poissons Ratio (x) = 0.12900 0.22782
# Poissons Ratio (y) = 1.31952 0.68155
# Poissons Ratio (z) = 0.26233 0.07672
#
# Static dielectric constant tensor:
#      x y z
#    x 3.653930 0.000000 0.029350 
#    y 0.000000 2.835210 0.000000 
#    z 0.029350 0.000000 3.751590 
# 
# 
# High freq. dielectric constant tensor:
#      x y z
#    x 1.747470 0.000000 0.005030 
#    y 0.000000 1.669550 0.000000 
#    z 0.005030 0.000000 1.754560 
# 
# From -- ./inp_files/276448.got.cif
#   From: 2010.06.25/outbox.cif.g09.slc.cpg/sg12_139_cif.got.tgz:276448.got - 2010.06.28 00:19:55.
