data_PCOD8082199
_publ_section_title
;
Structure prediction by ZEFSAII (Michael W. Deem and Ramdas Pophale) SiO2 
 PCOD8082199
Probable space group: C 2/M
;
_chemical_formula_sum "Si O2"
_cell_formula_units_Z 64
_cell_length_a 24.715461
_cell_length_b 8.506430
_cell_length_c 17.760375
_cell_angle_alpha 90.000000
_cell_angle_beta 102.904561
_cell_angle_gamma 90.000000
_cell_volume 3639.640519
_symmetry_space_group_name_H-M "C 2/M"
_symmetry_group_IT_number 12
_symmetry_cell_setting 'monoclinic'
loop_
_space_group_symop_operation_xyz
x,y,z
-x,y,-z
-x,-y,-z
x,-y,z
1/2+x,1/2+y,z
1/2-x,1/2+y,-z
1/2-x,1/2-y,-z
1/2+x,1/2-y,z
loop_
_atom_site_type_symbol
_atom_site_label
_atom_site_fract_x
_atom_site_fract_y
_atom_site_fract_z
Si Si1 0.135494 0.318447 0.422365
Si Si2 0.286912 0.815161 0.835753
Si Si3 0.191354 0.814725 0.007301
Si Si4 0.335754 0.685515 0.159840
Si Si5 0.905240 0.186810 0.317261
Si Si6 0.180762 0.815992 0.585257
Si Si7 0.292970 0.318177 0.679703
Si Si8 0.981825 0.182531 0.579426
O O1 0.143808 0.500000 0.406043
O O2 0.173885 0.275404 0.505180
O O3 0.154407 0.217342 0.356505
O O4 0.071360 0.285264 0.418576
O O5 0.325783 0.769120 0.919777
O O6 0.224518 0.751796 0.832396
O O7 0.310148 0.727152 0.769832
O O8 0.289463 0.000000 0.823025
O O9 0.194032 0.000000 0.021346
O O10 0.250000 0.750000 0.000000
O O11 0.150851 0.771965 0.923694
O O12 0.332957 0.500000 0.168001
O O13 0.383512 0.753618 0.229941
O O14 0.865076 0.249422 0.370706
O O15 0.968246 0.241800 0.350975
O O16 0.902789 0.000000 0.317990
O O17 0.241354 0.787343 0.637573
O O18 0.172274 0.000000 0.567144
O O19 0.276785 0.500000 0.669563
O O20 0.000000 0.212432 0.500000
O O21 0.967538 0.000000 0.587884
#
# Coordination Sequence:
#
# PCOD8082199 Si02
#       8
#     8   8   8   8   8   8   8   8
#     4  12  25  39  53  73 103 139 178 220 263 307
#     4  10  18  31  50  72 103 139 173 207 256 312
#     4   9  16  26  43  69 103 138 174 210 252 305
#     4   8  14  26  46  73 102 135 170 206 248 303
#     4   9  16  29  53  78 102 135 173 211 257 307
#     4  11  20  36  57  77 104 138 175 213 259 311
#     4  12  24  37  53  77 105 136 176 217 260 313
#     4  10  19  35  57  78  99 133 177 220 264 310
#
# _framework density 17.584154000000002
#
# number of rings (size 3 to 8) (size 9 to 14) (size 15 to 20)
#    0.000    1.875    2.500    4.500    0.000    0.250 
#    0.000    0.000    0.000    0.000    0.000    0.875 
#    0.000    7.000    0.000    0.000    0.000    0.000 
#
# Total GULP energy -396706.652807 kJ/mol
# GULP energy per Si atom -12397.082900 kJ/mol
# Density = 1.754413 g / cm^3
# Si number density = 17.584154 Si / 1000 Ang^3
#
#
#
# Elastic Constant Matrix: (Units=GPa)
#
#
# Indices 1 2 3 4 5 6 
#
# 1 50.8298 15.0750 31.5080 0.0000 -3.8261 0.0000
# 2 15.0750 52.8618 26.3936 0.0000 -0.2650 0.0000
# 3 31.5080 26.3936 146.6415 0.0000 -1.0034 0.0000
# 4 0.0000 0.0000 0.0000 25.9381 0.0000 -0.8994
# 5 -3.8261 -0.2650 -1.0034 0.0000 20.3773 0.0000
# 6 0.0000 0.0000 0.0000 -0.8994 0.0000 18.4382
#
#
#
# Elastic Compliance Matrix: (Units=1/GPa)
#
#
# Indices 1 2 3 4 5 6 
#
# 1 0.024046 -0.004693 -0.004293 0.000000 0.004242 0.000000
# 2 -0.004693 0.021701 -0.002903 0.000000 -0.000742 0.000000
# 3 -0.004293 -0.002903 0.008261 0.000000 -0.000437 0.000000
# 4 0.000000 0.000000 0.000000 0.038619 0.000000 0.001884
# 5 0.004242 -0.000742 -0.000437 0.000000 0.049840 0.000000
# 6 0.000000 0.000000 0.000000 0.001884 0.000000 0.054327
#
#
# Mechanical properties :
#
#
# Convention : Reuss Voigt Hill
#
# Bulk Modulus (GPa) = 33.07811 44.03180 38.55495
# Shear Modulus (GPa) = 21.67819 24.77451 23.22635
#
# Velocity S-wave (km/s) = 3.51497 3.75762 3.63832
# Velocity P-wave (km/s) = 5.94353 6.62731 6.29471
#
# Compressibility (1/GPa) = 0.03023148
#
# Stress axis : x y z
#
# Youngs Moduli (GPa) = 41.58770 46.08070 121.04773
#
# Poissons Ratio (x) = 0.21624 0.51965
# Poissons Ratio (y) = 0.19515 0.35137
# Poissons Ratio (z) = 0.17853 0.13376
#
# Static dielectric constant tensor:
#      x y z
#    x 3.024410 0.000000 0.124230 
#    y 0.000000 3.109580 0.000000 
#    z 0.124230 0.000000 3.880580 
# 
# 
# High freq. dielectric constant tensor:
#      x y z
#    x 1.634230 0.000000 0.002150 
#    y 0.000000 1.668460 0.000000 
#    z 0.002150 0.000000 1.695100 
# 
# From -- ./inp_files/281379.got.cif
#   From: 2010.06.25/outbox.cif.g09.slc.cpg/sg12_141_cif.got.tgz:281379.got - 2010.06.28 00:19:55.
