data_PCOD8082608
_publ_section_title
;
Structure prediction by ZEFSAII (Michael W. Deem and Ramdas Pophale) SiO2 
 PCOD8082608
Probable space group: C 2/M
;
_chemical_formula_sum "Si O2"
_cell_formula_units_Z 48
_cell_length_a 9.249804
_cell_length_b 25.675175
_cell_length_c 21.752758
_cell_angle_alpha 90.000000
_cell_angle_beta 28.929015
_cell_angle_gamma 90.000000
_cell_volume 2498.960546
_symmetry_space_group_name_H-M "C 2/M"
_symmetry_group_IT_number 12
_symmetry_cell_setting 'monoclinic'
loop_
_space_group_symop_operation_xyz
x,y,z
-x,y,-z
-x,-y,-z
x,-y,z
1/2+x,1/2+y,z
1/2-x,1/2+y,-z
1/2-x,1/2-y,-z
1/2+x,1/2-y,z
loop_
_atom_site_type_symbol
_atom_site_label
_atom_site_fract_x
_atom_site_fract_y
_atom_site_fract_z
Si Si1 0.356265 0.056952 0.866893
Si Si2 0.276327 0.061362 0.029910
Si Si3 0.801338 0.626013 0.778195
Si Si4 0.123774 0.219973 0.302167
Si Si5 0.772960 0.268622 0.856014
Si Si6 0.259128 0.681292 0.536632
O O1 0.461903 0.097025 0.775799
O O2 0.489961 0.000000 0.801859
O O3 0.446754 0.074461 0.902273
O O4 0.000000 0.054857 0.000000
O O5 0.970201 0.093772 0.150100
O O6 0.196088 0.000000 0.063095
O O7 0.500000 0.078787 0.000000
O O8 0.683213 0.682109 0.846404
O O9 0.062811 0.631159 0.629577
O O10 0.129368 0.220713 0.225505
O O11 0.461962 0.214941 0.198344
O O12 0.978907 0.272577 0.381988
O O13 0.928980 0.173625 0.407450
O O14 0.500000 0.250530 0.000000
O O15 0.500000 0.695244 0.500000
#
# Coordination Sequence:
#
# PCOD8082608 Si02
#       6
#     8   8   8   8   8   8
#     4   8  14  27  49  77 108 141 173 210 265 331
#     4   9  17  31  54  81 116 150 175 216 276 338
#     4  10  18  31  53  79 109 139 185 226 267 317
#     4  10  20  36  55  74  99 142 192 222 272 339
#     4  11  21  35  55  80 108 141 176 243 287 319
#     4  10  19  36  56  72  98 148 191 231 258 316
#
# _framework density 19.207986999999999
#
# number of rings (size 3 to 8) (size 9 to 14) (size 15 to 20)
#    0.000    2.333    3.333    3.500    0.000    0.000 
#    0.000   10.000    3.667    2.000    0.000    0.000 
#    0.000    4.000    0.000    0.000    0.000    3.667 
#
# Total GULP energy -297343.231286 kJ/mol
# GULP energy per Si atom -12389.301304 kJ/mol
# Density = 1.916427 g / cm^3
# Si number density = 19.207987 Si / 1000 Ang^3
#
#
#
# Elastic Constant Matrix: (Units=GPa)
#
#
# Indices 1 2 3 4 5 6 
#
# 1 101.6367 30.3741 41.1161 -0.0014 7.9702 0.0004
# 2 30.3741 51.6126 38.5917 0.0016 8.6292 0.0001
# 3 41.1161 38.5917 136.1597 -0.0131 24.8313 0.0015
# 4 -0.0014 0.0016 -0.0131 26.9369 0.0017 4.9976
# 5 7.9702 8.6292 24.8313 0.0017 39.5041 -0.0003
# 6 0.0004 0.0001 0.0015 4.9976 -0.0003 26.4883
#
#
#
# Elastic Compliance Matrix: (Units=1/GPa)
#
#
# Indices 1 2 3 4 5 6 
#
# 1 0.012407 -0.005714 -0.002144 0.000000 0.000093 0.000000
# 2 -0.005714 0.027261 -0.005789 -0.000005 -0.001163 0.000001
# 3 -0.002144 -0.005789 0.010530 0.000006 -0.004922 -0.000002
# 4 0.000000 -0.000005 0.000006 0.038470 -0.000004 -0.007258
# 5 0.000093 -0.001163 -0.004922 -0.000004 0.028643 0.000001
# 6 0.000000 0.000001 -0.000002 -0.007258 0.000001 0.039122
#
#
# Mechanical properties :
#
#
# Convention : Reuss Voigt Hill
#
# Bulk Modulus (GPa) = 43.66024 56.61918 50.13971
# Shear Modulus (GPa) = 26.12871 30.54101 28.33486
#
# Velocity S-wave (km/s) = 3.69223 3.99183 3.84495
# Velocity P-wave (km/s) = 6.39972 7.12651 6.77287
#
# Compressibility (1/GPa) = 0.02290413
#
# Stress axis : x y z
#
# Youngs Moduli (GPa) = 80.60276 36.68295 94.96629
#
# Poissons Ratio (x) = 0.20960 0.20359
# Poissons Ratio (y) = 0.46054 0.54976
# Poissons Ratio (z) = 0.17280 0.21236
#
# Static dielectric constant tensor:
#      x y z
#    x 3.829440 0.000020 0.349840 
#    y 0.000020 3.414720 0.000030 
#    z 0.349840 0.000030 3.693180 
# 
# 
# High freq. dielectric constant tensor:
#      x y z
#    x 1.747090 0.000000 0.009850 
#    y 0.000000 1.712190 0.000000 
#    z 0.009850 0.000000 1.736150 
# 
# From -- ./inp_files/302713.got.cif
#   From: 2010.06.25/outbox.cif.g09.slc.cpg/sg12_152_cif.got.tgz:302713.got - 2010.06.28 00:19:55.
