data_PCOD8082120
_publ_section_title
;
Structure prediction by ZEFSAII (Michael W. Deem and Ramdas Pophale) SiO2 
 PCOD8082120
Probable space group: C 2/M
;
_chemical_formula_sum "Si O2"
_cell_formula_units_Z 64
_cell_length_a 24.561404
_cell_length_b 9.124066
_cell_length_c 23.457359
_cell_angle_alpha 90.000000
_cell_angle_beta 46.279540
_cell_angle_gamma 90.000000
_cell_volume 3799.190133
_symmetry_space_group_name_H-M "C 2/M"
_symmetry_group_IT_number 12
_symmetry_cell_setting 'monoclinic'
loop_
_space_group_symop_operation_xyz
x,y,z
-x,y,-z
-x,-y,-z
x,-y,z
1/2+x,1/2+y,z
1/2-x,1/2+y,-z
1/2-x,1/2-y,-z
1/2+x,1/2-y,z
loop_
_atom_site_type_symbol
_atom_site_label
_atom_site_fract_x
_atom_site_fract_y
_atom_site_fract_z
Si Si1 0.062577 0.665202 0.503220
Si Si2 0.957400 0.828238 0.658654
Si Si3 0.766921 0.330223 0.095022
Si Si4 0.029701 0.826972 0.917351
Si Si5 0.113129 0.330381 0.187457
Si Si6 0.181645 0.329791 0.817703
Si Si7 0.162590 0.831617 0.350610
Si Si8 0.916170 0.666002 0.920914
O O1 0.079641 0.500000 0.510807
O O2 0.138516 0.735148 0.422403
O O3 0.000000 0.669857 0.500000
O O4 0.033632 0.758804 0.577812
O O5 0.942156 0.755383 0.730396
O O6 0.885944 0.793213 0.670316
O O7 0.970308 0.000000 0.657238
O O8 0.741587 0.500000 0.116519
O O9 0.696742 0.233275 0.127806
O O10 0.797274 0.277248 0.134206
O O11 0.831006 0.301963 0.001994
O O12 0.111376 0.760873 0.845365
O O13 0.973015 0.776849 0.909451
O O14 0.036107 0.000000 0.911332
O O15 0.000000 0.770412 0.000000
O O16 0.116818 0.500000 0.202590
O O17 0.078074 0.309758 0.150503
O O18 0.159945 0.500000 0.833941
O O19 0.250729 0.297779 0.725288
O O20 0.149043 0.000000 0.376864
O O21 0.938179 0.500000 0.922067
#
# Coordination Sequence:
#
# PCOD8082120 Si02
#       8
#     8   8   8   8   8   8   8   8
#     4   9  17  28  44  70 101 133 164 202 251 296
#     4  10  18  31  49  70 100 138 172 202 243 302
#     4  10  19  34  53  73  99 136 175 206 250 307
#     4  11  23  36  52  76 100 127 169 221 268 300
#     4  11  22  33  49  76 105 134 171 214 255 298
#     4  10  19  33  54  75  99 136 175 208 249 306
#     4   9  17  30  47  71  99 132 171 204 242 300
#     4  10  22  38  54  71  97 137 178 212 253 306
#
# _framework density 16.845696
#
# number of rings (size 3 to 8) (size 9 to 14) (size 15 to 20)
#    0.000    2.000    2.500    1.875    0.000    5.000 
#    0.000    0.000    0.000    0.000    0.000    0.875 
#    0.000    0.000    0.000    0.000    0.000    0.000 
#
# Total GULP energy -396922.344606 kJ/mol
# GULP energy per Si atom -12403.823269 kJ/mol
# Density = 1.680735 g / cm^3
# Si number density = 16.845696 Si / 1000 Ang^3
#
#
#
# Elastic Constant Matrix: (Units=GPa)
#
#
# Indices 1 2 3 4 5 6 
#
# 1 58.0224 39.9666 38.0179 -0.0043 -0.4036 0.0091
# 2 39.9666 96.4143 60.3929 -0.0036 -0.8660 0.0187
# 3 38.0179 60.3929 120.3832 0.0023 -1.4315 -0.0036
# 4 -0.0043 -0.0036 0.0023 31.6775 -0.0003 -1.6520
# 5 -0.4036 -0.8660 -1.4315 -0.0003 15.7035 -0.0030
# 6 0.0091 0.0187 -0.0036 -1.6520 -0.0030 24.6110
#
#
#
# Elastic Compliance Matrix: (Units=1/GPa)
#
#
# Indices 1 2 3 4 5 6 
#
# 1 0.025373 -0.008019 -0.003992 0.000003 -0.000154 -0.000004
# 2 -0.008019 0.017659 -0.006325 0.000001 0.000191 -0.000011
# 3 -0.003992 -0.006325 0.012749 -0.000002 0.000711 0.000008
# 4 0.000003 0.000001 -0.000002 0.031679 0.000001 0.002126
# 5 -0.000154 0.000191 0.000711 0.000001 0.063751 0.000008
# 6 -0.000004 -0.000011 0.000008 0.002126 0.000008 0.040775
#
#
# Mechanical properties :
#
#
# Convention : Reuss Voigt Hill
#
# Bulk Modulus (GPa) = 52.32745 61.28608 56.80676
# Shear Modulus (GPa) = 21.27424 23.49459 22.38441
#
# Velocity S-wave (km/s) = 3.55757 3.73861 3.64921
# Velocity P-wave (km/s) = 6.92859 7.42268 7.17988
#
# Compressibility (1/GPa) = 0.01911043
#
# Stress axis : x y z
#
# Youngs Moduli (GPa) = 39.41266 56.62787 78.43876
#
# Poissons Ratio (x) = 0.45407 0.31313
# Poissons Ratio (y) = 0.31603 0.49609
# Poissons Ratio (z) = 0.15734 0.35814
#
# Static dielectric constant tensor:
#      x y z
#    x 2.795740 -0.000010 -0.023770 
#    y -0.000010 3.215870 0.000000 
#    z -0.023770 0.000000 3.258320 
# 
# 
# High freq. dielectric constant tensor:
#      x y z
#    x 1.607800 0.000000 -0.004890 
#    y 0.000000 1.657680 0.000000 
#    z -0.004890 0.000000 1.657450 
# 
# From -- ./inp_files/319786.got.cif
#   From: 2010.06.25/outbox.cif.g09.slc.cpg/sg12_160_cif.got.tgz:319786.got - 2010.06.28 00:19:55.
