data_PCOD8082863
_publ_section_title
;
Structure prediction by ZEFSAII (Michael W. Deem and Ramdas Pophale) SiO2 
 PCOD8082863
Probable space group: C 2/M
;
_chemical_formula_sum "Si O2"
_cell_formula_units_Z 64
_cell_length_a 18.723779
_cell_length_b 14.009087
_cell_length_c 15.101135
_cell_angle_alpha 90.000000
_cell_angle_beta 99.957547
_cell_angle_gamma 90.000000
_cell_volume 3901.404718
_symmetry_space_group_name_H-M "C 2/M"
_symmetry_group_IT_number 12
_symmetry_cell_setting 'monoclinic'
loop_
_space_group_symop_operation_xyz
x,y,z
-x,y,-z
-x,-y,-z
x,-y,z
1/2+x,1/2+y,z
1/2-x,1/2+y,-z
1/2-x,1/2-y,-z
1/2+x,1/2-y,z
loop_
_atom_site_type_symbol
_atom_site_label
_atom_site_fract_x
_atom_site_fract_y
_atom_site_fract_z
Si Si1 0.097365 0.111343 0.582156
Si Si2 0.415979 0.393759 0.958293
Si Si3 0.865396 0.393079 0.821151
Si Si4 0.200304 0.111418 0.758122
Si Si5 0.556533 0.387102 0.385907
Si Si6 0.942285 0.789510 0.791428
Si Si7 0.394876 0.284745 0.123060
Si Si8 0.422332 0.891892 0.020703
O O1 0.168267 0.136736 0.654382
O O2 0.104563 0.146105 0.481532
O O3 0.025266 0.151113 0.614452
O O4 0.083575 0.000000 0.572762
O O5 0.384832 0.500000 0.941381
O O6 0.399971 0.337929 0.864151
O O7 0.500000 0.394735 0.000000
O O8 0.375321 0.342228 0.029839
O O9 0.887891 0.500000 0.797082
O O10 0.785193 0.368303 0.770652
O O11 0.923465 0.322862 0.788187
O O12 0.865717 0.385509 0.927975
O O13 0.166172 0.185437 0.820389
O O14 0.183739 0.000000 0.779763
O O15 0.560183 0.500000 0.368850
O O16 0.587051 0.334420 0.305807
O O17 0.027544 0.810920 0.818560
O O18 0.394764 0.172462 0.096701
O O19 0.431099 0.000000 0.057927
O O20 0.500000 0.853183 0.000000
#
# Coordination Sequence:
#
# PCOD8082863 Si02
#       8
#     8   8   8   8   8   8   8   8
#     4   8  15  29  47  73 101 124 151 192 241 292
#     4   9  17  26  39  65 100 125 148 186 239 289
#     4  10  21  35  49  68  97 132 167 204 238 277
#     4  10  20  33  50  72 102 130 155 195 248 295
#     4   9  16  27  49  76 100 122 153 195 242 290
#     4  11  18  29  47  73  95 127 163 199 236 282
#     4  11  18  29  49  71  91 126 165 203 239 276
#     4  10  18  32  49  66  92 126 168 210 235 265
#
# _framework density 16.404347000000001
#
# number of rings (size 3 to 8) (size 9 to 14) (size 15 to 20)
#    0.000    2.250    3.750    1.875    0.000    1.500 
#    0.000    0.625    0.000    0.750    0.000    2.625 
#    0.000    0.000    0.000    0.000    0.000    0.000 
#
# Total GULP energy -396654.463303 kJ/mol
# GULP energy per Si atom -12395.451978 kJ/mol
# Density = 1.636701 g / cm^3
# Si number density = 16.404347 Si / 1000 Ang^3
#
#
#
# Elastic Constant Matrix: (Units=GPa)
#
#
# Indices 1 2 3 4 5 6 
#
# 1 36.4292 16.2310 26.6581 0.0000 8.8786 0.0000
# 2 16.2310 85.2494 35.9743 0.0000 -8.1696 0.0000
# 3 26.6581 35.9743 117.6328 0.0000 1.4872 0.0000
# 4 0.0000 0.0000 0.0000 15.6578 0.0000 -1.7165
# 5 8.8786 -8.1696 1.4872 0.0000 21.8735 0.0000
# 6 0.0000 0.0000 0.0000 -1.7165 0.0000 17.7728
#
#
#
# Elastic Compliance Matrix: (Units=1/GPa)
#
#
# Indices 1 2 3 4 5 6 
#
# 1 0.039684 -0.006413 -0.006804 0.000000 -0.018041 0.000000
# 2 -0.006413 0.015152 -0.003288 0.000000 0.008486 0.000000
# 3 -0.006804 -0.003288 0.011038 0.000000 0.000783 0.000000
# 4 0.000000 0.000000 0.000000 0.064549 0.000000 0.006234
# 5 -0.018041 0.008486 0.000783 0.000000 0.056156 0.000000
# 6 0.000000 0.000000 0.000000 0.006234 0.000000 0.056868
#
#
# Mechanical properties :
#
#
# Convention : Reuss Voigt Hill
#
# Bulk Modulus (GPa) = 30.42787 44.11537 37.27162
# Shear Modulus (GPa) = 17.39664 21.75734 19.57699
#
# Velocity S-wave (km/s) = 3.26005 3.64581 3.45831
# Velocity P-wave (km/s) = 5.72359 6.68382 6.22226
#
# Compressibility (1/GPa) = 0.03286461
#
# Stress axis : x y z
#
# Youngs Moduli (GPa) = 25.19929 65.99837 90.59262
#
# Poissons Ratio (x) = 0.42327 0.61637
# Poissons Ratio (y) = 0.16161 0.29784
# Poissons Ratio (z) = 0.17145 0.21698
#
# Static dielectric constant tensor:
#      x y z
#    x 2.724840 0.000000 0.158500 
#    y 0.000000 3.053870 0.000000 
#    z 0.158500 0.000000 3.226110 
# 
# 
# High freq. dielectric constant tensor:
#      x y z
#    x 1.590760 0.000000 0.014350 
#    y 0.000000 1.619360 0.000000 
#    z 0.014350 0.000000 1.629330 
# 
# From -- ./inp_files/224753.got.cif
#   From: 2010.06.25/outbox.cif.g09.slc.cpg/sg12_113_cif.got.tgz:224753.got - 2010.06.28 00:19:55.
