data_PCOD8082467
_publ_section_title
;
Structure prediction by ZEFSAII (Michael W. Deem and Ramdas Pophale) SiO2 
 PCOD8082467
Probable space group: C 2/M
;
_chemical_formula_sum "Si O2"
_cell_formula_units_Z 32
_cell_length_a 23.122630
_cell_length_b 19.463786
_cell_length_c 13.725330
_cell_angle_alpha 90.000000
_cell_angle_beta 15.578923
_cell_angle_gamma 90.000000
_cell_volume 1658.966258
_symmetry_space_group_name_H-M "C 2/M"
_symmetry_group_IT_number 12
_symmetry_cell_setting 'monoclinic'
loop_
_space_group_symop_operation_xyz
x,y,z
-x,y,-z
-x,-y,-z
x,-y,z
1/2+x,1/2+y,z
1/2-x,1/2+y,-z
1/2-x,1/2-y,-z
1/2+x,1/2-y,z
loop_
_atom_site_type_symbol
_atom_site_label
_atom_site_fract_x
_atom_site_fract_y
_atom_site_fract_z
Si Si1 0.880079 0.718971 0.958281
Si Si2 0.601575 0.150386 0.430736
Si Si3 0.990831 0.080162 0.901947
Si Si4 0.734790 0.813756 0.652680
O O1 0.908823 0.672023 0.816439
O O2 0.112514 0.748353 0.615711
O O3 0.725667 0.783262 0.187172
O O4 0.777167 0.672910 0.211237
O O5 0.500000 0.113476 0.500000
O O6 0.760748 0.099504 0.229337
O O7 0.183516 0.117822 0.532664
O O8 0.031632 0.000000 0.823035
O O9 0.000000 0.102044 0.000000
O O10 0.500000 0.791452 0.000000
#
# Coordination Sequence:
#
# PCOD8082467 Si02
#       4
#     8   8   8   8
#     4   9  19  31  50  82 109 131 164 208 259 311
#     4  10  19  34  56  79 106 137 168 207 257 309
#     4  10  22  38  53  73 102 137 178 217 252 296
#     4  10  18  31  52  77 106 137 169 208 257 307
#
# _framework density 19.28912
#
# number of rings (size 3 to 8) (size 9 to 14) (size 15 to 20)
#    0.000    2.250    0.000    3.000    0.000    8.000 
#    0.000    1.250    0.000    1.500    0.000    0.000 
#    0.000    0.000    0.000    0.000    0.000    0.000 
#
# Total GULP energy -198388.208733 kJ/mol
# GULP energy per Si atom -12399.263046 kJ/mol
# Density = 1.924522 g / cm^3
# Si number density = 19.289120 Si / 1000 Ang^3
#
#
#
# Elastic Constant Matrix: (Units=GPa)
#
#
# Indices 1 2 3 4 5 6 
#
# 1 146.5776 44.1062 51.6826 -0.0289 7.5228 -0.0010
# 2 44.1062 61.8297 29.9059 -0.0003 19.5826 0.0370
# 3 51.6826 29.9059 96.9440 -0.0417 24.0727 0.0019
# 4 -0.0289 -0.0003 -0.0417 15.6195 0.0024 7.0727
# 5 7.5228 19.5826 24.0727 0.0024 35.2519 0.0008
# 6 -0.0010 0.0370 0.0019 7.0727 0.0008 20.0018
#
#
#
# Elastic Compliance Matrix: (Units=1/GPa)
#
#
# Indices 1 2 3 4 5 6 
#
# 1 0.010135 -0.006472 -0.004531 0.000000 0.004526 0.000013
# 2 -0.006472 0.025161 -0.001425 0.000009 -0.011622 -0.000049
# 3 -0.004531 -0.001425 0.015334 0.000040 -0.008712 -0.000013
# 4 0.000000 0.000009 0.000040 0.076228 -0.000037 -0.026955
# 5 0.004526 -0.011622 -0.008712 -0.000037 0.039807 0.000034
# 6 0.000013 -0.000049 -0.000013 -0.026955 0.000034 0.059527
#
#
# Mechanical properties :
#
#
# Convention : Reuss Voigt Hill
#
# Bulk Modulus (GPa) = 38.79945 61.86009 50.32977
# Shear Modulus (GPa) = 19.25751 26.15172 22.70461
#
# Velocity S-wave (km/s) = 3.16311 3.68608 3.43457
# Velocity P-wave (km/s) = 5.78781 7.08913 6.47127
#
# Compressibility (1/GPa) = 0.02577356
#
# Stress axis : x y z
#
# Youngs Moduli (GPa) = 98.66870 39.74452 65.21584
#
# Poissons Ratio (x) = 0.25722 0.29546
# Poissons Ratio (y) = 0.63858 0.09296
# Poissons Ratio (z) = 0.44702 0.05665
#
# Static dielectric constant tensor:
#      x y z
#    x 3.614640 -0.000090 0.179660 
#    y -0.000090 3.083820 0.000150 
#    z 0.179660 0.000150 3.794510 
# 
# 
# High freq. dielectric constant tensor:
#      x y z
#    x 1.761600 -0.000010 0.011870 
#    y -0.000010 1.704160 0.000020 
#    z 0.011870 0.000020 1.762630 
# 
# From -- ./inp_files/37734.got.cif
#   From: 2010.06.25/outbox.cif.g09.slc.cpg/sg12_19_cif.got.tgz:37734.got - 2010.06.28 00:19:55.
