data_PCOD8082406
_publ_section_title
;
Structure prediction by ZEFSAII (Michael W. Deem and Ramdas Pophale) SiO2 
 PCOD8082406
Probable space group: C 2/M
;
_chemical_formula_sum "Si O2"
_cell_formula_units_Z 64
_cell_length_a 23.121173
_cell_length_b 9.316039
_cell_length_c 21.239676
_cell_angle_alpha 90.000000
_cell_angle_beta 127.788983
_cell_angle_gamma 90.000000
_cell_volume 3615.481222
_symmetry_space_group_name_H-M "C 2/M"
_symmetry_group_IT_number 12
_symmetry_cell_setting 'monoclinic'
loop_
_space_group_symop_operation_xyz
x,y,z
-x,y,-z
-x,-y,-z
x,-y,z
1/2+x,1/2+y,z
1/2-x,1/2+y,-z
1/2-x,1/2-y,-z
1/2+x,1/2-y,z
loop_
_atom_site_type_symbol
_atom_site_label
_atom_site_fract_x
_atom_site_fract_y
_atom_site_fract_z
Si Si1 0.420934 0.164538 0.940414
Si Si2 0.684383 0.836835 0.874701
Si Si3 0.358734 0.667838 0.550309
Si Si4 0.500478 0.329703 0.570484
Si Si5 0.208162 0.332359 0.382599
Si Si6 0.149661 0.830265 0.733566
Si Si7 0.175943 0.660056 0.007590
Si Si8 0.797463 0.329000 0.764808
O O1 0.390639 0.178796 0.990103
O O2 0.365909 0.233047 0.851401
O O3 0.432225 0.000000 0.927465
O O4 0.500000 0.242092 0.000000
O O5 0.642252 0.738963 0.797185
O O6 0.766901 0.783019 0.938055
O O7 0.685978 0.000000 0.851575
O O8 0.644675 0.822904 0.915962
O O9 0.365090 0.500000 0.569887
O O10 0.432179 0.728331 0.566107
O O11 0.291681 0.699003 0.458249
O O12 0.347564 0.749017 0.608983
O O13 0.500000 0.264926 0.500000
O O14 0.493681 0.500000 0.563108
O O15 0.577328 0.279035 0.649742
O O16 0.189983 0.500000 0.375622
O O17 0.196976 0.276242 0.303660
O O18 0.221697 0.772796 0.745191
O O19 0.152468 0.000000 0.743089
O O20 0.211362 0.500000 0.039304
O O21 0.796024 0.500000 0.766637
#
# Coordination Sequence:
#
# PCOD8082406 Si02
#       8
#     8   8   8   8   8   8   8   8
#     4   9  16  28  48  72  95 119 156 204 242 272
#     4  10  19  30  48  74 100 126 158 197 243 292
#     4   9  17  31  49  71 100 126 156 196 239 285
#     4   9  17  30  51  77  99 125 164 207 244 282
#     4   9  17  30  50  73  95 126 162 196 234 279
#     4  10  18  31  52  73  96 126 162 204 247 286
#     4   9  17  32  51  71  95 125 161 200 242 288
#     4   9  16  28  48  72  92 118 162 204 232 274
#
# _framework density 17.701654000000001
#
# number of rings (size 3 to 8) (size 9 to 14) (size 15 to 20)
#    0.000    2.750    1.250    1.125    0.000    3.500 
#    2.250    1.250    0.000    3.375    0.000    0.000 
#    0.000    0.000    0.000    0.000    0.000    0.000 
#
# Total GULP energy -396641.627699 kJ/mol
# GULP energy per Si atom -12395.050866 kJ/mol
# Density = 1.766136 g / cm^3
# Si number density = 17.701654 Si / 1000 Ang^3
#
#
#
# Elastic Constant Matrix: (Units=GPa)
#
#
# Indices 1 2 3 4 5 6 
#
# 1 136.2679 27.4201 90.2149 0.0000 -3.3407 0.0000
# 2 27.4201 25.4150 30.8099 0.0000 -5.9836 0.0000
# 3 90.2149 30.8099 151.8765 0.0000 -9.4400 0.0000
# 4 0.0000 0.0000 0.0000 20.0626 0.0000 -6.8641
# 5 -3.3407 -5.9836 -9.4400 0.0000 32.2276 0.0000
# 6 0.0000 0.0000 0.0000 -6.8641 0.0000 19.4838
#
#
#
# Elastic Compliance Matrix: (Units=1/GPa)
#
#
# Indices 1 2 3 4 5 6 
#
# 1 0.012859 -0.006491 -0.006431 0.000000 -0.001756 0.000000
# 2 -0.006491 0.056920 -0.007207 0.000000 0.007784 0.000000
# 3 -0.006431 -0.007207 0.011959 0.000000 0.001498 0.000000
# 4 0.000000 0.000000 0.000000 0.056675 0.000000 0.019967
# 5 -0.001756 0.007784 0.001498 0.000000 0.032731 0.000000
# 6 0.000000 0.000000 0.000000 0.019967 0.000000 0.058359
#
#
# Mechanical properties :
#
#
# Convention : Reuss Voigt Hill
#
# Bulk Modulus (GPa) = 24.10788 67.82768 45.96778
# Shear Modulus (GPa) = 17.63118 25.36243 21.49681
#
# Velocity S-wave (km/s) = 3.15940 3.78930 3.48860
# Velocity P-wave (km/s) = 5.19208 7.58587 6.50012
#
# Compressibility (1/GPa) = 0.04148021
#
# Stress axis : x y z
#
# Youngs Moduli (GPa) = 77.76735 17.56849 83.61737
#
# Poissons Ratio (x) = 0.11404 0.53770
# Poissons Ratio (y) = 0.50480 0.60265
# Poissons Ratio (z) = 0.50008 0.12662
#
# Static dielectric constant tensor:
#      x y z
#    x 3.375240 0.000000 -0.117690 
#    y 0.000000 2.934440 0.000000 
#    z -0.117690 0.000000 3.491420 
# 
# 
# High freq. dielectric constant tensor:
#      x y z
#    x 1.685500 0.000000 -0.012780 
#    y 0.000000 1.638740 0.000000 
#    z -0.012780 0.000000 1.689120 
# 
# From -- ./inp_files/324284.got.cif
#   From: 2010.06.25/outbox.cif.g09.slc.cpg/sg12_163_cif.got.tgz:324284.got - 2010.06.28 00:19:55.
