data_PCOD8082279
_publ_section_title
;
Structure prediction by ZEFSAII (Michael W. Deem and Ramdas Pophale) SiO2 
 PCOD8082279
Probable space group: C 2/M
;
_chemical_formula_sum "Si O2"
_cell_formula_units_Z 56
_cell_length_a 9.692837
_cell_length_b 18.998763
_cell_length_c 24.595690
_cell_angle_alpha 90.000000
_cell_angle_beta 133.576614
_cell_angle_gamma 90.000000
_cell_volume 3281.297648
_symmetry_space_group_name_H-M "C 2/M"
_symmetry_group_IT_number 12
_symmetry_cell_setting 'monoclinic'
loop_
_space_group_symop_operation_xyz
x,y,z
-x,y,-z
-x,-y,-z
x,-y,z
1/2+x,1/2+y,z
1/2-x,1/2+y,-z
1/2-x,1/2-y,-z
1/2+x,1/2-y,z
loop_
_atom_site_type_symbol
_atom_site_label
_atom_site_fract_x
_atom_site_fract_y
_atom_site_fract_z
Si Si1 0.677046 0.305903 0.364612
Si Si2 0.792839 0.420341 0.932863
Si Si3 0.694045 0.079055 0.520806
Si Si4 0.977836 0.730246 0.118290
Si Si5 0.627702 0.683695 0.807050
Si Si6 0.409356 0.796512 0.571709
Si Si7 0.637667 0.646479 0.990186
O O1 0.669847 0.371515 0.405036
O O2 0.554590 0.329957 0.279813
O O3 0.585201 0.233779 0.365257
O O4 0.889564 0.286484 0.403719
O O5 0.826566 0.500000 0.926173
O O6 0.685651 0.387962 0.852450
O O7 0.662615 0.413262 0.951224
O O8 0.000000 0.383660 0.000000
O O9 0.500000 0.068723 0.500000
O O10 0.653328 0.121017 0.452574
O O11 0.779579 0.000000 0.532805
O O12 0.197394 0.708906 0.182397
O O13 0.918831 0.759121 0.160369
O O14 0.952849 0.784260 0.061631
O O15 0.844815 0.663001 0.071310
O O16 0.250000 0.750000 0.500000
O O17 0.500000 0.617770 0.000000
#
# Coordination Sequence:
#
# PCOD8082279 Si02
#       7
#     8   8   8   8   8   8   8
#     4  10  19  30  50  77 105 133 161 203 258 303
#     4  10  21  35  50  70  98 135 178 213 247 299
#     4   8  15  29  50  74  97 126 168 204 234 285
#     4  10  19  29  47  74  97 124 161 211 261 296
#     4  11  20  32  49  74 106 130 162 209 265 299
#     4   9  17  32  52  76 102 130 165 205 244 294
#     4  10  18  31  51  71  92 122 169 219 249 294
#
# _framework density 17.066420000000001
#
# number of rings (size 3 to 8) (size 9 to 14) (size 15 to 20)
#    0.000    2.286    2.857    2.143    0.000    0.857 
#    0.000    0.000    0.000    6.857    0.000    1.000 
#    0.000    0.000    0.000    0.000    0.000    0.000 
#
# Total GULP energy -346989.946528 kJ/mol
# GULP energy per Si atom -12392.498090 kJ/mol
# Density = 1.702758 g / cm^3
# Si number density = 17.066420 Si / 1000 Ang^3
#
#
#
# Elastic Constant Matrix: (Units=GPa)
#
#
# Indices 1 2 3 4 5 6 
#
# 1 88.5632 30.3488 26.9447 0.0000 4.8427 0.0000
# 2 30.3488 92.9807 38.8489 0.0000 -3.8808 0.0001
# 3 26.9447 38.8489 100.1914 0.0001 -0.2829 0.0003
# 4 0.0000 0.0000 0.0001 11.3221 0.0001 0.7649
# 5 4.8427 -3.8808 -0.2829 0.0001 24.6657 0.0002
# 6 0.0000 0.0001 0.0003 0.7649 0.0002 9.6617
#
#
#
# Elastic Compliance Matrix: (Units=1/GPa)
#
#
# Indices 1 2 3 4 5 6 
#
# 1 0.013365 -0.003569 -0.002220 0.000000 -0.003211 0.000000
# 2 -0.003569 0.013883 -0.004415 0.000000 0.002834 0.000000
# 3 -0.002220 -0.004415 0.012289 0.000000 -0.000118 0.000000
# 4 0.000000 0.000000 0.000000 0.088798 0.000000 -0.007030
# 5 -0.003211 0.002834 -0.000118 0.000000 0.041617 -0.000001
# 6 0.000000 0.000000 0.000000 -0.007030 -0.000001 0.104058
#
#
# Mechanical properties :
#
#
# Convention : Reuss Voigt Hill
#
# Bulk Modulus (GPa) = 52.27391 52.66893 52.47142
# Shear Modulus (GPa) = 16.62261 21.50276 19.06269
#
# Velocity S-wave (km/s) = 3.12428 3.55342 3.34574
# Velocity P-wave (km/s) = 6.61143 6.91114 6.76295
#
# Compressibility (1/GPa) = 0.01913000
#
# Stress axis : x y z
#
# Youngs Moduli (GPa) = 74.82074 72.03093 81.37063
#
# Poissons Ratio (x) = 0.25708 0.18060
# Poissons Ratio (y) = 0.26704 0.35927
# Poissons Ratio (z) = 0.16607 0.31803
#
# Static dielectric constant tensor:
#      x y z
#    x 3.388580 0.000000 -0.059370 
#    y 0.000000 3.220300 0.000000 
#    z -0.059370 0.000000 3.235140 
# 
# 
# High freq. dielectric constant tensor:
#      x y z
#    x 1.655750 0.000000 0.003670 
#    y 0.000000 1.638040 0.000000 
#    z 0.003670 0.000000 1.649110 
# 
# From -- ./inp_files/333624.got.cif
#   From: 2010.06.25/outbox.cif.g09.slc.cpg/sg12_167_cif.got.tgz:333624.got - 2010.06.28 00:19:55.
