data_PCOD8082916
_publ_section_title
;
Structure prediction by ZEFSAII (Michael W. Deem and Ramdas Pophale) SiO2 
 PCOD8082916
Probable space group: C 2/M
;
_chemical_formula_sum "Si O2"
_cell_formula_units_Z 56
_cell_length_a 34.261142
_cell_length_b 19.084641
_cell_length_c 10.686733
_cell_angle_alpha 90.000000
_cell_angle_beta 26.834373
_cell_angle_gamma 90.000000
_cell_volume 3154.313062
_symmetry_space_group_name_H-M "C 2/M"
_symmetry_group_IT_number 12
_symmetry_cell_setting 'monoclinic'
loop_
_space_group_symop_operation_xyz
x,y,z
-x,y,-z
-x,-y,-z
x,-y,z
1/2+x,1/2+y,z
1/2-x,1/2+y,-z
1/2-x,1/2-y,-z
1/2+x,1/2-y,z
loop_
_atom_site_type_symbol
_atom_site_label
_atom_site_fract_x
_atom_site_fract_y
_atom_site_fract_z
Si Si1 0.048596 0.362926 0.981491
Si Si2 0.148771 0.705632 0.034904
Si Si3 0.190161 0.082399 0.790407
Si Si4 0.909306 0.276737 0.521582
Si Si5 0.801111 0.302894 0.592688
Si Si6 0.469078 0.325282 0.720229
Si Si7 0.673576 0.076071 0.801471
O O1 0.984431 0.328797 0.263688
O O2 0.117291 0.304399 0.734902
O O3 0.100016 0.424109 0.904071
O O4 0.000000 0.395383 0.000000
O O5 0.239625 0.738917 0.733250
O O6 0.149448 0.627751 0.980936
O O7 0.132837 0.700064 0.227653
O O8 0.074217 0.750000 0.182142
O O9 0.244363 0.124644 0.743241
O O10 0.235732 0.092551 0.525905
O O11 0.183748 0.000000 0.846190
O O12 0.095302 0.116487 0.039518
O O13 0.831838 0.284563 0.644703
O O14 0.950132 0.197150 0.419918
O O15 0.500000 0.357940 0.500000
O O16 0.676230 0.000000 0.856383
#
# Coordination Sequence:
#
# PCOD8082916 Si02
#       7
#     8   8   8   8   8   8   8
#     4   9  18  31  49  73  99 126 164 210 252 302
#     4  10  19  32  51  72 102 134 172 212 245 303
#     4   9  19  34  52  76 103 133 171 210 254 307
#     4  10  18  32  50  77 105 124 168 214 256 299
#     4   9  19  32  53  74  99 136 169 208 257 300
#     4   9  18  30  53  77 101 130 163 215 260 298
#     4  10  20  33  50  71 101 138 172 205 245 303
#
# _framework density 17.75347
#
# number of rings (size 3 to 8) (size 9 to 14) (size 15 to 20)
#    0.000    2.571    1.429    0.429    2.000    2.286 
#    0.000    4.286    0.000    0.857    0.000    2.000 
#    0.000    0.000    0.000    0.000    0.000    0.000 
#
# Total GULP energy -346911.938977 kJ/mol
# GULP energy per Si atom -12389.712106 kJ/mol
# Density = 1.771306 g / cm^3
# Si number density = 17.753470 Si / 1000 Ang^3
#
#
#
# Elastic Constant Matrix: (Units=GPa)
#
#
# Indices 1 2 3 4 5 6 
#
# 1 61.0434 27.5394 10.5299 0.0000 -6.0071 0.0000
# 2 27.5394 85.1218 31.9826 0.0000 -1.6934 0.0000
# 3 10.5299 31.9826 72.8983 0.0000 -3.9618 0.0000
# 4 0.0000 0.0000 0.0000 21.9515 0.0000 1.6910
# 5 -6.0071 -1.6934 -3.9618 0.0000 16.8974 0.0000
# 6 0.0000 0.0000 0.0000 1.6910 0.0000 16.7839
#
#
#
# Elastic Compliance Matrix: (Units=1/GPa)
#
#
# Indices 1 2 3 4 5 6 
#
# 1 0.019860 -0.006407 0.000295 0.000000 0.006487 0.000000
# 2 -0.006407 0.016134 -0.006269 0.000000 -0.002131 0.000000
# 3 0.000295 -0.006269 0.016609 0.000000 0.003371 0.000000
# 4 0.000000 0.000000 0.000000 0.045911 0.000000 -0.004626
# 5 0.006487 -0.002131 0.003371 0.000000 0.062064 0.000000
# 6 0.000000 0.000000 0.000000 -0.004626 0.000000 0.060047
#
#
# Mechanical properties :
#
#
# Convention : Reuss Voigt Hill
#
# Bulk Modulus (GPa) = 35.91891 39.90746 37.91319
# Shear Modulus (GPa) = 19.63357 21.06065 20.34711
#
# Velocity S-wave (km/s) = 3.32912 3.44798 3.38907
# Velocity P-wave (km/s) = 5.92058 6.19507 6.05938
#
# Compressibility (1/GPa) = 0.02784049
#
# Stress axis : x y z
#
# Youngs Moduli (GPa) = 50.35294 61.98239 60.20991
#
# Poissons Ratio (x) = 0.39712 -0.01775
# Poissons Ratio (y) = 0.32261 0.37743
# Poissons Ratio (z) = -0.01484 0.38854
#
# Static dielectric constant tensor:
#      x y z
#    x 3.286720 0.000000 -0.158650 
#    y 0.000000 3.036190 0.000000 
#    z -0.158650 0.000000 3.505090 
# 
# 
# High freq. dielectric constant tensor:
#      x y z
#    x 1.672050 0.000000 -0.006520 
#    y 0.000000 1.655880 0.000000 
#    z -0.006520 0.000000 1.704110 
# 
# From -- ./inp_files/113330.got.cif
#   From: 2010.06.25/outbox.cif.g09.slc.cpg/sg12_57_cif.got.tgz:113330.got - 2010.06.28 00:19:55.
