data_PCOD8082559
_publ_section_title
;
Structure prediction by ZEFSAII (Michael W. Deem and Ramdas Pophale) SiO2 
 PCOD8082559
Probable space group: C 2/M
;
_chemical_formula_sum "Si O2"
_cell_formula_units_Z 56
_cell_length_a 8.896885
_cell_length_b 19.103560
_cell_length_c 23.028080
_cell_angle_alpha 90.000000
_cell_angle_beta 129.339627
_cell_angle_gamma 90.000000
_cell_volume 3027.019957
_symmetry_space_group_name_H-M "C 2/M"
_symmetry_group_IT_number 12
_symmetry_cell_setting 'monoclinic'
loop_
_space_group_symop_operation_xyz
x,y,z
-x,y,-z
-x,-y,-z
x,-y,z
1/2+x,1/2+y,z
1/2-x,1/2+y,-z
1/2-x,1/2-y,-z
1/2+x,1/2-y,z
loop_
_atom_site_type_symbol
_atom_site_label
_atom_site_fract_x
_atom_site_fract_y
_atom_site_fract_z
Si Si1 0.073287 0.267864 0.884199
Si Si2 0.078542 0.676934 0.368279
Si Si3 0.183078 0.644431 0.013558
Si Si4 0.507825 0.692474 0.570020
Si Si5 0.666258 0.916989 0.492541
Si Si6 0.050699 0.921483 0.073878
Si Si7 0.696806 0.180794 0.802651
O O1 0.253296 0.215169 0.937685
O O2 0.039479 0.288517 0.808687
O O3 0.874435 0.233219 0.853851
O O4 0.119729 0.337747 0.932082
O O5 0.260954 0.677172 0.367333
O O6 0.084558 0.607737 0.409972
O O7 0.067610 0.744136 0.408318
O O8 0.885046 0.673738 0.282173
O O9 0.351736 0.586717 0.061056
O O10 0.000000 0.610081 0.000000
O O11 0.500000 0.713092 0.500000
O O12 0.369392 0.625923 0.552490
O O13 0.500000 0.900756 0.500000
O O14 0.713377 0.000000 0.502640
O O15 0.230519 0.893191 0.155111
O O16 0.108628 0.000000 0.074894
O O17 0.000000 0.882561 0.000000
#
# Coordination Sequence:
#
# PCOD8082559 Si02
#       7
#     8   8   8   8   8   8   8
#     4  10  19  30  49  79 106 130 175 223 282 315
#     4  11  21  34  56  85 116 149 179 228 284 329
#     4  10  18  31  53  75  99 131 176 236 267 315
#     4  10  20  36  58  85 117 146 183 226 268 331
#     4  10  21  38  61  85 111 147 190 228 266 322
#     4  10  21  36  53  73 103 145 187 223 265 324
#     4  11  21  34  53  81 111 142 175 227 277 328
#
# _framework density 18.500043999999999
#
# number of rings (size 3 to 8) (size 9 to 14) (size 15 to 20)
#    0.000    1.714    2.857    3.857    0.000    3.429 
#    0.000    0.000    0.000    0.000    0.000    0.000 
#    0.000    0.000    0.000    0.000    0.000    0.000 
#
# Total GULP energy -346867.192815 kJ/mol
# GULP energy per Si atom -12388.114029 kJ/mol
# Density = 1.845794 g / cm^3
# Si number density = 18.500044 Si / 1000 Ang^3
#
#
#
# Elastic Constant Matrix: (Units=GPa)
#
#
# Indices 1 2 3 4 5 6 
#
# 1 102.3610 35.8815 20.9372 0.0000 0.4488 0.0001
# 2 35.8815 87.7248 36.3418 0.0000 -2.9389 0.0000
# 3 20.9372 36.3418 103.0226 0.0000 -0.9076 0.0001
# 4 0.0000 0.0000 0.0000 15.6867 0.0000 -3.6041
# 5 0.4488 -2.9389 -0.9076 0.0000 23.9974 0.0001
# 6 0.0001 0.0000 0.0001 -3.6041 0.0001 10.5909
#
#
#
# Elastic Compliance Matrix: (Units=1/GPa)
#
#
# Indices 1 2 3 4 5 6 
#
# 1 0.011474 -0.004392 -0.000789 0.000000 -0.000782 0.000000
# 2 -0.004392 0.015083 -0.004412 0.000000 0.001762 0.000000
# 3 -0.000789 -0.004412 0.011423 0.000000 -0.000094 0.000000
# 4 0.000000 0.000000 0.000000 0.069155 0.000000 0.023534
# 5 -0.000782 0.001762 -0.000094 0.000000 0.041898 0.000000
# 6 0.000000 0.000000 0.000000 0.023534 0.000000 0.102430
#
#
# Mechanical properties :
#
#
# Convention : Reuss Voigt Hill
#
# Bulk Modulus (GPa) = 53.21583 53.26991 53.24287
# Shear Modulus (GPa) = 18.05614 23.38487 20.72051
#
# Velocity S-wave (km/s) = 3.12750 3.55920 3.35031
# Velocity P-wave (km/s) = 6.47065 6.76369 6.61879
#
# Compressibility (1/GPa) = 0.01879140
#
# Stress axis : x y z
#
# Youngs Moduli (GPa) = 87.15432 66.30065 87.54509
#
# Poissons Ratio (x) = 0.29121 0.06910
# Poissons Ratio (y) = 0.38281 0.38628
# Poissons Ratio (z) = 0.06879 0.29254
#
# Static dielectric constant tensor:
#      x y z
#    x 3.656190 0.000000 0.083180 
#    y 0.000000 3.163880 0.000000 
#    z 0.083180 0.000000 3.411980 
# 
# 
# High freq. dielectric constant tensor:
#      x y z
#    x 1.734720 0.000000 0.001250 
#    y 0.000000 1.694500 0.000000 
#    z 0.001250 0.000000 1.703250 
# 
# From -- ./inp_files/257618.got.cif
#   From: 2010.06.25/outbox.cif.g09.slc.cpg/sg12_129_cif.got.tgz:257618.got - 2010.06.28 00:19:55.
