data_PCOD8082691
_publ_section_title
;
Structure prediction by ZEFSAII (Michael W. Deem and Ramdas Pophale) SiO2 
 PCOD8082691
Probable space group: C 2/M
;
_chemical_formula_sum "Si O2"
_cell_formula_units_Z 64
_cell_length_a 24.191177
_cell_length_b 8.616871
_cell_length_c 19.999305
_cell_angle_alpha 90.000000
_cell_angle_beta 123.779037
_cell_angle_gamma 90.000000
_cell_volume 3465.139564
_symmetry_space_group_name_H-M "C 2/M"
_symmetry_group_IT_number 12
_symmetry_cell_setting 'monoclinic'
loop_
_space_group_symop_operation_xyz
x,y,z
-x,y,-z
-x,-y,-z
x,-y,z
1/2+x,1/2+y,z
1/2-x,1/2+y,-z
1/2-x,1/2-y,-z
1/2+x,1/2-y,z
loop_
_atom_site_type_symbol
_atom_site_label
_atom_site_fract_x
_atom_site_fract_y
_atom_site_fract_z
Si Si1 0.063683 0.678575 0.169708
Si Si2 0.615107 0.320087 0.834524
Si Si3 0.306850 0.180632 0.230361
Si Si4 0.653652 0.679160 0.124298
Si Si5 0.451688 0.179155 0.551571
Si Si6 0.410778 0.680259 0.396164
Si Si7 0.912460 0.680084 0.047401
Si Si8 0.476353 0.821207 0.713320
O O1 0.078756 0.500000 0.162186
O O2 0.116847 0.787230 0.169256
O O3 0.070073 0.709849 0.253629
O O4 0.989998 0.725618 0.095640
O O5 0.630910 0.500000 0.836115
O O6 0.667737 0.224849 0.826098
O O7 0.623798 0.273684 0.917785
O O8 0.540980 0.286648 0.758780
O O9 0.229961 0.225969 0.183888
O O10 0.343573 0.277373 0.312757
O O11 0.318905 0.000000 0.251528
O O12 0.645475 0.500000 0.099343
O O13 0.621286 0.783086 0.045225
O O14 0.529082 0.219135 0.592969
O O15 0.404483 0.280464 0.471207
O O16 0.434593 0.214553 0.617854
O O17 0.439997 0.000000 0.526523
O O18 0.426726 0.500000 0.397407
O O19 0.905264 0.500000 0.059752
O O20 0.501229 0.000000 0.730730
#
# Coordination Sequence:
#
# PCOD8082691 Si02
#       8
#     8   8   8   8   8   8   8   8
#     4   9  19  36  57  81 107 139 177 219 266 317
#     4  11  21  33  54  82 109 138 176 222 269 313
#     4  11  23  39  54  72 108 149 182 216 266 330
#     4  11  24  38  55  79 104 139 184 228 269 314
#     4  10  18  31  54  80 111 147 176 209 263 322
#     4  11  21  32  50  80 112 140 178 223 263 309
#     4  10  21  38  59  80 107 141 175 218 271 325
#     4   9  18  33  55  81 111 144 176 212 264 324
#
# _framework density 18.469674999999999
#
# number of rings (size 3 to 8) (size 9 to 14) (size 15 to 20)
#    0.000    1.750    1.250    5.625    0.000    7.000 
#    0.000    0.000    0.000    0.750    0.000    0.000 
#    0.000    0.000    0.000    0.000    0.000    0.000 
#
# Total GULP energy -396880.392012 kJ/mol
# GULP energy per Si atom -12402.512250 kJ/mol
# Density = 1.842764 g / cm^3
# Si number density = 18.469675 Si / 1000 Ang^3
#
#
#
# Elastic Constant Matrix: (Units=GPa)
#
#
# Indices 1 2 3 4 5 6 
#
# 1 96.2502 24.7512 61.6120 0.0000 -4.8303 0.0000
# 2 24.7512 45.0428 13.4037 0.0000 -2.2717 0.0000
# 3 61.6120 13.4037 78.9659 0.0000 -25.2763 0.0000
# 4 0.0000 0.0000 0.0000 27.0097 0.0000 -2.9597
# 5 -4.8303 -2.2717 -25.2763 0.0000 23.4653 0.0000
# 6 0.0000 0.0000 0.0000 -2.9597 0.0000 25.4670
#
#
#
# Elastic Compliance Matrix: (Units=1/GPa)
#
#
# Indices 1 2 3 4 5 6 
#
# 1 0.033141 -0.009620 -0.034095 0.000000 -0.030836 0.000000
# 2 -0.009620 0.026321 0.004915 0.000000 0.005862 0.000000
# 3 -0.034095 0.004915 0.055460 0.000000 0.053197 0.000000
# 4 0.000000 0.000000 0.000000 0.037501 0.000000 0.004358
# 5 -0.030836 0.005862 0.053197 0.000000 0.094139 0.000000
# 6 0.000000 0.000000 0.000000 0.004358 0.000000 0.039773
#
#
# Mechanical properties :
#
#
# Convention : Reuss Voigt Hill
#
# Bulk Modulus (GPa) = 26.79534 46.64363 36.71948
# Shear Modulus (GPa) = 13.28460 23.22120 18.25290
#
# Velocity S-wave (km/s) = 2.68482 3.54963 3.14708
# Velocity P-wave (km/s) = 4.91429 6.48913 5.75583
#
# Compressibility (1/GPa) = 0.03731993
#
# Stress axis : x y z
#
# Youngs Moduli (GPa) = 30.17400 37.99294 18.03116
#
# Poissons Ratio (x) = 0.36551 0.61477
# Poissons Ratio (y) = 0.29029 -0.08862
# Poissons Ratio (z) = 1.02879 -0.18673
#
# Static dielectric constant tensor:
#      x y z
#    x 3.282570 0.000000 -0.282190 
#    y 0.000000 3.376050 0.000000 
#    z -0.282190 0.000000 3.497520 
# 
# 
# High freq. dielectric constant tensor:
#      x y z
#    x 1.692850 0.000000 -0.026940 
#    y 0.000000 1.724470 0.000000 
#    z -0.026940 0.000000 1.714380 
# 
# From -- ./inp_files/324274.got.cif
#   From: 2010.06.25/outbox.cif.g09.slc.cpg/sg12_163_cif.got.tgz:324274.got - 2010.06.28 00:19:55.
