data_PCOD8082628
_publ_section_title
;
Structure prediction by ZEFSAII (Michael W. Deem and Ramdas Pophale) SiO2 
 PCOD8082628
Probable space group: C 2/M
;
_chemical_formula_sum "Si O2"
_cell_formula_units_Z 56
_cell_length_a 23.174381
_cell_length_b 16.391332
_cell_length_c 12.070270
_cell_angle_alpha 90.000000
_cell_angle_beta 39.941411
_cell_angle_gamma 90.000000
_cell_volume 2943.588294
_symmetry_space_group_name_H-M "C 2/M"
_symmetry_group_IT_number 12
_symmetry_cell_setting 'monoclinic'
loop_
_space_group_symop_operation_xyz
x,y,z
-x,y,-z
-x,-y,-z
x,-y,z
1/2+x,1/2+y,z
1/2-x,1/2+y,-z
1/2-x,1/2-y,-z
1/2+x,1/2-y,z
loop_
_atom_site_type_symbol
_atom_site_label
_atom_site_fract_x
_atom_site_fract_y
_atom_site_fract_z
Si Si1 0.278172 0.096270 0.518062
Si Si2 0.024510 0.596313 0.841637
Si Si3 0.695241 0.407107 0.411023
Si Si4 0.253563 0.680618 0.205669
Si Si5 0.285099 0.594513 0.945385
Si Si6 0.101544 0.800221 0.379051
Si Si7 0.155856 0.654510 0.963959
O O1 0.377868 0.126926 0.339187
O O2 0.210562 0.117271 0.516726
O O3 0.245578 0.146052 0.671961
O O4 0.278532 0.000000 0.542639
O O5 0.017839 0.500000 0.842379
O O6 0.000000 0.627077 0.000000
O O7 0.949612 0.636512 0.873515
O O8 0.662846 0.500000 0.450108
O O9 0.618102 0.351141 0.468858
O O10 0.790925 0.398224 0.207134
O O11 0.156791 0.716483 0.311574
O O12 0.328707 0.750518 0.085002
O O13 0.280737 0.607654 0.083415
O O14 0.299854 0.500000 0.896960
O O15 0.365921 0.645339 0.771957
O O16 0.192890 0.628922 0.029385
O O17 0.000000 0.777335 0.500000
#
# Coordination Sequence:
#
# PCOD8082628 Si02
#       7
#     8   8   8   8   8   8   8
#     4  10  20  34  56  82 110 144 179 217 268 326
#     4  10  18  31  53  82 109 134 173 223 266 311
#     4   9  17  32  54  79 107 137 177 225 265 311
#     4  10  22  36  53  76 116 148 176 211 268 335
#     4  10  20  36  58  77 104 143 184 223 264 317
#     4  10  21  36  58  84 104 138 180 233 273 309
#     4  10  18  32  53  78 106 140 175 223 270 313
#
# _framework density 19.0244
#
# number of rings (size 3 to 8) (size 9 to 14) (size 15 to 20)
#    0.000    2.429    1.429    4.714    0.000    5.714 
#    0.000    0.000    0.000    3.429    0.000    3.000 
#    0.000    0.000    0.000    0.000    0.000    0.000 
#
# Total GULP energy -347112.569017 kJ/mol
# GULP energy per Si atom -12396.877465 kJ/mol
# Density = 1.898110 g / cm^3
# Si number density = 19.024400 Si / 1000 Ang^3
#
#
#
# Elastic Constant Matrix: (Units=GPa)
#
#
# Indices 1 2 3 4 5 6 
#
# 1 75.3341 12.5882 35.3161 0.0000 10.5264 0.0000
# 2 12.5882 46.6540 16.4685 0.0000 14.3067 0.0000
# 3 35.3161 16.4685 47.4100 0.0000 23.5983 0.0000
# 4 0.0000 0.0000 0.0000 15.6017 0.0000 4.0950
# 5 10.5264 14.3067 23.5983 0.0000 39.2221 0.0000
# 6 0.0000 0.0000 0.0000 4.0950 0.0000 22.8499
#
#
#
# Elastic Compliance Matrix: (Units=1/GPa)
#
#
# Indices 1 2 3 4 5 6 
#
# 1 0.021219 -0.001013 -0.018278 0.000000 0.005671 0.000000
# 2 -0.001013 0.025317 -0.005108 0.000000 -0.005889 0.000000
# 3 -0.018278 -0.005108 0.047269 0.000000 -0.021671 0.000000
# 4 0.000000 0.000000 0.000000 0.067260 0.000000 -0.012054
# 5 0.005671 -0.005889 -0.021671 0.000000 0.039161 0.000000
# 6 0.000000 0.000000 0.000000 -0.012054 0.000000 0.045924
#
#
# Mechanical properties :
#
#
# Convention : Reuss Voigt Hill
#
# Bulk Modulus (GPa) = 22.21839 33.12707 27.67273
# Shear Modulus (GPa) = 16.13165 22.53642 19.33403
#
# Velocity S-wave (km/s) = 2.91511 3.44554 3.19137
# Velocity P-wave (km/s) = 4.79945 5.76886 5.30634
#
# Compressibility (1/GPa) = 0.04500776
#
# Stress axis : x y z
#
# Youngs Moduli (GPa) = 47.12666 39.49940 21.15547
#
# Poissons Ratio (x) = 0.04000 0.38667
# Poissons Ratio (y) = 0.04773 0.10807
# Poissons Ratio (z) = 0.86137 0.20178
#
# Static dielectric constant tensor:
#      x y z
#    x 3.503200 0.000000 0.122510 
#    y 0.000000 3.343500 0.000000 
#    z 0.122510 0.000000 3.218810 
# 
# 
# High freq. dielectric constant tensor:
#      x y z
#    x 1.740840 0.000000 0.014480 
#    y 0.000000 1.734800 0.000000 
#    z 0.014480 0.000000 1.711690 
# 
# From -- ./inp_files/177069.got.cif
#   From: 2010.06.25/outbox.cif.g09.slc.cpg/sg12_89_cif.got.tgz:177069.got - 2010.06.28 00:19:55.
