data_PCOD8082492
_publ_section_title
;
Structure prediction by ZEFSAII (Michael W. Deem and Ramdas Pophale) SiO2 
 PCOD8082492
Probable space group: C 2/M
;
_chemical_formula_sum "Si O2"
_cell_formula_units_Z 64
_cell_length_a 23.732644
_cell_length_b 20.370427
_cell_length_c 9.934131
_cell_angle_alpha 90.000000
_cell_angle_beta 49.617666
_cell_angle_gamma 90.000000
_cell_volume 3658.321099
_symmetry_space_group_name_H-M "C 2/M"
_symmetry_group_IT_number 12
_symmetry_cell_setting 'monoclinic'
loop_
_space_group_symop_operation_xyz
x,y,z
-x,y,-z
-x,-y,-z
x,-y,z
1/2+x,1/2+y,z
1/2-x,1/2+y,-z
1/2-x,1/2-y,-z
1/2+x,1/2-y,z
loop_
_atom_site_type_symbol
_atom_site_label
_atom_site_fract_x
_atom_site_fract_y
_atom_site_fract_z
Si Si1 0.708880 0.197106 0.155426
Si Si2 0.952058 0.120845 0.199793
Si Si3 0.302227 0.574125 0.329289
Si Si4 0.803111 0.072167 0.020506
Si Si5 0.048244 0.882465 0.294249
Si Si6 0.205285 0.697403 0.479668
Si Si7 0.959230 0.276136 0.198085
Si Si8 0.555354 0.234424 0.293138
O O1 0.711724 0.216060 0.310258
O O2 0.625321 0.192366 0.231471
O O3 0.750000 0.250000 0.000000
O O4 0.742608 0.125795 0.073393
O O5 0.871000 0.089520 0.319458
O O6 0.944250 0.198856 0.222004
O O7 0.993664 0.091849 0.263605
O O8 0.000000 0.098319 0.000000
O O9 0.273685 0.500000 0.400542
O O10 0.236688 0.625030 0.460525
O O11 0.328787 0.583342 0.134529
O O12 0.876766 0.075479 0.814948
O O13 0.767326 0.000000 0.056424
O O14 0.077616 0.808669 0.219179
O O15 0.000000 0.890460 0.500000
O O16 0.250000 0.750000 0.500000
O O17 0.120659 0.691208 0.658321
O O18 0.014410 0.299279 0.230920
O O19 0.000000 0.299832 0.000000
O O20 0.500000 0.239536 0.500000
#
# Coordination Sequence:
#
# PCOD8082492 Si02
#       8
#     8   8   8   8   8   8   8   8
#     4  11  22  35  60  84 109 148 187 229 277 327
#     4  10  18  31  52  78 107 145 187 212 254 327
#     4  10  21  36  56  79 109 149 186 222 267 325
#     4  10  21  37  54  78 112 149 184 223 270 323
#     4  10  20  31  51  77 111 145 178 217 266 327
#     4  11  22  36  57  86 113 142 185 235 277 323
#     4  10  21  33  55  83 111 141 177 234 279 321
#     4  10  19  35  53  81 111 141 185 227 274 323
#
# _framework density 17.494363
#
# number of rings (size 3 to 8) (size 9 to 14) (size 15 to 20)
#    0.000    1.750    5.000    0.000    1.750    1.000 
#    0.000    0.000    0.000    1.500    0.000    0.000 
#    0.000    0.000    0.000    0.000    0.000    0.000 
#
# Total GULP energy -396732.935484 kJ/mol
# GULP energy per Si atom -12397.904234 kJ/mol
# Density = 1.745455 g / cm^3
# Si number density = 17.494363 Si / 1000 Ang^3
#
#
#
# Elastic Constant Matrix: (Units=GPa)
#
#
# Indices 1 2 3 4 5 6 
#
# 1 135.6814 57.9268 46.3103 0.0000 -2.6484 0.0000
# 2 57.9268 97.3610 40.7328 0.0000 -9.4259 0.0000
# 3 46.3103 40.7328 90.4849 0.0000 -2.3519 0.0000
# 4 0.0000 0.0000 0.0000 24.9491 0.0000 -5.1102
# 5 -2.6484 -9.4259 -2.3519 0.0000 31.5988 0.0000
# 6 0.0000 0.0000 0.0000 -5.1102 0.0000 24.3443
#
#
#
# Elastic Compliance Matrix: (Units=1/GPa)
#
#
# Indices 1 2 3 4 5 6 
#
# 1 0.010595 -0.005062 -0.003166 0.000000 -0.000858 0.000000
# 2 -0.005062 0.015439 -0.004259 0.000000 0.003864 0.000000
# 3 -0.003166 -0.004259 0.014577 0.000000 -0.000451 0.000000
# 4 0.000000 0.000000 0.000000 0.041882 0.000000 0.008792
# 5 -0.000858 0.003864 -0.000451 0.000000 0.032694 0.000000
# 6 0.000000 0.000000 0.000000 0.008792 0.000000 0.042923
#
#
# Mechanical properties :
#
#
# Convention : Reuss Voigt Hill
#
# Bulk Modulus (GPa) = 63.94957 68.16301 66.05629
# Shear Modulus (GPa) = 26.55375 28.08227 27.31801
#
# Velocity S-wave (km/s) = 3.90018 4.01086 3.95591
# Velocity P-wave (km/s) = 7.54424 7.77797 7.66200
#
# Compressibility (1/GPa) = 0.01563732
#
# Stress axis : x y z
#
# Youngs Moduli (GPa) = 94.38048 64.77207 68.59965
#
# Poissons Ratio (x) = 0.32790 0.21720
# Poissons Ratio (y) = 0.47779 0.29214
# Poissons Ratio (z) = 0.29882 0.27584
#
# Static dielectric constant tensor:
#      x y z
#    x 3.274710 0.000000 0.026860 
#    y 0.000000 3.140110 0.000000 
#    z 0.026860 0.000000 3.235470 
# 
# 
# High freq. dielectric constant tensor:
#      x y z
#    x 1.681920 0.000000 0.000870 
#    y 0.000000 1.648180 0.000000 
#    z 0.000870 0.000000 1.676340 
# 
# From -- ./inp_files/89595.got.cif
#   From: 2010.06.25/outbox.cif.g09.slc.cpg/sg12_45_cif.got.tgz:89595.got - 2010.06.28 00:19:55.
