data_PCOD8082340
_publ_section_title
;
Structure prediction by ZEFSAII (Michael W. Deem and Ramdas Pophale) SiO2 
 PCOD8082340
Probable space group: C 2/M
;
_chemical_formula_sum "Si O2"
_cell_formula_units_Z 36
_cell_length_a 12.700179
_cell_length_b 18.168794
_cell_length_c 11.595683
_cell_angle_alpha 90.000000
_cell_angle_beta 131.575964
_cell_angle_gamma 90.000000
_cell_volume 2001.604719
_symmetry_space_group_name_H-M "C 2/M"
_symmetry_group_IT_number 12
_symmetry_cell_setting 'monoclinic'
loop_
_space_group_symop_operation_xyz
x,y,z
-x,y,-z
-x,-y,-z
x,-y,z
1/2+x,1/2+y,z
1/2-x,1/2+y,-z
1/2-x,1/2-y,-z
1/2+x,1/2-y,z
loop_
_atom_site_type_symbol
_atom_site_label
_atom_site_fract_x
_atom_site_fract_y
_atom_site_fract_z
Si Si1 0.551792 0.710274 0.281347
Si Si2 0.777565 0.155165 0.191640
Si Si3 0.574465 0.000000 0.242998
Si Si4 0.800010 0.500000 0.919971
Si Si5 0.000000 0.256596 0.000000
Si Si6 0.719191 0.855457 0.410703
O O1 0.399282 0.705445 0.228147
O O2 0.543079 0.703639 0.136544
O O3 0.611105 0.790005 0.358459
O O4 0.655928 0.646421 0.403894
O O5 0.792250 0.074494 0.143243
O O6 0.794386 0.151877 0.341483
O O7 0.626096 0.190005 0.050677
O O8 0.630236 0.930087 0.354511
O O9 0.624707 0.000000 0.148560
O O10 0.405253 0.000000 0.106821
#
# Coordination Sequence:
#
# PCOD8082340 Si02
#       6
#     8   8   4   4   4   8
#     4  10  19  32  48  74 101 128 162 197 238 286
#     4  10  18  31  51  76 100 124 157 200 246 291
#     4   9  16  31  49  71 102 124 151 201 249 292
#     4   9  16  27  49  77 100 121 150 197 256 295
#     4  10  20  31  48  71  98 132 166 196 234 281
#     4   9  19  32  51  75  99 126 158 198 247 289
#
# _framework density 17.985569000000002
#
# number of rings (size 3 to 8) (size 9 to 14) (size 15 to 20)
#    0.000    2.444    0.000    5.333    0.000    0.889 
#    0.000    3.333    0.000    2.667    0.000   35.778 
#    0.000    0.000    0.000    0.000    0.000    0.000 
#
# Total GULP energy -223164.438651 kJ/mol
# GULP energy per Si atom -12398.024369 kJ/mol
# Density = 1.794463 g / cm^3
# Si number density = 17.985569 Si / 1000 Ang^3
#
#
#
# Elastic Constant Matrix: (Units=GPa)
#
#
# Indices 1 2 3 4 5 6 
#
# 1 74.6612 40.4141 35.2816 0.0000 17.3361 0.0000
# 2 40.4141 98.7280 54.4214 0.0000 6.1563 0.0000
# 3 35.2816 54.4214 137.2710 0.0000 1.5444 0.0000
# 4 0.0000 0.0000 0.0000 28.0084 0.0000 0.3087
# 5 17.3361 6.1563 1.5444 0.0000 25.3282 0.0000
# 6 0.0000 0.0000 0.0000 0.3087 0.0000 15.6215
#
#
#
# Elastic Compliance Matrix: (Units=1/GPa)
#
#
# Indices 1 2 3 4 5 6 
#
# 1 0.021070 -0.006303 -0.002773 0.000000 -0.012720 0.000000
# 2 -0.006303 0.015054 -0.004359 0.000000 0.000921 0.000000
# 3 -0.002773 -0.004359 0.009699 0.000000 0.002366 0.000000
# 4 0.000000 0.000000 0.000000 0.035711 0.000000 -0.000706
# 5 -0.012720 0.000921 0.002366 0.000000 0.047820 0.000000
# 6 0.000000 0.000000 0.000000 -0.000706 0.000000 0.064028
#
#
# Mechanical properties :
#
#
# Convention : Reuss Voigt Hill
#
# Bulk Modulus (GPa) = 52.76204 63.43269 58.09737
# Shear Modulus (GPa) = 22.06818 25.82782 23.94800
#
# Velocity S-wave (km/s) = 3.50665 3.79361 3.65295
# Velocity P-wave (km/s) = 6.76719 7.38470 7.08268
#
# Compressibility (1/GPa) = 0.01895302
#
# Stress axis : x y z
#
# Youngs Moduli (GPa) = 47.46119 66.42723 103.10276
#
# Poissons Ratio (x) = 0.41868 0.28596
# Poissons Ratio (y) = 0.29914 0.44938
# Poissons Ratio (z) = 0.13163 0.28953
#
# Static dielectric constant tensor:
#      x y z
#    x 2.943480 0.000000 0.059820 
#    y 0.000000 3.370500 0.000000 
#    z 0.059820 0.000000 3.576170 
# 
# 
# High freq. dielectric constant tensor:
#      x y z
#    x 1.656590 0.000000 0.015030 
#    y 0.000000 1.686100 0.000000 
#    z 0.015030 0.000000 1.710280 
# 
# From -- ./inp_files/47258.got.cif
#   From: 2010.06.25/outbox.cif.g09.slc.cpg/sg12_24_cif.got.tgz:47258.got - 2010.06.28 00:19:55.
