data_PCOD8082638
_publ_section_title
;
Structure prediction by ZEFSAII (Michael W. Deem and Ramdas Pophale) SiO2 
 PCOD8082638
Probable space group: C 2/M
;
_chemical_formula_sum "Si O2"
_cell_formula_units_Z 48
_cell_length_a 17.819000
_cell_length_b 14.552795
_cell_length_c 14.712330
_cell_angle_alpha 90.000000
_cell_angle_beta 137.107219
_cell_angle_gamma 90.000000
_cell_volume 2596.697561
_symmetry_space_group_name_H-M "C 2/M"
_symmetry_group_IT_number 12
_symmetry_cell_setting 'monoclinic'
loop_
_space_group_symop_operation_xyz
x,y,z
-x,y,-z
-x,-y,-z
x,-y,z
1/2+x,1/2+y,z
1/2-x,1/2+y,-z
1/2-x,1/2-y,-z
1/2+x,1/2-y,z
loop_
_atom_site_type_symbol
_atom_site_label
_atom_site_fract_x
_atom_site_fract_y
_atom_site_fract_z
Si Si1 0.233097 0.105946 0.614422
Si Si2 0.325768 0.224613 0.983949
Si Si3 0.153633 0.893986 0.736267
Si Si4 0.055394 0.101884 0.952304
Si Si5 0.549702 0.392124 0.327466
Si Si6 0.975928 0.391932 0.872826
O O1 0.146502 0.118175 0.621267
O O2 0.167413 0.147965 0.468512
O O3 0.354562 0.148436 0.739167
O O4 0.259245 0.000000 0.622176
O O5 0.263640 0.159561 0.859391
O O6 0.250000 0.250000 0.000000
O O7 0.349252 0.323010 0.958276
O O8 0.438062 0.169444 0.109785
O O9 0.050160 0.851733 0.699384
O O10 0.171778 0.000000 0.779268
O O11 0.969020 0.129930 0.795422
O O12 0.103704 0.000000 0.973123
O O13 0.000000 0.100265 0.000000
O O14 0.553381 0.500000 0.349928
O O15 0.990282 0.500000 0.863431
O O16 0.000000 0.372240 0.000000
#
# Coordination Sequence:
#
# PCOD8082638 Si02
#       6
#     8   8   8   8   8   8
#     4   9  17  30  54  83 111 142 169 215 284 336
#     4  12  22  33  54  77 109 143 182 221 269 314
#     4  10  18  31  53  84 116 142 170 217 278 336
#     4  10  22  38  55  75 105 146 191 228 258 302
#     4   9  17  32  53  79 110 143 182 219 263 325
#     4  10  19  33  54  83 113 139 170 217 280 336
#
# _framework density 18.485018
#
# number of rings (size 3 to 8) (size 9 to 14) (size 15 to 20)
#    0.000    2.000    3.333    1.500    0.000    2.667 
#    0.000    0.833    0.000    0.000    0.000    0.000 
#    0.000    9.333    0.000    0.000    0.000    0.000 
#
# Total GULP energy -297342.762945 kJ/mol
# GULP energy per Si atom -12389.281789 kJ/mol
# Density = 1.844295 g / cm^3
# Si number density = 18.485018 Si / 1000 Ang^3
#
#
#
# Elastic Constant Matrix: (Units=GPa)
#
#
# Indices 1 2 3 4 5 6 
#
# 1 95.9761 28.1833 48.6358 0.0000 6.2207 0.0000
# 2 28.1833 67.8623 23.6111 0.0000 5.1939 0.0000
# 3 48.6358 23.6111 129.2143 0.0000 6.2848 0.0000
# 4 0.0000 0.0000 0.0000 10.2900 0.0000 9.1806
# 5 6.2207 5.1939 6.2848 0.0000 27.7830 0.0000
# 6 0.0000 0.0000 0.0000 9.1806 0.0000 24.8795
#
#
#
# Elastic Compliance Matrix: (Units=1/GPa)
#
#
# Indices 1 2 3 4 5 6 
#
# 1 0.013975 -0.004158 -0.004435 0.000000 -0.001349 0.000000
# 2 -0.004158 0.017122 -0.001470 0.000000 -0.001938 0.000000
# 3 -0.004435 -0.001470 0.009722 0.000000 -0.000932 0.000000
# 4 0.000000 0.000000 0.000000 0.144879 0.000000 -0.053461
# 5 -0.001349 -0.001938 -0.000932 0.000000 0.036868 0.000000
# 6 0.000000 0.000000 0.000000 -0.053461 0.000000 0.059921
#
#
# Mechanical properties :
#
#
# Convention : Reuss Voigt Hill
#
# Bulk Modulus (GPa) = 48.32043 54.87924 51.59983
# Shear Modulus (GPa) = 16.15459 25.43198 20.79329
#
# Velocity S-wave (km/s) = 2.95944 3.71322 3.35755
# Velocity P-wave (km/s) = 6.15425 6.93808 6.55789
#
# Compressibility (1/GPa) = 0.02069518
#
# Stress axis : x y z
#
# Youngs Moduli (GPa) = 71.55704 58.40454 102.85786
#
# Poissons Ratio (x) = 0.24282 0.45615
# Poissons Ratio (y) = 0.29750 0.15115
# Poissons Ratio (z) = 0.31734 0.08583
#
# Static dielectric constant tensor:
#      x y z
#    x 3.282650 0.000000 0.103500 
#    y 0.000000 3.704100 0.000000 
#    z 0.103500 0.000000 3.699210 
# 
# 
# High freq. dielectric constant tensor:
#      x y z
#    x 1.708290 0.000000 0.005430 
#    y 0.000000 1.693750 0.000000 
#    z 0.005430 0.000000 1.713370 
# 
# From -- ./inp_files/143899.got.cif
#   From: 2010.06.25/outbox.cif.g09.slc.cpg/sg12_72_cif.got.tgz:143899.got - 2010.06.28 00:19:55.
