data_PCOD8082234
_publ_section_title
;
Structure prediction by ZEFSAII (Michael W. Deem and Ramdas Pophale) SiO2 
 PCOD8082234
Probable space group: C 2/M
;
_chemical_formula_sum "Si O2"
_cell_formula_units_Z 64
_cell_length_a 26.085933
_cell_length_b 17.972405
_cell_length_c 19.327986
_cell_angle_alpha 90.000000
_cell_angle_beta 25.341579
_cell_angle_gamma 90.000000
_cell_volume 3878.439137
_symmetry_space_group_name_H-M "C 2/M"
_symmetry_group_IT_number 12
_symmetry_cell_setting 'monoclinic'
loop_
_space_group_symop_operation_xyz
x,y,z
-x,y,-z
-x,-y,-z
x,-y,z
1/2+x,1/2+y,z
1/2-x,1/2+y,-z
1/2-x,1/2-y,-z
1/2+x,1/2-y,z
loop_
_atom_site_type_symbol
_atom_site_label
_atom_site_fract_x
_atom_site_fract_y
_atom_site_fract_z
Si Si1 0.045981 0.671524 0.230798
Si Si2 0.393630 0.322616 0.678325
Si Si3 0.699491 0.086202 0.841145
Si Si4 0.523192 0.340465 0.270701
Si Si5 0.249713 0.915074 0.959488
Si Si6 0.456611 0.914353 0.211174
Si Si7 0.924749 0.346542 0.655177
Si Si8 0.727975 0.412779 0.402069
O O1 0.967741 0.630317 0.269039
O O2 0.042370 0.758362 0.216366
O O3 0.182630 0.638349 0.066151
O O4 0.994389 0.660553 0.372629
O O5 0.500000 0.350831 0.500000
O O6 0.272544 0.363573 0.805209
O O7 0.430111 0.348088 0.709106
O O8 0.374114 0.234219 0.695596
O O9 0.728481 0.110629 0.727479
O O10 0.732665 0.000000 0.812073
O O11 0.560736 0.101494 0.028147
O O12 0.386200 0.365892 0.433559
O O13 0.609969 0.395076 0.121566
O O14 0.312814 0.901031 0.807718
O O15 0.265720 0.000000 0.963262
O O16 0.332532 0.891155 0.327406
O O17 0.456590 0.000000 0.232580
O O18 0.000000 0.380808 0.500000
O O19 0.697300 0.500000 0.441766
#
# Coordination Sequence:
#
# PCOD8082234 Si02
#       8
#     8   8   8   8   8   8   8   8
#     4   9  20  33  53  76  99 132 166 207 252 298
#     4  10  18  31  50  74 103 136 164 196 252 301
#     4  10  20  31  50  75 102 138 173 203 237 292
#     4  11  20  33  49  74 105 135 165 204 250 302
#     4  10  20  32  51  76 102 129 160 200 253 307
#     4  10  20  35  52  72 100 136 176 213 244 285
#     4   8  19  34  51  74  99 127 156 204 258 304
#     4  10  21  35  50  71 104 141 173 206 243 285
#
# _framework density 16.501484000000001
#
# number of rings (size 3 to 8) (size 9 to 14) (size 15 to 20)
#    0.750    1.500    1.250    2.250    1.750    4.500 
#    0.000    0.000    0.000    0.000    0.000    0.875 
#    0.000    3.000    0.000    0.000    0.000    0.000 
#
# Total GULP energy -396619.506274 kJ/mol
# GULP energy per Si atom -12394.359571 kJ/mol
# Density = 1.646393 g / cm^3
# Si number density = 16.501484 Si / 1000 Ang^3
#
#
#
# Elastic Constant Matrix: (Units=GPa)
#
#
# Indices 1 2 3 4 5 6 
#
# 1 84.8619 37.8596 49.2765 -0.0001 -6.1786 0.0000
# 2 37.8596 88.1272 59.0996 -0.0002 -7.9724 0.0001
# 3 49.2765 59.0996 118.0235 -0.0005 -6.4946 0.0002
# 4 -0.0001 -0.0002 -0.0005 12.4681 0.0001 1.2222
# 5 -6.1786 -7.9724 -6.4946 0.0001 26.4559 0.0000
# 6 0.0000 0.0001 0.0002 1.2222 0.0000 9.9811
#
#
#
# Elastic Compliance Matrix: (Units=1/GPa)
#
#
# Indices 1 2 3 4 5 6 
#
# 1 0.016368 -0.003564 -0.004965 0.000000 0.001530 0.000000
# 2 -0.003564 0.018113 -0.007428 0.000000 0.002803 0.000000
# 3 -0.004965 -0.007428 0.014271 0.000000 0.000105 0.000000
# 4 0.000000 0.000000 0.000000 0.081179 0.000000 -0.009941
# 5 0.001530 0.002803 0.000105 0.000000 0.039026 0.000000
# 6 0.000000 0.000000 0.000000 -0.009941 0.000000 0.101406
#
#
# Mechanical properties :
#
#
# Convention : Reuss Voigt Hill
#
# Bulk Modulus (GPa) = 59.38653 64.83156 62.10905
# Shear Modulus (GPa) = 16.23951 19.43283 17.83617
#
# Velocity S-wave (km/s) = 3.14048 3.43540 3.29125
# Velocity P-wave (km/s) = 7.01547 7.42358 7.22241
#
# Compressibility (1/GPa) = 0.01683883
#
# Stress axis : x y z
#
# Youngs Moduli (GPa) = 61.09374 55.20910 70.07090
#
# Poissons Ratio (x) = 0.19674 0.34793
# Poissons Ratio (y) = 0.21771 0.52048
# Poissons Ratio (z) = 0.30335 0.41009
#
# Static dielectric constant tensor:
#      x y z
#    x 2.980620 0.000000 0.116630 
#    y 0.000000 3.004850 0.000000 
#    z 0.116630 0.000000 3.173300 
# 
# 
# High freq. dielectric constant tensor:
#      x y z
#    x 1.616810 0.000000 0.011200 
#    y 0.000000 1.628700 0.000000 
#    z 0.011200 0.000000 1.631560 
# 
# From -- ./inp_files/354287.got.cif
#   From: 2010.06.25/outbox.cif.g09.slc.cpg/sg12_178_cif.got.tgz:354287.got - 2010.06.28 00:19:55.
