data_PCOD8082666
_publ_section_title
;
Structure prediction by ZEFSAII (Michael W. Deem and Ramdas Pophale) SiO2 
 PCOD8082666
Probable space group: C 2/M
;
_chemical_formula_sum "Si O2"
_cell_formula_units_Z 48
_cell_length_a 13.625455
_cell_length_b 7.906951
_cell_length_c 26.885731
_cell_angle_alpha 90.000000
_cell_angle_beta 45.302080
_cell_angle_gamma 90.000000
_cell_volume 2058.944354
_symmetry_space_group_name_H-M "C 2/M"
_symmetry_group_IT_number 12
_symmetry_cell_setting 'monoclinic'
loop_
_space_group_symop_operation_xyz
x,y,z
-x,y,-z
-x,-y,-z
x,-y,z
1/2+x,1/2+y,z
1/2-x,1/2+y,-z
1/2-x,1/2-y,-z
1/2+x,1/2-y,z
loop_
_atom_site_type_symbol
_atom_site_label
_atom_site_fract_x
_atom_site_fract_y
_atom_site_fract_z
Si Si1 0.776045 0.500000 0.564487
Si Si2 0.870762 0.686719 0.347554
Si Si3 0.055345 0.692367 0.826593
Si Si4 0.113448 0.190576 0.200415
Si Si5 0.587986 0.198026 0.923895
Si Si6 0.823286 0.186350 0.679539
Si Si7 0.530471 0.000000 0.408132
O O1 0.680797 0.332254 0.596536
O O2 0.867842 0.500000 0.581335
O O3 0.872338 0.500000 0.481662
O O4 0.860987 0.500000 0.376571
O O5 0.775593 0.693628 0.332966
O O6 0.029704 0.717171 0.274509
O O7 0.019952 0.500000 0.823473
O O8 0.974647 0.816414 0.819014
O O9 0.009810 0.729381 0.899497
O O10 0.222354 0.718914 0.762787
O O11 0.259343 0.279923 0.135193
O O12 0.137941 0.000000 0.210234
O O13 0.605768 0.000000 0.928902
O O14 0.500000 0.283150 0.000000
O O15 0.941898 0.330415 0.634529
O O16 0.893578 0.000000 0.657424
#
# Coordination Sequence:
#
# PCOD8082666 Si02
#       7
#     4   8   8   8   8   8   4
#     4   9  16  26  40  72 105 138 177 219 276 331
#     4   9  16  28  46  69 102 140 180 225 269 324
#     4   9  18  33  53  76 106 144 185 229 277 330
#     4  10  18  31  54  79 105 143 190 231 272 330
#     4   9  19  35  54  79 111 144 184 229 278 338
#     4   8  15  26  43  68  97 136 181 219 265 325
#     4   9  16  24  42  68 107 138 169 227 276 319
#
# _framework density 23.312919000000001
#
# number of rings (size 3 to 8) (size 9 to 14) (size 15 to 20)
#    0.000    3.000    0.833    1.500    3.500    1.333 
#    0.000    5.000    0.000    3.500    0.000    1.167 
#    0.000    0.000    0.000    0.000    0.000    0.000 
#
# Total GULP energy -297534.614361 kJ/mol
# GULP energy per Si atom -12397.275598 kJ/mol
# Density = 2.325986 g / cm^3
# Si number density = 23.312919 Si / 1000 Ang^3
#
#
#
# Elastic Constant Matrix: (Units=GPa)
#
#
# Indices 1 2 3 4 5 6 
#
# 1 12.5878 12.8237 27.2710 0.0000 -12.7846 0.0000
# 2 12.8237 125.1804 64.2020 0.0001 -11.0470 -0.0007
# 3 27.2710 64.2020 164.1795 0.0000 -11.6532 0.0003
# 4 0.0000 0.0001 0.0000 21.5585 0.0001 2.6896
# 5 -12.7846 -11.0470 -11.6532 0.0001 31.4322 0.0002
# 6 0.0000 -0.0007 0.0003 2.6896 0.0002 17.4187
#
#
#
# Elastic Compliance Matrix: (Units=1/GPa)
#
#
# Indices 1 2 3 4 5 6 
#
# 1 0.237415 0.000340 -0.033590 0.000000 0.084231 0.000000
# 2 0.000340 0.010132 -0.003858 0.000000 0.002269 0.000000
# 3 -0.033590 -0.003858 0.012440 0.000000 -0.010406 0.000000
# 4 0.000000 0.000000 0.000000 0.047297 0.000000 -0.007303
# 5 0.084231 0.002269 -0.010406 0.000000 0.063014 0.000000
# 6 0.000000 0.000000 0.000000 -0.007303 0.000000 0.058537
#
#
# Mechanical properties :
#
#
# Convention : Reuss Voigt Hill
#
# Bulk Modulus (GPa) = 5.38295 56.72680 31.05487
# Shear Modulus (GPa) = 8.84995 27.25861 18.05428
#
# Velocity S-wave (km/s) = 1.95049 3.42314 2.78588
# Velocity P-wave (km/s) = 2.71782 6.32530 4.86806
#
# Compressibility (1/GPa) = 0.18577164
#
# Stress axis : x y z
#
# Youngs Moduli (GPa) = 4.21203 98.69338 80.38404
#
# Poissons Ratio (x) = -0.03352 2.70010
# Poissons Ratio (y) = -0.00143 0.31009
# Poissons Ratio (z) = 0.14148 0.38072
#
# Static dielectric constant tensor:
#      x y z
#    x 3.869020 0.000000 -0.083350 
#    y 0.000000 4.083570 0.000000 
#    z -0.083350 0.000000 4.346400 
# 
# 
# High freq. dielectric constant tensor:
#      x y z
#    x 1.919990 0.000000 0.006240 
#    y 0.000000 1.903460 0.000000 
#    z 0.006240 0.000000 1.911370 
# 
# From -- ./inp_files/360287.got.cif
#   From: 2010.06.25/outbox.cif.g09.slc.cpg/sg12_181_cif.got.tgz:360287.got - 2010.06.28 00:19:55.
