data_PCOD8082207
_publ_section_title
;
Structure prediction by ZEFSAII (Michael W. Deem and Ramdas Pophale) SiO2 
 PCOD8082207
Probable space group: C 2/M
;
_chemical_formula_sum "Si O2"
_cell_formula_units_Z 56
_cell_length_a 27.392655
_cell_length_b 9.022061
_cell_length_c 17.219586
_cell_angle_alpha 90.000000
_cell_angle_beta 126.385634
_cell_angle_gamma 90.000000
_cell_volume 3425.953268
_symmetry_space_group_name_H-M "C 2/M"
_symmetry_group_IT_number 12
_symmetry_cell_setting 'monoclinic'
loop_
_space_group_symop_operation_xyz
x,y,z
-x,y,-z
-x,-y,-z
x,-y,z
1/2+x,1/2+y,z
1/2-x,1/2+y,-z
1/2-x,1/2-y,-z
1/2+x,1/2-y,z
loop_
_atom_site_type_symbol
_atom_site_label
_atom_site_fract_x
_atom_site_fract_y
_atom_site_fract_z
Si Si1 0.713922 0.824298 0.034965
Si Si2 0.270293 0.171717 0.407006
Si Si3 0.401481 0.830516 0.883761
Si Si4 0.959459 0.174471 0.798373
Si Si5 0.841852 0.173400 0.596355
Si Si6 0.220916 0.826863 0.199368
Si Si7 0.424110 0.166839 0.081463
O O1 0.643410 0.779614 0.959465
O O2 0.722494 0.000000 0.042446
O O3 0.750000 0.750000 0.000000
O O4 0.740356 0.762993 0.141155
O O5 0.207280 0.228543 0.386321
O O6 0.327673 0.253647 0.499536
O O7 0.269791 0.201886 0.313982
O O8 0.277993 0.000000 0.432031
O O9 0.448277 0.763791 0.866807
O O10 0.342593 0.727911 0.826818
O O11 0.384201 0.000000 0.846171
O O12 0.432450 0.825778 0.996881
O O13 0.908961 0.220161 0.687377
O O14 0.026043 0.225845 0.831503
O O15 0.958488 0.000000 0.813998
O O16 0.838088 0.000000 0.581137
O O17 0.215923 0.000000 0.174154
O O18 0.434685 0.000000 0.121673
#
# Coordination Sequence:
#
# PCOD8082207 Si02
#       7
#     8   8   8   8   8   8   8
#     4  10  21  37  55  76  99 123 156 196 242 290
#     4   9  17  30  45  65  93 127 165 201 237 277
#     4  10  19  30  44  64  94 130 165 198 233 278
#     4  11  20  30  44  66  95 129 165 199 236 279
#     4   9  18  30  42  63  95 128 166 204 233 272
#     4  10  18  31  50  72  99 126 160 202 241 285
#     4   9  20  34  46  66  94 123 158 196 233 284
#
# _framework density 16.345817
#
# number of rings (size 3 to 8) (size 9 to 14) (size 15 to 20)
#    0.000    2.286    1.429    3.000    0.000    7.429 
#    0.000    0.000    0.000    0.000    0.000    1.000 
#    0.000    8.000    0.000    0.000    0.000    0.000 
#
# Total GULP energy -347147.751555 kJ/mol
# GULP energy per Si atom -12398.133984 kJ/mol
# Density = 1.630861 g / cm^3
# Si number density = 16.345817 Si / 1000 Ang^3
#
#
#
# Elastic Constant Matrix: (Units=GPa)
#
#
# Indices 1 2 3 4 5 6 
#
# 1 77.9042 42.2821 59.0961 0.0000 0.4867 0.0000
# 2 42.2821 76.6333 54.1467 0.0000 3.9969 0.0000
# 3 59.0961 54.1467 104.9370 0.0000 11.2470 0.0000
# 4 0.0000 0.0000 0.0000 30.7036 0.0000 1.3921
# 5 0.4867 3.9969 11.2470 0.0000 19.0139 0.0000
# 6 0.0000 0.0000 0.0000 1.3921 0.0000 24.8440
#
#
#
# Elastic Compliance Matrix: (Units=1/GPa)
#
#
# Indices 1 2 3 4 5 6 
#
# 1 0.024925 -0.005753 -0.011883 0.000000 0.007600 0.000000
# 2 -0.005753 0.021942 -0.008118 0.000000 0.000337 0.000000
# 3 -0.011883 -0.008118 0.021562 0.000000 -0.010744 0.000000
# 4 0.000000 0.000000 0.000000 0.032652 0.000000 -0.001830
# 5 0.007600 0.000337 -0.010744 0.000000 0.058683 0.000000
# 6 0.000000 0.000000 0.000000 -0.001830 0.000000 0.040354
#
#
# Mechanical properties :
#
#
# Convention : Reuss Voigt Hill
#
# Bulk Modulus (GPa) = 59.09807 63.39159 61.24483
# Shear Modulus (GPa) = 19.43514 21.84226 20.63870
#
# Velocity S-wave (km/s) = 3.45193 3.65946 3.55720
# Velocity P-wave (km/s) = 7.21949 7.53135 7.37707
#
# Compressibility (1/GPa) = 0.01692103
#
# Stress axis : x y z
#
# Youngs Moduli (GPa) = 40.12000 45.57557 46.37775
#
# Poissons Ratio (x) = 0.26217 0.55112
# Poissons Ratio (y) = 0.23079 0.37650
# Poissons Ratio (z) = 0.47675 0.36999
#
# Static dielectric constant tensor:
#      x y z
#    x 2.807470 0.000000 0.096840 
#    y 0.000000 3.129420 0.000000 
#    z 0.096840 0.000000 3.112130 
# 
# 
# High freq. dielectric constant tensor:
#      x y z
#    x 1.587190 0.000000 0.013230 
#    y 0.000000 1.640150 0.000000 
#    z 0.013230 0.000000 1.622890 
# 
# From -- ./inp_files/244307.got.cif
#   From: 2010.06.25/outbox.cif.g09.slc.cpg/sg12_123_cif.got.tgz:244307.got - 2010.06.28 00:19:55.
