data_PCOD8082482
_publ_section_title
;
Structure prediction by ZEFSAII (Michael W. Deem and Ramdas Pophale) SiO2 
 PCOD8082482
Probable space group: C 2/M
;
_chemical_formula_sum "Si O2"
_cell_formula_units_Z 64
_cell_length_a 24.004172
_cell_length_b 9.124247
_cell_length_c 19.448355
_cell_angle_alpha 90.000000
_cell_angle_beta 52.396962
_cell_angle_gamma 90.000000
_cell_volume 3374.682202
_symmetry_space_group_name_H-M "C 2/M"
_symmetry_group_IT_number 12
_symmetry_cell_setting 'monoclinic'
loop_
_space_group_symop_operation_xyz
x,y,z
-x,y,-z
-x,-y,-z
x,-y,z
1/2+x,1/2+y,z
1/2-x,1/2+y,-z
1/2-x,1/2-y,-z
1/2+x,1/2-y,z
loop_
_atom_site_type_symbol
_atom_site_label
_atom_site_fract_x
_atom_site_fract_y
_atom_site_fract_z
Si Si1 0.571594 0.669282 0.852127
Si Si2 0.935384 0.673798 0.916122
Si Si3 0.946615 0.674206 0.751088
Si Si4 0.597003 0.171894 0.589600
Si Si5 0.172126 0.828732 0.651402
Si Si6 0.334207 0.328018 0.088682
Si Si7 0.183216 0.672160 0.396201
Si Si8 0.320447 0.174443 0.753849
O O1 0.549288 0.500000 0.874016
O O2 0.501523 0.765894 0.909316
O O3 0.610768 0.704054 0.751812
O O4 0.622493 0.712968 0.875853
O O5 0.934091 0.500000 0.922154
O O6 0.940186 0.729442 0.834039
O O7 0.864128 0.738876 0.001517
O O8 0.945248 0.500000 0.749652
O O9 0.882053 0.739327 0.755515
O O10 0.019125 0.733588 0.663369
O O11 0.654653 0.247048 0.594250
O O12 0.617131 0.207438 0.495391
O O13 0.600660 0.000000 0.601863
O O14 0.245070 0.763291 0.625586
O O15 0.179029 0.000000 0.630401
O O16 0.338392 0.500000 0.069675
O O17 0.254327 0.275473 0.159598
O O18 0.195111 0.500000 0.378687
O O19 0.169376 0.738870 0.330951
O O20 0.324571 0.000000 0.748987
#
# Coordination Sequence:
#
# PCOD8082482 Si02
#       8
#     8   8   8   8   8   8   8   8
#     4  10  19  33  54  77 101 132 173 214 250 298
#     4  11  22  35  51  76 110 138 163 203 259 315
#     4   9  19  33  49  73 106 138 168 208 257 301
#     4  10  19  32  51  79 110 137 166 204 253 310
#     4  10  18  31  52  78 104 134 171 210 252 300
#     4  10  20  35  56  78  99 130 175 217 253 297
#     4   9  17  30  52  79 104 132 172 214 251 296
#     4   9  17  33  54  75 101 134 172 218 258 288
#
# _framework density 18.964749000000001
#
# number of rings (size 3 to 8) (size 9 to 14) (size 15 to 20)
#    0.000    2.250    2.500    1.125    0.000    3.000 
#    0.000    2.500    0.000    2.250    0.000    0.875 
#    0.000    0.000    0.000    0.000    0.000    0.000 
#
# Total GULP energy -396829.238869 kJ/mol
# GULP energy per Si atom -12400.913715 kJ/mol
# Density = 1.892158 g / cm^3
# Si number density = 18.964749 Si / 1000 Ang^3
#
#
#
# Elastic Constant Matrix: (Units=GPa)
#
#
# Indices 1 2 3 4 5 6 
#
# 1 134.8987 23.5641 58.3487 -0.0001 -9.6539 0.0003
# 2 23.5641 29.0910 32.0976 0.0018 0.5378 0.0007
# 3 58.3487 32.0976 124.5579 0.0000 -6.6887 -0.0015
# 4 -0.0001 0.0018 0.0000 20.6850 -0.0008 2.4644
# 5 -9.6539 0.5378 -6.6887 -0.0008 19.7419 -0.0007
# 6 0.0003 0.0007 -0.0015 2.4644 -0.0007 18.1889
#
#
#
# Elastic Compliance Matrix: (Units=1/GPa)
#
#
# Indices 1 2 3 4 5 6 
#
# 1 0.009884 -0.004466 -0.003273 0.000001 0.003846 0.000000
# 2 -0.004466 0.050666 -0.011362 -0.000004 -0.007414 -0.000002
# 3 -0.003273 -0.011362 0.012650 0.000001 0.002995 0.000002
# 4 0.000001 -0.000004 0.000001 0.049137 0.000002 -0.006658
# 5 0.003846 -0.007414 0.002995 0.000002 0.053751 0.000002
# 6 0.000000 -0.000002 0.000002 -0.006658 0.000002 0.055881
#
#
# Mechanical properties :
#
#
# Convention : Reuss Voigt Hill
#
# Bulk Modulus (GPa) = 28.57295 57.39648 42.98472
# Shear Modulus (GPa) = 17.74068 23.35897 20.54983
#
# Velocity S-wave (km/s) = 3.06184 3.51337 3.29535
# Velocity P-wave (km/s) = 5.25346 6.84024 6.09868
#
# Compressibility (1/GPa) = 0.03499814
#
# Stress axis : x y z
#
# Youngs Moduli (GPa) = 101.17432 19.73696 79.05004
#
# Poissons Ratio (x) = 0.08815 0.25870
# Poissons Ratio (y) = 0.45189 0.89818
# Poissons Ratio (z) = 0.33110 0.22426
#
# Static dielectric constant tensor:
#      x y z
#    x 3.609480 0.000000 -0.007140 
#    y 0.000000 2.989960 0.000000 
#    z -0.007140 0.000000 3.677410 
# 
# 
# High freq. dielectric constant tensor:
#      x y z
#    x 1.736780 0.000000 -0.000890 
#    y 0.000000 1.686130 0.000000 
#    z -0.000890 0.000000 1.755080 
# 
# From -- ./inp_files/324193.got.cif
#   From: 2010.06.25/outbox.cif.g09.slc.cpg/sg12_163_cif.got.tgz:324193.got - 2010.06.28 00:19:55.
