data_PCOD8082171
_publ_section_title
;
Structure prediction by ZEFSAII (Michael W. Deem and Ramdas Pophale) SiO2 
 PCOD8082171
Probable space group: C 2/M
;
_chemical_formula_sum "Si O2"
_cell_formula_units_Z 64
_cell_length_a 25.080417
_cell_length_b 9.211938
_cell_length_c 17.533689
_cell_angle_alpha 90.000000
_cell_angle_beta 102.946734
_cell_angle_gamma 90.000000
_cell_volume 3947.989659
_symmetry_space_group_name_H-M "C 2/M"
_symmetry_group_IT_number 12
_symmetry_cell_setting 'monoclinic'
loop_
_space_group_symop_operation_xyz
x,y,z
-x,y,-z
-x,-y,-z
x,-y,z
1/2+x,1/2+y,z
1/2-x,1/2+y,-z
1/2-x,1/2-y,-z
1/2+x,1/2-y,z
loop_
_atom_site_type_symbol
_atom_site_label
_atom_site_fract_x
_atom_site_fract_y
_atom_site_fract_z
Si Si1 0.485046 0.830032 0.077437
Si Si2 0.097437 0.668576 0.180621
Si Si3 0.662803 0.168445 0.348246
Si Si4 0.282786 0.665947 0.333798
Si Si5 0.675466 0.672454 0.090353
Si Si6 0.293457 0.830713 0.188806
Si Si7 0.306267 0.331981 0.506087
Si Si8 0.635575 0.828105 0.931120
O O1 0.532998 0.794867 0.153250
O O2 0.427049 0.770186 0.088872
O O3 0.478023 0.000000 0.063738
O O4 0.500000 0.760006 0.000000
O O5 0.109275 0.500000 0.164108
O O6 0.115167 0.703541 0.272613
O O7 0.129147 0.768287 0.131498
O O8 0.720754 0.218337 0.331098
O O9 0.650113 0.258992 0.421829
O O10 0.664851 0.000000 0.371192
O O11 0.281092 0.500000 0.307082
O O12 0.308712 0.756434 0.273549
O O13 0.321311 0.685883 0.421303
O O14 0.670074 0.500000 0.081273
O O15 0.734177 0.720734 0.141162
O O16 0.669654 0.744677 0.006117
O O17 0.339145 0.785869 0.142168
O O18 0.293707 0.000000 0.204227
O O19 0.299255 0.500000 0.525079
O O20 0.250000 0.250000 0.500000
O O21 0.640424 0.000000 0.947980
#
# Coordination Sequence:
#
# PCOD8082171 Si02
#       8
#     8   8   8   8   8   8   8   8
#     4   9  16  29  52  71  83 114 160 197 232 270
#     4  10  18  31  50  70  91 121 157 191 229 276
#     4   9  17  28  44  68  94 120 150 185 229 273
#     4   9  17  29  45  66  92 123 152 181 222 274
#     4  11  21  31  44  68  95 122 155 188 232 276
#     4  10  21  32  45  67  94 123 155 191 229 272
#     4   9  17  28  43  65  93 124 154 183 221 270
#     4  10  20  35  50  65  88 121 161 197 230 272
#
# _framework density 16.210781000000001
#
# number of rings (size 3 to 8) (size 9 to 14) (size 15 to 20)
#    0.000    2.375    2.500    1.875    0.000    4.000 
#    0.000    1.250    0.000    0.000    0.000    0.875 
#    0.000    7.000    0.000    0.000    0.000    0.000 
#
# Total GULP energy -396696.701028 kJ/mol
# GULP energy per Si atom -12396.771907 kJ/mol
# Density = 1.617388 g / cm^3
# Si number density = 16.210781 Si / 1000 Ang^3
#
#
#
# Elastic Constant Matrix: (Units=GPa)
#
#
# Indices 1 2 3 4 5 6 
#
# 1 61.1097 19.8723 46.2160 0.0000 -5.9235 0.0000
# 2 19.8723 53.3417 51.6494 0.0000 -2.4414 0.0000
# 3 46.2160 51.6494 139.0779 0.0000 5.3608 0.0000
# 4 0.0000 0.0000 0.0000 33.1194 0.0000 0.0083
# 5 -5.9235 -2.4414 5.3608 0.0000 20.2423 0.0000
# 6 0.0000 0.0000 0.0000 0.0083 0.0000 13.4084
#
#
#
# Elastic Compliance Matrix: (Units=1/GPa)
#
#
# Indices 1 2 3 4 5 6 
#
# 1 0.023387 -0.000708 -0.007849 0.000000 0.008837 0.000000
# 2 -0.000708 0.030160 -0.011212 0.000000 0.006400 0.000000
# 3 -0.007849 -0.011212 0.014248 0.000000 -0.007423 0.000000
# 4 0.000000 0.000000 0.000000 0.030194 0.000000 -0.000019
# 5 0.008837 0.006400 -0.007423 0.000000 0.054725 0.000000
# 6 0.000000 0.000000 0.000000 -0.000019 0.000000 0.074580
#
#
# Mechanical properties :
#
#
# Convention : Reuss Voigt Hill
#
# Bulk Modulus (GPa) = 35.38946 54.33383 44.86164
# Shear Modulus (GPa) = 18.09941 22.40678 20.25309
#
# Velocity S-wave (km/s) = 3.34504 3.72185 3.53846
# Velocity P-wave (km/s) = 6.06607 7.21522 6.66546
#
# Compressibility (1/GPa) = 0.02825700
#
# Stress axis : x y z
#
# Youngs Moduli (GPa) = 42.75858 33.15659 70.18329
#
# Poissons Ratio (x) = 0.02348 0.55089
# Poissons Ratio (y) = 0.03028 0.78689
# Poissons Ratio (z) = 0.33562 0.37175
#
# Static dielectric constant tensor:
#      x y z
#    x 2.949030 0.000000 0.158280 
#    y 0.000000 3.011670 0.000000 
#    z 0.158280 0.000000 3.381400 
# 
# 
# High freq. dielectric constant tensor:
#      x y z
#    x 1.586070 0.000000 0.011020 
#    y 0.000000 1.614550 0.000000 
#    z 0.011020 0.000000 1.630240 
# 
# From -- ./inp_files/287645.got.cif
#   From: 2010.06.25/outbox.cif.g09.slc.cpg/sg12_144_cif.got.tgz:287645.got - 2010.06.28 00:19:55.
