data_PCOD8082105
_publ_section_title
;
Structure prediction by ZEFSAII (Michael W. Deem and Ramdas Pophale) SiO2 
 PCOD8082105
Probable space group: C 2/M
;
_chemical_formula_sum "Si O2"
_cell_formula_units_Z 64
_cell_length_a 29.648595
_cell_length_b 9.253723
_cell_length_c 14.323996
_cell_angle_alpha 90.000000
_cell_angle_beta 106.807970
_cell_angle_gamma 90.000000
_cell_volume 3762.040479
_symmetry_space_group_name_H-M "C 2/M"
_symmetry_group_IT_number 12
_symmetry_cell_setting 'monoclinic'
loop_
_space_group_symop_operation_xyz
x,y,z
-x,y,-z
-x,-y,-z
x,-y,z
1/2+x,1/2+y,z
1/2-x,1/2+y,-z
1/2-x,1/2-y,-z
1/2+x,1/2-y,z
loop_
_atom_site_type_symbol
_atom_site_label
_atom_site_fract_x
_atom_site_fract_y
_atom_site_fract_z
Si Si1 0.297253 0.664110 0.512083
Si Si2 0.677542 0.833211 0.185966
Si Si3 0.560903 0.827884 0.624500
Si Si4 0.542385 0.170677 0.407444
Si Si5 0.298325 0.829112 0.001580
Si Si6 0.375187 0.171795 0.671228
Si Si7 0.849000 0.331851 0.214748
Si Si8 0.780611 0.840429 0.294136
O O1 0.293106 0.500000 0.548194
O O2 0.250000 0.750000 0.500000
O O3 0.340087 0.747398 0.582420
O O4 0.307130 0.662744 0.407906
O O5 0.634643 0.776405 0.227127
O O6 0.725298 0.802564 0.272865
O O7 0.668180 0.000000 0.163142
O O8 0.682014 0.764342 0.085164
O O9 0.510903 0.769475 0.635140
O O10 0.565637 0.774972 0.519323
O O11 0.602832 0.762230 0.714448
O O12 0.562287 0.000000 0.630520
O O13 0.572788 0.216349 0.334398
O O14 0.539817 0.000000 0.412908
O O15 0.340595 0.798160 0.100401
O O16 0.287109 0.000000 0.988954
O O17 0.250000 0.750000 0.000000
O O18 0.366525 0.000000 0.657090
O O19 0.850492 0.500000 0.235557
O O20 0.803226 0.273559 0.238995
O O21 0.784848 0.000000 0.251174
#
# Coordination Sequence:
#
# PCOD8082105 Si02
#       8
#     8   8   8   8   8   8   8   8
#     4  11  21  31  43  63  92 124 153 184 222 266
#     4   9  17  30  44  60  89 122 150 182 225 273
#     4   8  14  26  42  69  97 113 141 191 237 265
#     4   8  14  25  46  68  91 120 147 181 228 281
#     4  10  19  31  46  64  88 121 153 191 233 269
#     4  10  18  31  49  67  87 122 162 186 220 274
#     4  10  19  29  47  71  91 114 153 199 232 262
#     4  10  19  31  44  61  91 126 150 178 225 276
#
# _framework density 17.012046000000002
#
# number of rings (size 3 to 8) (size 9 to 14) (size 15 to 20)
#    0.000    2.500    2.500    1.875    0.000    2.000 
#    0.000    0.625    0.000    1.500    0.000    8.750 
#    0.000    0.000    0.000    3.375    0.000    4.000 
#
# Total GULP energy -396433.639778 kJ/mol
# GULP energy per Si atom -12388.551243 kJ/mol
# Density = 1.697333 g / cm^3
# Si number density = 17.012046 Si / 1000 Ang^3
#
#
#
# Elastic Constant Matrix: (Units=GPa)
#
#
# Indices 1 2 3 4 5 6 
#
# 1 110.4197 19.3117 62.7728 0.0000 -20.1523 0.0000
# 2 19.3117 22.6820 15.7776 0.0000 -1.5501 0.0000
# 3 62.7728 15.7776 110.9450 0.0000 -14.8040 0.0000
# 4 0.0000 0.0000 0.0000 15.9007 0.0000 -0.4436
# 5 -20.1523 -1.5501 -14.8040 0.0000 30.2915 0.0000
# 6 0.0000 0.0000 0.0000 -0.4436 0.0000 14.2635
#
#
#
# Elastic Compliance Matrix: (Units=1/GPa)
#
#
# Indices 1 2 3 4 5 6 
#
# 1 0.015507 -0.008058 -0.006746 0.000000 0.006607 0.000000
# 2 -0.008058 0.053142 -0.003584 0.000000 -0.004393 0.000000
# 3 -0.006746 -0.003584 0.013604 0.000000 0.001977 0.000000
# 4 0.000000 0.000000 0.000000 0.062945 0.000000 0.001957
# 5 0.006607 -0.004393 0.001977 0.000000 0.038149 0.000000
# 6 0.000000 0.000000 0.000000 0.001957 0.000000 0.070170
#
#
# Mechanical properties :
#
#
# Convention : Reuss Voigt Hill
#
# Bulk Modulus (GPa) = 21.99010 48.86343 35.42677
# Shear Modulus (GPa) = 16.36921 21.83680 19.10300
#
# Velocity S-wave (km/s) = 3.10532 3.58663 3.35462
# Velocity P-wave (km/s) = 5.08051 6.77769 5.98952
#
# Compressibility (1/GPa) = 0.04547500
#
# Stress axis : x y z
#
# Youngs Moduli (GPa) = 64.48862 18.81768 73.50819
#
# Poissons Ratio (x) = 0.15164 0.49589
# Poissons Ratio (y) = 0.51967 0.26346
# Poissons Ratio (z) = 0.43505 0.06744
#
# Static dielectric constant tensor:
#      x y z
#    x 2.047490 0.000000 -0.615220 
#    y 0.000000 2.906330 0.000000 
#    z -0.615220 0.000000 3.305350 
# 
# 
# High freq. dielectric constant tensor:
#      x y z
#    x 1.645520 0.000000 -0.009920 
#    y 0.000000 1.617240 0.000000 
#    z -0.009920 0.000000 1.653750 
# 
# From -- ./inp_files/248497.got.cif
#   From: 2010.06.25/outbox.cif.g09.slc.cpg/sg12_125_cif.got.tgz:248497.got - 2010.06.28 00:19:55.
