data_PCOD8082958
_publ_section_title
;
Structure prediction by ZEFSAII (Michael W. Deem and Ramdas Pophale) SiO2 
 PCOD8082958
Probable space group: C 2/M
;
_chemical_formula_sum "Si O2"
_cell_formula_units_Z 56
_cell_length_a 19.433138
_cell_length_b 15.002119
_cell_length_c 21.977616
_cell_angle_alpha 90.000000
_cell_angle_beta 26.779744
_cell_angle_gamma 90.000000
_cell_volume 2886.892668
_symmetry_space_group_name_H-M "C 2/M"
_symmetry_group_IT_number 12
_symmetry_cell_setting 'monoclinic'
loop_
_space_group_symop_operation_xyz
x,y,z
-x,y,-z
-x,-y,-z
x,-y,z
1/2+x,1/2+y,z
1/2-x,1/2+y,-z
1/2-x,1/2-y,-z
1/2+x,1/2-y,z
loop_
_atom_site_type_symbol
_atom_site_label
_atom_site_fract_x
_atom_site_fract_y
_atom_site_fract_z
Si Si1 0.827557 0.597807 0.743900
Si Si2 0.124205 0.100159 0.019258
Si Si3 0.665913 0.234488 0.370448
Si Si4 0.253932 0.898610 0.046313
Si Si5 0.947935 0.804859 0.318617
Si Si6 0.532349 0.773452 0.824979
Si Si7 0.135769 0.338515 0.523190
O O1 0.787759 0.500000 0.748435
O O2 0.712968 0.622639 0.888048
O O3 0.812163 0.674715 0.706552
O O4 0.998397 0.591106 0.637981
O O5 0.054327 0.000000 0.073210
O O6 0.239097 0.109807 0.985461
O O7 0.991979 0.172714 0.130784
O O8 0.500000 0.284062 0.500000
O O9 0.807571 0.303426 0.268994
O O10 0.669293 0.169427 0.425419
O O11 0.100245 0.864283 0.200683
O O12 0.283250 0.000000 0.043703
O O13 0.398601 0.839365 0.952107
O O14 0.955405 0.731438 0.258013
O O15 0.927205 0.754495 0.398645
O O16 0.795901 0.866642 0.428788
#
# Coordination Sequence:
#
# PCOD8082958 Si02
#       7
#     8   8   8   8   8   8   8
#     4  10  19  31  47  72 108 141 171 204 240 299
#     4   9  18  31  50  79 110 138 166 199 247 307
#     4   9  20  33  46  68  94 131 175 207 243 294
#     4  10  19  31  51  79 106 131 166 212 261 308
#     4   9  17  31  51  74 101 130 167 211 256 306
#     4  10  18  32  52  71 100 135 167 210 258 303
#     4   9  17  30  49  70  96 136 172 201 246 297
#
# _framework density 19.398019000000001
#
# number of rings (size 3 to 8) (size 9 to 14) (size 15 to 20)
#    0.000    2.571    0.000    3.429    0.000    4.286 
#    0.000    7.143    0.000    5.571    0.000   17.000 
#    0.000    0.000    0.000    0.000    0.000    0.000 
#
# Total GULP energy -346899.321107 kJ/mol
# GULP energy per Si atom -12389.261468 kJ/mol
# Density = 1.935387 g / cm^3
# Si number density = 19.398019 Si / 1000 Ang^3
#
#
#
# Elastic Constant Matrix: (Units=GPa)
#
#
# Indices 1 2 3 4 5 6 
#
# 1 57.1319 26.6120 41.5875 -0.0021 -7.0803 0.0000
# 2 26.6120 64.9430 40.0429 -0.0040 -8.3300 -0.0001
# 3 41.5875 40.0429 102.9466 -0.0036 -13.1032 -0.0031
# 4 -0.0021 -0.0040 -0.0036 15.0997 -0.0013 2.2056
# 5 -7.0803 -8.3300 -13.1032 -0.0013 45.5165 0.0018
# 6 0.0000 -0.0001 -0.0031 2.2056 0.0018 13.5562
#
#
#
# Elastic Compliance Matrix: (Units=1/GPa)
#
#
# Indices 1 2 3 4 5 6 
#
# 1 0.026248 -0.005505 -0.008378 0.000001 0.000664 -0.000002
# 2 -0.005505 0.021509 -0.005969 0.000004 0.001362 -0.000002
# 3 -0.008378 -0.005969 0.015690 0.000001 0.002121 0.000003
# 4 0.000001 0.000004 0.000001 0.067839 0.000003 -0.011037
# 5 0.000664 0.001362 0.002121 0.000003 0.022933 -0.000003
# 6 -0.000002 -0.000002 0.000003 -0.011037 -0.000003 0.075563
#
#
# Mechanical properties :
#
#
# Convention : Reuss Voigt Hill
#
# Bulk Modulus (GPa) = 42.11716 49.05624 45.58670
# Shear Modulus (GPa) = 18.02447 22.61973 20.32210
#
# Velocity S-wave (km/s) = 3.05157 3.41850 3.24024
# Velocity P-wave (km/s) = 5.84597 6.39732 6.12785
#
# Compressibility (1/GPa) = 0.02374329
#
# Stress axis : x y z
#
# Youngs Moduli (GPa) = 38.09782 46.49195 63.73518
#
# Poissons Ratio (x) = 0.25594 0.53396
# Poissons Ratio (y) = 0.20973 0.38044
# Poissons Ratio (z) = 0.31917 0.27752
#
# Static dielectric constant tensor:
#      x y z
#    x 3.555490 0.000000 -0.213200 
#    y 0.000000 3.179320 0.000010 
#    z -0.213200 0.000010 3.892210 
# 
# 
# High freq. dielectric constant tensor:
#      x y z
#    x 1.740260 0.000000 -0.004990 
#    y 0.000000 1.700240 0.000000 
#    z -0.004990 0.000000 1.781490 
# 
# From -- ./inp_files/316698.got.cif
#   From: 2010.06.25/outbox.cif.g09.slc.cpg/sg12_159_cif.got.tgz:316698.got - 2010.06.28 00:19:55.
