data_PCOD8082319
_publ_section_title
;
Structure prediction by ZEFSAII (Michael W. Deem and Ramdas Pophale) SiO2 
 PCOD8082319
Probable space group: C 2/M
;
_chemical_formula_sum "Si O2"
_cell_formula_units_Z 56
_cell_length_a 30.746389
_cell_length_b 8.372249
_cell_length_c 16.971510
_cell_angle_alpha 90.000000
_cell_angle_beta 134.586050
_cell_angle_gamma 90.000000
_cell_volume 3111.407299
_symmetry_space_group_name_H-M "C 2/M"
_symmetry_group_IT_number 12
_symmetry_cell_setting 'monoclinic'
loop_
_space_group_symop_operation_xyz
x,y,z
-x,y,-z
-x,-y,-z
x,-y,z
1/2+x,1/2+y,z
1/2-x,1/2+y,-z
1/2-x,1/2-y,-z
1/2+x,1/2-y,z
loop_
_atom_site_type_symbol
_atom_site_label
_atom_site_fract_x
_atom_site_fract_y
_atom_site_fract_z
Si Si1 0.695325 0.813153 0.606476
Si Si2 0.972926 0.688688 0.348631
Si Si3 0.496260 0.813238 0.206367
Si Si4 0.406590 0.809667 0.412592
Si Si5 0.555436 0.688877 0.014091
Si Si6 0.171914 0.190194 0.257032
Si Si7 0.629664 0.314203 0.372481
O O1 0.656765 0.741053 0.631470
O O2 0.763230 0.737347 0.689689
O O3 0.658396 0.785466 0.479527
O O4 0.703399 0.000000 0.628101
O O5 0.974153 0.500000 0.357391
O O6 0.918343 0.750374 0.337367
O O7 0.963205 0.741739 0.245877
O O8 0.037967 0.754247 0.462391
O O9 0.557573 0.712762 0.273348
O O10 0.512529 0.000000 0.229915
O O11 0.450311 0.774796 0.077254
O O12 0.404253 0.000000 0.413675
O O13 0.555470 0.500000 0.001272
O O14 0.618306 0.752747 0.131889
O O15 0.500000 0.740970 0.000000
O O16 0.160623 0.249120 0.331620
O O17 0.171101 0.000000 0.255361
O O18 0.642704 0.500000 0.403079
#
# Coordination Sequence:
#
# PCOD8082319 Si02
#       7
#     8   8   8   8   8   8   8
#     4  10  18  31  51  74  95 122 162 201 228 273
#     4   8  14  25  43  70  97 119 148 191 242 279
#     4  11  20  31  50  75  97 121 161 207 235 269
#     4   8  13  24  45  70  95 120 148 190 238 280
#     4  10  19  35  52  66  93 132 162 193 238 284
#     4   9  19  33  49  68  94 129 165 192 228 285
#     4  11  20  32  47  69 102 135 155 183 241 295
#
# _framework density 17.998287000000001
#
# number of rings (size 3 to 8) (size 9 to 14) (size 15 to 20)
#    0.000    2.429    2.857    2.143    0.000    0.286 
#    0.000    1.429    0.000    3.429    0.000    0.000 
#    0.000    0.000    0.000    0.000    0.000    0.143 
#
# Total GULP energy -347031.293583 kJ/mol
# GULP energy per Si atom -12393.974771 kJ/mol
# Density = 1.795732 g / cm^3
# Si number density = 17.998287 Si / 1000 Ang^3
#
#
#
# Elastic Constant Matrix: (Units=GPa)
#
#
# Indices 1 2 3 4 5 6 
#
# 1 187.2689 10.4553 76.0469 0.0000 -12.0077 0.0000
# 2 10.4553 11.9683 1.4636 0.0000 -4.0294 0.0000
# 3 76.0469 1.4636 88.5795 0.0000 -7.7079 0.0000
# 4 0.0000 0.0000 0.0000 18.9160 0.0000 -2.5798
# 5 -12.0077 -4.0294 -7.7079 0.0000 33.5507 0.0000
# 6 0.0000 0.0000 0.0000 -2.5798 0.0000 12.2356
#
#
#
# Elastic Compliance Matrix: (Units=1/GPa)
#
#
# Indices 1 2 3 4 5 6 
#
# 1 0.008717 -0.006499 -0.007319 0.000000 0.000658 0.000000
# 2 -0.006499 0.091945 0.004917 0.000000 0.009846 0.000000
# 3 -0.007319 0.004917 0.017668 0.000000 0.002030 0.000000
# 4 0.000000 0.000000 0.000000 0.054430 0.000000 0.011477
# 5 0.000658 0.009846 0.002030 0.000000 0.031690 0.000000
# 6 0.000000 0.000000 0.000000 0.011477 0.000000 0.084149
#
#
# Mechanical properties :
#
#
# Convention : Reuss Voigt Hill
#
# Bulk Modulus (GPa) = 9.94745 51.52756 30.73751
# Shear Modulus (GPa) = 14.70974 26.26385 20.48680
#
# Velocity S-wave (km/s) = 2.86192 3.82415 3.37748
# Velocity P-wave (km/s) = 4.05705 6.94191 5.68550
#
# Compressibility (1/GPa) = 0.10052824
#
# Stress axis : x y z
#
# Youngs Moduli (GPa) = 114.71701 10.87609 56.59847
#
# Poissons Ratio (x) = 0.07068 0.41425
# Poissons Ratio (y) = 0.74550 -0.27828
# Poissons Ratio (z) = 0.83963 -0.05348
#
# Static dielectric constant tensor:
#      x y z
#    x 3.907870 0.000000 -0.105130 
#    y 0.000000 2.880270 0.000000 
#    z -0.105130 0.000000 3.310060 
# 
# 
# High freq. dielectric constant tensor:
#      x y z
#    x 1.705280 0.000000 -0.012670 
#    y 0.000000 1.657960 0.000000 
#    z -0.012670 0.000000 1.676790 
# 
# From -- ./inp_files/249289.got.cif
#   From: 2010.06.25/outbox.cif.g09.slc.cpg/sg12_125_cif.got.tgz:249289.got - 2010.06.28 00:19:55.
