data_PCOD8082610
_publ_section_title
;
Structure prediction by ZEFSAII (Michael W. Deem and Ramdas Pophale) SiO2 
 PCOD8082610
Probable space group: C 2/M
;
_chemical_formula_sum "Si O2"
_cell_formula_units_Z 56
_cell_length_a 20.205179
_cell_length_b 9.004055
_cell_length_c 29.754679
_cell_angle_alpha 90.000000
_cell_angle_beta 149.730957
_cell_angle_gamma 90.000000
_cell_volume 2728.596112
_symmetry_space_group_name_H-M "C 2/M"
_symmetry_group_IT_number 12
_symmetry_cell_setting 'monoclinic'
loop_
_space_group_symop_operation_xyz
x,y,z
-x,y,-z
-x,-y,-z
x,-y,z
1/2+x,1/2+y,z
1/2-x,1/2+y,-z
1/2-x,1/2-y,-z
1/2+x,1/2-y,z
loop_
_atom_site_type_symbol
_atom_site_label
_atom_site_fract_x
_atom_site_fract_y
_atom_site_fract_z
Si Si1 0.647071 0.174448 0.097797
Si Si2 0.909524 0.169437 0.624944
Si Si3 0.569529 0.825899 0.224213
Si Si4 0.120187 0.166728 0.826406
Si Si5 0.504800 0.172432 0.592045
Si Si6 0.698795 0.328261 0.220849
Si Si7 0.278607 0.324865 0.421517
O O1 0.736461 0.217432 0.107083
O O2 0.697894 0.261361 0.170789
O O3 0.658678 0.000000 0.114997
O O4 0.500000 0.223166 0.000000
O O5 0.966754 0.238618 0.613894
O O6 0.786832 0.266505 0.570517
O O7 0.024886 0.176320 0.728426
O O8 0.863990 0.000000 0.589911
O O9 0.430965 0.772777 0.163750
O O10 0.590664 0.751069 0.188406
O O11 0.689169 0.778132 0.326947
O O12 0.562653 0.000000 0.213215
O O13 0.125477 0.000000 0.848912
O O14 0.658707 0.196034 0.672993
O O15 0.420404 0.243246 0.501332
O O16 0.470454 0.000000 0.577601
O O17 0.662451 0.500000 0.196163
O O18 0.298094 0.500000 0.435435
#
# Coordination Sequence:
#
# PCOD8082610 Si02
#       7
#     8   8   8   8   8   8   8
#     4  10  21  40  67  96 122 148 185 235 291 352
#     4  10  18  31  53  79 111 151 193 240 288 339
#     4  10  22  39  60  84 116 157 200 242 286 342
#     4   9  18  35  60  88 117 152 190 233 288 345
#     4  11  22  34  51  78 113 153 196 242 288 338
#     4  11  24  40  60  86 119 156 194 241 292 347
#     4  10  21  35  52  78 112 153 197 244 289 336
#
# _framework density 20.523375000000001
#
# number of rings (size 3 to 8) (size 9 to 14) (size 15 to 20)
#    0.000    1.857    1.429    2.571    0.000    5.429 
#    0.000    3.571    0.000    0.000    0.000    0.000 
#    0.000    0.000    0.000    0.000    0.000    0.000 
#
# Total GULP energy -347253.779315 kJ/mol
# GULP energy per Si atom -12401.920690 kJ/mol
# Density = 2.047666 g / cm^3
# Si number density = 20.523375 Si / 1000 Ang^3
#
#
#
# Elastic Constant Matrix: (Units=GPa)
#
#
# Indices 1 2 3 4 5 6 
#
# 1 73.4730 26.5834 32.1809 0.0000 17.9813 0.0000
# 2 26.5834 84.3975 39.0031 0.0000 11.8783 0.0000
# 3 32.1809 39.0031 54.4458 -0.0002 23.1540 -0.0001
# 4 0.0000 0.0000 -0.0002 20.6776 0.0000 3.1850
# 5 17.9813 11.8783 23.1540 0.0000 24.6171 0.0000
# 6 0.0000 0.0000 -0.0001 3.1850 0.0000 27.1614
#
#
#
# Elastic Compliance Matrix: (Units=1/GPa)
#
#
# Indices 1 2 3 4 5 6 
#
# 1 0.018952 -0.001690 -0.007418 0.000000 -0.006051 0.000000
# 2 -0.001690 0.018347 -0.014841 0.000000 0.006340 0.000000
# 3 -0.007418 -0.014841 0.046721 0.000000 -0.031365 0.000000
# 4 0.000000 0.000000 0.000000 0.049251 0.000000 -0.005775
# 5 -0.006051 0.006340 -0.031365 0.000000 0.071484 0.000000
# 6 0.000000 0.000000 0.000000 -0.005775 0.000000 0.037494
#
#
# Mechanical properties :
#
#
# Convention : Reuss Voigt Hill
#
# Bulk Modulus (GPa) = 27.68304 45.31679 36.49991
# Shear Modulus (GPa) = 16.54606 22.12782 19.33694
#
# Velocity S-wave (km/s) = 2.84246 3.28712 3.07284
# Velocity P-wave (km/s) = 4.92855 6.04445 5.51480
#
# Compressibility (1/GPa) = 0.03612320
#
# Stress axis : x y z
#
# Youngs Moduli (GPa) = 52.76586 54.50482 21.40346
#
# Poissons Ratio (x) = 0.09209 0.15877
# Poissons Ratio (y) = 0.08915 0.31764
# Poissons Ratio (z) = 0.39142 0.80889
#
# Static dielectric constant tensor:
#      x y z
#    x 3.662900 0.000000 0.231750 
#    y 0.000000 3.745820 0.000000 
#    z 0.231750 0.000000 3.791630 
# 
# 
# High freq. dielectric constant tensor:
#      x y z
#    x 1.799730 0.000000 0.011680 
#    y 0.000000 1.807060 0.000000 
#    z 0.011680 0.000000 1.786930 
# 
# From -- ./inp_files/380616.got.cif
#   From: 2010.06.25/outbox.cif.g09.slc.cpg/sg12_191_cif.got.tgz:380616.got - 2010.06.28 00:19:55.
