data_PCOD8082520
_publ_section_title
;
Structure prediction by ZEFSAII (Michael W. Deem and Ramdas Pophale) SiO2 
 PCOD8082520
Probable space group: C 2/M
;
_chemical_formula_sum "Si O2"
_cell_formula_units_Z 64
_cell_length_a 30.075266
_cell_length_b 14.417804
_cell_length_c 13.424438
_cell_angle_alpha 90.000000
_cell_angle_beta 143.125796
_cell_angle_gamma 90.000000
_cell_volume 3493.007169
_symmetry_space_group_name_H-M "C 2/M"
_symmetry_group_IT_number 12
_symmetry_cell_setting 'monoclinic'
loop_
_space_group_symop_operation_xyz
x,y,z
-x,y,-z
-x,-y,-z
x,-y,z
1/2+x,1/2+y,z
1/2-x,1/2+y,-z
1/2-x,1/2-y,-z
1/2+x,1/2-y,z
loop_
_atom_site_type_symbol
_atom_site_label
_atom_site_fract_x
_atom_site_fract_y
_atom_site_fract_z
Si Si1 0.328965 0.390493 0.240322
Si Si2 0.660567 0.107371 0.959355
Si Si3 0.146876 0.156392 0.498553
Si Si4 0.436202 0.733238 0.308333
Si Si5 0.835775 0.746268 0.654992
Si Si6 0.688043 0.896288 0.233709
Si Si7 0.011539 0.100725 0.763388
Si Si8 0.073483 0.894616 0.082551
O O1 0.350000 0.500000 0.292965
O O2 0.346514 0.330068 0.370919
O O3 0.377534 0.343267 0.241617
O O4 0.242432 0.382115 0.058052
O O5 0.604451 0.172882 0.798652
O O6 0.634740 0.000000 0.903676
O O7 0.663693 0.139250 0.080483
O O8 0.136722 0.250608 0.411993
O O9 0.222289 0.107075 0.595841
O O10 0.072527 0.097848 0.344322
O O11 0.500000 0.761672 0.500000
O O12 0.479100 0.685130 0.294860
O O13 0.750000 0.750000 0.500000
O O14 0.857573 0.657498 0.761231
O O15 0.857593 0.838442 0.753371
O O16 0.661143 0.000000 0.199209
O O17 0.026242 0.000000 0.739130
O O18 0.069480 0.114391 0.956388
O O19 0.083819 0.000000 0.135519
O O20 0.000000 0.851049 0.000000
#
# Coordination Sequence:
#
# PCOD8082520 Si02
#       8
#     8   8   8   8   8   8   8   8
#     4  10  20  36  57  81 111 145 182 222 270 328
#     4   9  20  39  59  76 103 148 192 226 262 318
#     4  10  18  31  52  80 110 143 176 215 266 328
#     4  12  23  33  54  86 114 139 179 232 282 317
#     4  10  20  32  52  81 108 136 177 226 264 308
#     4   9  18  34  57  79 103 140 187 229 265 314
#     4  11  21  33  51  80 117 145 171 215 277 339
#     4  10  20  33  52  78 107 142 174 211 268 331
#
# _framework density 18.322322
#
# number of rings (size 3 to 8) (size 9 to 14) (size 15 to 20)
#    0.000    1.875    2.500    3.375    0.000    3.250 
#    0.000    0.000    0.000    1.875    0.000    0.000 
#    0.000    0.000    0.000    0.000    0.000    0.000 
#
# Total GULP energy -396439.994357 kJ/mol
# GULP energy per Si atom -12388.749824 kJ/mol
# Density = 1.828062 g / cm^3
# Si number density = 18.322322 Si / 1000 Ang^3
#
#
#
# Elastic Constant Matrix: (Units=GPa)
#
#
# Indices 1 2 3 4 5 6 
#
# 1 69.5909 51.5120 36.7453 0.0000 -9.2346 0.0000
# 2 51.5120 95.8163 59.9438 0.0000 -2.8253 0.0000
# 3 36.7453 59.9438 113.4854 0.0000 2.5022 0.0000
# 4 0.0000 0.0000 0.0000 19.8096 0.0000 -0.6297
# 5 -9.2346 -2.8253 2.5022 0.0000 21.3533 0.0000
# 6 0.0000 0.0000 0.0000 -0.6297 0.0000 30.5419
#
#
#
# Elastic Compliance Matrix: (Units=1/GPa)
#
#
# Indices 1 2 3 4 5 6 
#
# 1 0.025901 -0.012327 -0.002092 0.000000 0.009816 0.000000
# 2 -0.012327 0.021653 -0.007411 0.000000 -0.001598 0.000000
# 3 -0.002092 -0.007411 0.013480 0.000000 -0.003465 0.000000
# 4 0.000000 0.000000 0.000000 0.050514 0.000000 0.001041
# 5 0.009816 -0.001598 -0.003465 0.000000 0.051271 0.000000
# 6 0.000000 0.000000 0.000000 0.001041 0.000000 0.032763
#
#
# Mechanical properties :
#
#
# Convention : Reuss Voigt Hill
#
# Bulk Modulus (GPa) = 57.55323 63.92165 60.73744
# Shear Modulus (GPa) = 20.40557 23.05372 21.72965
#
# Velocity S-wave (km/s) = 3.34083 3.55100 3.44752
# Velocity P-wave (km/s) = 6.80891 7.19555 7.00490
#
# Compressibility (1/GPa) = 0.01737522
#
# Stress axis : x y z
#
# Youngs Moduli (GPa) = 38.60854 46.18386 74.18519
#
# Poissons Ratio (x) = 0.56929 0.15519
# Poissons Ratio (y) = 0.47591 0.54976
# Poissons Ratio (z) = 0.08077 0.34225
#
# Static dielectric constant tensor:
#      x y z
#    x 3.678180 0.000000 -0.179970 
#    y 0.000000 4.583250 0.000000 
#    z -0.179970 0.000000 3.468990 
# 
# 
# High freq. dielectric constant tensor:
#      x y z
#    x 1.699210 0.000000 -0.008180 
#    y 0.000000 1.687590 0.000000 
#    z -0.008180 0.000000 1.719090 
# 
# From -- ./inp_files/189493.got.cif
#   From: 2010.06.25/outbox.cif.g09.slc.cpg/sg12_95_cif.got.tgz:189493.got - 2010.06.28 00:19:55.
