data_PCOD8082749
_publ_section_title
;
Structure prediction by ZEFSAII (Michael W. Deem and Ramdas Pophale) SiO2 
 PCOD8082749
Probable space group: C 2/M
;
_chemical_formula_sum "Si O2"
_cell_formula_units_Z 48
_cell_length_a 16.967586
_cell_length_b 13.673086
_cell_length_c 25.957412
_cell_angle_alpha 90.000000
_cell_angle_beta 154.114170
_cell_angle_gamma 90.000000
_cell_volume 2629.124411
_symmetry_space_group_name_H-M "C 2/M"
_symmetry_group_IT_number 12
_symmetry_cell_setting 'monoclinic'
loop_
_space_group_symop_operation_xyz
x,y,z
-x,y,-z
-x,-y,-z
x,-y,z
1/2+x,1/2+y,z
1/2-x,1/2+y,-z
1/2-x,1/2-y,-z
1/2+x,1/2-y,z
loop_
_atom_site_type_symbol
_atom_site_label
_atom_site_fract_x
_atom_site_fract_y
_atom_site_fract_z
Si Si1 0.697963 0.808029 0.109233
Si Si2 0.288972 0.387179 0.051950
Si Si3 0.064258 0.283778 0.323381
Si Si4 0.177968 0.110500 0.455566
Si Si5 0.535109 0.790074 0.190353
Si Si6 0.703628 0.608550 0.729269
O O1 0.714163 0.863347 0.064611
O O2 0.726938 0.887177 0.171176
O O3 0.847033 0.722281 0.201507
O O4 0.500000 0.760262 0.000000
O O5 0.345438 0.500000 0.080646
O O6 0.464903 0.321486 0.142653
O O7 0.130465 0.363823 0.918122
O O8 0.156768 0.180255 0.393462
O O9 0.139605 0.367317 0.405449
O O10 0.111822 0.308494 0.292560
O O11 0.011328 0.127467 0.397076
O O12 0.183928 0.000000 0.438300
O O13 0.700762 0.809387 0.249214
O O14 0.748546 0.500000 0.734400
#
# Coordination Sequence:
#
# PCOD8082749 Si02
#       6
#     8   8   8   8   8   8
#     4  10  18  31  55  80 106 138 173 214 260 303
#     4  10  20  33  49  76 112 146 175 205 253 315
#     4   9  20  35  51  79 108 138 169 215 264 318
#     4   9  19  37  59  79  99 134 178 222 265 307
#     4  10  20  31  48  78 112 141 167 211 265 311
#     4  10  19  31  53  84 109 131 173 221 261 306
#
# _framework density 18.257027999999998
#
# number of rings (size 3 to 8) (size 9 to 14) (size 15 to 20)
#    0.000    2.333    1.667    1.000    0.000    6.667 
#    0.000    1.667    0.000    9.500    0.000   15.167 
#    0.000    0.000    0.000    0.000    0.000    0.000 
#
# Total GULP energy -297541.837661 kJ/mol
# GULP energy per Si atom -12397.576569 kJ/mol
# Density = 1.821547 g / cm^3
# Si number density = 18.257028 Si / 1000 Ang^3
#
#
#
# Elastic Constant Matrix: (Units=GPa)
#
#
# Indices 1 2 3 4 5 6 
#
# 1 92.5125 50.5095 33.4571 -0.0023 -12.4721 0.0001
# 2 50.5095 84.6245 31.8122 -0.0009 5.0802 0.0011
# 3 33.4571 31.8122 97.7714 -0.0115 -9.1144 0.0036
# 4 -0.0023 -0.0009 -0.0115 15.3345 0.0048 1.9493
# 5 -12.4721 5.0802 -9.1144 0.0048 28.7525 0.0007
# 6 0.0001 0.0011 0.0036 1.9493 0.0007 20.7162
#
#
#
# Elastic Compliance Matrix: (Units=1/GPa)
#
#
# Indices 1 2 3 4 5 6 
#
# 1 0.018855 -0.011090 -0.001957 -0.000002 0.009518 0.000001
# 2 -0.011090 0.020420 -0.003745 0.000000 -0.009605 0.000000
# 3 -0.001957 -0.003745 0.012467 0.000008 0.003765 -0.000003
# 4 -0.000002 0.000000 0.000008 0.066002 -0.000009 -0.006211
# 5 0.009518 -0.009605 0.003765 -0.000009 0.041799 -0.000001
# 6 0.000001 0.000000 -0.000003 -0.006211 -0.000001 0.048856
#
#
# Mechanical properties :
#
#
# Convention : Reuss Voigt Hill
#
# Bulk Modulus (GPa) = 55.06596 56.27400 55.66998
# Shear Modulus (GPa) = 20.15855 23.56929 21.86392
#
# Velocity S-wave (km/s) = 3.32648 3.59691 3.46433
# Velocity P-wave (km/s) = 6.70679 6.93833 6.82354
#
# Compressibility (1/GPa) = 0.01816004
#
# Stress axis : x y z
#
# Youngs Moduli (GPa) = 53.03702 48.97080 80.21254
#
# Poissons Ratio (x) = 0.54307 0.15694
# Poissons Ratio (y) = 0.58816 0.30038
# Poissons Ratio (z) = 0.10377 0.18339
#
# Static dielectric constant tensor:
#      x y z
#    x 3.280920 0.000000 -0.056680 
#    y 0.000000 3.211260 -0.000010 
#    z -0.056680 -0.000010 3.568620 
# 
# 
# High freq. dielectric constant tensor:
#      x y z
#    x 1.691280 0.000000 -0.010410 
#    y 0.000000 1.684040 0.000000 
#    z -0.010410 0.000000 1.718080 
# 
# From -- ./inp_files/143178.got.cif
#   From: 2010.06.25/outbox.cif.g09.slc.cpg/sg12_72_cif.got.tgz:143178.got - 2010.06.28 00:19:55.
