data_PCOD8082415
_publ_section_title
;
Structure prediction by ZEFSAII (Michael W. Deem and Ramdas Pophale) SiO2 
 PCOD8082415
Probable space group: C 2/M
;
_chemical_formula_sum "Si O2"
_cell_formula_units_Z 64
_cell_length_a 14.620425
_cell_length_b 9.165786
_cell_length_c 29.708430
_cell_angle_alpha 90.000000
_cell_angle_beta 118.967168
_cell_angle_gamma 90.000000
_cell_volume 3483.104657
_symmetry_space_group_name_H-M "C 2/M"
_symmetry_group_IT_number 12
_symmetry_cell_setting 'monoclinic'
loop_
_space_group_symop_operation_xyz
x,y,z
-x,y,-z
-x,-y,-z
x,-y,z
1/2+x,1/2+y,z
1/2-x,1/2+y,-z
1/2-x,1/2-y,-z
1/2+x,1/2-y,z
loop_
_atom_site_type_symbol
_atom_site_label
_atom_site_fract_x
_atom_site_fract_y
_atom_site_fract_z
Si Si1 0.278813 0.328758 0.374790
Si Si2 0.500818 0.169018 0.897895
Si Si3 0.952700 0.330102 0.706974
Si Si4 0.837763 0.327449 0.993183
Si Si5 0.078501 0.673079 0.822871
Si Si6 0.784536 0.331301 0.881306
Si Si7 0.710829 0.328842 0.446460
Si Si8 0.977444 0.830582 0.362703
O O1 0.288608 0.500000 0.388624
O O2 0.171018 0.294177 0.322664
O O3 0.275185 0.238750 0.420176
O O4 0.378827 0.276152 0.369241
O O5 0.553877 0.223913 0.957216
O O6 0.545314 0.242881 0.863113
O O7 0.377661 0.195645 0.868556
O O8 0.527391 0.000000 0.900537
O O9 0.972025 0.500000 0.703954
O O10 0.996609 0.276239 0.765393
O O11 0.019173 0.251123 0.684043
O O12 0.824273 0.500000 0.992042
O O13 0.750000 0.250000 0.000000
O O14 0.827964 0.274396 0.939627
O O15 0.084930 0.500000 0.825753
O O16 0.191703 0.736596 0.838936
O O17 0.751033 0.500000 0.875959
O O18 0.735656 0.500000 0.454529
O O19 0.750000 0.250000 0.500000
O O20 0.586498 0.299626 0.414109
O O21 0.963147 0.000000 0.348538
#
# Coordination Sequence:
#
# PCOD8082415 Si02
#       8
#     8   8   8   8   8   8   8   8
#     4   9  18  35  56  77 102 136 177 217 256 302
#     4   9  18  33  52  72  99 132 164 202 250 305
#     4   9  19  34  53  75 100 131 169 211 256 308
#     4  10  18  31  52  74  97 128 164 203 249 301
#     4  10  20  35  52  73 102 133 163 203 258 308
#     4  10  20  33  52  76  98 127 169 208 246 301
#     4  10  20  34  52  79 113 145 176 213 257 301
#     4   9  19  35  56  79 103 135 176 218 257 297
#
# _framework density 18.374412
#
# number of rings (size 3 to 8) (size 9 to 14) (size 15 to 20)
#    0.000    2.500    1.250    0.750    0.000    4.500 
#    0.000    6.250    0.000    1.500    0.000    0.000 
#    0.000    0.000    0.000    0.000    0.000    0.000 
#
# Total GULP energy -396662.664678 kJ/mol
# GULP energy per Si atom -12395.708271 kJ/mol
# Density = 1.833259 g / cm^3
# Si number density = 18.374412 Si / 1000 Ang^3
#
#
#
# Elastic Constant Matrix: (Units=GPa)
#
#
# Indices 1 2 3 4 5 6 
#
# 1 114.7879 27.0971 44.9472 0.0000 1.6985 0.0000
# 2 27.0971 34.6046 38.8302 0.0000 -1.5183 0.0000
# 3 44.9472 38.8302 109.1916 0.0000 8.8109 0.0000
# 4 0.0000 0.0000 0.0000 26.0985 0.0000 -0.1526
# 5 1.6985 -1.5183 8.8109 0.0000 15.9788 0.0000
# 6 0.0000 0.0000 0.0000 -0.1526 0.0000 29.5416
#
#
#
# Elastic Compliance Matrix: (Units=1/GPa)
#
#
# Indices 1 2 3 4 5 6 
#
# 1 0.011071 -0.006013 -0.002384 0.000000 -0.000434 0.000000
# 2 -0.006013 0.054869 -0.018325 0.000000 0.015957 0.000000
# 3 -0.002384 -0.018325 0.017557 0.000000 -0.011169 0.000000
# 4 0.000000 0.000000 0.000000 0.038318 0.000000 0.000198
# 5 -0.000434 0.015957 -0.011169 0.000000 0.070304 0.000000
# 6 0.000000 0.000000 0.000000 0.000198 0.000000 0.033852
#
#
# Mechanical properties :
#
#
# Convention : Reuss Voigt Hill
#
# Bulk Modulus (GPa) = 33.27359 53.37034 43.32197
# Shear Modulus (GPa) = 17.27521 24.17108 20.72315
#
# Velocity S-wave (km/s) = 3.06956 3.63088 3.36196
# Velocity P-wave (km/s) = 5.54174 6.83277 6.22084
#
# Compressibility (1/GPa) = 0.03005386
#
# Stress axis : x y z
#
# Youngs Moduli (GPa) = 90.32530 18.22523 56.95660
#
# Poissons Ratio (x) = 0.10959 0.13577
# Poissons Ratio (y) = 0.54316 1.04370
# Poissons Ratio (z) = 0.21532 0.33397
#
# Static dielectric constant tensor:
#      x y z
#    x 3.474170 0.000000 -0.113390 
#    y 0.000000 3.175840 0.000000 
#    z -0.113390 0.000000 3.906490 
# 
# 
# High freq. dielectric constant tensor:
#      x y z
#    x 1.717100 0.000000 0.001950 
#    y 0.000000 1.690960 0.000000 
#    z 0.001950 0.000000 1.715680 
# 
# From -- ./inp_files/375106.got.cif
#   From: 2010.06.25/outbox.cif.g09.slc.cpg/sg12_188_cif.got.tgz:375106.got - 2010.06.28 00:19:55.
