data_PCOD8082073
_publ_section_title
;
Structure prediction by ZEFSAII (Michael W. Deem and Ramdas Pophale) SiO2 
 PCOD8082073
Probable space group: C 2/M
;
_chemical_formula_sum "Si O2"
_cell_formula_units_Z 48
_cell_length_a 30.211459
_cell_length_b 9.171847
_cell_length_c 20.189773
_cell_angle_alpha 90.000000
_cell_angle_beta 150.072988
_cell_angle_gamma 90.000000
_cell_volume 2791.067184
_symmetry_space_group_name_H-M "C 2/M"
_symmetry_group_IT_number 12
_symmetry_cell_setting 'monoclinic'
loop_
_space_group_symop_operation_xyz
x,y,z
-x,y,-z
-x,-y,-z
x,-y,z
1/2+x,1/2+y,z
1/2-x,1/2+y,-z
1/2-x,1/2-y,-z
1/2+x,1/2-y,z
loop_
_atom_site_type_symbol
_atom_site_label
_atom_site_fract_x
_atom_site_fract_y
_atom_site_fract_z
Si Si1 0.716400 0.661298 0.360357
Si Si2 0.664694 0.667573 0.864451
Si Si3 0.651895 0.172692 0.577103
Si Si4 0.018486 0.169969 0.308210
Si Si5 0.397051 0.671020 0.359605
Si Si6 0.385519 0.162932 0.674428
O O1 0.674380 0.500000 0.302957
O O2 0.754360 0.707828 0.337761
O O3 0.640235 0.770544 0.287233
O O4 0.799304 0.661045 0.517185
O O5 0.690486 0.500000 0.893131
O O6 0.585439 0.692483 0.813650
O O7 0.635662 0.723467 0.754501
O O8 0.750000 0.750000 0.000000
O O9 0.571366 0.251091 0.435260
O O10 0.659008 0.236424 0.659982
O O11 0.633603 0.000000 0.553544
O O12 0.039716 0.239106 0.264057
O O13 0.045111 0.000000 0.343038
O O14 0.500000 0.710439 0.500000
O O15 0.381244 0.500000 0.351327
O O16 0.422585 0.000000 0.733316
#
# Coordination Sequence:
#
# PCOD8082073 Si02
#       6
#     8   8   8   8   8   8
#     4   8  15  26  38  60  96 129 157 194 244 296
#     4  10  22  37  53  73  99 134 170 208 249 296
#     4  10  19  29  46  74 100 127 166 208 247 289
#     4  10  18  31  48  67  96 134 167 200 251 301
#     4  10  19  35  53  72 100 133 169 204 249 305
#     4   9  16  25  40  65  93 124 164 203 242 290
#
# _framework density 17.197724000000001
#
# number of rings (size 3 to 8) (size 9 to 14) (size 15 to 20)
#    0.000    2.500    1.667    2.500    0.000    7.000 
#    0.000    0.000    0.000    0.000    0.000    1.167 
#    0.000    9.333    0.000    0.000    0.000    0.000 
#
# Total GULP energy -297551.000103 kJ/mol
# GULP energy per Si atom -12397.958338 kJ/mol
# Density = 1.715858 g / cm^3
# Si number density = 17.197724 Si / 1000 Ang^3
#
#
#
# Elastic Constant Matrix: (Units=GPa)
#
#
# Indices 1 2 3 4 5 6 
#
# 1 152.6830 77.0499 43.2619 0.0000 7.2716 0.0000
# 2 77.0499 107.4453 37.6969 0.0000 6.4754 0.0000
# 3 43.2619 37.6969 67.9139 0.0000 -1.5220 0.0000
# 4 0.0000 0.0000 0.0000 21.3137 0.0000 2.1393
# 5 7.2716 6.4754 -1.5220 0.0000 12.2536 0.0000
# 6 0.0000 0.0000 0.0000 2.1393 0.0000 36.9016
#
#
#
# Elastic Compliance Matrix: (Units=1/GPa)
#
#
# Indices 1 2 3 4 5 6 
#
# 1 0.010941 -0.006407 -0.003492 0.000000 -0.003541 0.000000
# 2 -0.006407 0.015927 -0.004876 0.000000 -0.005220 0.000000
# 3 -0.003492 -0.004876 0.019815 0.000000 0.007111 0.000000
# 4 0.000000 0.000000 0.000000 0.047193 0.000000 -0.002736
# 5 -0.003541 -0.005220 0.007111 0.000000 0.087351 0.000000
# 6 0.000000 0.000000 0.000000 -0.002736 0.000000 0.027258
#
#
# Mechanical properties :
#
#
# Convention : Reuss Voigt Hill
#
# Bulk Modulus (GPa) = 58.37137 71.56220 64.96679
# Shear Modulus (GPa) = 20.51302 25.42934 22.97118
#
# Velocity S-wave (km/s) = 3.45740 3.84949 3.65870
# Velocity P-wave (km/s) = 7.06776 7.83963 7.46368
#
# Compressibility (1/GPa) = 0.01713169
#
# Stress axis : x y z
#
# Youngs Moduli (GPa) = 91.39890 62.78603 50.46625
#
# Poissons Ratio (x) = 0.40228 0.17625
# Poissons Ratio (y) = 0.58561 0.24608
# Poissons Ratio (z) = 0.31921 0.30615
#
# Static dielectric constant tensor:
#      x y z
#    x 3.596960 0.000000 0.070390 
#    y 0.000000 3.342800 0.000000 
#    z 0.070390 0.000000 2.633000 
# 
# 
# High freq. dielectric constant tensor:
#      x y z
#    x 1.682730 0.000000 0.011510 
#    y 0.000000 1.673670 0.000000 
#    z 0.011510 0.000000 1.594770 
# 
# From -- ./inp_files/172150.got.cif
#   From: 2010.06.25/outbox.cif.g09.slc.cpg/sg12_87_cif.got.tgz:172150.got - 2010.06.28 00:19:55.
