data_PCOD8082339
_publ_section_title
;
Structure prediction by ZEFSAII (Michael W. Deem and Ramdas Pophale) SiO2 
 PCOD8082339
Probable space group: C 2/M
;
_chemical_formula_sum "Si O2"
_cell_formula_units_Z 56
_cell_length_a 30.774896
_cell_length_b 7.748408
_cell_length_c 20.497254
_cell_angle_alpha 90.000000
_cell_angle_beta 139.625307
_cell_angle_gamma 90.000000
_cell_volume 3166.172859
_symmetry_space_group_name_H-M "C 2/M"
_symmetry_group_IT_number 12
_symmetry_cell_setting 'monoclinic'
loop_
_space_group_symop_operation_xyz
x,y,z
-x,y,-z
-x,-y,-z
x,-y,z
1/2+x,1/2+y,z
1/2-x,1/2+y,-z
1/2-x,1/2-y,-z
1/2+x,1/2-y,z
loop_
_atom_site_type_symbol
_atom_site_label
_atom_site_fract_x
_atom_site_fract_y
_atom_site_fract_z
Si Si1 0.467868 0.300947 0.114783
Si Si2 0.888722 0.500000 0.380461
Si Si3 0.205035 0.197903 0.755144
Si Si4 0.936905 0.307146 0.881004
Si Si5 0.650987 0.303854 0.110607
Si Si6 0.454874 0.294373 0.246532
Si Si7 0.307282 0.699947 0.114517
Si Si8 0.992051 0.500000 0.383120
O O1 0.450931 0.500000 0.097865
O O2 0.539347 0.269639 0.161209
O O3 0.474631 0.233278 0.196258
O O4 0.404577 0.218968 0.002436
O O5 0.844195 0.326956 0.339806
O O6 0.926272 0.500000 0.353634
O O7 0.941219 0.500000 0.498654
O O8 0.280467 0.197336 0.813808
O O9 0.206280 0.277918 0.829682
O O10 0.177897 0.000000 0.719599
O O11 0.911177 0.500000 0.840081
O O12 0.877010 0.201965 0.846962
O O13 0.000000 0.298208 0.000000
O O14 0.666948 0.500000 0.109995
O O15 0.468091 0.500000 0.274274
O O16 0.377545 0.240532 0.165419
O O17 0.495109 0.175454 0.343480
O O18 0.307249 0.500000 0.125466
O O19 0.250000 0.750000 0.000000
#
# Coordination Sequence:
#
# PCOD8082339 Si02
#       8
#     8   4   8   8   8   8   8   4
#     4   9  18  31  49  75 112 153 184 219 265 315
#     4  11  24  42  60  82 103 138 186 234 279 321
#     4  11  22  37  54  79 111 140 181 226 270 326
#     4   9  17  28  43  71 110 148 190 223 253 310
#     4  10  18  31  51  75 112 153 185 220 261 319
#     4  10  21  37  53  80 112 138 182 227 267 325
#     4  10  21  32  49  76 110 150 179 208 256 313
#     4  11  24  40  64  80 101 142 184 232 283 319
#
# _framework density 17.686969000000001
#
# number of rings (size 3 to 8) (size 9 to 14) (size 15 to 20)
#    0.000    2.000    2.143    1.714    3.000    4.000 
#    0.000    1.429    0.000    0.000    0.000    1.000 
#    0.000    0.000    0.000    0.000    0.000    0.000 
#
# Total GULP energy -347048.116635 kJ/mol
# GULP energy per Si atom -12394.575594 kJ/mol
# Density = 1.764671 g / cm^3
# Si number density = 17.686969 Si / 1000 Ang^3
#
#
#
# Elastic Constant Matrix: (Units=GPa)
#
#
# Indices 1 2 3 4 5 6 
#
# 1 125.6181 30.8264 46.9655 0.0000 -10.7169 0.0000
# 2 30.8264 75.7337 38.7421 0.0000 -0.8871 0.0001
# 3 46.9655 38.7421 84.0198 0.0000 -4.4333 0.0000
# 4 0.0000 0.0000 0.0000 22.0746 0.0000 -1.7616
# 5 -10.7169 -0.8871 -4.4333 0.0000 15.0657 0.0000
# 6 0.0000 0.0001 0.0000 -1.7616 0.0000 26.0941
#
#
#
# Elastic Compliance Matrix: (Units=1/GPa)
#
#
# Indices 1 2 3 4 5 6 
#
# 1 0.010739 -0.001824 -0.004839 0.000000 0.006107 0.000000
# 2 -0.001824 0.017617 -0.007230 0.000000 -0.002388 0.000000
# 3 -0.004839 -0.007230 0.018016 0.000000 0.001433 0.000000
# 4 0.000000 0.000000 0.000000 0.045546 0.000000 0.003075
# 5 0.006107 -0.002388 0.001433 0.000000 0.071002 0.000000
# 6 0.000000 0.000000 0.000000 0.003075 0.000000 0.038530
#
#
# Mechanical properties :
#
#
# Convention : Reuss Voigt Hill
#
# Bulk Modulus (GPa) = 53.80420 57.60442 55.70431
# Shear Modulus (GPa) = 21.23756 23.90272 22.57014
#
# Velocity S-wave (km/s) = 3.46894 3.68017 3.57611
# Velocity P-wave (km/s) = 6.82136 7.12024 6.97240
#
# Compressibility (1/GPa) = 0.01858591
#
# Stress axis : x y z
#
# Youngs Moduli (GPa) = 93.12221 56.76324 55.50476
#
# Poissons Ratio (x) = 0.10353 0.26861
# Poissons Ratio (y) = 0.16984 0.40129
# Poissons Ratio (z) = 0.45066 0.41039
#
# Static dielectric constant tensor:
#      x y z
#    x 3.548170 0.000000 -0.078710 
#    y 0.000000 3.696170 0.000000 
#    z -0.078710 0.000000 2.876200 
# 
# 
# High freq. dielectric constant tensor:
#      x y z
#    x 1.693720 0.000000 -0.002140 
#    y 0.000000 1.691460 0.000000 
#    z -0.002140 0.000000 1.630720 
# 
# From -- ./inp_files/291995.got.cif
#   From: 2010.06.25/outbox.cif.g09.slc.cpg/sg12_146_cif.got.tgz:291995.got - 2010.06.28 00:19:55.
