data_PCOD8082678
_publ_section_title
;
Structure prediction by ZEFSAII (Michael W. Deem and Ramdas Pophale) SiO2 
 PCOD8082678
Probable space group: C 2/M
;
_chemical_formula_sum "Si O2"
_cell_formula_units_Z 56
_cell_length_a 15.299381
_cell_length_b 9.266603
_cell_length_c 22.439816
_cell_angle_alpha 90.000000
_cell_angle_beta 108.794593
_cell_angle_gamma 90.000000
_cell_volume 3011.735019
_symmetry_space_group_name_H-M "C 2/M"
_symmetry_group_IT_number 12
_symmetry_cell_setting 'monoclinic'
loop_
_space_group_symop_operation_xyz
x,y,z
-x,y,-z
-x,-y,-z
x,-y,z
1/2+x,1/2+y,z
1/2-x,1/2+y,-z
1/2-x,1/2-y,-z
1/2+x,1/2-y,z
loop_
_atom_site_type_symbol
_atom_site_label
_atom_site_fract_x
_atom_site_fract_y
_atom_site_fract_z
Si Si1 0.185209 0.331071 0.568656
Si Si2 0.463569 0.329773 0.127171
Si Si3 0.836739 0.831326 0.994192
Si Si4 0.838169 0.170009 0.858025
Si Si5 0.156766 0.831385 0.790936
Si Si6 0.418565 0.333308 0.354164
Si Si7 0.120372 0.167025 0.441623
O O1 0.164178 0.500000 0.565617
O O2 0.151882 0.261386 0.622764
O O3 0.127131 0.262534 0.502158
O O4 0.294452 0.299703 0.584195
O O5 0.462173 0.500000 0.133775
O O6 0.569287 0.277508 0.155575
O O7 0.402265 0.264300 0.167280
O O8 0.424169 0.285442 0.053745
O O9 0.852892 0.785645 0.929908
O O10 0.817381 0.000000 0.995667
O O11 0.750000 0.750000 0.000000
O O12 0.754225 0.251804 0.808952
O O13 0.821406 0.000000 0.847870
O O14 0.100260 0.800307 0.718777
O O15 0.176091 0.000000 0.804363
O O16 0.400677 0.500000 0.366086
O O17 0.525131 0.291269 0.388572
O O18 0.122027 0.000000 0.461526
#
# Coordination Sequence:
#
# PCOD8082678 Si02
#       7
#     8   8   8   8   8   8   8
#     4  10  20  34  56  85 110 134 171 220 265 303
#     4   9  18  34  55  76 103 139 176 213 260 320
#     4  10  18  31  54  80 105 134 170 216 267 316
#     4  10  20  34  55  80 104 134 175 221 267 314
#     4  10  21  37  54  74 103 141 180 217 258 309
#     4  10  21  36  54  75 104 144 182 211 253 314
#     4   9  19  36  56  79 109 142 174 210 257 316
#
# _framework density 18.593931999999999
#
# number of rings (size 3 to 8) (size 9 to 14) (size 15 to 20)
#    0.000    2.286    1.429    1.286    0.000    6.286 
#    0.000    4.286    0.000    1.714    0.000    0.000 
#    0.000    0.000    0.000    0.000    0.000    0.000 
#
# Total GULP energy -347209.567400 kJ/mol
# GULP energy per Si atom -12400.341693 kJ/mol
# Density = 1.855161 g / cm^3
# Si number density = 18.593932 Si / 1000 Ang^3
#
#
#
# Elastic Constant Matrix: (Units=GPa)
#
#
# Indices 1 2 3 4 5 6 
#
# 1 108.1109 31.2552 39.0226 0.0000 17.8623 0.0000
# 2 31.2552 44.1355 31.4553 0.0000 2.5077 0.0000
# 3 39.0226 31.4553 87.6736 0.0000 12.0120 0.0000
# 4 0.0000 0.0000 0.0000 24.5065 0.0000 -0.1983
# 5 17.8623 2.5077 12.0120 0.0000 25.2400 0.0000
# 6 0.0000 0.0000 0.0000 -0.1983 0.0000 30.5186
#
#
#
# Elastic Compliance Matrix: (Units=1/GPa)
#
#
# Indices 1 2 3 4 5 6 
#
# 1 0.013520 -0.007526 -0.002256 0.000000 -0.007747 0.000000
# 2 -0.007526 0.034759 -0.010032 0.000000 0.006647 0.000000
# 3 -0.002256 -0.010032 0.016746 0.000000 -0.005376 0.000000
# 4 0.000000 0.000000 0.000000 0.040808 0.000000 0.000265
# 5 -0.007747 0.006647 -0.005376 0.000000 0.047000 0.000000
# 6 0.000000 0.000000 0.000000 0.000265 0.000000 0.032769
#
#
# Mechanical properties :
#
#
# Convention : Reuss Voigt Hill
#
# Bulk Modulus (GPa) = 39.37466 49.26513 44.31989
# Shear Modulus (GPa) = 21.39541 25.26546 23.33044
#
# Velocity S-wave (km/s) = 3.39583 3.69019 3.54606
# Velocity P-wave (km/s) = 6.04959 6.68651 6.37601
#
# Compressibility (1/GPa) = 0.02539705
#
# Stress axis : x y z
#
# Youngs Moduli (GPa) = 73.96553 28.76929 59.71664
#
# Poissons Ratio (x) = 0.21653 0.13471
# Poissons Ratio (y) = 0.55669 0.59906
# Poissons Ratio (z) = 0.16686 0.28860
#
# Static dielectric constant tensor:
#      x y z
#    x 3.740190 0.000000 -0.262690 
#    y 0.000000 3.268080 0.000000 
#    z -0.262690 0.000000 3.723850 
# 
# 
# High freq. dielectric constant tensor:
#      x y z
#    x 1.734150 0.000000 0.003080 
#    y 0.000000 1.700130 0.000000 
#    z 0.003080 0.000000 1.719770 
# 
# From -- ./inp_files/309512.got.cif
#   From: 2010.06.25/outbox.cif.g09.slc.cpg/sg12_155_cif.got.tgz:309512.got - 2010.06.28 00:19:55.
