data_PCOD8082745
_publ_section_title
;
Structure prediction by ZEFSAII (Michael W. Deem and Ramdas Pophale) SiO2 
 PCOD8082745
Probable space group: C 2/M
;
_chemical_formula_sum "Si O2"
_cell_formula_units_Z 64
_cell_length_a 22.355652
_cell_length_b 13.811502
_cell_length_c 12.144646
_cell_angle_alpha 90.000000
_cell_angle_beta 70.642039
_cell_angle_gamma 90.000000
_cell_volume 3537.850031
_symmetry_space_group_name_H-M "C 2/M"
_symmetry_group_IT_number 12
_symmetry_cell_setting 'monoclinic'
loop_
_space_group_symop_operation_xyz
x,y,z
-x,y,-z
-x,-y,-z
x,-y,z
1/2+x,1/2+y,z
1/2-x,1/2+y,-z
1/2-x,1/2-y,-z
1/2+x,1/2-y,z
loop_
_atom_site_type_symbol
_atom_site_label
_atom_site_fract_x
_atom_site_fract_y
_atom_site_fract_z
Si Si1 0.669698 0.895803 0.069728
Si Si2 0.935072 0.889218 0.487982
Si Si3 0.763400 0.391763 0.752447
Si Si4 0.473664 0.611451 0.220347
Si Si5 0.306081 0.890740 0.189437
Si Si6 0.632710 0.306064 0.861193
Si Si7 0.391642 0.705236 0.873467
Si Si8 0.323750 0.695965 0.690168
O O1 0.725983 0.885556 0.123217
O O2 0.611823 0.821917 0.123384
O O3 0.635964 0.000000 0.098389
O O4 0.706758 0.883510 0.932801
O O5 0.934852 0.879082 0.356878
O O6 0.875372 0.830403 0.568173
O O7 0.000000 0.846789 0.500000
O O8 0.927759 0.000000 0.530958
O O9 0.778968 0.500000 0.696627
O O10 0.690181 0.367284 0.773544
O O11 0.809493 0.309613 0.674128
O O12 0.490076 0.500000 0.184201
O O13 0.433215 0.656343 0.146390
O O14 0.537723 0.671398 0.192617
O O15 0.359154 0.807551 0.178872
O O16 0.240330 0.865563 0.290575
O O17 0.328503 0.000000 0.210367
O O18 0.632648 0.328737 0.991968
O O19 0.347771 0.670041 0.798888
#
# Coordination Sequence:
#
# PCOD8082745 Si02
#       8
#     8   8   8   8   8   8   8   8
#     4   8  15  29  49  74 103 133 165 204 247 290
#     4  10  20  36  54  73  97 127 166 208 248 289
#     4   9  17  30  49  74 105 136 165 199 244 299
#     4  11  23  36  50  70 101 137 168 200 243 299
#     4   9  17  30  50  76 103 130 165 208 249 290
#     4  10  20  33  49  74 107 138 163 194 246 305
#     4  10  19  31  50  77 105 131 165 206 247 294
#     4  10  18  31  55  79  99 127 167 213 252 283
#
# _framework density 18.090084000000001
#
# number of rings (size 3 to 8) (size 9 to 14) (size 15 to 20)
#    0.000    2.375    1.250    1.875    0.000    5.000 
#    0.000    3.125    0.000    6.375    0.000    0.000 
#    0.000    0.000    0.000    0.000    0.000    0.000 
#
# Total GULP energy -396560.263541 kJ/mol
# GULP energy per Si atom -12392.508236 kJ/mol
# Density = 1.804891 g / cm^3
# Si number density = 18.090084 Si / 1000 Ang^3
#
#
#
# Elastic Constant Matrix: (Units=GPa)
#
#
# Indices 1 2 3 4 5 6 
#
# 1 63.9876 36.4300 9.9434 0.0000 -9.6720 0.0000
# 2 36.4300 111.8515 27.1164 0.0000 -14.3972 0.0000
# 3 9.9434 27.1164 48.6109 0.0000 -14.8964 0.0000
# 4 0.0000 0.0000 0.0000 21.8271 0.0000 -3.1903
# 5 -9.6720 -14.3972 -14.8964 0.0000 27.8317 0.0000
# 6 0.0000 0.0000 0.0000 -3.1903 0.0000 22.6243
#
#
#
# Elastic Compliance Matrix: (Units=1/GPa)
#
#
# Indices 1 2 3 4 5 6 
#
# 1 0.019556 -0.005992 0.000568 0.000000 0.004001 0.000000
# 2 -0.005992 0.012348 -0.005195 0.000000 0.001524 0.000000
# 3 0.000568 -0.005195 0.027022 0.000000 0.011973 0.000000
# 4 0.000000 0.000000 0.000000 0.046779 0.000000 0.006596
# 5 0.004001 0.001524 0.011973 0.000000 0.044518 0.000000
# 6 0.000000 0.000000 0.000000 0.006596 0.000000 0.045130
#
#
# Mechanical properties :
#
#
# Convention : Reuss Voigt Hill
#
# Bulk Modulus (GPa) = 26.53342 41.26994 33.90168
# Shear Modulus (GPa) = 21.81943 24.52061 23.17002
#
# Velocity S-wave (km/s) = 3.47674 3.68567 3.58273
# Velocity P-wave (km/s) = 5.55123 6.40120 5.99131
#
# Compressibility (1/GPa) = 0.03768831
#
# Stress axis : x y z
#
# Youngs Moduli (GPa) = 51.13528 80.98636 37.00641
#
# Poissons Ratio (x) = 0.48529 -0.02103
# Poissons Ratio (y) = 0.30641 0.19225
# Poissons Ratio (z) = -0.02906 0.42072
#
# Static dielectric constant tensor:
#      x y z
#    x 3.098370 0.000000 0.018110 
#    y 0.000000 3.608500 0.000000 
#    z 0.018110 0.000000 3.091520 
# 
# 
# High freq. dielectric constant tensor:
#      x y z
#    x 1.682340 0.000000 -0.003180 
#    y 0.000000 1.706960 0.000000 
#    z -0.003180 0.000000 1.677700 
# 
# From -- ./inp_files/167238.got.cif
#   From: 2010.06.25/outbox.cif.g09.slc.cpg/sg12_84_cif.got.tgz:167238.got - 2010.06.28 00:19:55.
