data_PCOD8082250
_publ_section_title
;
Structure prediction by ZEFSAII (Michael W. Deem and Ramdas Pophale) SiO2 
 PCOD8082250
Probable space group: C 2/M
;
_chemical_formula_sum "Si O2"
_cell_formula_units_Z 56
_cell_length_a 28.179432
_cell_length_b 18.440919
_cell_length_c 17.747432
_cell_angle_alpha 90.000000
_cell_angle_beta 161.004533
_cell_angle_gamma 90.000000
_cell_volume 3001.873822
_symmetry_space_group_name_H-M "C 2/M"
_symmetry_group_IT_number 12
_symmetry_cell_setting 'monoclinic'
loop_
_space_group_symop_operation_xyz
x,y,z
-x,y,-z
-x,-y,-z
x,-y,z
1/2+x,1/2+y,z
1/2-x,1/2+y,-z
1/2-x,1/2-y,-z
1/2+x,1/2-y,z
loop_
_atom_site_type_symbol
_atom_site_label
_atom_site_fract_x
_atom_site_fract_y
_atom_site_fract_z
Si Si1 0.681297 0.418783 0.054851
Si Si2 0.334441 0.316095 0.663702
Si Si3 0.180993 0.827738 0.912302
Si Si4 0.325508 0.316741 0.822071
Si Si5 0.161788 0.919897 0.459858
Si Si6 0.672943 0.580648 0.758721
Si Si7 0.165280 0.828324 0.605104
O O1 0.750093 0.500000 0.152032
O O2 0.716801 0.386258 0.190673
O O3 0.741178 0.364446 0.079802
O O4 0.509830 0.425731 0.785515
O O5 0.250000 0.250000 0.500000
O O6 0.283239 0.332198 0.671930
O O7 0.299024 0.388323 0.563190
O O8 0.504842 0.297441 0.915402
O O9 0.231604 0.880463 0.921378
O O10 0.007742 0.818717 0.654462
O O11 0.250000 0.750000 0.000000
O O12 0.234881 0.250047 0.717760
O O13 0.224486 0.867010 0.618364
O O14 0.231807 0.000000 0.571709
O O15 0.500000 0.576223 0.500000
O O16 0.739995 0.500000 0.856171
O O17 0.724660 0.624531 0.763492
#
# Coordination Sequence:
#
# PCOD8082250 Si02
#       7
#     8   8   8   8   8   8   8
#     4   9  18  32  50  75 102 131 172 213 250 294
#     4  10  19  34  52  77 105 132 165 208 253 303
#     4  10  19  31  50  75 102 133 168 208 253 295
#     4  10  20  32  54  78 100 135 168 206 256 297
#     4   9  17  30  51  76 101 131 167 211 255 293
#     4   9  17  29  47  71  98 126 164 211 251 287
#     4  10  18  31  50  76 102 129 168 209 250 301
#
# _framework density 18.655014000000001
#
# number of rings (size 3 to 8) (size 9 to 14) (size 15 to 20)
#    0.000    2.429    1.429    1.714    0.000    4.000 
#    0.000    2.857    0.000    5.143    0.000    0.000 
#    0.000    0.000    0.000    0.000    0.000    0.000 
#
# Total GULP energy -347147.193708 kJ/mol
# GULP energy per Si atom -12398.114061 kJ/mol
# Density = 1.861255 g / cm^3
# Si number density = 18.655014 Si / 1000 Ang^3
#
#
#
# Elastic Constant Matrix: (Units=GPa)
#
#
# Indices 1 2 3 4 5 6 
#
# 1 133.3199 73.3287 31.8269 0.0000 -35.8501 0.0000
# 2 73.3287 157.5861 27.8255 0.0000 -13.1222 0.0000
# 3 31.8269 27.8255 28.9254 0.0000 -15.8033 0.0000
# 4 0.0000 0.0000 0.0000 24.7528 0.0000 -3.2645
# 5 -35.8501 -13.1222 -15.8033 0.0000 24.8621 0.0000
# 6 0.0000 0.0000 0.0000 -3.2645 0.0000 32.3300
#
#
#
# Elastic Compliance Matrix: (Units=1/GPa)
#
#
# Indices 1 2 3 4 5 6 
#
# 1 0.016199 -0.005593 -0.001983 0.000000 0.019145 0.000000
# 2 -0.005593 0.009591 -0.007220 0.000000 -0.007593 0.000000
# 3 -0.001983 -0.007220 0.061366 0.000000 0.032336 0.000000
# 4 0.000000 0.000000 0.000000 0.040945 0.000000 0.004134
# 5 0.019145 -0.007593 0.032336 0.000000 0.084375 0.000000
# 6 0.000000 0.000000 0.000000 0.004134 0.000000 0.031348
#
#
# Mechanical properties :
#
#
# Convention : Reuss Voigt Hill
#
# Bulk Modulus (GPa) = 17.37236 65.08816 41.23026
# Shear Modulus (GPa) = 17.08786 28.84568 22.96677
#
# Velocity S-wave (km/s) = 3.02982 3.93653 3.51255
# Velocity P-wave (km/s) = 4.64461 7.45841 6.21290
#
# Compressibility (1/GPa) = 0.05756271
#
# Stress axis : x y z
#
# Youngs Moduli (GPa) = 61.73264 104.26325 16.29566
#
# Poissons Ratio (x) = 0.58318 0.03232
# Poissons Ratio (y) = 0.34529 0.11766
# Poissons Ratio (z) = 0.12243 0.75280
#
# Static dielectric constant tensor:
#      x y z
#    x 3.624540 0.000000 -0.294070 
#    y 0.000000 3.626980 0.000000 
#    z -0.294070 0.000000 3.058710 
# 
# 
# High freq. dielectric constant tensor:
#      x y z
#    x 1.732360 0.000000 -0.028810 
#    y 0.000000 1.734160 0.000000 
#    z -0.028810 0.000000 1.677250 
# 
# From -- ./inp_files/293877.got.cif
#   From: 2010.06.25/outbox.cif.g09.slc.cpg/sg12_147_cif.got.tgz:293877.got - 2010.06.28 00:19:55.
