data_PCOD8082518
_publ_section_title
;
Structure prediction by ZEFSAII (Michael W. Deem and Ramdas Pophale) SiO2 
 PCOD8082518
Probable space group: C 2/M
;
_chemical_formula_sum "Si O2"
_cell_formula_units_Z 64
_cell_length_a 19.971769
_cell_length_b 12.729208
_cell_length_c 25.289224
_cell_angle_alpha 90.000000
_cell_angle_beta 148.012382
_cell_angle_gamma 90.000000
_cell_volume 3405.751013
_symmetry_space_group_name_H-M "C 2/M"
_symmetry_group_IT_number 12
_symmetry_cell_setting 'monoclinic'
loop_
_space_group_symop_operation_xyz
x,y,z
-x,y,-z
-x,-y,-z
x,-y,z
1/2+x,1/2+y,z
1/2-x,1/2+y,-z
1/2-x,1/2-y,-z
1/2+x,1/2-y,z
loop_
_atom_site_type_symbol
_atom_site_label
_atom_site_fract_x
_atom_site_fract_y
_atom_site_fract_z
Si Si1 0.864183 0.119554 0.914091
Si Si2 0.754341 0.618476 0.595885
Si Si3 0.202904 0.119056 0.246808
Si Si4 0.956804 0.121200 0.137299
Si Si5 0.633844 0.304994 0.616484
Si Si6 0.491576 0.257590 0.731518
Si Si7 0.720208 0.124570 0.917525
Si Si8 0.512256 0.621050 0.638281
O O1 0.783683 0.125865 0.807036
O O2 0.782308 0.169774 0.905443
O O3 0.891162 0.000000 0.949780
O O4 0.000000 0.177348 0.000000
O O5 0.803133 0.500000 0.618255
O O6 0.727926 0.629490 0.641269
O O7 0.626360 0.640086 0.478061
O O8 0.855224 0.701849 0.640896
O O9 0.314843 0.186949 0.346154
O O10 0.065978 0.166228 0.171614
O O11 0.220483 0.000000 0.279206
O O12 0.002398 0.139308 0.227756
O O13 0.949195 0.000000 0.119727
O O14 0.815502 0.163498 0.028232
O O15 0.500000 0.298247 0.500000
O O16 0.618895 0.356825 0.664712
O O17 0.584403 0.179403 0.825989
O O18 0.529443 0.296515 0.698242
O O19 0.695626 0.000000 0.902216
O O20 0.528050 0.500000 0.667631
#
# Coordination Sequence:
#
# PCOD8082518 Si02
#       8
#     8   8   8   8   8   8   8   8
#     4   9  15  27  48  70  97 133 172 212 255 309
#     4  10  21  38  59  82 108 144 187 230 276 327
#     4  10  18  31  52  80 109 140 178 224 273 320
#     4  10  20  34  52  75 108 146 184 216 260 330
#     4  10  20  37  58  81 108 142 187 231 270 325
#     4  12  21  35  55  83 112 143 178 229 281 323
#     4  10  20  33  51  80 110 141 180 223 269 319
#     4  10  22  39  59  81 108 145 187 227 274 335
#
# _framework density 18.791744000000001
#
# number of rings (size 3 to 8) (size 9 to 14) (size 15 to 20)
#    0.000    1.875    2.500    2.625    0.000    1.750 
#    0.000    0.625    0.000    0.750    0.000    0.875 
#    0.000    0.000    0.000    0.000    0.000    0.000 
#
# Total GULP energy -396518.145878 kJ/mol
# GULP energy per Si atom -12391.192059 kJ/mol
# Density = 1.874897 g / cm^3
# Si number density = 18.791744 Si / 1000 Ang^3
#
#
#
# Elastic Constant Matrix: (Units=GPa)
#
#
# Indices 1 2 3 4 5 6 
#
# 1 74.8174 21.1827 21.7212 -0.0001 -10.5463 0.0000
# 2 21.1827 60.6818 27.9339 -0.0003 -1.8091 -0.0001
# 3 21.7212 27.9339 32.9854 -0.0006 -5.8197 -0.0001
# 4 -0.0001 -0.0003 -0.0006 28.3716 -0.0001 0.7200
# 5 -10.5463 -1.8091 -5.8197 -0.0001 30.0136 0.0000
# 6 0.0000 -0.0001 -0.0001 0.7200 0.0000 22.6907
#
#
#
# Elastic Compliance Matrix: (Units=1/GPa)
#
#
# Indices 1 2 3 4 5 6 
#
# 1 0.017058 -0.001632 -0.009123 0.000000 0.004127 0.000000
# 2 -0.001632 0.027411 -0.022726 0.000000 -0.003328 0.000000
# 3 -0.009123 -0.022726 0.056702 0.000001 0.006419 0.000000
# 4 0.000000 0.000000 0.000001 0.035275 0.000000 -0.001119
# 5 0.004127 -0.003328 0.006419 0.000000 0.035812 0.000000
# 6 0.000000 0.000000 0.000000 -0.001119 0.000000 0.044106
#
#
# Mechanical properties :
#
#
# Convention : Reuss Voigt Hill
#
# Bulk Modulus (GPa) = 29.23117 34.46226 31.84671
# Shear Modulus (GPa) = 16.96464 22.72495 19.84480
#
# Velocity S-wave (km/s) = 3.00787 3.48128 3.25320
# Velocity P-wave (km/s) = 5.25853 5.87690 5.57629
#
# Compressibility (1/GPa) = 0.03421006
#
# Stress axis : x y z
#
# Youngs Moduli (GPa) = 58.62274 36.48106 17.63604
#
# Poissons Ratio (x) = 0.05954 0.16089
# Poissons Ratio (y) = 0.09568 0.40080
# Poissons Ratio (z) = 0.53480 0.82907
#
# Static dielectric constant tensor:
#      x y z
#    x 3.582970 0.000000 0.069250 
#    y 0.000000 3.265260 0.000000 
#    z 0.069250 0.000000 3.442010 
# 
# 
# High freq. dielectric constant tensor:
#      x y z
#    x 1.734870 0.000000 -0.000810 
#    y 0.000000 1.707970 0.000000 
#    z -0.000810 0.000000 1.726320 
# 
# From -- ./inp_files/366051.got.cif
#   From: 2010.06.25/outbox.cif.g09.slc.cpg/sg12_184_cif.got.tgz:366051.got - 2010.06.28 00:19:55.
