data_PCOD8082876
_publ_section_title
;
Structure prediction by ZEFSAII (Michael W. Deem and Ramdas Pophale) SiO2 
 PCOD8082876
Probable space group: C 2/M
;
_chemical_formula_sum "Si O2"
_cell_formula_units_Z 40
_cell_length_a 8.865342
_cell_length_b 25.697722
_cell_length_c 10.425704
_cell_angle_alpha 90.000000
_cell_angle_beta 83.559924
_cell_angle_gamma 90.000000
_cell_volume 2360.186397
_symmetry_space_group_name_H-M "C 2/M"
_symmetry_group_IT_number 12
_symmetry_cell_setting 'monoclinic'
loop_
_space_group_symop_operation_xyz
x,y,z
-x,y,-z
-x,-y,-z
x,-y,z
1/2+x,1/2+y,z
1/2-x,1/2+y,-z
1/2-x,1/2-y,-z
1/2+x,1/2-y,z
loop_
_atom_site_type_symbol
_atom_site_label
_atom_site_fract_x
_atom_site_fract_y
_atom_site_fract_z
Si Si1 0.139220 0.789713 0.728596
Si Si2 0.001248 0.881208 0.142794
Si Si3 0.320772 0.149477 0.515012
Si Si4 0.610944 0.440385 0.608101
Si Si5 0.192923 0.810037 0.267843
O O1 0.260450 0.802936 0.606758
O O2 0.191844 0.735516 0.788485
O O3 0.130657 0.836466 0.834317
O O4 0.971591 0.784729 0.680169
O O5 0.163152 0.852599 0.157644
O O6 0.972566 0.926142 0.250315
O O7 0.000000 0.905138 0.000000
O O8 0.500000 0.147572 0.500000
O O9 0.259207 0.094778 0.575234
O O10 0.263280 0.158261 0.377589
O O11 0.500000 0.429505 0.500000
O O12 0.662920 0.500000 0.608922
#
# Coordination Sequence:
#
# PCOD8082876 Si02
#       5
#     8   8   8   8   8
#     4   9  19  30  49  72 109 139 177 209 251 301
#     4   9  20  34  53  78 108 138 178 214 257 315
#     4  11  19  31  52  79 109 135 173 220 264 308
#     4  10  19  37  59  79 104 133 173 227 270 308
#     4  10  18  32  49  75 108 143 173 213 251 308
#
# _framework density 16.947814000000001
#
# number of rings (size 3 to 8) (size 9 to 14) (size 15 to 20)
#    1.200    1.000    2.000    2.400    0.000    1.600 
#    0.000    0.000    0.000    0.000    0.000    1.400 
#    0.000    0.000    0.000    0.000    0.000    0.000 
#
# Total GULP energy -247761.679212 kJ/mol
# GULP energy per Si atom -12388.083961 kJ/mol
# Density = 1.690924 g / cm^3
# Si number density = 16.947814 Si / 1000 Ang^3
#
#
#
# Elastic Constant Matrix: (Units=GPa)
#
#
# Indices 1 2 3 4 5 6 
#
# 1 106.3465 24.0651 26.7176 0.0000 6.1832 0.0000
# 2 24.0651 60.4760 10.7921 0.0000 2.1487 0.0000
# 3 26.7176 10.7921 98.1417 0.0000 11.0274 0.0000
# 4 0.0000 0.0000 0.0000 11.5707 0.0000 0.5767
# 5 6.1832 2.1487 11.0274 0.0000 13.8784 0.0000
# 6 0.0000 0.0000 0.0000 0.5767 0.0000 21.9079
#
#
#
# Elastic Compliance Matrix: (Units=1/GPa)
#
#
# Indices 1 2 3 4 5 6 
#
# 1 0.011001 -0.003881 -0.002289 0.000000 -0.002481 0.000000
# 2 -0.003881 0.018255 -0.000909 0.000000 -0.000375 0.000000
# 3 -0.002289 -0.000909 0.011839 0.000000 -0.008246 0.000000
# 4 0.000000 0.000000 0.000000 0.086539 0.000000 -0.002278
# 5 -0.002481 -0.000375 -0.008246 0.000000 0.079770 0.000000
# 6 0.000000 0.000000 0.000000 -0.002278 0.000000 0.045706
#
#
# Mechanical properties :
#
#
# Convention : Reuss Voigt Hill
#
# Bulk Modulus (GPa) = 37.12305 43.12377 40.12341
# Shear Modulus (GPa) = 18.09975 23.03069 20.56522
#
# Velocity S-wave (km/s) = 3.27153 3.69035 3.48723
# Velocity P-wave (km/s) = 6.01850 6.60746 6.31985
#
# Compressibility (1/GPa) = 0.02693744
#
# Stress axis : x y z
#
# Youngs Moduli (GPa) = 90.90231 54.77863 84.46610
#
# Poissons Ratio (x) = 0.21259 0.19336
# Poissons Ratio (y) = 0.35278 0.07676
# Poissons Ratio (z) = 0.20810 0.04978
#
# Static dielectric constant tensor:
#      x y z
#    x 3.028320 0.000000 0.038070 
#    y 0.000000 3.079110 0.000000 
#    z 0.038070 0.000000 2.870200 
# 
# 
# High freq. dielectric constant tensor:
#      x y z
#    x 1.638680 0.000000 0.007300 
#    y 0.000000 1.647770 0.000000 
#    z 0.007300 0.000000 1.630150 
# 
# From -- ./inp_files/41053.got.cif
#   From: 2010.06.25/outbox.cif.g09.slc.cpg/sg12_21_cif.got.tgz:41053.got - 2010.06.28 00:19:55.
