data_PCOD8082194
_publ_section_title
;
Structure prediction by ZEFSAII (Michael W. Deem and Ramdas Pophale) SiO2 
 PCOD8082194
Probable space group: C 2/M
;
_chemical_formula_sum "Si O2"
_cell_formula_units_Z 64
_cell_length_a 25.431213
_cell_length_b 8.842328
_cell_length_c 16.980580
_cell_angle_alpha 90.000000
_cell_angle_beta 89.497277
_cell_angle_gamma 90.000000
_cell_volume 3818.295176
_symmetry_space_group_name_H-M "C 2/M"
_symmetry_group_IT_number 12
_symmetry_cell_setting 'monoclinic'
loop_
_space_group_symop_operation_xyz
x,y,z
-x,y,-z
-x,-y,-z
x,-y,z
1/2+x,1/2+y,z
1/2-x,1/2+y,-z
1/2-x,1/2-y,-z
1/2+x,1/2-y,z
loop_
_atom_site_type_symbol
_atom_site_label
_atom_site_fract_x
_atom_site_fract_y
_atom_site_fract_z
Si Si1 0.309235 0.675646 0.411014
Si Si2 0.402155 0.821017 0.316036
Si Si3 0.554923 0.823822 0.162052
Si Si4 0.557374 0.677217 0.835042
Si Si5 0.199613 0.175791 0.408585
Si Si6 0.562340 0.167016 0.991744
Si Si7 0.498372 0.179641 0.588128
Si Si8 0.893937 0.676251 0.677647
O O1 0.316088 0.500000 0.390910
O O2 0.349127 0.772696 0.359368
O O3 0.250817 0.726312 0.388559
O O4 0.320180 0.709669 0.502716
O O5 0.403831 0.751953 0.228792
O O6 0.451771 0.757043 0.364676
O O7 0.403962 0.000000 0.309316
O O8 0.502007 0.731329 0.178837
O O9 0.597044 0.793096 0.229891
O O10 0.538100 0.000000 0.160871
O O11 0.582197 0.778138 0.078115
O O12 0.559920 0.500000 0.825340
O O13 0.578970 0.720512 0.921771
O O14 0.155063 0.224246 0.348046
O O15 0.213234 0.000000 0.397758
O O16 0.584537 0.000000 0.971757
O O17 0.500000 0.161347 0.000000
O O18 0.500000 0.246627 0.500000
O O19 0.445051 0.234050 0.630113
O O20 0.501013 0.000000 0.586587
O O21 0.882950 0.500000 0.660443
#
# Coordination Sequence:
#
# PCOD8082194 Si02
#       8
#     8   8   8   8   8   8   8   8
#     4  10  21  37  54  73  97 127 168 214 254 292
#     4  11  20  33  52  72  99 132 167 205 248 297
#     4   9  17  31  48  68  96 133 170 204 243 294
#     4  11  20  29  44  69 102 133 164 202 246 294
#     4  10  21  36  53  74  99 129 166 209 255 296
#     4   8  15  28  46  65  91 128 169 204 240 288
#     4   9  17  28  45  69  96 128 164 197 237 293
#     4  10  18  31  50  72 100 132 168 205 246 293
#
# _framework density 16.761406000000001
#
# number of rings (size 3 to 8) (size 9 to 14) (size 15 to 20)
#    0.000    2.250    1.250    3.750    0.000    5.250 
#    0.000    0.000    0.000    2.625    0.000    0.875 
#    0.000    0.000    0.000    0.000    0.000    0.000 
#
# Total GULP energy -396793.846944 kJ/mol
# GULP energy per Si atom -12399.807717 kJ/mol
# Density = 1.672326 g / cm^3
# Si number density = 16.761406 Si / 1000 Ang^3
#
#
#
# Elastic Constant Matrix: (Units=GPa)
#
#
# Indices 1 2 3 4 5 6 
#
# 1 64.0965 25.1341 47.0378 0.0000 3.6908 0.0000
# 2 25.1341 73.2988 41.7189 0.0000 -3.8058 0.0000
# 3 47.0378 41.7189 131.9641 0.0000 4.6798 0.0000
# 4 0.0000 0.0000 0.0000 22.4729 0.0000 -1.5510
# 5 3.6908 -3.8058 4.6798 0.0000 17.1026 0.0000
# 6 0.0000 0.0000 0.0000 -1.5510 0.0000 25.2563
#
#
#
# Elastic Compliance Matrix: (Units=1/GPa)
#
#
# Indices 1 2 3 4 5 6 
#
# 1 0.022194 -0.004136 -0.006463 0.000000 -0.003941 0.000000
# 2 -0.004136 0.017876 -0.004392 0.000000 0.006073 0.000000
# 3 -0.006463 -0.004392 0.011366 0.000000 -0.002693 0.000000
# 4 0.000000 0.000000 0.000000 0.044687 0.000000 0.002744
# 5 -0.003941 0.006073 -0.002693 0.000000 0.061409 0.000000
# 6 0.000000 0.000000 0.000000 0.002744 0.000000 0.039763
#
#
# Mechanical properties :
#
#
# Convention : Reuss Voigt Hill
#
# Bulk Modulus (GPa) = 46.61619 55.23789 50.92704
# Shear Modulus (GPa) = 21.32837 23.33094 22.32965
#
# Velocity S-wave (km/s) = 3.57104 3.73492 3.65390
# Velocity P-wave (km/s) = 6.69889 7.18516 6.94628
#
# Compressibility (1/GPa) = 0.02145177
#
# Stress axis : x y z
#
# Youngs Moduli (GPa) = 45.05822 55.93975 87.98340
#
# Poissons Ratio (x) = 0.23137 0.56867
# Poissons Ratio (y) = 0.18636 0.38647
# Poissons Ratio (z) = 0.29123 0.24571
#
# Static dielectric constant tensor:
#      x y z
#    x 2.834910 0.000000 0.062520 
#    y 0.000000 3.011910 0.000000 
#    z 0.062520 0.000000 3.580920 
# 
# 
# High freq. dielectric constant tensor:
#      x y z
#    x 1.607430 0.000000 0.001220 
#    y 0.000000 1.639100 0.000000 
#    z 0.001220 0.000000 1.656450 
# 
# From -- ./inp_files/281275.got.cif
#   From: 2010.06.25/outbox.cif.g09.slc.cpg/sg12_141_cif.got.tgz:281275.got - 2010.06.28 00:19:55.
