data_PCOD8082662
_publ_section_title
;
Structure prediction by ZEFSAII (Michael W. Deem and Ramdas Pophale) SiO2 
 PCOD8082662
Probable space group: C 2/M
;
_chemical_formula_sum "Si O2"
_cell_formula_units_Z 56
_cell_length_a 26.076216
_cell_length_b 19.075821
_cell_length_c 12.267676
_cell_angle_alpha 90.000000
_cell_angle_beta 30.208811
_cell_angle_gamma 90.000000
_cell_volume 3070.365252
_symmetry_space_group_name_H-M "C 2/M"
_symmetry_group_IT_number 12
_symmetry_cell_setting 'monoclinic'
loop_
_space_group_symop_operation_xyz
x,y,z
-x,y,-z
-x,-y,-z
x,-y,z
1/2+x,1/2+y,z
1/2-x,1/2+y,-z
1/2-x,1/2-y,-z
1/2+x,1/2-y,z
loop_
_atom_site_type_symbol
_atom_site_label
_atom_site_fract_x
_atom_site_fract_y
_atom_site_fract_z
Si Si1 0.236540 0.827936 0.323622
Si Si2 0.015751 0.339556 0.594612
Si Si3 0.222823 0.581579 0.184927
Si Si4 0.536062 0.263529 0.749412
Si Si5 0.811738 0.679560 0.405617
Si Si6 0.678531 0.322307 0.840342
Si Si7 0.687244 0.080191 0.002416
O O1 0.120263 0.824039 0.578743
O O2 0.310280 0.856434 0.288125
O O3 0.266978 0.750419 0.225920
O O4 0.241536 0.880389 0.214216
O O5 0.000000 0.313291 0.500000
O O6 0.119833 0.382455 0.417691
O O7 0.010041 0.271346 0.681016
O O8 0.927469 0.392549 0.791699
O O9 0.222668 0.500000 0.218111
O O10 0.317280 0.622637 0.067431
O O11 0.235635 0.590824 0.032390
O O12 0.575433 0.200987 0.758450
O O13 0.437413 0.303052 0.979697
O O14 0.750000 0.750000 0.500000
O O15 0.742965 0.640245 0.623535
O O16 0.684838 0.000000 0.972442
#
# Coordination Sequence:
#
# PCOD8082662 Si02
#       7
#     8   8   8   8   8   8   8
#     4  10  20  34  54  78 105 142 177 216 260 314
#     4  10  18  31  54  79 105 136 171 215 266 314
#     4  10  20  35  54  77 109 142 177 216 262 317
#     4  10  18  32  53  84 107 128 175 222 261 307
#     4   8  18  32  51  78 104 139 170 213 266 304
#     4  10  18  33  54  79 104 138 173 218 262 310
#     4  10  21  36  53  76 109 144 173 215 270 317
#
# _framework density 18.238872000000001
#
# number of rings (size 3 to 8) (size 9 to 14) (size 15 to 20)
#    0.000    2.571    4.286    0.429    0.000    8.571 
#    0.000    1.429    0.000    2.571    0.000   11.000 
#    0.000    0.000    0.000    0.000    0.000    0.000 
#
# Total GULP energy -346975.807724 kJ/mol
# GULP energy per Si atom -12391.993133 kJ/mol
# Density = 1.819736 g / cm^3
# Si number density = 18.238872 Si / 1000 Ang^3
#
#
#
# Elastic Constant Matrix: (Units=GPa)
#
#
# Indices 1 2 3 4 5 6 
#
# 1 92.8635 44.6132 25.3392 0.0000 3.8124 0.0000
# 2 44.6132 52.1646 21.7574 0.0000 7.3269 0.0000
# 3 25.3392 21.7574 66.4862 0.0000 -6.1852 0.0000
# 4 0.0000 0.0000 0.0000 18.0834 0.0000 3.3138
# 5 3.8124 7.3269 -6.1852 0.0000 28.6841 0.0000
# 6 0.0000 0.0000 0.0000 3.3138 0.0000 16.3482
#
#
#
# Elastic Compliance Matrix: (Units=1/GPa)
#
#
# Indices 1 2 3 4 5 6 
#
# 1 0.018571 -0.015176 -0.002021 0.000000 0.000973 0.000000
# 2 -0.015176 0.036249 -0.006890 0.000000 -0.008728 0.000000
# 3 -0.002021 -0.006890 0.018628 0.000000 0.006045 0.000000
# 4 0.000000 0.000000 0.000000 0.057433 0.000000 -0.011642
# 5 0.000973 -0.008728 0.006045 0.000000 0.038266 0.000000
# 6 0.000000 0.000000 0.000000 -0.011642 0.000000 0.063528
#
#
# Mechanical properties :
#
#
# Convention : Reuss Voigt Hill
#
# Bulk Modulus (GPa) = 39.56761 43.88153 41.72457
# Shear Modulus (GPa) = 17.28456 20.61012 18.94734
#
# Velocity S-wave (km/s) = 3.08178 3.36521 3.22661
# Velocity P-wave (km/s) = 5.86552 6.26188 6.06694
#
# Compressibility (1/GPa) = 0.02527320
#
# Stress axis : x y z
#
# Youngs Moduli (GPa) = 53.84756 27.58668 53.68199
#
# Poissons Ratio (x) = 0.41866 0.10848
# Poissons Ratio (y) = 0.81721 0.36990
# Poissons Ratio (z) = 0.10882 0.19009
#
# Static dielectric constant tensor:
#      x y z
#    x 4.438000 0.000000 0.435150 
#    y 0.000000 3.012620 0.000000 
#    z 0.435150 0.000000 3.631050 
# 
# 
# High freq. dielectric constant tensor:
#      x y z
#    x 1.719630 0.000000 0.006390 
#    y 0.000000 1.657700 0.000000 
#    z 0.006390 0.000000 1.701100 
# 
# From -- ./inp_files/177877.got.cif
#   From: 2010.06.25/outbox.cif.g09.slc.cpg/sg12_89_cif.got.tgz:177877.got - 2010.06.28 00:19:55.
