data_PCOD8082298
_publ_section_title
;
Structure prediction by ZEFSAII (Michael W. Deem and Ramdas Pophale) SiO2 
 PCOD8082298
Probable space group: C 2/M
;
_chemical_formula_sum "Si O2"
_cell_formula_units_Z 64
_cell_length_a 25.070018
_cell_length_b 8.823045
_cell_length_c 33.333973
_cell_angle_alpha 90.000000
_cell_angle_beta 149.339163
_cell_angle_gamma 90.000000
_cell_volume 3760.037125
_symmetry_space_group_name_H-M "C 2/M"
_symmetry_group_IT_number 12
_symmetry_cell_setting 'monoclinic'
loop_
_space_group_symop_operation_xyz
x,y,z
-x,y,-z
-x,-y,-z
x,-y,z
1/2+x,1/2+y,z
1/2-x,1/2+y,-z
1/2-x,1/2-y,-z
1/2+x,1/2-y,z
loop_
_atom_site_type_symbol
_atom_site_label
_atom_site_fract_x
_atom_site_fract_y
_atom_site_fract_z
Si Si1 0.183597 0.679512 0.421479
Si Si2 0.780931 0.178683 0.324514
Si Si3 0.523289 0.822568 0.589786
Si Si4 0.288120 0.177059 0.413201
Si Si5 0.636647 0.674425 0.166811
Si Si6 0.051851 0.329750 0.990177
Si Si7 0.964293 0.679333 0.311722
Si Si8 0.238678 0.825308 0.146697
O O1 0.195227 0.500000 0.431420
O O2 0.250000 0.750000 0.500000
O O3 0.220460 0.738789 0.402765
O O4 0.063043 0.730937 0.349259
O O5 0.894177 0.232393 0.383289
O O6 0.752099 0.258656 0.347451
O O7 0.691130 0.223116 0.235266
O O8 0.782073 0.000000 0.331355
O O9 0.410234 0.790112 0.498299
O O10 0.525604 0.757499 0.636498
O O11 0.552345 0.000000 0.606869
O O12 0.263697 0.000000 0.400190
O O13 0.638316 0.500000 0.181349
O O14 0.516574 0.727949 0.084295
O O15 0.699192 0.698763 0.166260
O O16 0.056303 0.500000 0.976276
O O17 0.169550 0.266148 0.069814
O O18 0.000000 0.323428 0.000000
O O19 0.959144 0.500000 0.312157
O O20 0.857573 0.737642 0.221747
O O21 0.231456 0.000000 0.129622
#
# Coordination Sequence:
#
# PCOD8082298 Si02
#       8
#     8   8   8   8   8   8   8   8
#     4  11  21  36  56  78 103 135 175 222 268 309
#     4  12  24  35  50  77 108 136 172 219 265 309
#     4  10  19  36  55  73 100 140 178 211 257 313
#     4  11  23  39  56  73  99 139 182 221 261 310
#     4  10  18  31  51  72  99 139 177 204 245 309
#     4   9  17  28  43  69 105 135 163 206 256 299
#     4   9  17  32  53  76 102 136 175 212 256 307
#     4   9  16  29  49  71  98 134 175 207 243 306
#
# _framework density 17.021108000000002
#
# number of rings (size 3 to 8) (size 9 to 14) (size 15 to 20)
#    0.000    1.875    2.500    3.000    0.000    4.500 
#    0.000    1.250    0.000    0.000    0.000    0.875 
#    0.000    0.000    0.000    0.000    0.000    0.000 
#
# Total GULP energy -396841.001377 kJ/mol
# GULP energy per Si atom -12401.281293 kJ/mol
# Density = 1.698237 g / cm^3
# Si number density = 17.021108 Si / 1000 Ang^3
#
#
#
# Elastic Constant Matrix: (Units=GPa)
#
#
# Indices 1 2 3 4 5 6 
#
# 1 79.4508 29.4092 37.1475 0.0001 5.2440 0.0003
# 2 29.4092 65.8255 38.7516 -0.0007 9.1862 0.0000
# 3 37.1475 38.7516 107.0591 0.0004 21.7834 0.0002
# 4 0.0001 -0.0007 0.0004 27.1337 0.0001 -1.5579
# 5 5.2440 9.1862 21.7834 0.0001 16.4201 0.0000
# 6 0.0003 0.0000 0.0002 -1.5579 0.0000 23.4168
#
#
#
# Elastic Compliance Matrix: (Units=1/GPa)
#
#
# Indices 1 2 3 4 5 6 
#
# 1 0.016387 -0.005144 -0.004581 0.000000 0.003722 0.000000
# 2 -0.005144 0.020973 -0.005141 0.000001 -0.003270 0.000000
# 3 -0.004581 -0.005141 0.016311 0.000000 -0.017300 0.000000
# 4 0.000000 0.000001 0.000000 0.036996 0.000000 0.002461
# 5 0.003722 -0.003270 -0.017300 0.000000 0.084492 0.000000
# 6 0.000000 0.000000 0.000000 0.002461 0.000000 0.042868
#
#
# Mechanical properties :
#
#
# Convention : Reuss Voigt Hill
#
# Bulk Modulus (GPa) = 41.77450 51.43910 46.60680
# Shear Modulus (GPa) = 19.55121 23.19593 21.37357
#
# Velocity S-wave (km/s) = 3.39284 3.69558 3.54744
# Velocity P-wave (km/s) = 6.32017 6.96392 6.64984
#
# Compressibility (1/GPa) = 0.02393805
#
# Stress axis : x y z
#
# Youngs Moduli (GPa) = 61.02502 47.68097 61.30727
#
# Poissons Ratio (x) = 0.24525 0.28088
# Poissons Ratio (y) = 0.31388 0.31520
# Poissons Ratio (z) = 0.27958 0.24515
#
# Static dielectric constant tensor:
#      x y z
#    x 2.931910 0.000010 0.208600 
#    y 0.000010 3.119940 0.000000 
#    z 0.208600 0.000000 3.372100 
# 
# 
# High freq. dielectric constant tensor:
#      x y z
#    x 1.621450 0.000000 0.006970 
#    y 0.000000 1.656250 0.000000 
#    z 0.006970 0.000000 1.665100 
# 
# From -- ./inp_files/382570.got.cif
#   From: 2010.06.25/outbox.cif.g09.slc.cpg/sg12_192_cif.got.tgz:382570.got - 2010.06.28 00:19:55.
