data_PCOD8082347
_publ_section_title
;
Structure prediction by ZEFSAII (Michael W. Deem and Ramdas Pophale) SiO2 
 PCOD8082347
Probable space group: C 2/M
;
_chemical_formula_sum "Si O2"
_cell_formula_units_Z 48
_cell_length_a 19.269455
_cell_length_b 8.728047
_cell_length_c 22.197363
_cell_angle_alpha 90.000000
_cell_angle_beta 136.434064
_cell_angle_gamma 90.000000
_cell_volume 2572.919237
_symmetry_space_group_name_H-M "C 2/M"
_symmetry_group_IT_number 12
_symmetry_cell_setting 'monoclinic'
loop_
_space_group_symop_operation_xyz
x,y,z
-x,y,-z
-x,-y,-z
x,-y,z
1/2+x,1/2+y,z
1/2-x,1/2+y,-z
1/2-x,1/2-y,-z
1/2+x,1/2-y,z
loop_
_atom_site_type_symbol
_atom_site_label
_atom_site_fract_x
_atom_site_fract_y
_atom_site_fract_z
Si Si1 0.198359 0.181402 0.788828
Si Si2 0.278554 0.679260 0.723482
Si Si3 0.684568 0.180731 0.906040
Si Si4 0.391597 0.675474 0.461862
Si Si5 0.468752 0.320366 0.765946
Si Si6 0.473218 0.320738 0.635023
O O1 0.274224 0.232535 0.784128
O O2 0.229622 0.256027 0.871747
O O3 0.087097 0.243056 0.701403
O O4 0.201063 0.000000 0.798274
O O5 0.276516 0.500000 0.734992
O O6 0.186887 0.719653 0.622156
O O7 0.382769 0.729773 0.758074
O O8 0.568913 0.227352 0.843722
O O9 0.694257 0.000000 0.912630
O O10 0.750000 0.250000 0.000000
O O11 0.500000 0.687939 0.500000
O O12 0.352805 0.500000 0.435666
O O13 0.401944 0.743044 0.536757
O O14 0.494628 0.500000 0.786135
O O15 0.429460 0.280887 0.673473
O O16 0.480369 0.500000 0.627677
#
# Coordination Sequence:
#
# PCOD8082347 Si02
#       6
#     8   8   8   8   8   8
#     4  10  19  36  59  81 110 148 187 227 278 334
#     4  11  22  34  51  81 117 150 188 237 284 323
#     4  11  22  39  64  91 113 139 179 223 271 334
#     4  10  18  31  51  76 105 148 201 241 277 327
#     4   9  20  38  56  78 114 153 185 228 284 332
#     4   8  15  31  53  73 100 145 194 232 274 325
#
# _framework density 18.655851999999999
#
# number of rings (size 3 to 8) (size 9 to 14) (size 15 to 20)
#    0.000    2.167    1.667    3.500    0.000    2.333 
#    0.000    1.667    0.000    5.000    0.000    0.000 
#    0.000    0.000    0.000    0.000    0.000    0.000 
#
# Total GULP energy -297565.381097 kJ/mol
# GULP energy per Si atom -12398.557546 kJ/mol
# Density = 1.861339 g / cm^3
# Si number density = 18.655852 Si / 1000 Ang^3
#
#
#
# Elastic Constant Matrix: (Units=GPa)
#
#
# Indices 1 2 3 4 5 6 
#
# 1 136.9459 47.7427 59.4220 0.0000 -23.3536 0.0000
# 2 47.7427 82.4153 42.1645 0.0000 -8.2408 0.0000
# 3 59.4220 42.1645 127.0568 0.0000 -27.6296 0.0000
# 4 0.0000 0.0000 0.0000 30.1385 0.0000 -2.5148
# 5 -23.3536 -8.2408 -27.6296 0.0000 24.5675 0.0000
# 6 0.0000 0.0000 0.0000 -2.5148 0.0000 27.3858
#
#
#
# Elastic Compliance Matrix: (Units=1/GPa)
#
#
# Indices 1 2 3 4 5 6 
#
# 1 0.010944 -0.004569 -0.002215 0.000000 0.006380 0.000000
# 2 -0.004569 0.016532 -0.004088 0.000000 -0.003395 0.000000
# 3 -0.002215 -0.004088 0.012585 0.000000 0.010677 0.000000
# 4 0.000000 0.000000 0.000000 0.033436 0.000000 0.003070
# 5 0.006380 -0.003395 0.010677 0.000000 0.057637 0.000000
# 6 0.000000 0.000000 0.000000 0.003070 0.000000 0.036797
#
#
# Mechanical properties :
#
#
# Convention : Reuss Voigt Hill
#
# Bulk Modulus (GPa) = 54.59079 71.67514 63.13296
# Shear Modulus (GPa) = 25.53883 29.55762 27.54822
#
# Velocity S-wave (km/s) = 3.70394 3.98472 3.84689
# Velocity P-wave (km/s) = 6.90056 7.72488 7.32433
#
# Compressibility (1/GPa) = 0.01831811
#
# Stress axis : x y z
#
# Youngs Moduli (GPa) = 91.37526 60.48788 79.46227
#
# Poissons Ratio (x) = 0.27635 0.17599
# Poissons Ratio (y) = 0.41747 0.32483
# Poissons Ratio (z) = 0.20237 0.24727
#
# Static dielectric constant tensor:
#      x y z
#    x 3.465320 0.000000 -0.152580 
#    y 0.000000 3.286600 0.000000 
#    z -0.152580 0.000000 3.443130 
# 
# 
# High freq. dielectric constant tensor:
#      x y z
#    x 1.723690 0.000000 -0.020460 
#    y 0.000000 1.712260 0.000000 
#    z -0.020460 0.000000 1.717610 
# 
# From -- ./inp_files/273710.got.cif
#   From: 2010.06.25/outbox.cif.g09.slc.cpg/sg12_137_cif.got.tgz:273710.got - 2010.06.28 00:19:55.
