data_PCOD8082032
_publ_section_title
;
Structure prediction by ZEFSAII (Michael W. Deem and Ramdas Pophale) SiO2 
 PCOD8082032
Probable space group: C 2/M
;
_chemical_formula_sum "Si O2"
_cell_formula_units_Z 52
_cell_length_a 21.348620
_cell_length_b 32.795503
_cell_length_c 5.436489
_cell_angle_alpha 90.000000
_cell_angle_beta 109.522086
_cell_angle_gamma 90.000000
_cell_volume 3587.482982
_symmetry_space_group_name_H-M "C 2/M"
_symmetry_group_IT_number 12
_symmetry_cell_setting 'monoclinic'
loop_
_space_group_symop_operation_xyz
x,y,z
-x,y,-z
-x,-y,-z
x,-y,z
1/2+x,1/2+y,z
1/2-x,1/2+y,-z
1/2-x,1/2-y,-z
1/2+x,1/2-y,z
loop_
_atom_site_type_symbol
_atom_site_label
_atom_site_fract_x
_atom_site_fract_y
_atom_site_fract_z
Si Si1 0.385262 0.329070 0.540059
Si Si2 0.500000 0.688540 0.000000
Si Si3 0.579180 0.409905 0.607316
Si Si4 0.251114 0.200827 0.495739
Si Si5 0.078750 0.954202 0.106133
Si Si6 0.301333 0.212182 0.061916
Si Si7 0.566710 0.744331 0.704118
O O1 0.383169 0.365875 0.341454
O O2 0.319251 0.322450 0.613307
O O3 0.397777 0.284840 0.443659
O O4 0.450388 0.340993 0.787378
O O5 0.547956 0.717406 0.910161
O O6 0.500000 0.404975 0.500000
O O7 0.603645 0.433248 0.392139
O O8 0.603767 0.431674 0.890135
O O9 0.250000 0.250000 0.500000
O O10 0.290106 0.186812 0.300012
O O11 0.286040 0.185941 0.795823
O O12 0.107748 0.000000 0.139367
O O13 0.000000 0.955689 0.000000
O O14 0.379243 0.222700 0.145033
O O15 0.250000 0.250000 0.000000
O O16 0.500000 0.764641 0.500000
#
# Coordination Sequence:
#
# PCOD8082032 Si02
#       7
#     8   4   8   8   8   8   8
#     4  11  21  29  42  61  82 105 133 172 219 263
#     4  10  20  28  40  54  83 106 122 168 222 268
#     4  10  20  29  43  62  82 102 128 170 217 254
#     4  10  19  31  46  56  75 106 140 161 199 259
#     4   9  18  32  46  58  76 104 134 160 200 261
#     4  10  18  31  45  56  73 105 137 164 198 261
#     4  10  20  29  41  60  80 103 134 173 219 256
#
# _framework density 14.494842999999999
#
# number of rings (size 3 to 8) (size 9 to 14) (size 15 to 20)
#    0.000    2.000    3.077    3.692    7.538    1.846 
#    0.000    0.000    0.000    0.000    0.000    0.000 
#    0.000    0.000    0.000    0.000    0.000    0.000 
#
# Total GULP energy -322135.973211 kJ/mol
# GULP energy per Si atom -12389.845123 kJ/mol
# Density = 1.446185 g / cm^3
# Si number density = 14.494843 Si / 1000 Ang^3
#
#
#
# Elastic Constant Matrix: (Units=GPa)
#
#
# Indices 1 2 3 4 5 6 
#
# 1 68.6361 26.1464 35.9837 0.0000 -1.6017 0.0000
# 2 26.1464 38.3985 19.4346 0.0000 1.4421 0.0000
# 3 35.9837 19.4346 105.3742 0.0000 -17.1720 0.0000
# 4 0.0000 0.0000 0.0000 25.4707 0.0000 16.5355
# 5 -1.6017 1.4421 -17.1720 0.0000 22.3272 0.0000
# 6 0.0000 0.0000 0.0000 16.5355 0.0000 56.1658
#
#
#
# Elastic Compliance Matrix: (Units=1/GPa)
#
#
# Indices 1 2 3 4 5 6 
#
# 1 0.022092 -0.012121 -0.005628 0.000000 -0.001961 0.000000
# 2 -0.012121 0.036300 -0.003521 0.000000 -0.005922 0.000000
# 3 -0.005628 -0.003521 0.013757 0.000000 0.010404 0.000000
# 4 0.000000 0.000000 0.000000 0.048538 0.000000 -0.014290
# 5 -0.001961 -0.005922 0.010404 0.000000 0.053032 0.000000
# 6 0.000000 0.000000 0.000000 -0.014290 0.000000 0.022011
#
#
# Mechanical properties :
#
#
# Convention : Reuss Voigt Hill
#
# Bulk Modulus (GPa) = 33.77314 41.72646 37.74980
# Shear Modulus (GPa) = 20.14993 29.51566 24.83280
#
# Velocity S-wave (km/s) = 3.73251 4.51742 4.14359
# Velocity P-wave (km/s) = 6.47504 7.48726 6.99947
#
# Compressibility (1/GPa) = 0.02960933
#
# Stress axis : x y z
#
# Youngs Moduli (GPa) = 45.26585 27.54784 72.69131
#
# Poissons Ratio (x) = 0.33390 0.40911
# Poissons Ratio (y) = 0.54865 0.25596
# Poissons Ratio (z) = 0.25476 0.09700
#
# Static dielectric constant tensor:
#      x y z
#    x 2.007470 0.000000 0.051480 
#    y 0.000000 2.551540 0.000000 
#    z 0.051480 0.000000 3.332860 
# 
# 
# High freq. dielectric constant tensor:
#      x y z
#    x 1.528210 0.000000 -0.025930 
#    y 0.000000 1.493160 0.000000 
#    z -0.025930 0.000000 1.574940 
# 
# From -- ./inp_files/17964.got.cif
#   From: 2010.06.25/outbox.cif.g09.slc.cpg/sg12_9_cif.got.tgz:17964.got - 2010.06.28 00:19:55.
