data_PCOD8082075
_publ_section_title
;
Structure prediction by ZEFSAII (Michael W. Deem and Ramdas Pophale) SiO2 
 PCOD8082075
Probable space group: C 2/M
;
_chemical_formula_sum "Si O2"
_cell_formula_units_Z 56
_cell_length_a 17.780290
_cell_length_b 14.335713
_cell_length_c 12.749463
_cell_angle_alpha 90.000000
_cell_angle_beta 84.720390
_cell_angle_gamma 90.000000
_cell_volume 3235.963544
_symmetry_space_group_name_H-M "C 2/M"
_symmetry_group_IT_number 12
_symmetry_cell_setting 'monoclinic'
loop_
_space_group_symop_operation_xyz
x,y,z
-x,y,-z
-x,-y,-z
x,-y,z
1/2+x,1/2+y,z
1/2-x,1/2+y,-z
1/2-x,1/2-y,-z
1/2+x,1/2-y,z
loop_
_atom_site_type_symbol
_atom_site_label
_atom_site_fract_x
_atom_site_fract_y
_atom_site_fract_z
Si Si1 0.821296 0.104148 0.396281
Si Si2 0.652913 0.107978 0.479120
Si Si3 0.885104 0.286837 0.313222
Si Si4 0.424896 0.604362 0.575047
Si Si5 0.437824 0.212658 0.680597
Si Si6 0.420526 0.105042 0.881214
Si Si7 0.598879 0.104720 0.886886
O O1 0.732070 0.120487 0.409550
O O2 0.861151 0.178333 0.314716
O O3 0.852574 0.115923 0.510067
O O4 0.840816 0.000000 0.352242
O O5 0.659415 0.158445 0.590380
O O6 0.588242 0.154997 0.417470
O O7 0.632638 0.000000 0.499636
O O8 0.861619 0.327714 0.202683
O O9 0.973145 0.300628 0.322419
O O10 0.500000 0.628361 0.500000
O O11 0.429652 0.500000 0.621892
O O12 0.417221 0.678064 0.670597
O O13 0.396317 0.174481 0.790589
O O14 0.509745 0.106530 0.883051
O O15 0.394333 0.000000 0.855474
O O16 0.382072 0.136887 0.996129
O O17 0.629236 0.000000 0.864808
#
# Coordination Sequence:
#
# PCOD8082075 Si02
#       7
#     8   8   8   8   8   8   8
#     4  10  21  35  48  66  97 136 168 191 230 287
#     4  11  22  32  45  72 104 130 153 190 246 297
#     4  11  19  30  49  73  98 124 161 201 238 280
#     4  10  18  31  48  68  94 126 167 202 231 277
#     4  11  19  29  49  75  97 125 155 200 244 283
#     4   8  15  28  45  68  98 127 156 189 237 292
#     4   8  15  28  46  68  95 127 158 193 234 284
#
# _framework density 17.305510999999999
#
# number of rings (size 3 to 8) (size 9 to 14) (size 15 to 20)
#    0.000    2.143    2.857    2.571    0.000    2.286 
#    0.000    0.000    0.000    1.714    0.000    4.000 
#    0.000    0.000    0.000    0.000    0.000    0.000 
#
# Total GULP energy -347126.279599 kJ/mol
# GULP energy per Si atom -12397.367129 kJ/mol
# Density = 1.726612 g / cm^3
# Si number density = 17.305511 Si / 1000 Ang^3
#
#
#
# Elastic Constant Matrix: (Units=GPa)
#
#
# Indices 1 2 3 4 5 6 
#
# 1 35.6919 21.6866 9.3007 0.0000 -5.3814 0.0000
# 2 21.6866 144.7243 83.4121 0.0000 5.3053 0.0000
# 3 9.3007 83.4121 124.7116 0.0000 6.2422 0.0000
# 4 0.0000 0.0000 0.0000 28.8542 0.0000 3.3257
# 5 -5.3814 5.3053 6.2422 0.0000 9.6905 0.0000
# 6 0.0000 0.0000 0.0000 3.3257 0.0000 20.3351
#
#
#
# Elastic Compliance Matrix: (Units=1/GPa)
#
#
# Indices 1 2 3 4 5 6 
#
# 1 0.035201 -0.006410 0.000525 0.000000 0.022719 0.000000
# 2 -0.006410 0.012429 -0.007560 0.000000 -0.005495 0.000000
# 3 0.000525 -0.007560 0.013241 0.000000 -0.004099 0.000000
# 4 0.000000 0.000000 0.000000 0.035323 0.000000 -0.005777
# 5 0.022719 -0.005495 -0.004099 0.000000 0.121459 0.000000
# 6 0.000000 0.000000 0.000000 -0.005777 0.000000 0.050121
#
#
# Mechanical properties :
#
#
# Convention : Reuss Voigt Hill
#
# Bulk Modulus (GPa) = 29.42847 59.32517 44.37682
# Shear Modulus (GPa) = 16.34041 24.49118 20.41579
#
# Velocity S-wave (km/s) = 3.07617 3.76603 3.43844
# Velocity P-wave (km/s) = 5.44603 7.29836 6.43915
#
# Compressibility (1/GPa) = 0.03398069
#
# Stress axis : x y z
#
# Youngs Moduli (GPa) = 28.40818 80.45852 75.52427
#
# Poissons Ratio (x) = 0.51576 -0.03965
# Poissons Ratio (y) = 0.18210 0.57095
# Poissons Ratio (z) = -0.01492 0.60825
#
# Static dielectric constant tensor:
#      x y z
#    x 2.976280 0.000000 0.103410 
#    y 0.000000 3.465610 0.000000 
#    z 0.103410 0.000000 3.364240 
# 
# 
# High freq. dielectric constant tensor:
#      x y z
#    x 1.641620 0.000000 0.006350 
#    y 0.000000 1.677020 0.000000 
#    z 0.006350 0.000000 1.642720 
# 
# From -- ./inp_files/155991.got.cif
#   From: 2010.06.25/outbox.cif.g09.slc.cpg/sg12_78_cif.got.tgz:155991.got - 2010.06.28 00:19:55.
