data_PCOD8082680
_publ_section_title
;
Structure prediction by ZEFSAII (Michael W. Deem and Ramdas Pophale) SiO2 
 PCOD8082680
Probable space group: C 2/M
;
_chemical_formula_sum "Si O2"
_cell_formula_units_Z 48
_cell_length_a 26.881012
_cell_length_b 13.127599
_cell_length_c 18.817501
_cell_angle_alpha 90.000000
_cell_angle_beta 154.397609
_cell_angle_gamma 90.000000
_cell_volume 2869.463017
_symmetry_space_group_name_H-M "C 2/M"
_symmetry_group_IT_number 12
_symmetry_cell_setting 'monoclinic'
loop_
_space_group_symop_operation_xyz
x,y,z
-x,y,-z
-x,-y,-z
x,-y,z
1/2+x,1/2+y,z
1/2-x,1/2+y,-z
1/2-x,1/2-y,-z
1/2+x,1/2-y,z
loop_
_atom_site_type_symbol
_atom_site_label
_atom_site_fract_x
_atom_site_fract_y
_atom_site_fract_z
Si Si1 0.116784 0.385705 0.617364
Si Si2 0.729193 0.886009 0.906015
Si Si3 0.918914 0.619523 0.686232
Si Si4 0.069293 0.249225 0.793309
Si Si5 0.825758 0.739183 0.444694
Si Si6 0.886796 0.618706 0.809943
O O1 0.085470 0.500000 0.551327
O O2 0.215375 0.386346 0.803769
O O3 0.172098 0.328210 0.622848
O O4 0.000000 0.336313 0.500000
O O5 0.632798 0.813630 0.814742
O O6 0.717603 0.000000 0.922380
O O7 0.856485 0.845469 0.085417
O O8 0.925597 0.500000 0.680607
O O9 0.817177 0.667591 0.504951
O O10 0.899824 0.643797 0.743923
O O11 0.040090 0.672168 0.820033
O O12 0.949646 0.203044 0.608169
O O13 0.722146 0.817930 0.303025
O O14 0.861344 0.500000 0.790290
O O15 0.000000 0.652076 0.000000
#
# Coordination Sequence:
#
# PCOD8082680 Si02
#       6
#     8   8   8   8   8   8
#     4  10  18  31  54  80 106 135 167 208 256 305
#     4  10  19  33  50  79 114 138 170 209 252 307
#     4   9  18  35  55  76 100 132 177 216 256 305
#     4   9  20  31  53  81 101 142 172 203 259 298
#     4  10  20  32  57  78 102 132 174 215 255 306
#     4  10  22  38  55  74 100 137 175 216 261 307
#
# _framework density 16.727868999999998
#
# number of rings (size 3 to 8) (size 9 to 14) (size 15 to 20)
#    1.000    1.333    1.667    1.500    2.333    0.667 
#    0.000    0.000    0.000    2.500    0.000    0.000 
#    0.000    0.000    0.000    0.000    0.000    0.000 
#
# Total GULP energy -297374.841308 kJ/mol
# GULP energy per Si atom -12390.618388 kJ/mol
# Density = 1.668980 g / cm^3
# Si number density = 16.727869 Si / 1000 Ang^3
#
#
#
# Elastic Constant Matrix: (Units=GPa)
#
#
# Indices 1 2 3 4 5 6 
#
# 1 90.6253 44.9514 51.8067 0.0000 -5.2177 0.0000
# 2 44.9514 68.6288 59.6551 0.0000 0.1747 0.0000
# 3 51.8067 59.6551 119.1930 0.0000 7.8263 0.0000
# 4 0.0000 0.0000 0.0000 26.2946 0.0000 2.0083
# 5 -5.2177 0.1747 7.8263 0.0000 27.5936 0.0000
# 6 0.0000 0.0000 0.0000 2.0083 0.0000 27.3365
#
#
#
# Elastic Compliance Matrix: (Units=1/GPa)
#
#
# Indices 1 2 3 4 5 6 
#
# 1 0.017528 -0.008170 -0.003821 0.000000 0.004450 0.000000
# 2 -0.008170 0.029949 -0.011539 0.000000 0.001538 0.000000
# 3 -0.003821 -0.011539 0.016170 0.000000 -0.005236 0.000000
# 4 0.000000 0.000000 0.000000 0.038245 0.000000 -0.002810
# 5 0.004450 0.001538 -0.005236 0.000000 0.038557 0.000000
# 6 0.000000 0.000000 0.000000 -0.002810 0.000000 0.036788
#
#
# Mechanical properties :
#
#
# Convention : Reuss Voigt Hill
#
# Bulk Modulus (GPa) = 60.29531 65.69707 62.99619
# Shear Modulus (GPa) = 21.75563 24.38051 23.06807
#
# Velocity S-wave (km/s) = 3.61024 3.82184 3.71754
# Velocity P-wave (km/s) = 7.31447 7.67037 7.49453
#
# Compressibility (1/GPa) = 0.01658504
#
# Stress axis : x y z
#
# Youngs Moduli (GPa) = 57.05252 33.39032 61.84394
#
# Poissons Ratio (x) = 0.27280 0.23634
# Poissons Ratio (y) = 0.46612 0.71362
# Poissons Ratio (z) = 0.21802 0.38529
#
# Static dielectric constant tensor:
#      x y z
#    x 3.057520 0.000000 -0.079350 
#    y 0.000000 2.984220 0.000000 
#    z -0.079350 0.000000 3.140000 
# 
# 
# High freq. dielectric constant tensor:
#      x y z
#    x 1.642990 0.000000 -0.010240 
#    y 0.000000 1.630160 0.000000 
#    z -0.010240 0.000000 1.642470 
# 
# From -- ./inp_files/292937.got.cif
#   From: 2010.06.25/outbox.cif.g09.slc.cpg/sg12_147_cif.got.tgz:292937.got - 2010.06.28 00:19:55.
