data_PCOD8082031
_publ_section_title
;
Structure prediction by ZEFSAII (Michael W. Deem and Ramdas Pophale) SiO2 
 PCOD8082031
Probable space group: C 2/M
;
_chemical_formula_sum "Si O2"
_cell_formula_units_Z 64
_cell_length_a 12.250908
_cell_length_b 23.712852
_cell_length_c 14.733296
_cell_angle_alpha 90.000000
_cell_angle_beta 62.543227
_cell_angle_gamma 90.000000
_cell_volume 3797.968135
_symmetry_space_group_name_H-M "C 2/M"
_symmetry_group_IT_number 12
_symmetry_cell_setting 'monoclinic'
loop_
_space_group_symop_operation_xyz
x,y,z
-x,y,-z
-x,-y,-z
x,-y,z
1/2+x,1/2+y,z
1/2-x,1/2+y,-z
1/2-x,1/2-y,-z
1/2+x,1/2-y,z
loop_
_atom_site_type_symbol
_atom_site_label
_atom_site_fract_x
_atom_site_fract_y
_atom_site_fract_z
Si Si1 0.179571 0.777435 0.279114
Si Si2 0.439463 0.334328 0.843884
Si Si3 0.989723 0.435191 0.898781
Si Si4 0.206776 0.836031 0.790681
Si Si5 0.067537 0.720880 0.066000
Si Si6 0.251382 0.373843 0.032045
Si Si7 0.099753 0.340915 0.736580
Si Si8 0.045378 0.673564 0.384296
O O1 0.112794 0.817013 0.232838
O O2 0.273333 0.731541 0.196762
O O3 0.259197 0.818857 0.313406
O O4 0.074691 0.741388 0.372722
O O5 0.584145 0.347777 0.778989
O O6 0.415445 0.287522 0.931754
O O7 0.360295 0.386511 0.916740
O O8 0.023621 0.500000 0.869668
O O9 0.848252 0.423755 0.926608
O O10 0.082366 0.399102 0.799780
O O11 0.000000 0.417524 0.000000
O O12 0.192522 0.869435 0.889324
O O13 0.326192 0.858447 0.689149
O O14 0.192157 0.685465 0.022184
O O15 0.989940 0.705106 0.185425
O O16 0.000000 0.703675 0.000000
O O17 0.059683 0.345415 0.646819
O O18 0.000000 0.654462 0.500000
#
# Coordination Sequence:
#
# PCOD8082031 Si02
#       8
#     8   8   8   8   8   8   8   8
#     4  10  18  31  44  67 104 134 171 204 240 300
#     4  12  19  27  42  70 104 135 167 199 236 305
#     4  10  20  35  53  75 102 133 169 212 260 301
#     4  10  19  31  42  69 102 136 171 202 239 300
#     4  11  16  24  40  65  98 127 155 191 235 284
#     4  11  19  28  44  69  99 134 162 203 246 293
#     4  11  18  34  49  72 100 132 173 209 249 295
#     4  10  20  34  50  69 101 142 173 208 253 296
#
# _framework density 16.851116000000001
#
# number of rings (size 3 to 8) (size 9 to 14) (size 15 to 20)
#    0.750    0.625    6.250    4.500    0.000    0.500 
#    0.000    0.000    0.000    1.875    0.000    0.000 
#    0.000    0.500    0.000    0.125    0.000    0.000 
#
# Total GULP energy -396507.382530 kJ/mol
# GULP energy per Si atom -12390.855704 kJ/mol
# Density = 1.681276 g / cm^3
# Si number density = 16.851116 Si / 1000 Ang^3
#
#
#
# Elastic Constant Matrix: (Units=GPa)
#
#
# Indices 1 2 3 4 5 6 
#
# 1 104.4111 6.5379 30.1407 0.0000 11.9654 0.0000
# 2 6.5379 42.7767 5.2091 0.0000 4.2514 0.0000
# 3 30.1407 5.2091 75.3468 0.0000 16.0694 0.0000
# 4 0.0000 0.0000 0.0000 7.2680 0.0000 -2.1246
# 5 11.9654 4.2514 16.0694 0.0000 23.4482 0.0000
# 6 0.0000 0.0000 0.0000 -2.1246 0.0000 10.8472
#
#
#
# Elastic Compliance Matrix: (Units=1/GPa)
#
#
# Indices 1 2 3 4 5 6 
#
# 1 0.011048 -0.000945 -0.003734 0.000000 -0.002907 0.000000
# 2 -0.000945 0.023934 -0.000532 0.000000 -0.003493 0.000000
# 3 -0.003734 -0.000532 0.016836 0.000000 -0.009536 0.000000
# 4 0.000000 0.000000 0.000000 0.145945 0.000000 0.028586
# 5 -0.002907 -0.003493 -0.009536 0.000000 0.051299 0.000000
# 6 0.000000 0.000000 0.000000 0.028586 0.000000 0.097789
#
#
# Mechanical properties :
#
#
# Convention : Reuss Voigt Hill
#
# Bulk Modulus (GPa) = 24.15679 34.03446 29.09562
# Shear Modulus (GPa) = 13.47451 20.35582 16.91516
#
# Velocity S-wave (km/s) = 2.83083 3.47937 3.17172
# Velocity P-wave (km/s) = 5.00513 6.03178 5.54228
#
# Compressibility (1/GPa) = 0.04139623
#
# Stress axis : x y z
#
# Youngs Moduli (GPa) = 90.51593 41.78242 59.39565
#
# Poissons Ratio (x) = 0.03948 0.22179
# Poissons Ratio (y) = 0.08553 0.03158
# Poissons Ratio (z) = 0.33799 0.02222
#
# Static dielectric constant tensor:
#      x y z
#    x 3.348030 0.000000 0.003300 
#    y 0.000000 2.670660 0.000000 
#    z 0.003300 0.000000 2.776290 
# 
# 
# High freq. dielectric constant tensor:
#      x y z
#    x 1.668620 0.000000 0.007030 
#    y 0.000000 1.585510 0.000000 
#    z 0.007030 0.000000 1.617520 
# 
# From -- ./inp_files/208843.got.cif
#   From: 2010.06.25/outbox.cif.g09.slc.cpg/sg12_105_cif.got.tgz:208843.got - 2010.06.28 00:19:55.
