data_PCOD8082269
_publ_section_title
;
Structure prediction by ZEFSAII (Michael W. Deem and Ramdas Pophale) SiO2 
 PCOD8082269
Probable space group: C 2/M
;
_chemical_formula_sum "Si O2"
_cell_formula_units_Z 48
_cell_length_a 11.766267
_cell_length_b 25.256637
_cell_length_c 14.921189
_cell_angle_alpha 90.000000
_cell_angle_beta 151.142880
_cell_angle_gamma 90.000000
_cell_volume 2140.076583
_symmetry_space_group_name_H-M "C 2/M"
_symmetry_group_IT_number 12
_symmetry_cell_setting 'monoclinic'
loop_
_space_group_symop_operation_xyz
x,y,z
-x,y,-z
-x,-y,-z
x,-y,z
1/2+x,1/2+y,z
1/2-x,1/2+y,-z
1/2-x,1/2-y,-z
1/2+x,1/2-y,z
loop_
_atom_site_type_symbol
_atom_site_label
_atom_site_fract_x
_atom_site_fract_y
_atom_site_fract_z
Si Si1 0.194622 0.439853 0.196297
Si Si2 0.662952 0.438716 0.437459
Si Si3 0.926983 0.592005 0.179313
Si Si4 0.088692 0.940709 0.180420
Si Si5 0.791241 0.333296 0.286138
Si Si6 0.221104 0.802357 0.037303
O O1 0.222116 0.500000 0.181251
O O2 0.455095 0.415871 0.359464
O O3 0.100439 0.439387 0.232176
O O4 0.000000 0.410713 0.000000
O O5 0.721208 0.500000 0.496438
O O6 0.581785 0.428991 0.280660
O O7 0.901841 0.404210 0.615601
O O8 0.870391 0.649488 0.097638
O O9 0.684634 0.562471 0.039428
O O10 0.254430 0.897072 0.245656
O O11 0.184037 0.000000 0.224481
O O12 0.809417 0.302579 0.202892
O O13 0.000000 0.319724 0.500000
O O14 0.552164 0.313588 0.165445
O O15 0.250000 0.750000 0.000000
#
# Coordination Sequence:
#
# PCOD8082269 Si02
#       6
#     8   8   8   8   8   8
#     4  10  18  31  50  81 128 170 201 242 294 352
#     4  10  19  31  53  87 130 172 207 242 291 363
#     4  11  20  35  57  83 118 165 213 255 305 362
#     4  10  20  35  58  91 129 167 202 243 298 368
#     4  10  22  44  69  94 126 161 202 254 315 375
#     4  10  24  46  65  90 120 154 206 270 321 363
#
# _framework density 22.429103000000001
#
# number of rings (size 3 to 8) (size 9 to 14) (size 15 to 20)
#    0.000    1.833    1.667    3.000    0.000    2.333 
#    3.000   10.000    0.000    0.000    0.000    0.000 
#    0.000    0.000    0.000    0.000    0.000    0.500 
#
# Total GULP energy -297324.113668 kJ/mol
# GULP energy per Si atom -12388.504736 kJ/mol
# Density = 2.237805 g / cm^3
# Si number density = 22.429103 Si / 1000 Ang^3
#
#
#
# Elastic Constant Matrix: (Units=GPa)
#
#
# Indices 1 2 3 4 5 6 
#
# 1 56.7468 25.6079 37.2998 -0.0016 -1.5708 -0.0010
# 2 25.6079 119.0456 33.9788 -0.0001 -3.3414 -0.0002
# 3 37.2998 33.9788 183.3833 -0.0026 3.5451 -0.0019
# 4 -0.0016 -0.0001 -0.0026 21.6129 -0.0015 -12.1821
# 5 -1.5708 -3.3414 3.5451 -0.0015 33.3365 -0.0009
# 6 -0.0010 -0.0002 -0.0019 -12.1821 -0.0009 29.8018
#
#
#
# Elastic Compliance Matrix: (Units=1/GPa)
#
#
# Indices 1 2 3 4 5 6 
#
# 1 0.021749 -0.003569 -0.003783 0.000002 0.001069 0.000001
# 2 -0.003569 0.009493 -0.001050 0.000000 0.000895 0.000000
# 3 -0.003783 -0.001050 0.006436 0.000001 -0.000968 0.000001
# 4 0.000002 0.000000 0.000001 0.060121 0.000003 0.024576
# 5 0.001069 0.000895 -0.000968 0.000003 0.030240 0.000002
# 6 0.000001 0.000000 0.000001 0.024576 0.000002 0.043601
#
#
# Mechanical properties :
#
#
# Convention : Reuss Voigt Hill
#
# Bulk Modulus (GPa) = 47.90817 61.43873 54.67345
# Shear Modulus (GPa) = 25.58844 34.43620 30.01232
#
# Velocity S-wave (km/s) = 3.38132 3.92259 3.66197
# Velocity P-wave (km/s) = 6.05398 6.92585 6.50454
#
# Compressibility (1/GPa) = 0.02087327
#
# Stress axis : x y z
#
# Youngs Moduli (GPa) = 45.97967 105.34416 155.37925
#
# Poissons Ratio (x) = 0.37593 0.58782
# Poissons Ratio (y) = 0.16408 0.16320
# Poissons Ratio (z) = 0.17395 0.11065
#
# Static dielectric constant tensor:
#      x y z
#    x 3.964140 0.000000 0.004140 
#    y 0.000000 3.710600 0.000000 
#    z 0.004140 0.000000 4.331540 
# 
# 
# High freq. dielectric constant tensor:
#      x y z
#    x 1.892550 0.000000 -0.000630 
#    y 0.000000 1.826790 0.000000 
#    z -0.000630 0.000000 1.909550 
# 
# From -- ./inp_files/209450.got.cif
#   From: 2010.06.25/outbox.cif.g09.slc.cpg/sg12_105_cif.got.tgz:209450.got - 2010.06.28 00:19:55.
