data_PCOD8082912
_publ_section_title
;
Structure prediction by ZEFSAII (Michael W. Deem and Ramdas Pophale) SiO2 
 PCOD8082912
Probable space group: C 2/M
;
_chemical_formula_sum "Si O2"
_cell_formula_units_Z 48
_cell_length_a 5.234911
_cell_length_b 16.959096
_cell_length_c 28.048504
_cell_angle_alpha 90.000000
_cell_angle_beta 89.632790
_cell_angle_gamma 90.000000
_cell_volume 2490.077042
_symmetry_space_group_name_H-M "C 2/M"
_symmetry_group_IT_number 12
_symmetry_cell_setting 'monoclinic'
loop_
_space_group_symop_operation_xyz
x,y,z
-x,y,-z
-x,-y,-z
x,-y,z
1/2+x,1/2+y,z
1/2-x,1/2+y,-z
1/2-x,1/2-y,-z
1/2+x,1/2-y,z
loop_
_atom_site_type_symbol
_atom_site_label
_atom_site_fract_x
_atom_site_fract_y
_atom_site_fract_z
Si Si1 0.065272 0.799324 0.548746
Si Si2 0.500624 0.668010 0.944296
Si Si3 0.997993 0.657834 0.096376
Si Si4 0.978242 0.801240 0.651578
Si Si5 0.496186 0.907350 0.200070
Si Si6 0.994869 0.092078 0.258461
O O1 0.862007 0.726253 0.547333
O O2 0.009775 0.842803 0.599222
O O3 0.000000 0.849156 0.500000
O O4 0.750739 0.618829 0.928168
O O5 0.500168 0.749252 0.914783
O O6 0.250667 0.618953 0.928554
O O7 0.500000 0.687006 0.000000
O O8 0.994499 0.643382 0.152326
O O9 0.695567 0.765258 0.657372
O O10 0.016661 0.867837 0.690474
O O11 0.747630 0.882692 0.228658
O O12 0.248264 0.881835 0.230139
O O13 0.493536 0.000000 0.187718
O O14 0.995854 0.000000 0.268393
#
# Coordination Sequence:
#
# PCOD8082912 Si02
#       6
#     8   8   8   8   8   8
#     4   8  14  25  44  68  99 132 164 204 258 311
#     4  10  19  33  53  74 101 128 150 192 249 303
#     4  10  18  32  50  74  94 123 161 194 238 286
#     4  10  19  33  50  79 105 131 173 224 261 291
#     4  10  21  37  54  70  97 135 175 205 238 297
#     4  10  21  38  53  70 101 146 175 203 260 318
#
# _framework density 19.276512
#
# number of rings (size 3 to 8) (size 9 to 14) (size 15 to 20)
#    0.000    2.333    0.000    4.500    0.000    0.000 
#   18.000    0.000    0.000    6.000    0.000    0.000 
#    0.000   17.333    0.000    0.000    0.000    2.667 
#
# Total GULP energy -297356.925612 kJ/mol
# GULP energy per Si atom -12389.871900 kJ/mol
# Density = 1.923264 g / cm^3
# Si number density = 19.276512 Si / 1000 Ang^3
#
#
#
# Elastic Constant Matrix: (Units=GPa)
#
#
# Indices 1 2 3 4 5 6 
#
# 1 175.5813 14.4469 62.0923 0.0000 2.9909 0.0000
# 2 14.4469 21.2423 50.0143 0.0000 0.6585 0.0000
# 3 62.0923 50.0143 213.3240 0.0000 6.3141 0.0000
# 4 0.0000 0.0000 0.0000 -0.3036 0.0000 -1.4973
# 5 2.9909 0.6585 6.3141 0.0000 29.9097 0.0000
# 6 0.0000 0.0000 0.0000 -1.4973 0.0000 3.1582
#
#
#
# Elastic Compliance Matrix: (Units=1/GPa)
#
#
# Indices 1 2 3 4 5 6 
#
# 1 0.006351 0.000053 -0.001854 0.000000 -0.000245 0.000000
# 2 0.000053 0.105335 -0.024797 0.000000 0.002910 0.000000
# 3 -0.001854 -0.024797 0.011089 0.000000 -0.001610 0.000000
# 4 0.000000 0.000000 0.000000 -0.986709 0.000000 -0.467780
# 5 -0.000245 0.002910 -0.001610 0.000000 0.033734 0.000000
# 6 0.000000 0.000000 0.000000 -0.467780 0.000000 0.094867
#
#
# Mechanical properties :
#
#
# Convention : Reuss Voigt Hill
#
# Bulk Modulus (GPa) = 14.37248 73.69496 44.03372
# Shear Modulus (GPa) = -7.58789 25.45913 8.93562
#
# Velocity S-wave (km/s) = -1.98617 3.63813 2.15536
# Velocity P-wave (km/s) = 1.48738 7.48074 5.39322
#
# Compressibility (1/GPa) = 0.06957743
#
# Stress axis : x y z
#
# Youngs Moduli (GPa) = 157.46266 9.49356 90.18189
#
# Poissons Ratio (x) = -0.00050 0.16716
# Poissons Ratio (y) = -0.00831 2.23628
# Poissons Ratio (z) = 0.29188 0.23542
#
# Static dielectric constant tensor:
#      x y z
#    x 11.166000 0.000000 0.012680 
#    y 0.000000 2.805660 0.000000 
#    z 0.012680 0.000000 3.821490 
# 
# 
# High freq. dielectric constant tensor:
#      x y z
#    x 1.792100 0.000000 0.000900 
#    y 0.000000 1.667140 0.000000 
#    z 0.000900 0.000000 1.773470 
# 
# From -- ./inp_files/354817.got.cif
#   From: 2010.06.25/outbox.cif.g09.slc.cpg/sg12_178_cif.got.tgz:354817.got - 2010.06.28 00:19:55.
