data_PCOD8082609
_publ_section_title
;
Structure prediction by ZEFSAII (Michael W. Deem and Ramdas Pophale) SiO2 
 PCOD8082609
Probable space group: C 2/M
;
_chemical_formula_sum "Si O2"
_cell_formula_units_Z 48
_cell_length_a 15.010066
_cell_length_b 9.254691
_cell_length_c 16.995889
_cell_angle_alpha 90.000000
_cell_angle_beta 92.973118
_cell_angle_gamma 90.000000
_cell_volume 2357.780914
_symmetry_space_group_name_H-M "C 2/M"
_symmetry_group_IT_number 12
_symmetry_cell_setting 'monoclinic'
loop_
_space_group_symop_operation_xyz
x,y,z
-x,y,-z
-x,-y,-z
x,-y,z
1/2+x,1/2+y,z
1/2-x,1/2+y,-z
1/2-x,1/2-y,-z
1/2+x,1/2-y,z
loop_
_atom_site_type_symbol
_atom_site_label
_atom_site_fract_x
_atom_site_fract_y
_atom_site_fract_z
Si Si1 0.389083 0.334578 0.144586
Si Si2 0.521394 0.829210 0.413489
Si Si3 0.835881 0.834510 0.672053
Si Si4 0.106402 0.336539 0.006552
Si Si5 0.899562 0.164541 0.843798
Si Si6 0.359210 0.166129 0.297207
O O1 0.357523 0.500000 0.138520
O O2 0.494762 0.322026 0.155579
O O3 0.346563 0.260799 0.218897
O O4 0.354245 0.252365 0.065293
O O5 0.500000 0.774492 0.500000
O O6 0.614221 0.759296 0.391020
O O7 0.441877 0.777446 0.352652
O O8 0.532883 0.000000 0.412021
O O9 0.860098 0.777407 0.760207
O O10 0.729883 0.818437 0.654198
O O11 0.867265 0.000000 0.664824
O O12 0.142196 0.500000 0.004554
O O13 0.140618 0.262943 0.088552
O O14 0.000000 0.332185 0.000000
O O15 0.869896 0.000000 0.858535
O O16 0.373773 0.000000 0.272245
#
# Coordination Sequence:
#
# PCOD8082609 Si02
#       6
#     8   8   8   8   8   8
#     4  10  18  31  53  79 110 147 190 235 280 327
#     4  10  22  40  61  86 116 148 182 227 283 339
#     4  10  21  38  59  85 114 149 189 231 279 333
#     4   9  17  28  47  77 110 146 189 231 278 329
#     4   9  17  31  51  76 108 144 186 234 279 324
#     4  10  21  37  58  83 115 150 187 231 280 334
#
# _framework density 20.358125999999999
#
# number of rings (size 3 to 8) (size 9 to 14) (size 15 to 20)
#    0.000    2.333    1.667    1.000    0.000    5.000 
#    0.000    0.833    0.000    0.000    0.000    0.000 
#    0.000    0.000    0.000    0.000    0.000    0.000 
#
# Total GULP energy -297679.300071 kJ/mol
# GULP energy per Si atom -12403.304170 kJ/mol
# Density = 2.031179 g / cm^3
# Si number density = 20.358126 Si / 1000 Ang^3
#
#
#
# Elastic Constant Matrix: (Units=GPa)
#
#
# Indices 1 2 3 4 5 6 
#
# 1 47.6197 26.4518 25.6302 0.0000 -18.0610 0.0000
# 2 26.4518 97.6096 57.2269 0.0000 -17.8149 0.0000
# 3 25.6302 57.2269 122.8148 0.0000 -24.8137 0.0000
# 4 0.0000 0.0000 0.0000 35.5590 0.0000 -8.5130
# 5 -18.0610 -17.8149 -24.8137 0.0000 18.1251 0.0000
# 6 0.0000 0.0000 0.0000 -8.5130 0.0000 23.4178
#
#
#
# Elastic Compliance Matrix: (Units=1/GPa)
#
#
# Indices 1 2 3 4 5 6 
#
# 1 0.034985 -0.004306 0.001236 0.000000 0.032320 0.000000
# 2 -0.004306 0.015244 -0.005591 0.000000 0.003038 0.000000
# 3 0.001236 -0.005591 0.013309 0.000000 0.013957 0.000000
# 4 0.000000 0.000000 0.000000 0.030803 0.000000 0.011198
# 5 0.032320 0.003038 0.013957 0.000000 0.109473 0.000000
# 6 0.000000 0.000000 0.000000 0.011198 0.000000 0.046773
#
#
# Mechanical properties :
#
#
# Convention : Reuss Voigt Hill
#
# Bulk Modulus (GPa) = 21.63753 54.07354 37.85553
# Shear Modulus (GPa) = 17.64814 26.00271 21.82543
#
# Velocity S-wave (km/s) = 2.94748 3.57776 3.27781
# Velocity P-wave (km/s) = 4.71541 6.60954 5.74113
#
# Compressibility (1/GPa) = 0.04621600
#
# Stress axis : x y z
#
# Youngs Moduli (GPa) = 28.58353 65.59904 75.13478
#
# Poissons Ratio (x) = 0.28250 -0.09284
# Poissons Ratio (y) = 0.12309 0.42005
# Poissons Ratio (z) = -0.03532 0.36674
#
# Static dielectric constant tensor:
#      x y z
#    x 3.460060 0.000000 0.037970 
#    y 0.000000 3.652330 0.000000 
#    z 0.037970 0.000000 3.683380 
# 
# 
# High freq. dielectric constant tensor:
#      x y z
#    x 1.784430 0.000000 -0.001320 
#    y 0.000000 1.789450 0.000000 
#    z -0.001320 0.000000 1.791900 
# 
# From -- ./inp_files/221610.got.cif
#   From: 2010.06.25/outbox.cif.g09.slc.cpg/sg12_111_cif.got.tgz:221610.got - 2010.06.28 00:19:55.
