data_PCOD8082700
_publ_section_title
;
Structure prediction by ZEFSAII (Michael W. Deem and Ramdas Pophale) SiO2 
 PCOD8082700
Probable space group: C 2/M
;
_chemical_formula_sum "Si O2"
_cell_formula_units_Z 64
_cell_length_a 9.128900
_cell_length_b 17.238201
_cell_length_c 22.026307
_cell_angle_alpha 90.000000
_cell_angle_beta 93.714741
_cell_angle_gamma 90.000000
_cell_volume 3458.905190
_symmetry_space_group_name_H-M "C 2/M"
_symmetry_group_IT_number 12
_symmetry_cell_setting 'monoclinic'
loop_
_space_group_symop_operation_xyz
x,y,z
-x,y,-z
-x,-y,-z
x,-y,z
1/2+x,1/2+y,z
1/2-x,1/2+y,-z
1/2-x,1/2-y,-z
1/2+x,1/2-y,z
loop_
_atom_site_type_symbol
_atom_site_label
_atom_site_fract_x
_atom_site_fract_y
_atom_site_fract_z
Si Si1 0.458147 0.243810 0.720926
Si Si2 0.847033 0.910835 0.470492
Si Si3 0.687597 0.702957 0.639058
Si Si4 0.282971 0.805710 0.197861
Si Si5 0.156249 0.311404 0.533796
Si Si6 0.653096 0.856723 0.990124
Si Si7 0.359851 0.411402 0.895848
Si Si8 0.135134 0.205202 0.911067
O O1 0.557795 0.304755 0.685205
O O2 0.347313 0.198049 0.674104
O O3 0.572510 0.183961 0.756103
O O4 0.363296 0.289935 0.767514
O O5 0.814168 0.868003 0.406915
O O6 0.728642 0.894951 0.521045
O O7 0.000000 0.879488 0.500000
O O8 0.850809 0.000000 0.454205
O O9 0.660760 0.786551 0.604572
O O10 0.250505 0.884985 0.160802
O O11 0.314925 0.733108 0.154111
O O12 0.250000 0.250000 0.500000
O O13 0.000000 0.311013 0.500000
O O14 0.766505 0.908774 0.955220
O O15 0.603001 0.778620 0.953274
O O16 0.500000 0.901561 0.000000
O O17 0.728658 0.840610 0.056736
O O18 0.413503 0.500000 0.886551
O O19 0.494163 0.351010 0.903456
#
# Coordination Sequence:
#
# PCOD8082700 Si02
#       8
#     8   8   8   8   8   8   8   8
#     4  10  20  33  59  80 103 138 201 235 274 305
#     4  10  20  34  53  80 117 152 180 218 282 349
#     4  10  18  33  54  83 108 140 184 240 268 318
#     4  10  20  37  58  83 104 147 193 241 269 336
#     4  10  18  31  54  81 111 143 176 224 279 333
#     4  10  20  33  58  88 112 143 183 224 278 337
#     4  11  23  38  57  83 118 148 179 230 291 345
#     4  10  19  35  59  82 111 147 185 227 275 341
#
# _framework density 18.502963999999999
#
# number of rings (size 3 to 8) (size 9 to 14) (size 15 to 20)
#    0.000    1.875    1.250    6.375    1.750    1.500 
#    0.000    1.250    0.000    3.000    0.000    0.000 
#    0.000    0.000    0.000    0.000    0.000    0.000 
#
# Total GULP energy -396601.575928 kJ/mol
# GULP energy per Si atom -12393.799248 kJ/mol
# Density = 1.846085 g / cm^3
# Si number density = 18.502964 Si / 1000 Ang^3
#
#
#
# Elastic Constant Matrix: (Units=GPa)
#
#
# Indices 1 2 3 4 5 6 
#
# 1 138.9928 31.5075 50.8347 0.0000 5.8751 0.0000
# 2 31.5075 70.1199 28.5707 0.0000 5.7954 0.0000
# 3 50.8347 28.5707 103.6672 0.0000 7.2128 0.0000
# 4 0.0000 0.0000 0.0000 14.2583 0.0000 0.6980
# 5 5.8751 5.7954 7.2128 0.0000 41.1112 0.0000
# 6 0.0000 0.0000 0.0000 0.6980 0.0000 18.7229
#
#
#
# Elastic Compliance Matrix: (Units=1/GPa)
#
#
# Indices 1 2 3 4 5 6 
#
# 1 0.009165 -0.002559 -0.003769 0.000000 -0.000288 0.000000
# 2 -0.002559 0.016872 -0.003295 0.000000 -0.001435 0.000000
# 3 -0.003769 -0.003295 0.012485 0.000000 -0.001187 0.000000
# 4 0.000000 0.000000 0.000000 0.070263 0.000000 -0.002619
# 5 -0.000288 -0.001435 -0.001187 0.000000 0.024776 0.000000
# 6 0.000000 0.000000 0.000000 -0.002619 0.000000 0.053508
#
#
# Mechanical properties :
#
#
# Convention : Reuss Voigt Hill
#
# Bulk Modulus (GPa) = 51.87728 59.40065 55.63896
# Shear Modulus (GPa) = 23.50265 28.27629 25.88947
#
# Velocity S-wave (km/s) = 3.56787 3.91347 3.74466
# Velocity P-wave (km/s) = 6.71350 7.25212 6.98800
#
# Compressibility (1/GPa) = 0.01927626
#
# Stress axis : x y z
#
# Youngs Moduli (GPa) = 109.10686 59.26852 80.09399
#
# Poissons Ratio (x) = 0.15166 0.30188
# Poissons Ratio (y) = 0.27918 0.26395
# Poissons Ratio (z) = 0.41124 0.19532
#
# Static dielectric constant tensor:
#      x y z
#    x 3.899200 0.000000 -0.129740 
#    y 0.000000 2.991630 0.000000 
#    z -0.129740 0.000000 3.807480 
# 
# 
# High freq. dielectric constant tensor:
#      x y z
#    x 1.742750 0.000000 0.003590 
#    y 0.000000 1.667130 0.000000 
#    z 0.003590 0.000000 1.727140 
# 
# From -- ./inp_files/300783.got.cif
#   From: 2010.06.25/outbox.cif.g09.slc.cpg/sg12_151_cif.got.tgz:300783.got - 2010.06.28 00:19:55.
