data_PCOD8082766
_publ_section_title
;
Structure prediction by ZEFSAII (Michael W. Deem and Ramdas Pophale) SiO2 
 PCOD8082766
Probable space group: C 2/M
;
_chemical_formula_sum "Si O2"
_cell_formula_units_Z 56
_cell_length_a 26.937496
_cell_length_b 8.661845
_cell_length_c 13.530671
_cell_angle_alpha 90.000000
_cell_angle_beta 64.590179
_cell_angle_gamma 90.000000
_cell_volume 2851.678675
_symmetry_space_group_name_H-M "C 2/M"
_symmetry_group_IT_number 12
_symmetry_cell_setting 'monoclinic'
loop_
_space_group_symop_operation_xyz
x,y,z
-x,y,-z
-x,-y,-z
x,-y,z
1/2+x,1/2+y,z
1/2-x,1/2+y,-z
1/2-x,1/2-y,-z
1/2+x,1/2-y,z
loop_
_atom_site_type_symbol
_atom_site_label
_atom_site_fract_x
_atom_site_fract_y
_atom_site_fract_z
Si Si1 0.971844 0.683596 0.244791
Si Si2 0.299838 0.319696 0.895719
Si Si3 0.592003 0.183330 0.104007
Si Si4 0.800520 0.676882 0.330389
Si Si5 0.406893 0.175684 0.115920
Si Si6 0.371908 0.817516 0.449525
Si Si7 0.299402 0.179336 0.684733
O O1 0.966784 0.500000 0.243097
O O2 0.948307 0.751933 0.160918
O O3 0.933145 0.744528 0.368433
O O4 0.035062 0.732172 0.207041
O O5 0.297807 0.500000 0.914183
O O6 0.358270 0.256687 0.879545
O O7 0.293135 0.283414 0.786164
O O8 0.250000 0.250000 0.000000
O O9 0.600655 0.000000 0.096397
O O10 0.589450 0.253606 0.995254
O O11 0.779980 0.500000 0.358786
O O12 0.844503 0.687799 0.204866
O O13 0.827174 0.743510 0.408426
O O14 0.751012 0.790112 0.345649
O O15 0.425515 0.000000 0.085807
O O16 0.354608 0.772630 0.576045
O O17 0.371572 0.000000 0.437267
O O18 0.301181 0.000000 0.713743
#
# Coordination Sequence:
#
# PCOD8082766 Si02
#       7
#     8   8   8   8   8   8   8
#     4   8  14  27  50  81 112 140 174 214 253 301
#     4  12  26  43  59  76 102 134 172 217 266 320
#     4  10  18  31  55  83 108 138 177 217 259 306
#     4   9  16  29  50  77 111 146 178 216 266 316
#     4   8  14  25  47  80 111 137 168 209 255 307
#     4   8  16  30  50  79 112 144 180 221 259 306
#     4  11  21  34  53  77 106 141 183 225 266 310
#
# _framework density 19.637557000000001
#
# number of rings (size 3 to 8) (size 9 to 14) (size 15 to 20)
#    0.000    2.571    0.000    5.143    0.000    2.857 
#    0.000    1.429    0.000   11.143    0.000    0.000 
#    0.000    0.000    0.000    0.000    0.000    0.000 
#
# Total GULP energy -347009.646475 kJ/mol
# GULP energy per Si atom -12393.201660 kJ/mol
# Density = 1.959286 g / cm^3
# Si number density = 19.637557 Si / 1000 Ang^3
#
#
#
# Elastic Constant Matrix: (Units=GPa)
#
#
# Indices 1 2 3 4 5 6 
#
# 1 102.0849 23.4159 54.7520 0.0000 -20.9110 0.0000
# 2 23.4159 44.6362 23.3750 0.0000 -7.5967 0.0000
# 3 54.7520 23.3750 131.8610 0.0000 -10.2436 0.0000
# 4 0.0000 0.0000 0.0000 17.1740 0.0000 2.2237
# 5 -20.9110 -7.5967 -10.2436 0.0000 22.0792 0.0000
# 6 0.0000 0.0000 0.0000 2.2237 0.0000 24.6796
#
#
#
# Elastic Compliance Matrix: (Units=1/GPa)
#
#
# Indices 1 2 3 4 5 6 
#
# 1 0.015590 -0.003679 -0.004951 0.000000 0.011202 0.000000
# 2 -0.003679 0.026560 -0.002844 0.000000 0.004335 0.000000
# 3 -0.004951 -0.002844 0.010066 0.000000 -0.000997 0.000000
# 4 0.000000 0.000000 0.000000 0.058915 0.000000 -0.005308
# 5 0.011202 0.004335 -0.000997 0.000000 0.056930 0.000000
# 6 0.000000 0.000000 0.000000 -0.005308 0.000000 0.040998
#
#
# Mechanical properties :
#
#
# Convention : Reuss Voigt Hill
#
# Bulk Modulus (GPa) = 34.16651 53.51868 43.84259
# Shear Modulus (GPa) = 20.68148 24.58915 22.63532
#
# Velocity S-wave (km/s) = 3.24876 3.54241 3.39876
# Velocity P-wave (km/s) = 5.61328 6.63656 6.14625
#
# Compressibility (1/GPa) = 0.02926843
#
# Stress axis : x y z
#
# Youngs Moduli (GPa) = 64.14554 37.64994 99.34329
#
# Poissons Ratio (x) = 0.13852 0.49182
# Poissons Ratio (y) = 0.23600 0.28253
# Poissons Ratio (z) = 0.31757 0.10708
#
# Static dielectric constant tensor:
#      x y z
#    x 3.551530 0.000000 -0.194010 
#    y 0.000000 3.081380 0.000000 
#    z -0.194010 0.000000 4.035280 
# 
# 
# High freq. dielectric constant tensor:
#      x y z
#    x 1.754190 0.000000 -0.013230 
#    y 0.000000 1.712240 0.000000 
#    z -0.013230 0.000000 1.780670 
# 
# From -- ./inp_files/243665.got.cif
#   From: 2010.06.25/outbox.cif.g09.slc.cpg/sg12_122_cif.got.tgz:243665.got - 2010.06.28 00:19:55.
