data_PCOD8082178
_publ_section_title
;
Structure prediction by ZEFSAII (Michael W. Deem and Ramdas Pophale) SiO2 
 PCOD8082178
Probable space group: C 2/M
;
_chemical_formula_sum "Si O2"
_cell_formula_units_Z 64
_cell_length_a 27.652555
_cell_length_b 8.935293
_cell_length_c 20.599858
_cell_angle_alpha 90.000000
_cell_angle_beta 134.868773
_cell_angle_gamma 90.000000
_cell_volume 3607.328563
_symmetry_space_group_name_H-M "C 2/M"
_symmetry_group_IT_number 12
_symmetry_cell_setting 'monoclinic'
loop_
_space_group_symop_operation_xyz
x,y,z
-x,y,-z
-x,-y,-z
x,-y,z
1/2+x,1/2+y,z
1/2-x,1/2+y,-z
1/2-x,1/2-y,-z
1/2+x,1/2-y,z
loop_
_atom_site_type_symbol
_atom_site_label
_atom_site_fract_x
_atom_site_fract_y
_atom_site_fract_z
Si Si1 0.558683 0.677357 0.105775
Si Si2 0.008386 0.169463 0.702955
Si Si3 0.353890 0.166519 0.020757
Si Si4 0.986594 0.331280 0.807719
Si Si5 0.810207 0.676361 0.233630
Si Si6 0.317931 0.821961 0.845345
Si Si7 0.669069 0.330925 0.877248
Si Si8 0.533989 0.175274 0.598848
O O1 0.565668 0.500000 0.109820
O O2 0.541970 0.728073 0.162434
O O3 0.631054 0.752028 0.158458
O O4 0.500000 0.732846 0.000000
O O5 0.088233 0.176774 0.792701
O O6 0.994514 0.242726 0.619808
O O7 0.967063 0.259251 0.719603
O O8 0.981394 0.000000 0.676784
O O9 0.432749 0.165320 0.111599
O O10 0.311679 0.258364 0.034945
O O11 0.323548 0.000000 0.993321
O O12 0.344159 0.235214 0.940302
O O13 0.956888 0.500000 0.784412
O O14 0.798082 0.500000 0.220906
O O15 0.758226 0.754432 0.235308
O O16 0.795064 0.742264 0.147572
O O17 0.886292 0.718277 0.328316
O O18 0.317381 0.000000 0.836845
O O19 0.695679 0.500000 0.900946
O O20 0.500000 0.229269 0.500000
O O21 0.524515 0.000000 0.601472
#
# Coordination Sequence:
#
# PCOD8082178 Si02
#       8
#     8   8   8   8   8   8   8   8
#     4  11  22  34  50  72  98 130 173 221 262 295
#     4   9  17  29  47  75 105 130 162 205 251 297
#     4   9  18  30  45  65  90 126 169 209 246 286
#     4  10  18  31  50  70  97 133 173 214 254 294
#     4  10  20  34  50  70  98 129 162 203 249 297
#     4  11  22  35  49  67  95 131 172 212 251 296
#     4   9  17  29  46  66  92 127 165 203 243 290
#     4   9  18  34  56  80 105 133 164 199 245 305
#
# _framework density 17.741661000000001
#
# number of rings (size 3 to 8) (size 9 to 14) (size 15 to 20)
#    0.000    2.250    1.250    2.250    0.000    6.250 
#    0.000    0.000    0.000    0.000    0.000    0.875 
#    0.000    0.000    0.000    0.000    0.000    0.000 
#
# Total GULP energy -396806.680768 kJ/mol
# GULP energy per Si atom -12400.208774 kJ/mol
# Density = 1.770128 g / cm^3
# Si number density = 17.741661 Si / 1000 Ang^3
#
#
#
# Elastic Constant Matrix: (Units=GPa)
#
#
# Indices 1 2 3 4 5 6 
#
# 1 109.4548 49.2906 34.9099 0.0000 -14.3872 0.0000
# 2 49.2906 95.9202 27.8921 0.0000 -8.1780 0.0000
# 3 34.9099 27.8921 58.9325 0.0000 -20.0216 0.0000
# 4 0.0000 0.0000 0.0000 17.9021 0.0000 -6.7311
# 5 -14.3872 -8.1780 -20.0216 0.0000 22.5640 0.0000
# 6 0.0000 0.0000 0.0000 -6.7311 0.0000 32.5293
#
#
#
# Elastic Compliance Matrix: (Units=1/GPa)
#
#
# Indices 1 2 3 4 5 6 
#
# 1 0.013297 -0.005308 -0.004492 0.000000 0.002569 0.000000
# 2 -0.005308 0.014223 -0.004275 0.000000 -0.002022 0.000000
# 3 -0.004492 -0.004275 0.028850 0.000000 0.021186 0.000000
# 4 0.000000 0.000000 0.000000 0.060572 0.000000 0.012534
# 5 0.002569 -0.002022 0.021186 0.000000 0.064022 0.000000
# 6 0.000000 0.000000 0.000000 0.012534 0.000000 0.033335
#
#
# Mechanical properties :
#
#
# Convention : Reuss Voigt Hill
#
# Bulk Modulus (GPa) = 35.43319 54.27694 44.85507
# Shear Modulus (GPa) = 19.85267 24.74674 22.29971
#
# Velocity S-wave (km/s) = 3.34875 3.73880 3.54914
# Velocity P-wave (km/s) = 5.91332 7.02122 6.49095
#
# Compressibility (1/GPa) = 0.02822212
#
# Stress axis : x y z
#
# Youngs Moduli (GPa) = 75.20692 70.30678 34.66165
#
# Poissons Ratio (x) = 0.37316 0.15569
# Poissons Ratio (y) = 0.39917 0.14817
# Poissons Ratio (z) = 0.33781 0.30054
#
# Static dielectric constant tensor:
#      x y z
#    x 3.318960 0.000000 -0.114890 
#    y 0.000000 3.415570 0.000000 
#    z -0.114890 0.000000 3.029530 
# 
# 
# High freq. dielectric constant tensor:
#      x y z
#    x 1.686210 0.000000 -0.010650 
#    y 0.000000 1.697770 0.000000 
#    z -0.010650 0.000000 1.642600 
# 
# From -- ./inp_files/326891.got.cif
#   From: 2010.06.25/outbox.cif.g09.slc.cpg/sg12_164_cif.got.tgz:326891.got - 2010.06.28 00:19:55.
