data_PCOD8082693
_publ_section_title
;
Structure prediction by ZEFSAII (Michael W. Deem and Ramdas Pophale) SiO2 
 PCOD8082693
Probable space group: C 2/M
;
_chemical_formula_sum "Si O2"
_cell_formula_units_Z 48
_cell_length_a 21.738423
_cell_length_b 7.554059
_cell_length_c 36.708349
_cell_angle_alpha 90.000000
_cell_angle_beta 153.824210
_cell_angle_gamma 90.000000
_cell_volume 2659.111739
_symmetry_space_group_name_H-M "C 2/M"
_symmetry_group_IT_number 12
_symmetry_cell_setting 'monoclinic'
loop_
_space_group_symop_operation_xyz
x,y,z
-x,y,-z
-x,-y,-z
x,-y,z
1/2+x,1/2+y,z
1/2-x,1/2+y,-z
1/2-x,1/2-y,-z
1/2+x,1/2-y,z
loop_
_atom_site_type_symbol
_atom_site_label
_atom_site_fract_x
_atom_site_fract_y
_atom_site_fract_z
Si Si1 0.047734 0.302276 0.184281
Si Si2 0.606870 0.500000 0.779196
Si Si3 0.004927 0.797066 0.082422
Si Si4 0.625009 0.302437 0.654775
Si Si5 0.612021 0.000000 0.027825
Si Si6 0.826088 0.296803 0.240335
Si Si7 0.906646 0.500000 0.415018
Si Si8 0.920845 0.000000 0.745989
O O1 0.996938 0.500000 0.167347
O O2 0.210904 0.297464 0.263578
O O3 0.013604 0.172339 0.199454
O O4 0.971579 0.235725 0.107188
O O5 0.734485 0.500000 0.874753
O O6 0.605437 0.675331 0.753932
O O7 0.465638 0.500000 0.727747
O O8 0.164064 0.744513 0.158061
O O9 0.974692 0.000000 0.056251
O O10 0.904087 0.675615 0.004993
O O11 0.565032 0.500000 0.617023
O O12 0.593686 0.236783 0.679052
O O13 0.553820 0.172479 0.587802
O O14 0.500000 0.000000 0.000000
O O15 0.843911 0.500000 0.238077
O O16 0.745730 0.500000 0.341024
O O17 0.000000 0.500000 0.500000
#
# Coordination Sequence:
#
# PCOD8082693 Si02
#       8
#     8   4   8   8   4   8   4   4
#     4   9  16  31  57  77  98 138 183 225 260 313
#     4  12  24  36  50  76 115 146 175 223 272 320
#     4  10  18  31  55  77 101 134 183 237 275 304
#     4   9  16  29  55  88 108 131 177 221 256 307
#     4  12  22  34  48  78 111 137 179 236 283 299
#     4  10  18  31  54  81 104 139 188 222 256 307
#     4  10  20  36  60  90 114 130 164 225 271 307
#     4  10  22  38  54  80 110 142 176 210 269 330
#
# _framework density 18.051141000000001
#
# number of rings (size 3 to 8) (size 9 to 14) (size 15 to 20)
#    0.000    2.000    5.000    0.000    0.000    2.000 
#    0.000    0.833    0.000    1.000    0.000    0.000 
#    0.000    0.000    0.000    0.000    0.000    0.000 
#
# Total GULP energy -297611.065660 kJ/mol
# GULP energy per Si atom -12400.461069 kJ/mol
# Density = 1.801006 g / cm^3
# Si number density = 18.051141 Si / 1000 Ang^3
#
#
#
# Elastic Constant Matrix: (Units=GPa)
#
#
# Indices 1 2 3 4 5 6 
#
# 1 106.5007 58.7819 32.5869 0.0007 -23.0482 -0.0009
# 2 58.7819 156.1856 38.2208 0.0031 -23.8985 0.0019
# 3 32.5869 38.2208 64.8730 -0.0037 -30.5667 0.0023
# 4 0.0007 0.0031 -0.0037 18.8895 0.0006 -13.3800
# 5 -23.0482 -23.8985 -30.5667 0.0006 27.4406 -0.0006
# 6 -0.0009 0.0019 0.0023 -13.3800 -0.0006 28.9394
#
#
#
# Elastic Compliance Matrix: (Units=1/GPa)
#
#
# Indices 1 2 3 4 5 6 
#
# 1 0.013221 -0.003644 -0.001594 0.000000 0.006156 0.000001
# 2 -0.003644 0.008637 -0.002433 -0.000003 0.001752 -0.000002
# 3 -0.001594 -0.002433 0.033715 0.000007 0.034098 0.000001
# 4 0.000000 -0.000003 0.000007 0.078720 0.000004 0.036396
# 5 0.006156 0.001752 0.034098 0.000004 0.081121 0.000001
# 6 0.000001 -0.000002 0.000001 0.036396 0.000001 0.051382
#
#
# Mechanical properties :
#
#
# Convention : Reuss Voigt Hill
#
# Bulk Modulus (GPa) = 24.85610 65.19314 45.02462
# Shear Modulus (GPa) = 16.91771 28.25188 22.58480
#
# Velocity S-wave (km/s) = 3.06471 3.96043 3.54101
# Velocity P-wave (km/s) = 5.13059 7.55695 6.45873
#
# Compressibility (1/GPa) = 0.04023158
#
# Stress axis : x y z
#
# Youngs Moduli (GPa) = 75.63976 115.77461 29.66020
#
# Poissons Ratio (x) = 0.42186 0.04727
# Poissons Ratio (y) = 0.27561 0.07217
# Poissons Ratio (z) = 0.12055 0.28171
#
# Static dielectric constant tensor:
#      x y z
#    x 3.224760 -0.000020 -0.265340 
#    y -0.000020 3.694410 0.000020 
#    z -0.265340 0.000020 2.950630 
# 
# 
# High freq. dielectric constant tensor:
#      x y z
#    x 1.682610 0.000000 -0.033230 
#    y 0.000000 1.720870 0.000000 
#    z -0.033230 0.000000 1.651110 
# 
# From -- ./inp_files/378603.got.cif
#   From: 2010.06.25/outbox.cif.g09.slc.cpg/sg12_190_cif.got.tgz:378603.got - 2010.06.28 00:19:55.
