data_PCOD8082624
_publ_section_title
;
Structure prediction by ZEFSAII (Michael W. Deem and Ramdas Pophale) SiO2 
 PCOD8082624
Probable space group: C 2/M
;
_chemical_formula_sum "Si O2"
_cell_formula_units_Z 60
_cell_length_a 22.205974
_cell_length_b 10.247504
_cell_length_c 13.530965
_cell_angle_alpha 90.000000
_cell_angle_beta 109.514912
_cell_angle_gamma 90.000000
_cell_volume 2902.172368
_symmetry_space_group_name_H-M "C 2/M"
_symmetry_group_IT_number 12
_symmetry_cell_setting 'monoclinic'
loop_
_space_group_symop_operation_xyz
x,y,z
-x,y,-z
-x,-y,-z
x,-y,z
1/2+x,1/2+y,z
1/2-x,1/2+y,-z
1/2-x,1/2-y,-z
1/2+x,1/2-y,z
loop_
_atom_site_type_symbol
_atom_site_label
_atom_site_fract_x
_atom_site_fract_y
_atom_site_fract_z
Si Si1 0.405093 0.762856 0.161444
Si Si2 0.465279 0.146463 0.687780
Si Si3 0.124677 0.854011 0.650452
Si Si4 0.772437 0.360460 0.084635
Si Si5 0.000000 0.254558 0.500000
Si Si6 0.767235 0.352064 0.303124
Si Si7 0.929315 0.846764 0.967505
Si Si8 0.627387 0.652443 0.269749
O O1 0.474430 0.828100 0.207599
O O2 0.393325 0.660901 0.244026
O O3 0.349236 0.869622 0.137342
O O4 0.395685 0.694606 0.050504
O O5 0.488792 0.153216 0.587964
O O6 0.410815 0.254941 0.675842
O O7 0.439280 0.000000 0.694041
O O8 0.061344 0.836592 0.550556
O O9 0.177732 0.751364 0.640503
O O10 0.151292 0.000000 0.648463
O O11 0.747982 0.500000 0.030683
O O12 0.743893 0.335589 0.177301
O O13 0.750000 0.250000 0.000000
O O14 0.793024 0.500000 0.335472
O O15 0.702990 0.327421 0.331625
O O16 0.889301 0.800568 0.850440
O O17 0.934535 0.000000 0.970355
O O18 0.000000 0.784521 0.000000
O O19 0.608060 0.500000 0.275921
#
# Coordination Sequence:
#
# PCOD8082624 Si02
#       8
#     8   8   8   8   4   8   8   8
#     4  10  20  35  55  83 121 153 191 238 291 337
#     4  11  23  40  62  87 113 148 191 239 293 350
#     4  10  21  37  63  93 117 144 190 247 292 335
#     4  10  20  34  53  77 110 153 199 241 281 331
#     4  10  24  42  64  88 116 146 180 234 304 364
#     4   9  20  38  57  80 117 160 193 228 286 350
#     4  10  18  31  53  81 117 162 201 227 270 339
#     4  10  21  38  59  85 120 160 198 236 279 336
#
# _framework density 20.674168000000002
#
# number of rings (size 3 to 8) (size 9 to 14) (size 15 to 20)
#    0.000    2.000    1.333    2.000    0.000   10.667 
#    0.000    4.000    0.000    0.000    0.000    0.000 
#    0.000    0.000    0.000    0.000    0.000    0.000 
#
# Total GULP energy -371907.646695 kJ/mol
# GULP energy per Si atom -12396.921557 kJ/mol
# Density = 2.062711 g / cm^3
# Si number density = 20.674168 Si / 1000 Ang^3
#
#
#
# Elastic Constant Matrix: (Units=GPa)
#
#
# Indices 1 2 3 4 5 6 
#
# 1 113.5421 59.8159 18.0540 0.0000 5.2608 0.0000
# 2 59.8159 136.0013 31.2772 0.0000 17.8758 0.0000
# 3 18.0540 31.2772 65.9645 0.0000 3.0520 0.0000
# 4 0.0000 0.0000 0.0000 16.3932 0.0000 0.8153
# 5 5.2608 17.8758 3.0520 0.0000 21.8677 0.0000
# 6 0.0000 0.0000 0.0000 0.8153 0.0000 24.7951
#
#
#
# Elastic Compliance Matrix: (Units=1/GPa)
#
#
# Indices 1 2 3 4 5 6 
#
# 1 0.011548 -0.005088 -0.000818 0.000000 0.001495 0.000000
# 2 -0.005088 0.011437 -0.003678 0.000000 -0.007612 0.000000
# 3 -0.000818 -0.003678 0.017090 0.000000 0.000818 0.000000
# 4 0.000000 0.000000 0.000000 0.061101 0.000000 -0.002009
# 5 0.001495 -0.007612 0.000818 0.000000 0.051478 0.000000
# 6 0.000000 0.000000 0.000000 -0.002009 0.000000 0.040397
#
#
# Mechanical properties :
#
#
# Convention : Reuss Voigt Hill
#
# Bulk Modulus (GPa) = 47.82846 59.31134 53.56990
# Shear Modulus (GPa) = 22.81165 26.36859 24.59012
#
# Velocity S-wave (km/s) = 3.32533 3.57520 3.45253
# Velocity P-wave (km/s) = 6.15861 6.76710 6.47001
#
# Compressibility (1/GPa) = 0.02090806
#
# Stress axis : x y z
#
# Youngs Moduli (GPa) = 86.59296 87.43651 58.51517
#
# Poissons Ratio (x) = 0.44484 0.04784
# Poissons Ratio (y) = 0.44055 0.21523
# Poissons Ratio (z) = 0.07079 0.32161
#
# Static dielectric constant tensor:
#      x y z
#    x 3.959730 0.000000 0.001500 
#    y 0.000000 3.536370 0.000000 
#    z 0.001500 0.000000 3.699760 
# 
# 
# High freq. dielectric constant tensor:
#      x y z
#    x 1.813760 0.000000 0.006140 
#    y 0.000000 1.793770 0.000000 
#    z 0.006140 0.000000 1.795140 
# 
# From -- ./inp_files/238859.got.cif
#   From: 2010.06.25/outbox.cif.g09.slc.cpg/sg12_120_cif.got.tgz:238859.got - 2010.06.28 00:19:55.
