data_PCOD8082523
_publ_section_title
;
Structure prediction by ZEFSAII (Michael W. Deem and Ramdas Pophale) SiO2 
 PCOD8082523
Probable space group: C 2/M
;
_chemical_formula_sum "Si O2"
_cell_formula_units_Z 56
_cell_length_a 14.891852
_cell_length_b 8.541732
_cell_length_c 21.509448
_cell_angle_alpha 90.000000
_cell_angle_beta 89.075547
_cell_angle_gamma 90.000000
_cell_volume 2735.693165
_symmetry_space_group_name_H-M "C 2/M"
_symmetry_group_IT_number 12
_symmetry_cell_setting 'monoclinic'
loop_
_space_group_symop_operation_xyz
x,y,z
-x,y,-z
-x,-y,-z
x,-y,z
1/2+x,1/2+y,z
1/2-x,1/2+y,-z
1/2-x,1/2-y,-z
1/2+x,1/2-y,z
loop_
_atom_site_type_symbol
_atom_site_label
_atom_site_fract_x
_atom_site_fract_y
_atom_site_fract_z
Si Si1 0.150874 0.814795 0.992320
Si Si2 0.494378 0.816766 0.644591
Si Si3 0.833425 0.818500 0.580008
Si Si4 0.648906 0.317964 0.562234
Si Si5 0.626727 0.815084 0.119485
Si Si6 0.322303 0.183186 0.132381
Si Si7 0.519103 0.816021 0.782856
O O1 0.095949 0.761389 0.053903
O O2 0.148509 0.000000 0.986298
O O3 0.250000 0.750000 0.000000
O O4 0.118091 0.738114 0.927971
O O5 0.391824 0.784119 0.626875
O O6 0.556527 0.722168 0.596621
O O7 0.510814 0.748333 0.713518
O O8 0.516226 0.000000 0.640384
O O9 0.729181 0.779273 0.593147
O O10 0.860680 0.770712 0.509726
O O11 0.850994 0.000000 0.593162
O O12 0.671507 0.500000 0.568214
O O13 0.728128 0.772941 0.138238
O O14 0.559482 0.746617 0.172403
O O15 0.618496 0.000000 0.112280
O O16 0.382149 0.224665 0.191880
O O17 0.301881 0.000000 0.127116
O O18 0.504157 0.000000 0.780711
#
# Coordination Sequence:
#
# PCOD8082523 Si02
#       7
#     8   8   8   8   8   8   8
#     4  10  18  31  52  81 108 134 172 221 275 325
#     4  11  22  38  58  83 116 152 189 230 277 330
#     4  10  21  38  60  87 116 147 186 231 279 331
#     4  10  21  38  60  87 116 147 186 231 279 331
#     4  10  19  36  57  78 105 140 179 222 271 322
#     4  10  19  36  57  78 105 140 179 222 271 322
#     4   9  22  39  55  77 109 148 187 220 263 327
#
# _framework density 20.470130999999999
#
# number of rings (size 3 to 8) (size 9 to 14) (size 15 to 20)
#    0.000    2.000    0.000    5.571    0.000    5.143 
#    0.000   14.286    0.000    0.000    0.000    0.000 
#    0.000    0.000    0.000    0.000    0.000    0.000 
#
# Total GULP energy -347213.805853 kJ/mol
# GULP energy per Si atom -12400.493066 kJ/mol
# Density = 2.042354 g / cm^3
# Si number density = 20.470131 Si / 1000 Ang^3
#
#
#
# Elastic Constant Matrix: (Units=GPa)
#
#
# Indices 1 2 3 4 5 6 
#
# 1 40.6194 0.4908 6.5475 0.0000 4.4685 0.0000
# 2 0.4908 62.0286 21.0277 0.0000 3.0654 0.0000
# 3 6.5475 21.0277 71.2091 0.0000 19.4113 0.0000
# 4 0.0000 0.0000 0.0000 24.8762 0.0000 1.8870
# 5 4.4685 3.0654 19.4113 0.0000 29.3754 0.0000
# 6 0.0000 0.0000 0.0000 1.8870 0.0000 30.8002
#
#
#
# Elastic Compliance Matrix: (Units=1/GPa)
#
#
# Indices 1 2 3 4 5 6 
#
# 1 0.025192 0.000520 -0.001720 0.000000 -0.002750 0.000000
# 2 0.000520 0.018021 -0.005897 0.000000 0.001937 0.000000
# 3 -0.001720 -0.005897 0.019154 0.000000 -0.011780 0.000000
# 4 0.000000 0.000000 0.000000 0.040387 0.000000 -0.002474
# 5 -0.002750 0.001937 -0.011780 0.000000 0.042042 0.000000
# 6 0.000000 0.000000 0.000000 -0.002474 0.000000 0.032619
#
#
# Mechanical properties :
#
#
# Convention : Reuss Voigt Hill
#
# Bulk Modulus (GPa) = 20.75930 25.55435 23.15682
# Shear Modulus (GPa) = 24.07687 26.72977 25.40332
#
# Velocity S-wave (km/s) = 3.43329 3.61750 3.52660
# Velocity P-wave (km/s) = 5.08723 5.47350 5.28390
#
# Compressibility (1/GPa) = 0.04817119
#
# Stress axis : x y z
#
# Youngs Moduli (GPa) = 39.69472 55.49087 52.20854
#
# Poissons Ratio (x) = -0.02884 0.08982
# Poissons Ratio (y) = -0.02063 0.30790
# Poissons Ratio (z) = 0.06829 0.32725
#
# Static dielectric constant tensor:
#      x y z
#    x 3.581060 0.000000 -0.013790 
#    y 0.000000 3.562830 0.000000 
#    z -0.013790 0.000000 4.171900 
# 
# 
# High freq. dielectric constant tensor:
#      x y z
#    x 1.797020 0.000000 0.004070 
#    y 0.000000 1.795230 0.000000 
#    z 0.004070 0.000000 1.800450 
# 
# From -- ./inp_files/308954.got.cif
#   From: 2010.06.25/outbox.cif.g09.slc.cpg/sg12_155_cif.got.tgz:308954.got - 2010.06.28 00:19:55.
