data_PCOD8082060
_publ_section_title
;
Structure prediction by ZEFSAII (Michael W. Deem and Ramdas Pophale) SiO2 
 PCOD8082060
Probable space group: C 2/M
;
_chemical_formula_sum "Si O2"
_cell_formula_units_Z 64
_cell_length_a 11.729310
_cell_length_b 18.749176
_cell_length_c 22.866992
_cell_angle_alpha 90.000000
_cell_angle_beta 42.743078
_cell_angle_gamma 90.000000
_cell_volume 3413.101744
_symmetry_space_group_name_H-M "C 2/M"
_symmetry_group_IT_number 12
_symmetry_cell_setting 'monoclinic'
loop_
_space_group_symop_operation_xyz
x,y,z
-x,y,-z
-x,-y,-z
x,-y,z
1/2+x,1/2+y,z
1/2-x,1/2+y,-z
1/2-x,1/2-y,-z
1/2+x,1/2-y,z
loop_
_atom_site_type_symbol
_atom_site_label
_atom_site_fract_x
_atom_site_fract_y
_atom_site_fract_z
Si Si1 0.957224 0.722450 0.861321
Si Si2 0.146933 0.673009 0.982485
Si Si3 0.645307 0.661702 0.404371
Si Si4 0.308874 0.648822 0.237395
Si Si5 0.985176 0.669698 0.724233
Si Si6 0.475813 0.328678 0.680481
Si Si7 0.172308 0.671732 0.412333
Si Si8 0.878619 0.918430 0.829402
O O1 0.802810 0.775225 0.921246
O O2 0.958563 0.677186 0.802711
O O3 0.127303 0.770018 0.800649
O O4 0.932503 0.665357 0.922814
O O5 0.208134 0.598546 0.930293
O O6 0.000000 0.708364 0.000000
O O7 0.500000 0.625903 0.500000
O O8 0.608713 0.649606 0.349122
O O9 0.651586 0.744130 0.417128
O O10 0.831274 0.632044 0.352206
O O11 0.172964 0.623256 0.239921
O O12 0.207120 0.642946 0.335368
O O13 0.466753 0.595847 0.184016
O O14 0.970741 0.744321 0.694752
O O15 0.673242 0.350088 0.603397
O O16 0.387107 0.369503 0.767990
O O17 0.000000 0.636185 0.500000
O O18 0.876551 0.000000 0.810287
#
# Coordination Sequence:
#
# PCOD8082060 Si02
#       8
#     8   8   8   8   8   8   8   8
#     4  10  18  31  47  82 110 137 168 218 274 318
#     4  10  20  31  54  76 107 136 174 223 263 323
#     4  10  20  27  45  81 117 145 169 213 279 331
#     4  10  18  32  52  78 107 146 179 220 260 321
#     4  11  17  29  52  79 113 141 175 212 271 329
#     4  10  18  33  50  75 113 143 180 220 264 317
#     4   9  17  25  45  75 111 148 173 214 264 324
#     4  10  22  40  57  76 102 145 185 222 268 312
#
# _framework density 18.751272
#
# number of rings (size 3 to 8) (size 9 to 14) (size 15 to 20)
#    0.000    2.000    6.250    0.750    3.500    1.750 
#    0.000    0.000    0.000    8.625    0.000    0.000 
#    0.000    0.000    0.000    0.000    0.000    0.000 
#
# Total GULP energy -396434.487155 kJ/mol
# GULP energy per Si atom -12388.577724 kJ/mol
# Density = 1.870859 g / cm^3
# Si number density = 18.751272 Si / 1000 Ang^3
#
#
#
# Elastic Constant Matrix: (Units=GPa)
#
#
# Indices 1 2 3 4 5 6 
#
# 1 139.8049 3.6970 55.2032 0.0001 -6.8363 -0.0007
# 2 3.6970 26.6855 8.9225 0.0050 5.4090 -0.0017
# 3 55.2032 8.9225 83.9242 0.0172 12.0029 -0.0056
# 4 0.0001 0.0050 0.0172 9.2825 -0.0020 -1.6499
# 5 -6.8363 5.4090 12.0029 -0.0020 15.7747 0.0010
# 6 -0.0007 -0.0017 -0.0056 -1.6499 0.0010 9.6154
#
#
#
# Elastic Compliance Matrix: (Units=1/GPa)
#
#
# Indices 1 2 3 4 5 6 
#
# 1 0.011381 -0.001002 -0.009127 0.000019 0.012221 -0.000003
# 2 -0.001002 0.040868 -0.001817 -0.000021 -0.013065 0.000004
# 3 -0.009127 -0.001817 0.020859 -0.000041 -0.019204 0.000006
# 4 0.000019 -0.000021 -0.000041 0.111119 0.000059 0.019067
# 5 0.012221 -0.013065 -0.019204 0.000059 0.087781 -0.000011
# 6 -0.000003 0.000004 0.000006 0.019067 -0.000011 0.107272
#
#
# Mechanical properties :
#
#
# Convention : Reuss Voigt Hill
#
# Bulk Modulus (GPa) = 20.31916 42.89556 31.60736
# Shear Modulus (GPa) = 11.91673 19.10729 15.51201
#
# Velocity S-wave (km/s) = 2.52368 3.19562 2.87932
# Velocity P-wave (km/s) = 4.39905 6.04498 5.28646
#
# Compressibility (1/GPa) = 0.04921462
#
# Stress axis : x y z
#
# Youngs Moduli (GPa) = 87.86611 24.46899 47.94069
#
# Poissons Ratio (x) = 0.02452 0.43757
# Poissons Ratio (y) = 0.08804 0.08713
# Poissons Ratio (z) = 0.80199 0.04447
#
# Static dielectric constant tensor:
#      x y z
#    x 3.768870 0.000000 -0.304810 
#    y 0.000000 2.771700 0.000010 
#    z -0.304810 0.000010 4.262730 
# 
# 
# High freq. dielectric constant tensor:
#      x y z
#    x 1.744020 0.000000 -0.014170 
#    y 0.000000 1.636220 0.000000 
#    z -0.014170 0.000000 1.748860 
# 
# From -- ./inp_files/336662.got.cif
#   From: 2010.06.25/outbox.cif.g09.slc.cpg/sg12_169_cif.got.tgz:336662.got - 2010.06.28 00:19:55.
