data_PCOD8082884
_publ_section_title
;
Structure prediction by ZEFSAII (Michael W. Deem and Ramdas Pophale) SiO2 
 PCOD8082884
Probable space group: C 2/M
;
_chemical_formula_sum "Si O2"
_cell_formula_units_Z 56
_cell_length_a 31.786616
_cell_length_b 17.315625
_cell_length_c 9.488064
_cell_angle_alpha 90.000000
_cell_angle_beta 139.333375
_cell_angle_gamma 90.000000
_cell_volume 3403.133000
_symmetry_space_group_name_H-M "C 2/M"
_symmetry_group_IT_number 12
_symmetry_cell_setting 'monoclinic'
loop_
_space_group_symop_operation_xyz
x,y,z
-x,y,-z
-x,-y,-z
x,-y,z
1/2+x,1/2+y,z
1/2-x,1/2+y,-z
1/2-x,1/2-y,-z
1/2+x,1/2-y,z
loop_
_atom_site_type_symbol
_atom_site_label
_atom_site_fract_x
_atom_site_fract_y
_atom_site_fract_z
Si Si1 0.139424 0.633075 0.557691
Si Si2 0.178133 0.223830 0.160233
Si Si3 0.714697 0.587232 0.074336
Si Si4 0.825883 0.225733 0.530580
Si Si5 0.039218 0.500000 0.240128
Si Si6 0.645979 0.863492 0.901604
Si Si7 0.291033 0.588441 0.261961
Si Si8 0.555149 0.000000 0.751598
O O1 0.208640 0.594117 0.706630
O O2 0.132344 0.710436 0.446287
O O3 0.083320 0.575323 0.369167
O O4 0.131723 0.654155 0.702135
O O5 0.173767 0.140124 0.076458
O O6 0.149899 0.218476 0.246752
O O7 0.251728 0.250334 0.342815
O O8 0.136584 0.284414 0.964379
O O9 0.693913 0.500000 0.053430
O O10 0.696197 0.610929 0.868048
O O11 0.833616 0.143772 0.470299
O O12 0.978191 0.500000 0.184911
O O13 0.000000 0.500000 0.000000
O O14 0.596585 0.923493 0.840176
O O15 0.715861 0.900422 0.102890
O O16 0.310463 0.500000 0.342398
O O17 0.500000 0.000000 0.500000
#
# Coordination Sequence:
#
# PCOD8082884 Si02
#       8
#     8   8   8   8   4   8   8   4
#     4  10  18  34  48  64  93 128 164 203 243 283
#     4   9  18  29  43  68  92 124 159 193 244 293
#     4   9  16  28  49  69  93 125 162 197 237 291
#     4   9  18  29  43  66  96 124 155 193 244 301
#     4  12  26  36  48  72  98 132 172 208 248 284
#     4  10  18  32  50  66  91 126 166 207 239 275
#     4   9  16  28  47  71  95 125 160 193 241 295
#     4  12  22  36  52  72  94 128 176 216 236 276
#
# _framework density 16.455425999999999
#
# number of rings (size 3 to 8) (size 9 to 14) (size 15 to 20)
#    0.000    2.286    2.857    0.857    2.000    4.000 
#    0.000    0.000    0.000    0.000    0.000    0.000 
#    0.000    2.286    0.000    0.143    0.000    0.000 
#
# Total GULP energy -347133.391786 kJ/mol
# GULP energy per Si atom -12397.621135 kJ/mol
# Density = 1.641797 g / cm^3
# Si number density = 16.455426 Si / 1000 Ang^3
#
#
#
# Elastic Constant Matrix: (Units=GPa)
#
#
# Indices 1 2 3 4 5 6 
#
# 1 101.5850 72.0424 46.8970 0.0000 -26.1022 0.0000
# 2 72.0424 142.3405 57.8349 0.0000 -22.1690 0.0000
# 3 46.8970 57.8349 77.3466 0.0000 -25.5959 0.0000
# 4 0.0000 0.0000 0.0000 -11.9748 0.0000 45.4579
# 5 -26.1022 -22.1690 -25.5959 0.0000 26.8686 0.0000
# 6 0.0000 0.0000 0.0000 45.4579 0.0000 -48.9334
#
#
#
# Elastic Compliance Matrix: (Units=1/GPa)
#
#
# Indices 1 2 3 4 5 6 
#
# 1 0.018358 -0.006560 -0.003089 0.000000 0.009479 0.000000
# 2 -0.006560 0.012487 -0.005927 0.000000 -0.001717 0.000000
# 3 -0.003089 -0.005927 0.024275 0.000000 0.015234 0.000000
# 4 0.000000 0.000000 0.000000 0.033053 0.000000 0.030705
# 5 0.009479 -0.001717 0.015234 0.000000 0.059523 0.000000
# 6 0.000000 0.000000 0.000000 0.030705 0.000000 0.008089
#
#
# Mechanical properties :
#
#
# Convention : Reuss Voigt Hill
#
# Bulk Modulus (GPa) = 41.72378 74.98009 58.35194
# Shear Modulus (GPa) = 25.65089 2.82525 14.23807
#
# Velocity S-wave (km/s) = 3.95246 1.31173 2.94471
# Velocity P-wave (km/s) = 6.80000 6.92522 6.86289
#
# Compressibility (1/GPa) = 0.02396715
#
# Stress axis : x y z
#
# Youngs Moduli (GPa) = 54.47258 80.08579 41.19478
#
# Poissons Ratio (x) = 0.52537 0.12724
# Poissons Ratio (y) = 0.35735 0.24418
# Poissons Ratio (z) = 0.16825 0.47470
#
# Static dielectric constant tensor:
#      x y z
#    x 3.013460 0.000000 -0.332100 
#    y 0.000000 3.243710 0.000000 
#    z -0.332100 0.000000 2.907690 
# 
# 
# High freq. dielectric constant tensor:
#      x y z
#    x 1.617350 0.000000 -0.036330 
#    y 0.000000 1.641960 0.000000 
#    z -0.036330 0.000000 1.601600 
# 
# From -- ./inp_files/112625.got.cif
#   From: 2010.06.25/outbox.cif.g09.slc.cpg/sg12_57_cif.got.tgz:112625.got - 2010.06.28 00:19:55.
