data_PCOD8082587
_publ_section_title
;
Structure prediction by ZEFSAII (Michael W. Deem and Ramdas Pophale) SiO2 
 PCOD8082587
Probable space group: C 2/M
;
_chemical_formula_sum "Si O2"
_cell_formula_units_Z 64
_cell_length_a 28.399437
_cell_length_b 13.679726
_cell_length_c 9.492087
_cell_angle_alpha 90.000000
_cell_angle_beta 95.640166
_cell_angle_gamma 90.000000
_cell_volume 3669.789924
_symmetry_space_group_name_H-M "C 2/M"
_symmetry_group_IT_number 12
_symmetry_cell_setting 'monoclinic'
loop_
_space_group_symop_operation_xyz
x,y,z
-x,y,-z
-x,-y,-z
x,-y,z
1/2+x,1/2+y,z
1/2-x,1/2+y,-z
1/2-x,1/2-y,-z
1/2+x,1/2-y,z
loop_
_atom_site_type_symbol
_atom_site_label
_atom_site_fract_x
_atom_site_fract_y
_atom_site_fract_z
Si Si1 0.933702 0.616144 0.100698
Si Si2 0.123518 0.384770 0.379460
Si Si3 0.290027 0.609924 0.590178
Si Si4 0.535464 0.115153 0.198244
Si Si5 0.814061 0.610310 0.357530
Si Si6 0.159722 0.732627 0.881103
Si Si7 0.795203 0.886041 0.272221
Si Si8 0.694711 0.786266 0.205562
O O1 0.921189 0.500000 0.107535
O O2 0.891990 0.684300 0.146014
O O3 0.980526 0.642422 0.207580
O O4 0.945140 0.651434 0.946350
O O5 0.122836 0.500000 0.395311
O O6 0.070329 0.344021 0.331546
O O7 0.144175 0.342856 0.532643
O O8 0.157216 0.361897 0.257547
O O9 0.304875 0.500000 0.640790
O O10 0.233253 0.617901 0.563541
O O11 0.308972 0.633268 0.439174
O O12 0.310520 0.685486 0.708862
O O13 0.539523 0.000000 0.193577
O O14 0.826072 0.500000 0.319000
O O15 0.806532 0.668441 0.210870
O O16 0.162983 0.841590 0.814545
O O17 0.180556 0.735146 0.041863
O O18 0.746325 0.832553 0.221427
O O19 0.790142 0.000000 0.237357
#
# Coordination Sequence:
#
# PCOD8082587 Si02
#       8
#     8   8   8   8   8   8   8   8
#     4   9  17  31  51  77 108 137 168 209 259 310
#     4  10  18  31  53  78 102 138 179 210 245 303
#     4  10  21  38  55  70  97 141 182 215 249 295
#     4   8  15  30  52  76 103 136 172 210 252 306
#     4  10  20  33  50  73 104 139 175 212 251 299
#     4  12  23  33  48  78 107 141 167 211 264 305
#     4  11  23  37  51  71 103 141 176 212 253 300
#     4  12  21  34  52  77 103 136 176 214 253 301
#
# _framework density 17.439689000000001
#
# number of rings (size 3 to 8) (size 9 to 14) (size 15 to 20)
#    0.000    1.750    3.750    3.000    0.000    2.000 
#    0.000    0.625    0.000    3.000    0.000    2.625 
#    0.000    3.000    0.000    0.000    0.000    0.000 
#
# Total GULP energy -396561.580886 kJ/mol
# GULP energy per Si atom -12392.549403 kJ/mol
# Density = 1.740000 g / cm^3
# Si number density = 17.439689 Si / 1000 Ang^3
#
#
#
# Elastic Constant Matrix: (Units=GPa)
#
#
# Indices 1 2 3 4 5 6 
#
# 1 72.8777 32.9539 26.5602 0.0000 3.7114 0.0000
# 2 32.9539 62.3997 35.8594 0.0000 0.7825 0.0000
# 3 26.5602 35.8594 103.6386 0.0000 9.4054 0.0000
# 4 0.0000 0.0000 0.0000 26.3339 0.0000 -9.0192
# 5 3.7114 0.7825 9.4054 0.0000 25.2610 0.0000
# 6 0.0000 0.0000 0.0000 -9.0192 0.0000 22.2135
#
#
#
# Elastic Compliance Matrix: (Units=1/GPa)
#
#
# Indices 1 2 3 4 5 6 
#
# 1 0.018341 -0.008811 -0.001482 0.000000 -0.001870 0.000000
# 2 -0.008811 0.024336 -0.006429 0.000000 0.002934 0.000000
# 3 -0.001482 -0.006429 0.012642 0.000000 -0.004290 0.000000
# 4 0.000000 0.000000 0.000000 0.044108 0.000000 0.017909
# 5 -0.001870 0.002934 -0.004290 0.000000 0.041368 0.000000
# 6 0.000000 0.000000 0.000000 0.017909 0.000000 0.052289
#
#
# Mechanical properties :
#
#
# Convention : Reuss Voigt Hill
#
# Bulk Modulus (GPa) = 45.71120 47.74032 46.72576
# Shear Modulus (GPa) = 21.38393 24.33116 22.85754
#
# Velocity S-wave (km/s) = 3.50546 3.73924 3.62423
# Velocity P-wave (km/s) = 6.53087 6.78797 6.66066
#
# Compressibility (1/GPa) = 0.02187648
#
# Stress axis : x y z
#
# Youngs Moduli (GPa) = 54.52221 41.09055 79.09843
#
# Poissons Ratio (x) = 0.36205 0.11723
# Poissons Ratio (y) = 0.48039 0.50851
# Poissons Ratio (z) = 0.08081 0.26416
#
# Static dielectric constant tensor:
#      x y z
#    x 3.454910 0.000000 0.203040 
#    y 0.000000 3.215290 0.000000 
#    z 0.203040 0.000000 3.394170 
# 
# 
# High freq. dielectric constant tensor:
#      x y z
#    x 1.654640 0.000000 0.005220 
#    y 0.000000 1.648880 0.000000 
#    z 0.005220 0.000000 1.678400 
# 
# From -- ./inp_files/111208.got.cif
#   From: 2010.06.25/outbox.cif.g09.slc.cpg/sg12_56_cif.got.tgz:111208.got - 2010.06.28 00:19:55.
