data_PCOD8082796
_publ_section_title
;
Structure prediction by ZEFSAII (Michael W. Deem and Ramdas Pophale) SiO2 
 PCOD8082796
Probable space group: C 2/M
;
_chemical_formula_sum "Si O2"
_cell_formula_units_Z 40
_cell_length_a 16.973732
_cell_length_b 28.832154
_cell_length_c 9.328446
_cell_angle_alpha 90.000000
_cell_angle_beta 152.710022
_cell_angle_gamma 90.000000
_cell_volume 2093.136233
_symmetry_space_group_name_H-M "C 2/M"
_symmetry_group_IT_number 12
_symmetry_cell_setting 'monoclinic'
loop_
_space_group_symop_operation_xyz
x,y,z
-x,y,-z
-x,-y,-z
x,-y,z
1/2+x,1/2+y,z
1/2-x,1/2+y,-z
1/2-x,1/2-y,-z
1/2+x,1/2-y,z
loop_
_atom_site_type_symbol
_atom_site_label
_atom_site_fract_x
_atom_site_fract_y
_atom_site_fract_z
Si Si1 0.669817 0.382049 0.192865
Si Si2 0.801690 0.553585 0.648694
Si Si3 0.755359 0.202999 0.313177
Si Si4 0.107795 0.700867 0.392302
Si Si5 0.949383 0.110562 0.577992
O O1 0.749289 0.424203 0.412084
O O2 0.812812 0.342834 0.396323
O O3 0.500000 0.361922 0.000000
O O4 0.612803 0.399834 0.944272
O O5 0.750778 0.500000 0.560252
O O6 0.707063 0.577937 0.628032
O O7 0.000000 0.561717 0.000000
O O8 0.842221 0.253237 0.438945
O O9 0.688415 0.197869 0.365465
O O10 0.896285 0.164426 0.504746
O O11 0.598132 0.198086 0.947680
O O12 0.000000 0.097173 0.500000
#
# Coordination Sequence:
#
# PCOD8082796 Si02
#       5
#     8   8   8   8   8
#     4  10  19  34  57  83 113 149 194 235 280 335
#     4  10  21  40  65  88 111 145 195 241 280 339
#     4  10  19  31  53  81 114 147 192 238 278 330
#     4  10  18  31  56  81 107 149 199 240 272 327
#     4  11  23  38  56  86 124 152 185 236 295 344
#
# _framework density 19.11008
#
# number of rings (size 3 to 8) (size 9 to 14) (size 15 to 20)
#    0.000    1.800    4.000    2.400    2.800    4.000 
#    0.000    8.000    0.000    2.400    0.000    0.000 
#    0.000    0.000    0.000    0.000    0.000    0.000 
#
# Total GULP energy -248025.327185 kJ/mol
# GULP energy per Si atom -12401.266359 kJ/mol
# Density = 1.906658 g / cm^3
# Si number density = 19.110080 Si / 1000 Ang^3
#
#
#
# Elastic Constant Matrix: (Units=GPa)
#
#
# Indices 1 2 3 4 5 6 
#
# 1 74.8992 47.2341 43.6146 0.0000 -19.8493 0.0000
# 2 47.2341 135.1970 54.4000 0.0000 0.3919 0.0000
# 3 43.6146 54.4000 117.9740 0.0000 -9.6496 0.0000
# 4 0.0000 0.0000 0.0000 34.3203 0.0000 3.4431
# 5 -19.8493 0.3919 -9.6496 0.0000 21.3391 0.0000
# 6 0.0000 0.0000 0.0000 3.4431 0.0000 9.3553
#
#
#
# Elastic Compliance Matrix: (Units=1/GPa)
#
#
# Indices 1 2 3 4 5 6 
#
# 1 0.026969 -0.007662 -0.004542 0.000000 0.023173 0.000000
# 2 -0.007662 0.011353 -0.003118 0.000000 -0.008745 0.000000
# 3 -0.004542 -0.003118 0.011685 0.000000 0.001116 0.000000
# 4 0.000000 0.000000 0.000000 0.030254 0.000000 -0.011135
# 5 0.023173 -0.008745 0.001116 0.000000 0.069083 0.000000
# 6 0.000000 0.000000 0.000000 -0.011135 0.000000 0.110989
#
#
# Mechanical properties :
#
#
# Convention : Reuss Voigt Hill
#
# Bulk Modulus (GPa) = 51.64340 68.72973 60.18656
# Shear Modulus (GPa) = 16.81054 25.19104 21.00079
#
# Velocity S-wave (km/s) = 2.96914 3.63465 3.31862
# Velocity P-wave (km/s) = 6.23195 7.32513 6.80054
#
# Compressibility (1/GPa) = 0.01936356
#
# Stress axis : x y z
#
# Youngs Moduli (GPa) = 37.07935 88.07900 85.58225
#
# Poissons Ratio (x) = 0.67485 0.38871
# Poissons Ratio (y) = 0.28410 0.26685
# Poissons Ratio (z) = 0.16841 0.27463
#
# Static dielectric constant tensor:
#      x y z
#    x 3.048970 0.000000 0.011840 
#    y 0.000000 3.525240 0.000000 
#    z 0.011840 0.000000 3.855800 
# 
# 
# High freq. dielectric constant tensor:
#      x y z
#    x 1.693190 0.000000 0.004140 
#    y 0.000000 1.741670 0.000000 
#    z 0.004140 0.000000 1.765580 
# 
# From -- ./inp_files/40541.got.cif
#   From: 2010.06.25/outbox.cif.g09.slc.cpg/sg12_21_cif.got.tgz:40541.got - 2010.06.28 00:19:55.
