data_PCOD8082588
_publ_section_title
;
Structure prediction by ZEFSAII (Michael W. Deem and Ramdas Pophale) SiO2 
 PCOD8082588
Probable space group: C 2/M
;
_chemical_formula_sum "Si O2"
_cell_formula_units_Z 64
_cell_length_a 15.367512
_cell_length_b 9.440991
_cell_length_c 25.415606
_cell_angle_alpha 90.000000
_cell_angle_beta 72.920172
_cell_angle_gamma 90.000000
_cell_volume 3524.783730
_symmetry_space_group_name_H-M "C 2/M"
_symmetry_group_IT_number 12
_symmetry_cell_setting 'monoclinic'
loop_
_space_group_symop_operation_xyz
x,y,z
-x,y,-z
-x,-y,-z
x,-y,z
1/2+x,1/2+y,z
1/2-x,1/2+y,-z
1/2-x,1/2-y,-z
1/2+x,1/2-y,z
loop_
_atom_site_type_symbol
_atom_site_label
_atom_site_fract_x
_atom_site_fract_y
_atom_site_fract_z
Si Si1 0.398187 0.665711 0.880198
Si Si2 0.835687 0.168393 0.316349
Si Si3 0.907574 0.167708 0.190585
Si Si4 0.537990 0.667190 0.612628
Si Si5 0.341455 0.334779 0.622781
Si Si6 0.334065 0.659222 0.999957
Si Si7 0.163554 0.835994 0.497974
Si Si8 0.782119 0.165694 0.119694
O O1 0.384097 0.500000 0.869287
O O2 0.490758 0.726520 0.838136
O O3 0.410908 0.688402 0.941772
O O4 0.311947 0.749858 0.872075
O O5 0.877606 0.216630 0.253592
O O6 0.902609 0.228362 0.349734
O O7 0.738352 0.240369 0.339936
O O8 0.822832 0.000000 0.322014
O O9 0.833907 0.226341 0.161729
O O10 0.910832 0.000000 0.184268
O O11 0.539048 0.500000 0.616078
O O12 0.433440 0.717175 0.635672
O O13 0.579603 0.715068 0.549203
O O14 0.319933 0.500000 0.636711
O O15 0.359159 0.305673 0.558271
O O16 0.300290 0.500000 0.999981
O O17 0.250000 0.750000 0.000000
O O18 0.354556 0.688505 0.058086
O O19 0.250000 0.750000 0.500000
O O20 0.184986 0.000000 0.504219
O O21 0.757460 0.000000 0.130486
#
# Coordination Sequence:
#
# PCOD8082588 Si02
#       8
#     8   8   8   8   8   8   8   8
#     4   9  17  31  50  73  98 126 163 203 243 291
#     4  10  20  36  53  70  97 132 168 205 246 289
#     4   9  19  33  50  71  96 129 168 205 242 291
#     4   9  18  33  53  74  99 132 163 193 241 296
#     4  10  20  34  54  78 101 128 165 205 242 288
#     4   8  14  25  45  70  96 124 155 196 243 292
#     4  10  18  31  53  78 104 131 159 196 243 292
#     4   9  17  31  49  71  99 129 160 198 249 297
#
# _framework density 18.157142
#
# number of rings (size 3 to 8) (size 9 to 14) (size 15 to 20)
#    0.000    2.750    1.250    0.375    0.000    3.000 
#    0.000    6.875    0.000    1.500    0.000    8.750 
#    0.000    0.000    0.000    0.000    0.000    0.000 
#
# Total GULP energy -396486.831013 kJ/mol
# GULP energy per Si atom -12390.213469 kJ/mol
# Density = 1.811582 g / cm^3
# Si number density = 18.157142 Si / 1000 Ang^3
#
#
#
# Elastic Constant Matrix: (Units=GPa)
#
#
# Indices 1 2 3 4 5 6 
#
# 1 130.0786 30.4999 67.2472 0.0000 -19.3052 0.0000
# 2 30.4999 31.5988 31.3586 0.0000 -6.0144 0.0000
# 3 67.2472 31.3586 145.3448 0.0000 -18.7852 0.0000
# 4 0.0000 0.0000 0.0000 19.4910 0.0000 -3.5601
# 5 -19.3052 -6.0144 -18.7852 0.0000 19.5467 0.0000
# 6 0.0000 0.0000 0.0000 -3.5601 0.0000 25.3244
#
#
#
# Elastic Compliance Matrix: (Units=1/GPa)
#
#
# Indices 1 2 3 4 5 6 
#
# 1 0.011974 -0.007189 -0.003136 0.000000 0.006600 0.000000
# 2 -0.007189 0.044953 -0.006283 0.000000 0.000693 0.000000
# 3 -0.003136 -0.006283 0.010318 0.000000 0.004886 0.000000
# 4 0.000000 0.000000 0.000000 0.052658 0.000000 0.007403
# 5 0.006600 0.000693 0.004886 0.000000 0.062587 0.000000
# 6 0.000000 0.000000 0.000000 0.007403 0.000000 0.040528
#
#
# Mechanical properties :
#
#
# Convention : Reuss Voigt Hill
#
# Bulk Modulus (GPa) = 29.38661 62.80374 46.09517
# Shear Modulus (GPa) = 18.68614 24.73352 21.70983
#
# Velocity S-wave (km/s) = 3.21149 3.69479 3.46159
# Velocity P-wave (km/s) = 5.47461 7.27091 6.43574
#
# Compressibility (1/GPa) = 0.03402910
#
# Stress axis : x y z
#
# Youngs Moduli (GPa) = 83.51336 22.24535 96.91693
#
# Poissons Ratio (x) = 0.15993 0.30392
# Poissons Ratio (y) = 0.60041 0.60892
# Poissons Ratio (z) = 0.26189 0.13977
#
# Static dielectric constant tensor:
#      x y z
#    x 3.106850 0.000000 0.164230 
#    y 0.000000 3.073020 0.000000 
#    z 0.164230 0.000000 4.291860 
# 
# 
# High freq. dielectric constant tensor:
#      x y z
#    x 1.698100 0.000000 0.000410 
#    y 0.000000 1.669980 0.000000 
#    z 0.000410 0.000000 1.715800 
# 
# From -- ./inp_files/339318.got.cif
#   From: 2010.06.25/outbox.cif.g09.slc.cpg/sg12_170_cif.got.tgz:339318.got - 2010.06.28 00:19:55.
