data_PCOD8082768
_publ_section_title
;
Structure prediction by ZEFSAII (Michael W. Deem and Ramdas Pophale) SiO2 
 PCOD8082768
Probable space group: C 2/M
;
_chemical_formula_sum "Si O2"
_cell_formula_units_Z 56
_cell_length_a 15.274277
_cell_length_b 8.453611
_cell_length_c 24.580043
_cell_angle_alpha 90.000000
_cell_angle_beta 118.572202
_cell_angle_gamma 90.000000
_cell_volume 2787.317675
_symmetry_space_group_name_H-M "C 2/M"
_symmetry_group_IT_number 12
_symmetry_cell_setting 'monoclinic'
loop_
_space_group_symop_operation_xyz
x,y,z
-x,y,-z
-x,-y,-z
x,-y,z
1/2+x,1/2+y,z
1/2-x,1/2+y,-z
1/2-x,1/2-y,-z
1/2+x,1/2-y,z
loop_
_atom_site_type_symbol
_atom_site_label
_atom_site_fract_x
_atom_site_fract_y
_atom_site_fract_z
Si Si1 0.650395 0.187324 0.495982
Si Si2 0.412840 0.685700 0.713464
Si Si3 0.194938 0.686784 0.627123
Si Si4 0.766023 0.314412 0.064818
Si Si5 0.981950 0.814108 0.146805
Si Si6 0.009279 0.314064 0.637210
Si Si7 0.920904 0.314775 0.930436
O O1 0.750000 0.250000 0.500000
O O2 0.646214 0.252305 0.556626
O O3 0.558879 0.250507 0.432576
O O4 0.648460 0.000000 0.495304
O O5 0.400822 0.500000 0.714960
O O6 0.303678 0.762950 0.670591
O O7 0.458593 0.750568 0.783067
O O8 0.485989 0.725895 0.685932
O O9 0.206190 0.500000 0.624176
O O10 0.122933 0.728932 0.655888
O O11 0.745434 0.500000 0.059231
O O12 0.878506 0.279783 0.115718
O O13 0.689980 0.231758 0.083901
O O14 0.750000 0.250000 0.000000
O O15 0.050155 0.779808 0.114944
O O16 0.959010 0.000000 0.143263
O O17 0.993489 0.500000 0.641114
O O18 0.925565 0.500000 0.919272
O O19 0.000000 0.266571 0.000000
#
# Coordination Sequence:
#
# PCOD8082768 Si02
#       7
#     8   8   8   8   8   8   8
#     4  10  18  31  55  83 112 148 193 244 299 349
#     4  10  22  40  59  82 116 158 195 238 293 349
#     4   9  18  35  57  80 114 154 193 239 292 350
#     4  12  24  40  65  94 124 158 197 246 302 356
#     4  11  24  41  62  90 124 162 207 249 298 363
#     4  10  20  34  57  86 113 150 200 246 291 351
#     4  11  23  40  65  95 125 157 195 243 303 361
#
# _framework density 20.090999
#
# number of rings (size 3 to 8) (size 9 to 14) (size 15 to 20)
#    0.000    1.571    2.857    2.571    0.000    4.571 
#    0.000    2.857    0.000    1.714    0.000    0.000 
#    0.000    0.000    0.000    0.000    0.000    0.000 
#
# Total GULP energy -347228.094692 kJ/mol
# GULP energy per Si atom -12401.003382 kJ/mol
# Density = 2.004527 g / cm^3
# Si number density = 20.090999 Si / 1000 Ang^3
#
#
#
# Elastic Constant Matrix: (Units=GPa)
#
#
# Indices 1 2 3 4 5 6 
#
# 1 131.4773 -2.9902 55.8964 0.0000 -7.0273 0.0000
# 2 -2.9902 26.3769 19.5121 0.0000 3.0107 0.0000
# 3 55.8964 19.5121 149.5479 0.0000 -13.5752 0.0000
# 4 0.0000 0.0000 0.0000 21.2415 0.0000 -2.7887
# 5 -7.0273 3.0107 -13.5752 0.0000 20.5053 0.0000
# 6 0.0000 0.0000 0.0000 -2.7887 0.0000 34.4233
#
#
#
# Elastic Compliance Matrix: (Units=1/GPa)
#
#
# Indices 1 2 3 4 5 6 
#
# 1 0.009421 0.004077 -0.004058 0.000000 -0.000057 0.000000
# 2 0.004077 0.045924 -0.008512 0.000000 -0.010981 0.000000
# 3 -0.004058 -0.008512 0.009896 0.000000 0.006411 0.000000
# 4 0.000000 0.000000 0.000000 0.047584 0.000000 0.003855
# 5 -0.000057 -0.010981 0.006411 0.000000 0.054605 0.000000
# 6 0.000000 0.000000 0.000000 0.003855 0.000000 0.029362
#
#
# Mechanical properties :
#
#
# Convention : Reuss Voigt Hill
#
# Bulk Modulus (GPa) = 20.72399 50.24874 35.48636
# Shear Modulus (GPa) = 21.75186 30.89961 26.32574
#
# Velocity S-wave (km/s) = 3.29396 3.92597 3.62377
# Velocity P-wave (km/s) = 4.98040 6.75395 5.93381
#
# Compressibility (1/GPa) = 0.04825327
#
# Stress axis : x y z
#
# Youngs Moduli (GPa) = 106.14696 21.77489 101.04833
#
# Poissons Ratio (x) = -0.08877 0.41008
# Poissons Ratio (y) = -0.43271 0.86017
# Poissons Ratio (z) = 0.43077 0.18536
#
# Static dielectric constant tensor:
#      x y z
#    x 3.803420 0.000000 0.173060 
#    y 0.000000 3.530460 0.000000 
#    z 0.173060 0.000000 4.062680 
# 
# 
# High freq. dielectric constant tensor:
#      x y z
#    x 1.798780 0.000000 -0.000390 
#    y 0.000000 1.763250 0.000000 
#    z -0.000390 0.000000 1.787280 
# 
# From -- ./inp_files/339090.got.cif
#   From: 2010.06.25/outbox.cif.g09.slc.cpg/sg12_170_cif.got.tgz:339090.got - 2010.06.28 00:19:55.
