data_PCOD8082409
_publ_section_title
;
Structure prediction by ZEFSAII (Michael W. Deem and Ramdas Pophale) SiO2 
 PCOD8082409
Probable space group: C 2/M
;
_chemical_formula_sum "Si O2"
_cell_formula_units_Z 64
_cell_length_a 20.104385
_cell_length_b 8.989465
_cell_length_c 22.399685
_cell_angle_alpha 90.000000
_cell_angle_beta 116.153348
_cell_angle_gamma 90.000000
_cell_volume 3633.773801
_symmetry_space_group_name_H-M "C 2/M"
_symmetry_group_IT_number 12
_symmetry_cell_setting 'monoclinic'
loop_
_space_group_symop_operation_xyz
x,y,z
-x,y,-z
-x,-y,-z
x,-y,z
1/2+x,1/2+y,z
1/2-x,1/2+y,-z
1/2-x,1/2-y,-z
1/2+x,1/2-y,z
loop_
_atom_site_type_symbol
_atom_site_label
_atom_site_fract_x
_atom_site_fract_y
_atom_site_fract_z
Si Si1 0.312593 0.327823 0.951330
Si Si2 0.505047 0.176246 0.414663
Si Si3 0.393773 0.674247 0.448110
Si Si4 0.652586 0.825607 0.914877
Si Si5 0.554178 0.327413 0.074480
Si Si6 0.418601 0.175494 0.675530
Si Si7 0.507585 0.176244 0.176500
Si Si8 0.263427 0.173117 0.567901
O O1 0.315722 0.500000 0.969759
O O2 0.226905 0.275998 0.908271
O O3 0.360563 0.296890 0.911122
O O4 0.350112 0.243826 0.020845
O O5 0.569594 0.244390 0.481006
O O6 0.426481 0.251977 0.400675
O O7 0.523508 0.216590 0.353778
O O8 0.501147 0.000000 0.423793
O O9 0.413405 0.500000 0.457961
O O10 0.305656 0.700801 0.415131
O O11 0.578657 0.775019 0.850712
O O12 0.651990 0.000000 0.924306
O O13 0.539224 0.500000 0.082016
O O14 0.542209 0.236226 0.129521
O O15 0.500000 0.272843 0.000000
O O16 0.448609 0.244329 0.749408
O O17 0.336938 0.240083 0.628379
O O18 0.412591 0.000000 0.679845
O O19 0.514978 0.000000 0.178172
O O20 0.250000 0.250000 0.500000
O O21 0.274627 0.000000 0.558506
#
# Coordination Sequence:
#
# PCOD8082409 Si02
#       8
#     8   8   8   8   8   8   8   8
#     4   9  17  30  48  70  98 126 156 201 249 292
#     4  10  18  31  52  73  99 133 167 202 246 305
#     4  10  19  30  49  77 104 125 159 212 257 290
#     4   9  17  29  48  73  95 122 162 204 243 286
#     4  10  19  32  50  73 102 134 165 201 252 304
#     4   9  19  35  52  72 100 136 170 205 253 302
#     4  10  20  34  52  73 100 132 170 210 248 298
#     4  10  19  33  53  75 101 133 169 211 255 300
#
# _framework density 17.612544
#
# number of rings (size 3 to 8) (size 9 to 14) (size 15 to 20)
#    0.000    2.375    2.500    1.500    0.000    1.250 
#    0.000    3.125    0.000    1.500    0.000    0.000 
#    0.000    0.000    0.000    0.000    0.000    0.000 
#
# Total GULP energy -396660.536817 kJ/mol
# GULP energy per Si atom -12395.641776 kJ/mol
# Density = 1.757246 g / cm^3
# Si number density = 17.612544 Si / 1000 Ang^3
#
#
#
# Elastic Constant Matrix: (Units=GPa)
#
#
# Indices 1 2 3 4 5 6 
#
# 1 141.5177 34.4758 80.3939 0.0000 7.6587 0.0000
# 2 34.4758 38.5168 28.0649 0.0000 3.9614 0.0000
# 3 80.3939 28.0649 133.6102 0.0000 5.3610 0.0000
# 4 0.0000 0.0000 0.0000 16.8003 0.0000 -2.0901
# 5 7.6587 3.9614 5.3610 0.0000 24.4584 0.0000
# 6 0.0000 0.0000 0.0000 -2.0901 0.0000 24.9900
#
#
#
# Elastic Compliance Matrix: (Units=1/GPa)
#
#
# Indices 1 2 3 4 5 6 
#
# 1 0.012003 -0.006346 -0.005831 0.000000 -0.001453 0.000000
# 2 -0.006346 0.034324 -0.003277 0.000000 -0.002854 0.000000
# 3 -0.005831 -0.003277 0.011690 0.000000 -0.000206 0.000000
# 4 0.000000 0.000000 0.000000 0.060149 0.000000 0.005031
# 5 -0.001453 -0.002854 -0.000206 0.000000 0.041848 0.000000
# 6 0.000000 0.000000 0.000000 0.005031 0.000000 0.040437
#
#
# Mechanical properties :
#
#
# Convention : Reuss Voigt Hill
#
# Bulk Modulus (GPa) = 36.88806 66.61265 51.75035
# Shear Modulus (GPa) = 20.79912 24.63042 22.71477
#
# Velocity S-wave (km/s) = 3.44019 3.74365 3.59513
# Velocity P-wave (km/s) = 6.06379 7.52262 6.83225
#
# Compressibility (1/GPa) = 0.02710905
#
# Stress axis : x y z
#
# Youngs Moduli (GPa) = 83.30919 29.13420 85.54481
#
# Poissons Ratio (x) = 0.18488 0.49884
# Poissons Ratio (y) = 0.52866 0.28033
# Poissons Ratio (z) = 0.48580 0.09547
#
# Static dielectric constant tensor:
#      x y z
#    x 3.768940 0.000000 0.200820 
#    y 0.000000 3.164020 0.000000 
#    z 0.200820 0.000000 3.270510 
# 
# 
# High freq. dielectric constant tensor:
#      x y z
#    x 1.700880 0.000000 0.005850 
#    y 0.000000 1.668760 0.000000 
#    z 0.005850 0.000000 1.650340 
# 
# From -- ./inp_files/345609.got.cif
#   From: 2010.06.25/outbox.cif.g09.slc.cpg/sg12_173_cif.got.tgz:345609.got - 2010.06.28 00:19:55.
