data_PCOD8082356
_publ_section_title
;
Structure prediction by ZEFSAII (Michael W. Deem and Ramdas Pophale) SiO2 
 PCOD8082356
Probable space group: C 2/M
;
_chemical_formula_sum "Si O2"
_cell_formula_units_Z 56
_cell_length_a 20.432720
_cell_length_b 9.212838
_cell_length_c 19.287556
_cell_angle_alpha 90.000000
_cell_angle_beta 59.204313
_cell_angle_gamma 90.000000
_cell_volume 3118.811974
_symmetry_space_group_name_H-M "C 2/M"
_symmetry_group_IT_number 12
_symmetry_cell_setting 'monoclinic'
loop_
_space_group_symop_operation_xyz
x,y,z
-x,y,-z
-x,-y,-z
x,-y,z
1/2+x,1/2+y,z
1/2-x,1/2+y,-z
1/2-x,1/2-y,-z
1/2+x,1/2-y,z
loop_
_atom_site_type_symbol
_atom_site_label
_atom_site_fract_x
_atom_site_fract_y
_atom_site_fract_z
Si Si1 0.155874 0.328277 0.831590
Si Si2 0.723772 0.830702 0.313643
Si Si3 0.426896 0.840283 0.991036
Si Si4 0.472189 0.667517 0.325561
Si Si5 0.548366 0.829322 0.408305
Si Si6 0.798445 0.169538 0.417263
Si Si7 0.984625 0.831176 0.160663
O O1 0.153376 0.500000 0.818981
O O2 0.238495 0.262587 0.768543
O O3 0.142583 0.294096 0.920698
O O4 0.091406 0.254116 0.819117
O O5 0.636141 0.786790 0.371549
O O6 0.768386 0.786574 0.358424
O O7 0.732464 0.000000 0.291181
O O8 0.412057 0.000000 0.966576
O O9 0.500000 0.847424 0.000000
O O10 0.441298 0.725505 0.921739
O O11 0.479216 0.500000 0.342644
O O12 0.521695 0.760116 0.351270
O O13 0.385214 0.720017 0.377089
O O14 0.502874 0.693915 0.231379
O O15 0.500000 0.768998 0.500000
O O16 0.536427 0.000000 0.408317
O O17 0.750000 0.250000 0.500000
O O18 0.788764 0.000000 0.434825
O O19 0.970734 0.000000 0.151837
#
# Coordination Sequence:
#
# PCOD8082356 Si02
#       7
#     8   8   8   8   8   8   8
#     4  10  19  31  50  78 110 141 175 216 264 314
#     4  10  20  36  55  76 107 139 175 222 264 314
#     4   8  16  29  45  73 110 140 170 214 262 311
#     4  10  21  36  54  77 108 140 173 219 267 313
#     4  10  22  39  58  78 103 140 181 221 267 319
#     4  10  20  35  53  76 104 134 170 218 268 314
#     4  10  18  31  51  77 108 142 177 215 263 314
#
# _framework density 17.955555
#
# number of rings (size 3 to 8) (size 9 to 14) (size 15 to 20)
#    0.000    2.286    1.429    2.571    0.000    7.429 
#    0.000    0.000    0.000    0.857    0.000    0.000 
#    0.000    0.000    0.000    0.000    0.000    0.000 
#
# Total GULP energy -347184.216522 kJ/mol
# GULP energy per Si atom -12399.436304 kJ/mol
# Density = 1.791469 g / cm^3
# Si number density = 17.955555 Si / 1000 Ang^3
#
#
#
# Elastic Constant Matrix: (Units=GPa)
#
#
# Indices 1 2 3 4 5 6 
#
# 1 57.3701 33.1516 27.7569 0.0001 -4.1750 0.0007
# 2 33.1516 70.8059 60.4381 0.0002 -5.5454 0.0020
# 3 27.7569 60.4381 131.7399 0.0000 -17.5780 0.0002
# 4 0.0001 0.0002 0.0000 37.7125 0.0000 -0.5772
# 5 -4.1750 -5.5454 -17.5780 0.0000 25.6922 0.0000
# 6 0.0007 0.0020 0.0002 -0.5772 0.0000 25.4408
#
#
#
# Elastic Compliance Matrix: (Units=1/GPa)
#
#
# Indices 1 2 3 4 5 6 
#
# 1 0.023966 -0.011460 0.000437 0.000000 0.001720 0.000000
# 2 -0.011460 0.028840 -0.011262 0.000000 -0.003343 -0.000002
# 3 0.000437 -0.011262 0.013591 0.000000 0.006939 0.000001
# 4 0.000000 0.000000 0.000000 0.026526 0.000000 0.000602
# 5 0.001720 -0.003343 0.006939 0.000000 0.043228 0.000000
# 6 0.000000 -0.000002 0.000001 0.000602 0.000000 0.039321
#
#
# Mechanical properties :
#
#
# Convention : Reuss Voigt Hill
#
# Bulk Modulus (GPa) = 45.81256 55.84544 50.82900
# Shear Modulus (GPa) = 21.99569 27.00708 24.50138
#
# Velocity S-wave (km/s) = 3.50381 3.88249 3.69800
# Velocity P-wave (km/s) = 6.47601 7.16016 6.82666
#
# Compressibility (1/GPa) = 0.02182808
#
# Stress axis : x y z
#
# Youngs Moduli (GPa) = 41.72523 34.67396 73.57635
#
# Poissons Ratio (x) = 0.39735 -0.03217
# Poissons Ratio (y) = 0.47816 0.82865
# Poissons Ratio (z) = -0.01825 0.39051
#
# Static dielectric constant tensor:
#      x y z
#    x 3.055160 0.000000 -0.194330 
#    y 0.000000 3.334170 0.000000 
#    z -0.194330 0.000000 3.696200 
# 
# 
# High freq. dielectric constant tensor:
#      x y z
#    x 1.660320 0.000000 -0.010720 
#    y 0.000000 1.695350 0.000000 
#    z -0.010720 0.000000 1.711690 
# 
# From -- ./inp_files/275275.got.cif
#   From: 2010.06.25/outbox.cif.g09.slc.cpg/sg12_138_cif.got.tgz:275275.got - 2010.06.28 00:19:55.
