data_PCOD8082920
_publ_section_title
;
Structure prediction by ZEFSAII (Michael W. Deem and Ramdas Pophale) SiO2 
 PCOD8082920
Probable space group: C 2/M
;
_chemical_formula_sum "Si O2"
_cell_formula_units_Z 52
_cell_length_a 20.996775
_cell_length_b 12.144562
_cell_length_c 22.729392
_cell_angle_alpha 90.000000
_cell_angle_beta 150.647523
_cell_angle_gamma 90.000000
_cell_volume 2841.048958
_symmetry_space_group_name_H-M "C 2/M"
_symmetry_group_IT_number 12
_symmetry_cell_setting 'monoclinic'
loop_
_space_group_symop_operation_xyz
x,y,z
-x,y,-z
-x,-y,-z
x,-y,z
1/2+x,1/2+y,z
1/2-x,1/2+y,-z
1/2-x,1/2-y,-z
1/2+x,1/2-y,z
loop_
_atom_site_type_symbol
_atom_site_label
_atom_site_fract_x
_atom_site_fract_y
_atom_site_fract_z
Si Si1 0.917814 0.000000 0.052348
Si Si2 0.491526 0.875090 0.059617
Si Si3 0.134789 0.717663 0.731954
Si Si4 0.402707 0.812701 0.471348
Si Si5 0.798563 0.000000 0.704251
Si Si6 0.288813 0.272655 0.965385
Si Si7 0.213849 0.874852 0.693523
Si Si8 0.704507 0.500000 0.163284
O O1 0.835745 0.103594 0.005989
O O2 0.053005 0.000000 0.198671
O O3 0.918810 0.000000 0.980884
O O4 0.402352 0.803843 0.030703
O O5 0.635170 0.872337 0.202026
O O6 0.436662 0.000000 0.012635
O O7 0.500000 0.825967 0.000000
O O8 0.189175 0.818400 0.736728
O O9 0.209463 0.607582 0.775754
O O10 0.980903 0.699117 0.595701
O O11 0.160778 0.743562 0.821349
O O12 0.500000 0.862996 0.500000
O O13 0.279274 0.892246 0.379367
O O14 0.360314 0.690902 0.417427
O O15 0.838308 0.000000 0.804292
O O16 0.250000 0.250000 0.000000
O O17 0.161972 0.000000 0.653930
#
# Coordination Sequence:
#
# PCOD8082920 Si02
#       8
#     4   8   8   8   4   8   8   4
#     4  10  25  35  54  84 110 146 191 236 285 338
#     4  10  20  36  60  85 112 151 196 239 287 341
#     4  10  20  34  52  81 113 147 185 226 282 338
#     4  10  19  29  50  81 118 148 181 223 288 337
#     4  12  17  32  57  82 114 146 178 227 282 347
#     4  11  24  40  60  82 118 150 191 238 297 348
#     4  10  19  32  52  83 115 146 190 235 280 335
#     4  10  18  32  50  81 114 140 173 225 281 335
#
# _framework density 18.303097999999999
#
# number of rings (size 3 to 8) (size 9 to 14) (size 15 to 20)
#    0.000    1.692    4.615    1.846    1.077    2.769 
#    0.000    0.000    0.000    3.692    0.000    0.000 
#    0.000    0.000    0.000    0.000    0.000    0.000 
#
# Total GULP energy -322237.649615 kJ/mol
# GULP energy per Si atom -12393.755754 kJ/mol
# Density = 1.826144 g / cm^3
# Si number density = 18.303098 Si / 1000 Ang^3
#
#
#
# Elastic Constant Matrix: (Units=GPa)
#
#
# Indices 1 2 3 4 5 6 
#
# 1 82.3918 36.9942 44.5953 0.0000 -12.1525 0.0001
# 2 36.9942 132.8810 51.6258 0.0000 -0.8473 0.0001
# 3 44.5953 51.6258 159.1530 -0.0001 -4.5490 0.0003
# 4 0.0000 0.0000 -0.0001 28.6291 -0.0001 0.1096
# 5 -12.1525 -0.8473 -4.5490 -0.0001 20.0710 0.0001
# 6 0.0001 0.0001 0.0003 0.1096 0.0001 12.9493
#
#
#
# Elastic Compliance Matrix: (Units=1/GPa)
#
#
# Indices 1 2 3 4 5 6 
#
# 1 0.016819 -0.003313 -0.003373 0.000000 0.009279 0.000000
# 2 -0.003313 0.009265 -0.002137 0.000000 -0.002099 0.000000
# 3 -0.003373 -0.002137 0.007912 0.000000 -0.000339 0.000000
# 4 0.000000 0.000000 0.000000 0.034931 0.000000 -0.000296
# 5 0.009279 -0.002099 -0.000339 0.000000 0.055276 0.000000
# 6 0.000000 0.000000 0.000000 -0.000296 0.000000 0.077227
#
#
# Mechanical properties :
#
#
# Convention : Reuss Voigt Hill
#
# Bulk Modulus (GPa) = 61.16210 71.20626 66.18418
# Shear Modulus (GPa) = 22.26933 28.41057 25.33995
#
# Velocity S-wave (km/s) = 3.49190 3.94411 3.72487
# Velocity P-wave (km/s) = 7.05313 7.72850 7.39852
#
# Compressibility (1/GPa) = 0.01634999
#
# Stress axis : x y z
#
# Youngs Moduli (GPa) = 59.45715 107.93669 126.39257
#
# Poissons Ratio (x) = 0.35757 0.42631
# Poissons Ratio (y) = 0.19697 0.27010
# Poissons Ratio (z) = 0.20054 0.23066
#
# Static dielectric constant tensor:
#      x y z
#    x 2.858100 0.000000 -0.036700 
#    y 0.000000 3.557560 0.000000 
#    z -0.036700 0.000000 3.838500 
# 
# 
# High freq. dielectric constant tensor:
#      x y z
#    x 1.643980 0.000000 0.006470 
#    y 0.000000 1.724950 0.000000 
#    z 0.006470 0.000000 1.730890 
# 
# From -- ./inp_files/321601.got.cif
#   From: 2010.06.25/outbox.cif.g09.slc.cpg/sg12_161_cif.got.tgz:321601.got - 2010.06.28 00:19:55.
