data_PCOD8082565
_publ_section_title
;
Structure prediction by ZEFSAII (Michael W. Deem and Ramdas Pophale) SiO2 
 PCOD8082565
Probable space group: C 2/M
;
_chemical_formula_sum "Si O2"
_cell_formula_units_Z 56
_cell_length_a 15.527595
_cell_length_b 9.355499
_cell_length_c 31.444648
_cell_angle_alpha 90.000000
_cell_angle_beta 42.500599
_cell_angle_gamma 90.000000
_cell_volume 3086.072965
_symmetry_space_group_name_H-M "C 2/M"
_symmetry_group_IT_number 12
_symmetry_cell_setting 'monoclinic'
loop_
_space_group_symop_operation_xyz
x,y,z
-x,y,-z
-x,-y,-z
x,-y,z
1/2+x,1/2+y,z
1/2-x,1/2+y,-z
1/2-x,1/2-y,-z
1/2+x,1/2-y,z
loop_
_atom_site_type_symbol
_atom_site_label
_atom_site_fract_x
_atom_site_fract_y
_atom_site_fract_z
Si Si1 0.780758 0.669373 0.146857
Si Si2 0.274649 0.333625 0.926970
Si Si3 0.663507 0.665452 0.499301
Si Si4 0.693742 0.166532 0.638631
Si Si5 0.897151 0.169042 0.629828
Si Si6 0.939767 0.830014 0.709402
Si Si7 0.556458 0.166405 0.073000
O O1 0.789863 0.500000 0.141054
O O2 0.746794 0.728197 0.112480
O O3 0.673924 0.720667 0.218717
O O4 0.917361 0.728611 0.112361
O O5 0.310548 0.500000 0.913451
O O6 0.392642 0.249698 0.904442
O O7 0.145656 0.305260 0.999978
O O8 0.674561 0.500000 0.507606
O O9 0.750000 0.750000 0.500000
O O10 0.707701 0.694072 0.435429
O O11 0.518614 0.719908 0.557965
O O12 0.766937 0.220378 0.654496
O O13 0.568701 0.260434 0.679259
O O14 0.655194 0.000000 0.655098
O O15 0.906981 0.228725 0.674250
O O16 0.893978 0.000000 0.632394
O O17 0.957401 0.000000 0.703431
O O18 0.551477 0.000000 0.086728
#
# Coordination Sequence:
#
# PCOD8082565 Si02
#       7
#     8   8   8   8   8   8   8
#     4   9  18  32  51  72  97 134 171 198 239 297
#     4   9  17  31  51  75 102 129 161 204 250 291
#     4  10  18  31  53  76  99 126 160 203 249 294
#     4  10  20  34  53  75  99 129 165 204 248 296
#     4   9  18  33  52  72  97 130 163 197 244 297
#     4  10  20  35  52  71  98 132 169 206 241 288
#     4   9  17  31  52  76 100 128 165 205 243 291
#
# _framework density 18.146038999999998
#
# number of rings (size 3 to 8) (size 9 to 14) (size 15 to 20)
#    0.000    2.571    1.429    0.857    0.000    4.571 
#    0.000    5.000    0.000    5.143    0.000    0.000 
#    0.000    0.000    0.000    0.000    0.000    0.000 
#
# Total GULP energy -347179.135283 kJ/mol
# GULP energy per Si atom -12399.254832 kJ/mol
# Density = 1.810474 g / cm^3
# Si number density = 18.146039 Si / 1000 Ang^3
#
#
#
# Elastic Constant Matrix: (Units=GPa)
#
#
# Indices 1 2 3 4 5 6 
#
# 1 191.6950 43.0668 88.3244 0.0005 -4.0530 0.0010
# 2 43.0668 31.9375 31.6205 0.0009 -2.8262 0.0009
# 3 88.3244 31.6205 120.6189 0.0000 -6.3393 0.0000
# 4 0.0005 0.0009 0.0000 18.3417 0.0001 -2.5391
# 5 -4.0530 -2.8262 -6.3393 0.0001 13.5797 0.0000
# 6 0.0010 0.0009 0.0000 -2.5391 0.0000 31.2748
#
#
#
# Elastic Compliance Matrix: (Units=1/GPa)
#
#
# Indices 1 2 3 4 5 6 
#
# 1 0.009086 -0.007703 -0.004690 0.000000 -0.001081 0.000000
# 2 -0.007703 0.049002 -0.006961 -0.000002 0.004650 -0.000001
# 3 -0.004690 -0.006961 0.013737 0.000000 0.003564 0.000000
# 4 0.000000 -0.000002 0.000000 0.055140 -0.000001 0.004477
# 5 -0.001081 0.004650 0.003564 -0.000001 0.075948 0.000000
# 6 0.000000 -0.000001 0.000000 0.004477 0.000000 0.032338
#
#
# Mechanical properties :
#
#
# Convention : Reuss Voigt Hill
#
# Bulk Modulus (GPa) = 30.19701 74.47498 52.33599
# Shear Modulus (GPa) = 17.54391 24.72189 21.13290
#
# Velocity S-wave (km/s) = 3.11274 3.69505 3.41633
# Velocity P-wave (km/s) = 5.44023 7.70297 6.66828
#
# Compressibility (1/GPa) = 0.03311587
#
# Stress axis : x y z
#
# Youngs Moduli (GPa) = 110.06506 20.40730 72.79513
#
# Poissons Ratio (x) = 0.15721 0.34143
# Poissons Ratio (y) = 0.84789 0.50670
# Poissons Ratio (z) = 0.51624 0.14205
#
# Static dielectric constant tensor:
#      x y z
#    x 3.277550 -0.000100 0.079210 
#    y -0.000100 2.871870 0.000000 
#    z 0.079210 0.000000 3.535470 
# 
# 
# High freq. dielectric constant tensor:
#      x y z
#    x 1.717910 0.000000 0.001650 
#    y 0.000000 1.663770 0.000000 
#    z 0.001650 0.000000 1.704640 
# 
# From -- ./inp_files/304174.got.cif
#   From: 2010.06.25/outbox.cif.g09.slc.cpg/sg12_153_cif.got.tgz:304174.got - 2010.06.28 00:19:55.
