data_PCOD8082521
_publ_section_title
;
Structure prediction by ZEFSAII (Michael W. Deem and Ramdas Pophale) SiO2 
 PCOD8082521
Probable space group: C 2/M
;
_chemical_formula_sum "Si O2"
_cell_formula_units_Z 56
_cell_length_a 24.101896
_cell_length_b 17.544666
_cell_length_c 14.572191
_cell_angle_alpha 90.000000
_cell_angle_beta 29.477624
_cell_angle_gamma 90.000000
_cell_volume 3032.215584
_symmetry_space_group_name_H-M "C 2/M"
_symmetry_group_IT_number 12
_symmetry_cell_setting 'monoclinic'
loop_
_space_group_symop_operation_xyz
x,y,z
-x,y,-z
-x,-y,-z
x,-y,z
1/2+x,1/2+y,z
1/2-x,1/2+y,-z
1/2-x,1/2-y,-z
1/2+x,1/2-y,z
loop_
_atom_site_type_symbol
_atom_site_label
_atom_site_fract_x
_atom_site_fract_y
_atom_site_fract_z
Si Si1 0.334273 0.414878 0.156731
Si Si2 0.081050 0.376685 0.298336
Si Si3 0.834220 0.085683 0.952271
Si Si4 0.639883 0.751202 0.556339
Si Si5 0.600672 0.916709 0.575370
Si Si6 0.390244 0.720005 0.200651
Si Si7 0.032245 0.792001 0.351292
O O1 0.378644 0.500000 0.110823
O O2 0.198155 0.411872 0.357984
O O3 0.390992 0.362317 0.151302
O O4 0.367150 0.387093 0.007319
O O5 0.101860 0.286231 0.256792
O O6 0.000000 0.394188 0.500000
O O7 0.021487 0.411743 0.294841
O O8 0.199976 0.416897 0.136221
O O9 0.889588 0.142027 0.800255
O O10 0.878925 0.000000 0.870091
O O11 0.618720 0.841276 0.611799
O O12 0.597174 0.706737 0.708020
O O13 0.773387 0.735691 0.347493
O O14 0.577291 0.721998 0.555376
O O15 0.608974 0.000000 0.615045
O O16 0.500000 0.763989 0.000000
O O17 0.000000 0.818379 0.500000
#
# Coordination Sequence:
#
# PCOD8082521 Si02
#       7
#     8   8   8   8   8   8   8
#     4   9  18  30  50  80 110 137 169 220 278 328
#     4  10  18  31  52  80 113 142 178 223 274 324
#     4  11  21  33  53  82 115 148 183 222 274 330
#     4   9  20  37  53  79 106 140 184 221 278 321
#     4   9  16  29  49  75 109 140 170 216 273 327
#     4  10  19  34  57  77 105 138 178 230 271 327
#     4  10  22  38  54  77 110 153 190 227 260 325
#
# _framework density 18.468344999999999
#
# number of rings (size 3 to 8) (size 9 to 14) (size 15 to 20)
#    0.000    2.286    1.429    1.714    2.000    1.143 
#    5.143    0.714    0.000    1.286    0.000    0.000 
#    0.000    0.000    0.000    0.000    0.000    0.000 
#
# Total GULP energy -346984.010717 kJ/mol
# GULP energy per Si atom -12392.286097 kJ/mol
# Density = 1.842631 g / cm^3
# Si number density = 18.468345 Si / 1000 Ang^3
#
#
#
# Elastic Constant Matrix: (Units=GPa)
#
#
# Indices 1 2 3 4 5 6 
#
# 1 98.2988 28.0513 44.6038 0.0000 10.8445 0.0000
# 2 28.0513 74.4384 37.8162 0.0000 10.6426 0.0000
# 3 44.6038 37.8162 97.4783 0.0000 3.5963 0.0000
# 4 0.0000 0.0000 0.0000 15.3296 0.0000 3.7882
# 5 10.8445 10.6426 3.5963 0.0000 27.8650 0.0000
# 6 0.0000 0.0000 0.0000 3.7882 0.0000 21.8082
#
#
#
# Elastic Compliance Matrix: (Units=1/GPa)
#
#
# Indices 1 2 3 4 5 6 
#
# 1 0.013551 -0.001836 -0.005345 0.000000 -0.003883 0.000000
# 2 -0.001836 0.017890 -0.005903 0.000000 -0.005357 0.000000
# 3 -0.005345 -0.005903 0.014905 0.000000 0.002411 0.000000
# 4 0.000000 0.000000 0.000000 0.068159 0.000000 -0.011840
# 5 -0.003883 -0.005357 0.002411 0.000000 0.039133 0.000000
# 6 0.000000 0.000000 0.000000 -0.011840 0.000000 0.047911
#
#
# Mechanical properties :
#
#
# Convention : Reuss Voigt Hill
#
# Bulk Modulus (GPa) = 49.55637 54.57314 52.06476
# Shear Modulus (GPa) = 21.32716 23.65019 22.48868
#
# Velocity S-wave (km/s) = 3.40191 3.58240 3.49332
# Velocity P-wave (km/s) = 6.50554 6.83558 6.67260
#
# Compressibility (1/GPa) = 0.02017904
#
# Stress axis : x y z
#
# Youngs Moduli (GPa) = 73.79724 55.89607 67.08968
#
# Poissons Ratio (x) = 0.10262 0.35859
# Poissons Ratio (y) = 0.13549 0.39601
# Poissons Ratio (z) = 0.39444 0.32994
#
# Static dielectric constant tensor:
#      x y z
#    x 3.343800 0.000000 -0.099550 
#    y 0.000000 3.377480 0.000000 
#    z -0.099550 0.000000 3.290800 
# 
# 
# High freq. dielectric constant tensor:
#      x y z
#    x 1.711890 0.000000 -0.017140 
#    y 0.000000 1.704830 0.000000 
#    z -0.017140 0.000000 1.701750 
# 
# From -- ./inp_files/145509.got.cif
#   From: 2010.06.25/outbox.cif.g09.slc.cpg/sg12_73_cif.got.tgz:145509.got - 2010.06.28 00:19:55.
