data_PCOD8082023
_publ_section_title
;
Structure prediction by ZEFSAII (Michael W. Deem and Ramdas Pophale) SiO2 
 PCOD8082023
Probable space group: C 2/M
;
_chemical_formula_sum "Si O2"
_cell_formula_units_Z 52
_cell_length_a 31.467790
_cell_length_b 19.345572
_cell_length_c 8.913479
_cell_angle_alpha 90.000000
_cell_angle_beta 29.329473
_cell_angle_gamma 90.000000
_cell_volume 2657.916379
_symmetry_space_group_name_H-M "C 2/M"
_symmetry_group_IT_number 12
_symmetry_cell_setting 'monoclinic'
loop_
_space_group_symop_operation_xyz
x,y,z
-x,y,-z
-x,-y,-z
x,-y,z
1/2+x,1/2+y,z
1/2-x,1/2+y,-z
1/2-x,1/2-y,-z
1/2+x,1/2-y,z
loop_
_atom_site_type_symbol
_atom_site_label
_atom_site_fract_x
_atom_site_fract_y
_atom_site_fract_z
Si Si1 0.345635 0.353226 0.615570
Si Si2 0.541111 0.272745 0.528254
Si Si3 0.603727 0.500000 0.663195
Si Si4 0.726974 0.851309 0.561965
Si Si5 0.157304 0.356501 0.113639
Si Si6 0.599232 0.000000 0.241229
Si Si7 0.875784 0.232704 0.231537
Si Si8 0.250949 0.500000 0.535376
O O1 0.389186 0.330496 0.637297
O O2 0.369479 0.432319 0.510551
O O3 0.380121 0.302046 0.380199
O O4 0.242599 0.344672 0.951269
O O5 0.500000 0.298984 0.500000
O O6 0.585204 0.199078 0.371824
O O7 0.471898 0.263561 0.872643
O O8 0.658434 0.500000 0.649871
O O9 0.500000 0.500000 0.000000
O O10 0.818826 0.812411 0.290788
O O11 0.665721 0.810264 0.633055
O O12 0.745971 0.930247 0.449980
O O13 0.681734 0.851807 0.863765
O O14 0.117419 0.430902 0.280582
O O15 0.500000 0.000000 0.500000
O O16 0.665553 0.000000 0.899342
#
# Coordination Sequence:
#
# PCOD8082023 Si02
#       8
#     8   8   4   8   8   4   8   4
#     4  11  23  40  60  83 115 159 193 243 294 344
#     4  12  23  35  56  88 118 148 196 244 290 346
#     4  12  20  36  59  83 112 151 209 243 279 338
#     4   9  18  33  57  83 115 148 187 238 285 336
#     4  10  19  37  55  86 118 152 189 239 294 352
#     4  10  18  30  58  86 117 150 193 243 289 336
#     4  10  19  35  56  84 115 145 193 236 282 343
#     4  10  18  34  56  87 117 146 199 241 288 336
#
# _framework density 19.564198000000001
#
# number of rings (size 3 to 8) (size 9 to 14) (size 15 to 20)
#    0.000    1.538    6.154    2.308    2.154    0.000 
#    0.000    0.385    0.000    0.923    0.000    2.154 
#    0.000    0.000    0.000    0.000    0.000    0.000 
#
# Total GULP energy -322328.900900 kJ/mol
# GULP energy per Si atom -12397.265419 kJ/mol
# Density = 1.951967 g / cm^3
# Si number density = 19.564198 Si / 1000 Ang^3
#
#
#
# Elastic Constant Matrix: (Units=GPa)
#
#
# Indices 1 2 3 4 5 6 
#
# 1 100.4565 53.6297 28.4973 0.0000 -22.7303 0.0000
# 2 53.6297 164.0076 20.2818 0.0000 -7.4703 0.0000
# 3 28.4973 20.2818 87.8963 0.0000 -26.6809 0.0000
# 4 0.0000 0.0000 0.0000 31.1326 0.0000 -5.6564
# 5 -22.7303 -7.4703 -26.6809 0.0000 22.4753 0.0000
# 6 0.0000 0.0000 0.0000 -5.6564 0.0000 20.7600
#
#
#
# Elastic Compliance Matrix: (Units=1/GPa)
#
#
# Indices 1 2 3 4 5 6 
#
# 1 0.015559 -0.004473 0.000489 0.000000 0.014830 0.000000
# 2 -0.004473 0.007567 -0.001416 0.000000 -0.003689 0.000000
# 3 0.000489 -0.001416 0.018061 0.000000 0.021464 0.000000
# 4 0.000000 0.000000 0.000000 0.033794 0.000000 0.009208
# 5 0.014830 -0.003689 0.021464 0.000000 0.083746 0.000000
# 6 0.000000 0.000000 0.000000 0.009208 0.000000 0.050678
#
#
# Mechanical properties :
#
#
# Convention : Reuss Voigt Hill
#
# Bulk Modulus (GPa) = 32.90781 61.90867 47.40824
# Shear Modulus (GPa) = 21.70775 31.53701 26.62238
#
# Velocity S-wave (km/s) = 3.33463 4.01930 3.69286
# Velocity P-wave (km/s) = 5.62879 7.29741 6.51673
#
# Compressibility (1/GPa) = 0.03038792
#
# Stress axis : x y z
#
# Youngs Moduli (GPa) = 64.27080 132.15454 55.36912
#
# Poissons Ratio (x) = 0.59110 -0.02708
# Poissons Ratio (y) = 0.28747 0.07839
# Poissons Ratio (z) = -0.03144 0.18709
#
# Static dielectric constant tensor:
#      x y z
#    x 3.435380 0.000000 -0.391540 
#    y 0.000000 4.095940 0.000000 
#    z -0.391540 0.000000 3.539490 
# 
# 
# High freq. dielectric constant tensor:
#      x y z
#    x 1.726810 0.000000 -0.038060 
#    y 0.000000 1.778820 0.000000 
#    z -0.038060 0.000000 1.759300 
# 
# From -- ./inp_files/113290.got.cif
#   From: 2010.06.25/outbox.cif.g09.slc.cpg/sg12_57_cif.got.tgz:113290.got - 2010.06.28 00:19:55.
