data_PCOD8082669
_publ_section_title
;
Structure prediction by ZEFSAII (Michael W. Deem and Ramdas Pophale) SiO2 
 PCOD8082669
Probable space group: C 2/M
;
_chemical_formula_sum "Si O2"
_cell_formula_units_Z 64
_cell_length_a 15.322822
_cell_length_b 8.978344
_cell_length_c 33.004655
_cell_angle_alpha 90.000000
_cell_angle_beta 133.055093
_cell_angle_gamma 90.000000
_cell_volume 3317.782157
_symmetry_space_group_name_H-M "C 2/M"
_symmetry_group_IT_number 12
_symmetry_cell_setting 'monoclinic'
loop_
_space_group_symop_operation_xyz
x,y,z
-x,y,-z
-x,-y,-z
x,-y,z
1/2+x,1/2+y,z
1/2-x,1/2+y,-z
1/2-x,1/2-y,-z
1/2+x,1/2-y,z
loop_
_atom_site_type_symbol
_atom_site_label
_atom_site_fract_x
_atom_site_fract_y
_atom_site_fract_z
Si Si1 0.334387 0.824420 0.994724
Si Si2 0.193436 0.327560 0.387503
Si Si3 0.259421 0.176257 0.686999
Si Si4 0.144667 0.826109 0.490607
Si Si5 0.722821 0.324104 0.875554
Si Si6 0.979100 0.675278 0.813525
Si Si7 0.067962 0.323835 0.112132
Si Si8 0.486030 0.177452 0.381729
O O1 0.469218 0.773192 0.047876
O O2 0.321618 0.000000 0.994585
O O3 0.250000 0.750000 0.000000
O O4 0.295543 0.769916 0.938127
O O5 0.165749 0.500000 0.373400
O O6 0.207263 0.258371 0.347046
O O7 0.320511 0.303367 0.451067
O O8 0.079719 0.263614 0.376947
O O9 0.367445 0.218120 0.750563
O O10 0.144683 0.259408 0.669251
O O11 0.233940 0.000000 0.677592
O O12 0.250000 0.750000 0.500000
O O13 0.023846 0.743963 0.437946
O O14 0.135218 0.000000 0.477004
O O15 0.703112 0.500000 0.870319
O O16 0.595965 0.246413 0.830914
O O17 0.802068 0.272520 0.862238
O O18 0.998944 0.500000 0.821584
O O19 0.958238 0.743959 0.851786
O O20 0.066443 0.500000 0.115449
O O21 0.484756 0.000000 0.383885
#
# Coordination Sequence:
#
# PCOD8082669 Si02
#       8
#     8   8   8   8   8   8   8   8
#     4  10  18  31  54  79 107 139 170 208 257 311
#     4   8  17  34  54  75 104 139 171 206 257 319
#     4  10  21  37  55  75 100 138 182 214 256 315
#     4   9  16  30  53  79 107 139 172 211 261 315
#     4  10  20  34  55  79 103 138 177 210 255 316
#     4  10  21  37  55  75 103 137 174 222 265 300
#     4   9  18  34  54  77 107 139 171 209 260 315
#     4  10  20  35  54  78 107 138 172 216 265 309
#
# _framework density 19.289994
#
# number of rings (size 3 to 8) (size 9 to 14) (size 15 to 20)
#    0.000    2.500    1.250    1.875    0.000    3.500 
#    0.000    7.500    0.000    1.500    0.000    0.000 
#    0.000    0.000    0.000    0.000    0.000    0.000 
#
# Total GULP energy -396623.657063 kJ/mol
# GULP energy per Si atom -12394.489283 kJ/mol
# Density = 1.924609 g / cm^3
# Si number density = 19.289994 Si / 1000 Ang^3
#
#
#
# Elastic Constant Matrix: (Units=GPa)
#
#
# Indices 1 2 3 4 5 6 
#
# 1 103.5078 19.5029 36.6615 0.0000 18.0851 0.0000
# 2 19.5029 38.4413 31.7431 0.0000 9.0171 0.0000
# 3 36.6615 31.7431 95.9658 0.0000 18.8951 0.0000
# 4 0.0000 0.0000 0.0000 22.5208 0.0000 6.5836
# 5 18.0851 9.0171 18.8951 0.0000 30.5066 0.0000
# 6 0.0000 0.0000 0.0000 6.5836 0.0000 27.0852
#
#
#
# Elastic Compliance Matrix: (Units=1/GPa)
#
#
# Indices 1 2 3 4 5 6 
#
# 1 0.011950 -0.002702 -0.002772 0.000000 -0.004569 0.000000
# 2 -0.002702 0.036770 -0.010598 0.000000 -0.002702 0.000000
# 3 -0.002772 -0.010598 0.015995 0.000000 -0.005131 0.000000
# 4 0.000000 0.000000 0.000000 0.047800 0.000000 -0.011619
# 5 -0.004569 -0.002702 -0.005131 0.000000 0.039465 0.000000
# 6 0.000000 0.000000 0.000000 -0.011619 0.000000 0.039745
#
#
# Mechanical properties :
#
#
# Convention : Reuss Voigt Hill
#
# Bulk Modulus (GPa) = 30.70234 45.96998 38.33616
# Shear Modulus (GPa) = 21.30129 26.02301 23.66215
#
# Velocity S-wave (km/s) = 3.32666 3.67692 3.50616
# Velocity P-wave (km/s) = 5.54132 6.47372 6.02558
#
# Compressibility (1/GPa) = 0.03257081
#
# Stress axis : x y z
#
# Youngs Moduli (GPa) = 83.67966 27.19600 62.51838
#
# Poissons Ratio (x) = 0.07349 0.17330
# Poissons Ratio (y) = 0.22612 0.66259
# Poissons Ratio (z) = 0.23195 0.28823
#
# Static dielectric constant tensor:
#      x y z
#    x 3.620620 0.000000 -0.158500 
#    y 0.000000 3.255630 0.000000 
#    z -0.158500 0.000000 4.022170 
# 
# 
# High freq. dielectric constant tensor:
#      x y z
#    x 1.752020 0.000000 0.003040 
#    y 0.000000 1.718420 0.000000 
#    z 0.003040 0.000000 1.755180 
# 
# From -- ./inp_files/375639.got.cif
#   From: 2010.06.25/outbox.cif.g09.slc.cpg/sg12_188_cif.got.tgz:375639.got - 2010.06.28 00:19:55.
