data_PCOD8082893
_publ_section_title
;
Structure prediction by ZEFSAII (Michael W. Deem and Ramdas Pophale) SiO2 
 PCOD8082893
Probable space group: C 2/M
;
_chemical_formula_sum "Si O2"
_cell_formula_units_Z 56
_cell_length_a 26.380376
_cell_length_b 9.980459
_cell_length_c 22.701888
_cell_angle_alpha 90.000000
_cell_angle_beta 30.619607
_cell_angle_gamma 90.000000
_cell_volume 3044.372519
_symmetry_space_group_name_H-M "C 2/M"
_symmetry_group_IT_number 12
_symmetry_cell_setting 'monoclinic'
loop_
_space_group_symop_operation_xyz
x,y,z
-x,y,-z
-x,-y,-z
x,-y,z
1/2+x,1/2+y,z
1/2-x,1/2+y,-z
1/2-x,1/2-y,-z
1/2+x,1/2-y,z
loop_
_atom_site_type_symbol
_atom_site_label
_atom_site_fract_x
_atom_site_fract_y
_atom_site_fract_z
Si Si1 0.364282 0.348494 0.989926
Si Si2 0.484713 0.658449 0.583122
Si Si3 0.364285 0.848494 0.781509
Si Si4 0.357880 0.651228 0.484211
Si Si5 0.857887 0.651229 0.300023
Si Si6 0.515295 0.841550 0.052539
Si Si7 0.996544 0.249999 0.753456
O O1 0.379842 0.500000 0.997783
O O2 0.428196 0.332845 0.866504
O O3 0.250000 0.321502 0.087697
O O4 0.393427 0.243239 0.011946
O O5 0.500000 0.693107 0.500000
O O6 0.463972 0.500000 0.614031
O O7 0.393437 0.743239 0.701193
O O8 0.583830 0.710479 0.517630
O O9 0.428192 0.832845 0.777111
O O10 0.379847 0.000000 0.742530
O O11 0.333804 0.500000 0.523127
O O12 0.249998 0.725127 0.583267
O O13 0.429116 0.653303 0.356253
O O14 0.833819 0.500000 0.309246
O O15 0.929113 0.653304 0.285523
O O16 0.916182 0.710487 0.185282
O O17 0.536034 0.000000 0.041968
O O18 0.500000 0.806894 0.000000
#
# Coordination Sequence:
#
# PCOD8082893 Si02
#       7
#     8   8   8   8   8   8   8
#     4  10  21  35  52  76 105 137 173 215 263 312
#     4   9  19  35  54  76 102 134 172 212 257 311
#     4  10  21  35  52  76 105 137 173 215 263 312
#     4   9  17  29  47  71  97 126 163 208 254 301
#     4   9  17  29  47  71  97 126 163 208 254 301
#     4   9  19  35  54  76 102 134 172 212 257 311
#     4  10  18  32  50  70 100 136 172 210 254 310
#
# _framework density 18.394596
#
# number of rings (size 3 to 8) (size 9 to 14) (size 15 to 20)
#    0.000    2.571    0.000    1.714    0.000    3.429 
#    0.000    2.857    0.000    7.714    0.000    0.000 
#    0.000    0.000    0.000    0.000    0.000    0.000 
#
# Total GULP energy -346948.949581 kJ/mol
# GULP energy per Si atom -12391.033914 kJ/mol
# Density = 1.835273 g / cm^3
# Si number density = 18.394596 Si / 1000 Ang^3
#
#
#
# Elastic Constant Matrix: (Units=GPa)
#
#
# Indices 1 2 3 4 5 6 
#
# 1 122.1906 36.6135 83.5299 0.0003 7.6343 0.0000
# 2 36.6135 65.1170 40.2298 0.0036 -3.0135 -0.0008
# 3 83.5299 40.2298 130.0087 0.0016 -14.1643 -0.0004
# 4 0.0003 0.0036 0.0016 24.9894 -0.0004 0.4876
# 5 7.6343 -3.0135 -14.1643 -0.0004 32.8666 -0.0002
# 6 0.0000 -0.0008 -0.0004 0.4876 -0.0002 25.5791
#
#
#
# Elastic Compliance Matrix: (Units=1/GPa)
#
#
# Indices 1 2 3 4 5 6 
#
# 1 0.017341 -0.003307 -0.011111 0.000001 -0.009120 0.000000
# 2 -0.003307 0.019639 -0.003853 -0.000003 0.000908 0.000001
# 3 -0.011111 -0.003853 0.017067 0.000000 0.009583 0.000000
# 4 0.000001 -0.000003 0.000000 0.040032 0.000000 -0.000763
# 5 -0.009120 0.000908 0.009583 0.000000 0.036758 0.000001
# 6 0.000000 0.000001 0.000000 -0.000763 0.000001 0.039109
#
#
# Mechanical properties :
#
#
# Convention : Reuss Voigt Hill
#
# Bulk Modulus (GPa) = 57.13308 70.89586 64.01447
# Shear Modulus (GPa) = 23.54899 27.14990 25.34944
#
# Velocity S-wave (km/s) = 3.58189 3.84601 3.71629
# Velocity P-wave (km/s) = 6.94505 7.63857 7.30005
#
# Compressibility (1/GPa) = 0.01750299
#
# Stress axis : x y z
#
# Youngs Moduli (GPa) = 57.66841 50.91855 58.59218
#
# Poissons Ratio (x) = 0.16841 0.65104
# Poissons Ratio (y) = 0.19074 0.22576
# Poissons Ratio (z) = 0.64077 0.19620
#
# Static dielectric constant tensor:
#      x y z
#    x 3.500250 0.000000 -0.243810 
#    y 0.000000 3.183070 0.000000 
#    z -0.243810 0.000000 3.793300 
# 
# 
# High freq. dielectric constant tensor:
#      x y z
#    x 1.714130 0.000000 -0.007900 
#    y 0.000000 1.689040 0.000000 
#    z -0.007900 0.000000 1.723630 
# 
# From -- ./inp_files/174502.got.cif
#   From: 2010.06.25/outbox.cif.g09.slc.cpg/sg12_88_cif.got.tgz:174502.got - 2010.06.28 00:19:55.
