data_PCOD8082119
_publ_section_title
;
Structure prediction by ZEFSAII (Michael W. Deem and Ramdas Pophale) SiO2 
 PCOD8082119
Probable space group: C 2/M
;
_chemical_formula_sum "Si O2"
_cell_formula_units_Z 64
_cell_length_a 31.362376
_cell_length_b 8.784697
_cell_length_c 14.382742
_cell_angle_alpha 90.000000
_cell_angle_beta 62.010207
_cell_angle_gamma 90.000000
_cell_volume 3499.076915
_symmetry_space_group_name_H-M "C 2/M"
_symmetry_group_IT_number 12
_symmetry_cell_setting 'monoclinic'
loop_
_space_group_symop_operation_xyz
x,y,z
-x,y,-z
-x,-y,-z
x,-y,z
1/2+x,1/2+y,z
1/2-x,1/2+y,-z
1/2-x,1/2-y,-z
1/2+x,1/2-y,z
loop_
_atom_site_type_symbol
_atom_site_label
_atom_site_fract_x
_atom_site_fract_y
_atom_site_fract_z
Si Si1 0.267237 0.817874 0.385697
Si Si2 0.556502 0.176442 0.837113
Si Si3 0.825130 0.320262 0.579259
Si Si4 0.445359 0.824269 0.948374
Si Si5 0.729578 0.826882 0.930831
Si Si6 0.330581 0.674327 0.756424
Si Si7 0.859190 0.179690 0.353861
Si Si8 0.138472 0.178441 0.071566
O O1 0.250000 0.750000 0.500000
O O2 0.229154 0.747562 0.352450
O O3 0.321926 0.757051 0.317979
O O4 0.266222 0.000000 0.383343
O O5 0.501034 0.205803 0.867391
O O6 0.587606 0.281679 0.737038
O O7 0.569980 0.000000 0.808471
O O8 0.565671 0.224403 0.934441
O O9 0.824130 0.500000 0.565762
O O10 0.851449 0.274717 0.649354
O O11 0.852931 0.245935 0.463970
O O12 0.414318 0.725464 0.908459
O O13 0.432193 0.000000 0.947892
O O14 0.771879 0.812521 0.811615
O O15 0.716923 0.000000 0.964832
O O16 0.750000 0.750000 0.000000
O O17 0.678604 0.746239 0.958692
O O18 0.346580 0.500000 0.725478
O O19 0.352266 0.736499 0.831947
O O20 0.850647 0.000000 0.366031
O O21 0.144540 0.000000 0.063172
#
# Coordination Sequence:
#
# PCOD8082119 Si02
#       8
#     8   8   8   8   8   8   8   8
#     4  10  18  31  49  69  98 133 168 208 248 293
#     4   9  19  37  57  79 104 132 166 207 256 309
#     4  11  21  33  51  75 103 138 177 216 253 299
#     4   9  19  36  58  79 103 133 166 207 257 308
#     4   9  17  30  48  69  98 133 170 209 250 294
#     4   9  19  34  49  71 104 142 176 211 254 300
#     4  11  21  34  53  77 105 137 171 211 256 305
#     4  10  20  33  52  77 107 138 172 213 256 304
#
# _framework density 18.290538999999999
#
# number of rings (size 3 to 8) (size 9 to 14) (size 15 to 20)
#    0.000    2.250    0.000    7.125    0.000    5.000 
#    0.000    2.500    0.000    0.750    0.000    5.250 
#    0.000    0.000    0.000    0.000    0.000    0.000 
#
# Total GULP energy -396581.204596 kJ/mol
# GULP energy per Si atom -12393.162644 kJ/mol
# Density = 1.824891 g / cm^3
# Si number density = 18.290539 Si / 1000 Ang^3
#
#
#
# Elastic Constant Matrix: (Units=GPa)
#
#
# Indices 1 2 3 4 5 6 
#
# 1 91.3807 39.2111 43.4956 0.0000 1.5421 0.0000
# 2 39.2111 118.8382 43.9533 0.0000 1.6257 0.0000
# 3 43.4956 43.9533 83.0159 0.0000 0.6017 0.0000
# 4 0.0000 0.0000 0.0000 27.5929 0.0000 -1.8007
# 5 1.5421 1.6257 0.6017 0.0000 22.6832 0.0000
# 6 0.0000 0.0000 0.0000 -1.8007 0.0000 31.6472
#
#
#
# Elastic Compliance Matrix: (Units=1/GPa)
#
#
# Indices 1 2 3 4 5 6 
#
# 1 0.015196 -0.002564 -0.006599 0.000000 -0.000674 0.000000
# 2 -0.002564 0.010905 -0.004427 0.000000 -0.000490 0.000000
# 3 -0.006599 -0.004427 0.017845 0.000000 0.000293 0.000000
# 4 0.000000 0.000000 0.000000 0.036376 0.000000 0.002070
# 5 -0.000674 -0.000490 0.000293 0.000000 0.044159 0.000000
# 6 0.000000 0.000000 0.000000 0.002070 0.000000 0.031716
#
#
# Mechanical properties :
#
#
# Convention : Reuss Voigt Hill
#
# Bulk Modulus (GPa) = 59.64503 60.72831 60.18667
# Shear Modulus (GPa) = 26.45982 27.48965 26.97473
#
# Velocity S-wave (km/s) = 3.80760 3.88099 3.84447
# Velocity P-wave (km/s) = 7.21186 7.30458 7.25837
#
# Compressibility (1/GPa) = 0.01676586
#
# Stress axis : x y z
#
# Youngs Moduli (GPa) = 65.80682 91.70350 56.03730
#
# Poissons Ratio (x) = 0.23512 0.36982
# Poissons Ratio (y) = 0.16872 0.24806
# Poissons Ratio (z) = 0.43429 0.40594
#
# Static dielectric constant tensor:
#      x y z
#    x 3.573410 0.000000 -0.043690 
#    y 0.000000 3.450860 0.000000 
#    z -0.043690 0.000000 3.325090 
# 
# 
# High freq. dielectric constant tensor:
#      x y z
#    x 1.693580 0.000000 0.005270 
#    y 0.000000 1.716060 0.000000 
#    z 0.005270 0.000000 1.694650 
# 
# From -- ./inp_files/249071.got.cif
#   From: 2010.06.25/outbox.cif.g09.slc.cpg/sg12_125_cif.got.tgz:249071.got - 2010.06.28 00:19:55.
