data_PCOD8082864
_publ_section_title
;
Structure prediction by ZEFSAII (Michael W. Deem and Ramdas Pophale) SiO2 
 PCOD8082864
Probable space group: C 2/M
;
_chemical_formula_sum "Si O2"
_cell_formula_units_Z 56
_cell_length_a 18.607745
_cell_length_b 25.198469
_cell_length_c 15.191946
_cell_angle_alpha 90.000000
_cell_angle_beta 24.864686
_cell_angle_gamma 90.000000
_cell_volume 2995.182048
_symmetry_space_group_name_H-M "C 2/M"
_symmetry_group_IT_number 12
_symmetry_cell_setting 'monoclinic'
loop_
_space_group_symop_operation_xyz
x,y,z
-x,y,-z
-x,-y,-z
x,-y,z
1/2+x,1/2+y,z
1/2-x,1/2+y,-z
1/2-x,1/2-y,-z
1/2+x,1/2-y,z
loop_
_atom_site_type_symbol
_atom_site_label
_atom_site_fract_x
_atom_site_fract_y
_atom_site_fract_z
Si Si1 0.137431 0.737338 0.488381
Si Si2 0.197684 0.676461 0.796076
Si Si3 0.275416 0.500000 0.830669
Si Si4 0.580349 0.686759 0.719333
Si Si5 0.173266 0.000000 0.425422
Si Si6 0.716003 0.803019 0.092103
Si Si7 0.740128 0.893338 0.586883
Si Si8 0.851280 0.385090 0.978256
O O1 0.189833 0.770476 0.343041
O O2 0.297528 0.699513 0.334195
O O3 0.108551 0.773561 0.606167
O O4 0.965802 0.703834 0.656184
O O5 0.266434 0.633907 0.651248
O O6 0.232937 0.650778 0.851448
O O7 0.000000 0.690291 0.000000
O O8 0.475110 0.500000 0.625195
O O9 0.229099 0.500000 0.777581
O O10 0.200552 0.446869 0.958380
O O11 0.624115 0.627851 0.635298
O O12 0.381422 0.689855 0.972075
O O13 0.230728 0.045917 0.426461
O O14 0.712546 0.857189 0.039228
O O15 0.750000 0.750000 0.000000
O O16 0.554061 0.880652 0.755962
#
# Coordination Sequence:
#
# PCOD8082864 Si02
#       8
#     8   8   4   8   4   8   8   8
#     4   9  17  33  48  67  92 128 168 211 258 302
#     4   9  19  29  51  69  97 134 174 215 253 304
#     4  11  23  33  47  67 105 143 173 223 249 302
#     4   9  17  30  50  65  90 123 172 210 255 300
#     4  11  21  33  43  67 103 137 180 214 260 289
#     4  10  20  32  51  72  95 131 174 215 261 307
#     4  10  18  32  49  67  92 135 174 216 248 296
#     4  11  20  35  51  74  99 137 185 214 258 304
#
# _framework density 18.696693
#
# number of rings (size 3 to 8) (size 9 to 14) (size 15 to 20)
#    0.000    2.143    2.857    1.286    6.000    0.571 
#    0.000    0.000    0.000    0.000    0.000    0.000 
#    0.000    0.000    0.000    6.429    0.000    0.643 
#
# Total GULP energy -346996.955221 kJ/mol
# GULP energy per Si atom -12392.748401 kJ/mol
# Density = 1.865414 g / cm^3
# Si number density = 18.696693 Si / 1000 Ang^3
#
#
#
# Elastic Constant Matrix: (Units=GPa)
#
#
# Indices 1 2 3 4 5 6 
#
# 1 28.1692 29.1204 30.6236 0.0147 -13.2660 0.0181
# 2 29.1204 117.4068 47.6122 0.0782 1.7922 -0.0014
# 3 30.6236 47.6122 100.7036 0.1405 -18.0051 -0.1280
# 4 0.0147 0.0782 0.1405 32.7347 -0.0258 3.2148
# 5 -13.2660 1.7922 -18.0051 -0.0258 21.2671 -0.0018
# 6 0.0181 -0.0014 -0.1280 3.2148 -0.0018 26.0132
#
#
#
# Elastic Compliance Matrix: (Units=1/GPa)
#
#
# Indices 1 2 3 4 5 6 
#
# 1 0.087724 -0.018814 -0.009091 0.000094 0.048609 -0.000115
# 2 -0.018814 0.015269 -0.004509 -0.000021 -0.016840 -0.000007
# 3 -0.009091 -0.004509 0.016356 -0.000058 0.008557 0.000094
# 4 0.000094 -0.000021 -0.000058 0.030924 0.000049 -0.003822
# 5 0.048609 -0.016840 0.008557 0.000049 0.086006 0.000007
# 6 -0.000115 -0.000007 0.000094 -0.003822 0.000007 0.038915
#
#
# Mechanical properties :
#
#
# Convention : Reuss Voigt Hill
#
# Bulk Modulus (GPa) = 18.34091 51.22135 34.78113
# Shear Modulus (GPa) = 13.95887 25.26458 19.61172
#
# Velocity S-wave (km/s) = 2.73535 3.67997 3.24225
# Velocity P-wave (km/s) = 4.45053 6.74623 5.71484
#
# Compressibility (1/GPa) = 0.05452293
#
# Stress axis : x y z
#
# Youngs Moduli (GPa) = 11.39944 65.49087 61.13780
#
# Poissons Ratio (x) = 1.23212 0.55579
# Poissons Ratio (y) = 0.21446 0.27566
# Poissons Ratio (z) = 0.10363 0.29529
#
# Static dielectric constant tensor:
#      x y z
#    x 3.071200 -0.000390 -0.290500 
#    y -0.000390 3.403190 0.001410 
#    z -0.290500 0.001410 3.780820 
# 
# 
# High freq. dielectric constant tensor:
#      x y z
#    x 1.681350 -0.000020 -0.033260 
#    y -0.000020 1.711090 0.000070 
#    z -0.033260 0.000070 1.732720 
# 
# From -- ./inp_files/78437.got.cif
#   From: 2010.06.25/outbox.cif.g09.slc.cpg/sg12_40_cif.got.tgz:78437.got - 2010.06.28 00:19:55.
