data_PCOD8082214
_publ_section_title
;
Structure prediction by ZEFSAII (Michael W. Deem and Ramdas Pophale) SiO2 
 PCOD8082214
Probable space group: C 2/M
;
_chemical_formula_sum "Si O2"
_cell_formula_units_Z 64
_cell_length_a 10.097507
_cell_length_b 18.508704
_cell_length_c 25.001064
_cell_angle_alpha 90.000000
_cell_angle_beta 128.880116
_cell_angle_gamma 90.000000
_cell_volume 3637.353762
_symmetry_space_group_name_H-M "C 2/M"
_symmetry_group_IT_number 12
_symmetry_cell_setting 'monoclinic'
loop_
_space_group_symop_operation_xyz
x,y,z
-x,y,-z
-x,-y,-z
x,-y,z
1/2+x,1/2+y,z
1/2-x,1/2+y,-z
1/2-x,1/2-y,-z
1/2+x,1/2-y,z
loop_
_atom_site_type_symbol
_atom_site_label
_atom_site_fract_x
_atom_site_fract_y
_atom_site_fract_z
Si Si1 0.022422 0.914255 0.340432
Si Si2 0.332941 0.086198 0.488252
Si Si3 0.846876 0.586066 0.720845
Si Si4 0.384751 0.180727 0.151224
Si Si5 0.055424 0.585642 0.370625
Si Si6 0.327027 0.585334 0.731795
Si Si7 0.149161 0.187570 0.001585
Si Si8 0.572868 0.682205 0.147545
O O1 0.836678 0.884761 0.307722
O O2 0.163330 0.882473 0.417140
O O3 0.061723 0.888909 0.290319
O O4 0.026660 0.000000 0.345623
O O5 0.500000 0.115148 0.500000
O O6 0.337560 0.113767 0.551031
O O7 0.331720 0.000000 0.485431
O O8 0.864411 0.500000 0.729814
O O9 0.990584 0.619746 0.794892
O O10 0.865335 0.613862 0.664616
O O11 0.280043 0.145062 0.074138
O O12 0.493193 0.249010 0.157967
O O13 0.250377 0.204452 0.163388
O O14 0.056200 0.500000 0.371187
O O15 0.863092 0.613693 0.326924
O O16 0.331172 0.500000 0.740366
O O17 0.400294 0.618850 0.803890
O O18 0.250000 0.250000 0.000000
O O19 0.000000 0.222186 0.000000
O O20 0.057339 0.145861 0.929162
#
# Coordination Sequence:
#
# PCOD8082214 Si02
#       8
#     8   8   8   8   8   8   8   8
#     4   9  18  29  45  71 101 132 165 203 247 292
#     4   9  14  24  43  68  97 128 164 204 243 287
#     4  10  20  33  48  72 106 135 160 201 254 297
#     4  10  20  34  53  75 100 130 165 204 244 291
#     4   9  16  27  46  69  97 131 162 199 247 290
#     4  10  18  31  50  73 102 132 163 202 247 294
#     4   8  16  32  50  71  97 125 161 203 243 283
#     4  10  20  33  53  77  99 128 166 204 244 292
#
# _framework density 17.595210000000002
#
# number of rings (size 3 to 8) (size 9 to 14) (size 15 to 20)
#    0.000    2.625    2.500    0.000    1.750    0.500 
#    0.000    3.125    0.000    2.250    0.000    7.875 
#    0.000    0.000    0.000    0.000    0.000    0.000 
#
# Total GULP energy -396430.457476 kJ/mol
# GULP energy per Si atom -12388.451796 kJ/mol
# Density = 1.755516 g / cm^3
# Si number density = 17.595210 Si / 1000 Ang^3
#
#
#
# Elastic Constant Matrix: (Units=GPa)
#
#
# Indices 1 2 3 4 5 6 
#
# 1 147.7150 24.0973 80.0826 0.0000 -1.7473 0.0000
# 2 24.0973 23.0641 33.9275 0.0000 -1.2795 0.0000
# 3 80.0826 33.9275 175.6617 0.0000 -4.6247 0.0000
# 4 0.0000 0.0000 0.0000 9.2553 0.0000 -0.1627
# 5 -1.7473 -1.2795 -4.6247 0.0000 29.9111 0.0000
# 6 0.0000 0.0000 0.0000 -0.1627 0.0000 15.1277
#
#
#
# Elastic Compliance Matrix: (Units=1/GPa)
#
#
# Indices 1 2 3 4 5 6 
#
# 1 0.009373 -0.004903 -0.003331 0.000000 -0.000177 0.000000
# 2 -0.004903 0.063148 -0.009938 0.000000 0.000878 0.000000
# 3 -0.003331 -0.009938 0.009152 0.000000 0.000795 0.000000
# 4 0.000000 0.000000 0.000000 0.108067 0.000000 0.001162
# 5 -0.000177 0.000878 0.000795 0.000000 0.033583 0.000000
# 6 0.000000 0.000000 0.000000 0.001162 0.000000 0.066116
#
#
# Mechanical properties :
#
#
# Convention : Reuss Voigt Hill
#
# Bulk Modulus (GPa) = 22.06112 69.18397 45.62255
# Shear Modulus (GPa) = 14.66736 24.74770 19.70753
#
# Velocity S-wave (km/s) = 2.89034 3.75441 3.35035
# Velocity P-wave (km/s) = 4.86869 7.62884 6.39935
#
# Compressibility (1/GPa) = 0.04532861
#
# Stress axis : x y z
#
# Youngs Moduli (GPa) = 106.68468 15.83582 109.27015
#
# Poissons Ratio (x) = 0.07765 0.36396
# Poissons Ratio (y) = 0.52312 1.08592
# Poissons Ratio (z) = 0.35535 0.15737
#
# Static dielectric constant tensor:
#      x y z
#    x 3.630890 0.000000 -0.027170 
#    y 0.000000 2.621870 0.000000 
#    z -0.027170 0.000000 3.883980 
# 
# 
# High freq. dielectric constant tensor:
#      x y z
#    x 1.698390 0.000000 -0.004290 
#    y 0.000000 1.603820 0.000000 
#    z -0.004290 0.000000 1.705120 
# 
# From -- ./inp_files/333606.got.cif
#   From: 2010.06.25/outbox.cif.g09.slc.cpg/sg12_167_cif.got.tgz:333606.got - 2010.06.28 00:19:55.
