data_PCOD8082984
_publ_section_title
;
Structure prediction by ZEFSAII (Michael W. Deem and Ramdas Pophale) SiO2 
 PCOD8082984
Probable space group: C 2/M
;
_chemical_formula_sum "Si O2"
_cell_formula_units_Z 56
_cell_length_a 26.569243
_cell_length_b 18.554995
_cell_length_c 9.081959
_cell_angle_alpha 90.000000
_cell_angle_beta 138.879569
_cell_angle_gamma 90.000000
_cell_volume 2944.491914
_symmetry_space_group_name_H-M "C 2/M"
_symmetry_group_IT_number 12
_symmetry_cell_setting 'monoclinic'
loop_
_space_group_symop_operation_xyz
x,y,z
-x,y,-z
-x,-y,-z
x,-y,z
1/2+x,1/2+y,z
1/2-x,1/2+y,-z
1/2-x,1/2-y,-z
1/2+x,1/2-y,z
loop_
_atom_site_type_symbol
_atom_site_label
_atom_site_fract_x
_atom_site_fract_y
_atom_site_fract_z
Si Si1 0.221410 0.580613 0.607971
Si Si2 0.983855 0.083559 0.627418
Si Si3 0.696751 0.918320 0.206479
Si Si4 0.622447 0.350067 0.088440
Si Si5 0.851432 0.843245 0.511037
Si Si6 0.597651 0.187381 0.370011
Si Si7 0.572601 0.191558 0.969586
O O1 0.228624 0.500000 0.687726
O O2 0.207343 0.578981 0.403748
O O3 0.298293 0.625041 0.810454
O O4 0.149770 0.619187 0.530535
O O5 0.910224 0.122313 0.528634
O O6 0.000000 0.114052 0.500000
O O7 0.964641 0.000000 0.579752
O O8 0.056424 0.096682 0.890654
O O9 0.768706 0.876954 0.293694
O O10 0.689713 0.000000 0.128556
O O11 0.620720 0.872519 0.998138
O O12 0.623647 0.357997 0.266739
O O13 0.606048 0.269095 0.996953
O O14 0.852097 0.757837 0.482864
O O15 0.516389 0.185970 0.276701
O O16 0.579350 0.184062 0.158195
#
# Coordination Sequence:
#
# PCOD8082984 Si02
#       7
#     8   8   8   8   8   8   8
#     4   9  17  27  43  71 104 134 164 203 248 291
#     4  11  23  35  49  73 104 133 160 200 253 299
#     4   9  17  27  43  71 104 134 164 203 248 291
#     4  10  18  32  52  74  99 130 169 204 241 293
#     4  10  18  32  52  74  99 130 169 204 241 293
#     4   9  16  27  45  71 100 132 167 203 245 289
#     4   9  16  27  45  71 100 132 167 203 245 289
#
# _framework density 19.018561999999999
#
# number of rings (size 3 to 8) (size 9 to 14) (size 15 to 20)
#    0.000    2.429    1.429    2.143    0.000    6.286 
#    0.000    2.857    0.000    3.429    0.000    0.000 
#    0.000    1.143    0.000    0.000    0.000    0.000 
#
# Total GULP energy -347134.236676 kJ/mol
# GULP energy per Si atom -12397.651310 kJ/mol
# Density = 1.897528 g / cm^3
# Si number density = 19.018562 Si / 1000 Ang^3
#
#
#
# Elastic Constant Matrix: (Units=GPa)
#
#
# Indices 1 2 3 4 5 6 
#
# 1 94.2077 74.9888 46.9429 0.0000 39.7965 0.0000
# 2 74.9888 144.2396 41.7235 0.0000 37.0922 0.0000
# 3 46.9429 41.7235 33.9105 0.0000 27.8546 0.0000
# 4 0.0000 0.0000 0.0000 14.6064 0.0000 5.6175
# 5 39.7965 37.0922 27.8546 0.0000 35.8149 0.0000
# 6 0.0000 0.0000 0.0000 5.6175 0.0000 14.1182
#
#
#
# Elastic Compliance Matrix: (Units=1/GPa)
#
#
# Indices 1 2 3 4 5 6 
#
# 1 0.038479 -0.007071 -0.042810 0.000000 -0.002138 0.000000
# 2 -0.007071 0.012135 -0.003524 0.000000 -0.001969 0.000000
# 3 -0.042810 -0.003524 0.141258 0.000000 -0.058642 0.000000
# 4 0.000000 0.000000 0.000000 0.080833 0.000000 -0.032163
# 5 -0.002138 -0.001969 -0.058642 0.000000 0.077945 0.000000
# 6 0.000000 0.000000 0.000000 -0.032163 0.000000 0.083628
#
#
# Mechanical properties :
#
#
# Convention : Reuss Voigt Hill
#
# Bulk Modulus (GPa) = 11.75633 66.62979 39.19306
# Shear Modulus (GPa) = 8.78054 20.15474 14.46764
#
# Velocity S-wave (km/s) = 2.15101 3.25890 2.76109
# Velocity P-wave (km/s) = 3.51626 7.01931 5.55134
#
# Compressibility (1/GPa) = 0.08506053
#
# Stress axis : x y z
#
# Youngs Moduli (GPa) = 25.98853 82.40476 7.07927
#
# Poissons Ratio (x) = 0.58272 0.30306
# Poissons Ratio (y) = 0.18378 0.02495
# Poissons Ratio (z) = 1.11256 0.29043
#
# Static dielectric constant tensor:
#      x y z
#    x 3.417220 0.000000 0.472350 
#    y 0.000000 3.722250 0.000000 
#    z 0.472350 0.000000 3.254910 
# 
# 
# High freq. dielectric constant tensor:
#      x y z
#    x 1.718440 0.000000 0.044110 
#    y 0.000000 1.750500 0.000000 
#    z 0.044110 0.000000 1.700290 
# 
# From -- ./inp_files/98196.got.cif
#   From: 2010.06.25/outbox.cif.g09.slc.cpg/sg12_50_cif.got.tgz:98196.got - 2010.06.28 00:19:55.
