data_PCOD8082163
_publ_section_title
;
Structure prediction by ZEFSAII (Michael W. Deem and Ramdas Pophale) SiO2 
 PCOD8082163
Probable space group: C 2/M
;
_chemical_formula_sum "Si O2"
_cell_formula_units_Z 56
_cell_length_a 20.707568
_cell_length_b 9.061900
_cell_length_c 22.856913
_cell_angle_alpha 90.000000
_cell_angle_beta 47.791934
_cell_angle_gamma 90.000000
_cell_volume 3176.977649
_symmetry_space_group_name_H-M "C 2/M"
_symmetry_group_IT_number 12
_symmetry_cell_setting 'monoclinic'
loop_
_space_group_symop_operation_xyz
x,y,z
-x,y,-z
-x,-y,-z
x,-y,z
1/2+x,1/2+y,z
1/2-x,1/2+y,-z
1/2-x,1/2-y,-z
1/2+x,1/2-y,z
loop_
_atom_site_type_symbol
_atom_site_label
_atom_site_fract_x
_atom_site_fract_y
_atom_site_fract_z
Si Si1 0.555761 0.328630 0.662889
Si Si2 0.884129 0.174816 0.169187
Si Si3 0.811659 0.827440 0.508967
Si Si4 0.424261 0.324937 0.921022
Si Si5 0.703794 0.674289 0.660190
Si Si6 0.801060 0.175537 0.099657
Si Si7 0.376758 0.324782 0.820132
O O1 0.549761 0.500000 0.681322
O O2 0.589508 0.300843 0.575569
O O3 0.624180 0.264965 0.668688
O O4 0.458998 0.265031 0.731874
O O5 0.816089 0.221807 0.261248
O O6 0.849057 0.233650 0.128771
O O7 0.979936 0.241746 0.123817
O O8 0.892466 0.000000 0.162791
O O9 0.750000 0.750000 0.500000
O O10 0.793275 0.753761 0.583551
O O11 0.790572 0.000000 0.524617
O O12 0.429885 0.500000 0.919545
O O13 0.391019 0.271988 0.878133
O O14 0.356672 0.266738 0.010657
O O15 0.716936 0.500000 0.645516
O O16 0.706302 0.245825 0.156122
O O17 0.792150 0.000000 0.105052
O O18 0.364136 0.500000 0.823784
#
# Coordination Sequence:
#
# PCOD8082163 Si02
#       7
#     8   8   8   8   8   8   8
#     4   8  14  26  45  66  88 118 156 188 220 273
#     4   9  16  29  50  71  94 125 161 197 235 281
#     4   9  16  26  43  69  97 121 149 192 237 276
#     4   9  16  29  51  72  90 121 166 203 230 273
#     4   9  15  27  47  69  91 119 156 195 234 275
#     4  10  20  31  46  73 100 121 154 202 245 278
#     4  10  18  31  50  68  92 128 162 189 228 287
#
# _framework density 17.626816000000002
#
# number of rings (size 3 to 8) (size 9 to 14) (size 15 to 20)
#    0.000    2.857    1.429    2.143    0.000    1.714 
#    0.000    4.286    0.000    4.286    0.000    6.000 
#    0.000    0.000    0.000    0.000    0.000    0.000 
#
# Total GULP energy -346989.209926 kJ/mol
# GULP energy per Si atom -12392.471783 kJ/mol
# Density = 1.758670 g / cm^3
# Si number density = 17.626816 Si / 1000 Ang^3
#
#
#
# Elastic Constant Matrix: (Units=GPa)
#
#
# Indices 1 2 3 4 5 6 
#
# 1 74.6043 14.5117 33.1865 -0.0002 -10.4924 0.0002
# 2 14.5117 31.0893 29.7911 -0.0005 -3.6845 0.0005
# 3 33.1865 29.7911 142.8238 -0.0003 -13.8643 0.0002
# 4 -0.0002 -0.0005 -0.0003 24.6190 0.0000 -3.0938
# 5 -10.4924 -3.6845 -13.8643 0.0000 13.7053 0.0000
# 6 0.0002 0.0005 0.0002 -3.0938 0.0000 18.9400
#
#
#
# Elastic Compliance Matrix: (Units=1/GPa)
#
#
# Indices 1 2 3 4 5 6 
#
# 1 0.016509 -0.004737 -0.001935 0.000000 0.009408 0.000000
# 2 -0.004737 0.041642 -0.007597 0.000001 -0.000116 -0.000001
# 3 -0.001935 -0.007597 0.009640 0.000000 0.006229 0.000000
# 4 0.000000 0.000001 0.000000 0.041470 0.000000 0.006774
# 5 0.009408 -0.000116 0.006229 0.000000 0.086437 0.000000
# 6 0.000000 -0.000001 0.000000 0.006774 0.000000 0.053905
#
#
# Mechanical properties :
#
#
# Convention : Reuss Voigt Hill
#
# Bulk Modulus (GPa) = 25.47448 44.83288 35.15368
# Shear Modulus (GPa) = 17.16878 22.85472 20.01175
#
# Velocity S-wave (km/s) = 3.12431 3.60472 3.37308
# Velocity P-wave (km/s) = 5.24391 6.54332 5.92932
#
# Compressibility (1/GPa) = 0.03925497
#
# Stress axis : x y z
#
# Youngs Moduli (GPa) = 60.57172 24.01414 103.73059
#
# Poissons Ratio (x) = 0.11376 0.20069
# Poissons Ratio (y) = 0.28694 0.78799
# Poissons Ratio (z) = 0.11719 0.18242
#
# Static dielectric constant tensor:
#      x y z
#    x 3.073980 0.000000 0.005360 
#    y 0.000000 2.900530 0.000000 
#    z 0.005360 0.000000 3.913380 
# 
# 
# High freq. dielectric constant tensor:
#      x y z
#    x 1.646240 0.000000 -0.001700 
#    y 0.000000 1.635620 0.000000 
#    z -0.001700 0.000000 1.708240 
# 
# From -- ./inp_files/280164.got.cif
#   From: 2010.06.25/outbox.cif.g09.slc.cpg/sg12_141_cif.got.tgz:280164.got - 2010.06.28 00:19:55.
