data_PCOD8082568
_publ_section_title
;
Structure prediction by ZEFSAII (Michael W. Deem and Ramdas Pophale) SiO2 
 PCOD8082568
Probable space group: C 2/M
;
_chemical_formula_sum "Si O2"
_cell_formula_units_Z 56
_cell_length_a 29.667019
_cell_length_b 9.298224
_cell_length_c 11.925862
_cell_angle_alpha 90.000000
_cell_angle_beta 71.772938
_cell_angle_gamma 90.000000
_cell_volume 3124.690639
_symmetry_space_group_name_H-M "C 2/M"
_symmetry_group_IT_number 12
_symmetry_cell_setting 'monoclinic'
loop_
_space_group_symop_operation_xyz
x,y,z
-x,y,-z
-x,-y,-z
x,-y,z
1/2+x,1/2+y,z
1/2-x,1/2+y,-z
1/2-x,1/2-y,-z
1/2+x,1/2-y,z
loop_
_atom_site_type_symbol
_atom_site_label
_atom_site_fract_x
_atom_site_fract_y
_atom_site_fract_z
Si Si1 0.876531 0.334381 0.179632
Si Si2 0.082213 0.668559 0.618941
Si Si3 0.523238 0.832068 0.257673
Si Si4 0.895385 0.332121 0.639125
Si Si5 0.785769 0.665117 0.112466
Si Si6 0.450955 0.667616 0.977338
Si Si7 0.693398 0.830644 0.154179
O O1 0.891629 0.500000 0.144764
O O2 0.881917 0.297256 0.307264
O O3 0.822468 0.307785 0.184960
O O4 0.909273 0.228029 0.085592
O O5 0.075393 0.500000 0.604957
O O6 0.103415 0.735687 0.487410
O O7 0.029744 0.731249 0.685297
O O8 0.553229 0.803578 0.346631
O O9 0.550164 0.747845 0.139505
O O10 0.522498 0.000000 0.225834
O O11 0.884919 0.500000 0.640214
O O12 0.852774 0.265245 0.746856
O O13 0.769576 0.500000 0.120236
O O14 0.739860 0.760488 0.173220
O O15 0.810038 0.709125 0.975044
O O16 0.442479 0.500000 0.963880
O O17 0.500000 0.700718 0.000000
O O18 0.697432 0.000000 0.167988
#
# Coordination Sequence:
#
# PCOD8082568 Si02
#       7
#     8   8   8   8   8   8   8
#     4  10  19  33  53  76 100 130 168 206 247 293
#     4   9  17  29  49  76 102 130 165 207 248 288
#     4  10  18  31  53  76  99 131 171 208 243 289
#     4   9  17  30  50  77 103 127 165 213 249 283
#     4   9  18  32  51  74  98 123 159 208 252 291
#     4  11  22  33  47  71 105 136 162 200 247 294
#     4   9  17  31  50  71  97 128 161 201 251 299
#
# _framework density 17.921775
#
# number of rings (size 3 to 8) (size 9 to 14) (size 15 to 20)
#    0.000    2.429    1.429    1.714    0.000    5.143 
#    0.000    4.286    0.000    4.286    0.000    0.000 
#    0.000    0.000    0.000    0.000    0.000    0.000 
#
# Total GULP energy -347171.526493 kJ/mol
# GULP energy per Si atom -12398.983089 kJ/mol
# Density = 1.788098 g / cm^3
# Si number density = 17.921775 Si / 1000 Ang^3
#
#
#
# Elastic Constant Matrix: (Units=GPa)
#
#
# Indices 1 2 3 4 5 6 
#
# 1 116.7114 25.6650 51.8390 0.0000 9.9092 0.0000
# 2 25.6650 30.3728 21.5724 0.0000 3.8106 0.0000
# 3 51.8390 21.5724 106.8863 0.0000 11.3841 0.0000
# 4 0.0000 0.0000 0.0000 9.0153 0.0000 -3.3962
# 5 9.9092 3.8106 11.3841 0.0000 27.2789 0.0000
# 6 0.0000 0.0000 0.0000 -3.3962 0.0000 25.0077
#
#
#
# Elastic Compliance Matrix: (Units=1/GPa)
#
#
# Indices 1 2 3 4 5 6 
#
# 1 0.012163 -0.007011 -0.004309 0.000000 -0.001641 0.000000
# 2 -0.007011 0.042606 -0.005061 0.000000 -0.001293 0.000000
# 3 -0.004309 -0.005061 0.012794 0.000000 -0.003067 0.000000
# 4 0.000000 0.000000 0.000000 0.116903 0.000000 0.015876
# 5 -0.001641 -0.001293 -0.003067 0.000000 0.038715 0.000000
# 6 0.000000 0.000000 0.000000 0.015876 0.000000 0.042144
#
#
# Mechanical properties :
#
#
# Convention : Reuss Voigt Hill
#
# Bulk Modulus (GPa) = 28.73595 50.23592 39.48594
# Shear Modulus (GPa) = 16.14535 22.58666 19.36601
#
# Velocity S-wave (km/s) = 3.00472 3.55391 3.29079
# Velocity P-wave (km/s) = 5.30158 6.70312 6.04312
#
# Compressibility (1/GPa) = 0.03479962
#
# Stress axis : x y z
#
# Youngs Moduli (GPa) = 82.21461 23.47114 78.16346
#
# Poissons Ratio (x) = 0.16457 0.33683
# Poissons Ratio (y) = 0.57645 0.39556
# Poissons Ratio (z) = 0.35428 0.11878
#
# Static dielectric constant tensor:
#      x y z
#    x 3.362620 0.000000 0.058650 
#    y 0.000000 2.995400 0.000000 
#    z 0.058650 0.000000 3.499550 
# 
# 
# High freq. dielectric constant tensor:
#      x y z
#    x 1.696180 0.000000 0.006640 
#    y 0.000000 1.655910 0.000000 
#    z 0.006640 0.000000 1.691640 
# 
# From -- ./inp_files/186497.got.cif
#   From: 2010.06.25/outbox.cif.g09.slc.cpg/sg12_94_cif.got.tgz:186497.got - 2010.06.28 00:19:55.
