data_PCOD8082828
_publ_section_title
;
Structure prediction by ZEFSAII (Michael W. Deem and Ramdas Pophale) SiO2 
 PCOD8082828
Probable space group: C 2/M
;
_chemical_formula_sum "Si O2"
_cell_formula_units_Z 64
_cell_length_a 14.439076
_cell_length_b 17.042013
_cell_length_c 15.861197
_cell_angle_alpha 90.000000
_cell_angle_beta 123.591617
_cell_angle_gamma 90.000000
_cell_volume 3251.190383
_symmetry_space_group_name_H-M "C 2/M"
_symmetry_group_IT_number 12
_symmetry_cell_setting 'monoclinic'
loop_
_space_group_symop_operation_xyz
x,y,z
-x,y,-z
-x,-y,-z
x,-y,z
1/2+x,1/2+y,z
1/2-x,1/2+y,-z
1/2-x,1/2-y,-z
1/2+x,1/2-y,z
loop_
_atom_site_type_symbol
_atom_site_label
_atom_site_fract_x
_atom_site_fract_y
_atom_site_fract_z
Si Si1 0.511083 0.165510 0.646804
Si Si2 0.739671 0.908003 0.704977
Si Si3 0.300598 0.798007 0.449349
Si Si4 0.478865 0.092770 0.808944
Si Si5 0.912859 0.817891 0.386922
Si Si6 0.262327 0.907831 0.800670
Si Si7 0.874801 0.906641 0.935087
Si Si8 0.715979 0.092902 0.001478
O O1 0.613763 0.113462 0.667048
O O2 0.408371 0.152099 0.531646
O O3 0.474221 0.140930 0.720688
O O4 0.531030 0.259975 0.653694
O O5 0.776183 0.863070 0.636831
O O6 0.819555 0.879131 0.820126
O O7 0.750933 0.000000 0.694953
O O8 0.250000 0.750000 0.500000
O O9 0.323369 0.733864 0.390158
O O10 0.373999 0.121514 0.810894
O O11 0.474630 0.000000 0.787124
O O12 0.590588 0.116036 0.914328
O O13 0.849163 0.886872 0.306662
O O14 0.000000 0.852615 0.500000
O O15 0.257798 0.871597 0.892796
O O16 0.267746 0.000000 0.810938
O O17 0.874811 0.000000 0.940638
O O18 0.803240 0.871981 0.977325
O O19 0.000000 0.873150 0.000000
O O20 0.728366 0.000000 0.008780
#
# Coordination Sequence:
#
# PCOD8082828 Si02
#       8
#     8   8   8   8   8   8   8   8
#     4  10  19  34  59  81 109 153 184 227 289 342
#     4  10  19  34  59  89 114 139 186 243 288 335
#     4  10  21  37  55  77 114 153 186 225 285 347
#     4  10  18  31  57  89 117 141 178 232 288 338
#     4   9  20  38  54  73 108 154 192 225 278 337
#     4  10  20  34  57  86 112 147 192 235 275 332
#     4   9  17  32  54  81 117 152 184 230 289 344
#     4   9  17  32  54  82 115 146 180 231 292 339
#
# _framework density 19.685096999999999
#
# number of rings (size 3 to 8) (size 9 to 14) (size 15 to 20)
#    0.000    2.375    1.250    2.625    0.000    3.250 
#    4.500    1.250    0.000    0.000    0.000    0.000 
#    0.000    0.000    0.000    0.000    0.000    0.000 
#
# Total GULP energy -396602.057263 kJ/mol
# GULP energy per Si atom -12393.814289 kJ/mol
# Density = 1.964029 g / cm^3
# Si number density = 19.685097 Si / 1000 Ang^3
#
#
#
# Elastic Constant Matrix: (Units=GPa)
#
#
# Indices 1 2 3 4 5 6 
#
# 1 115.0104 36.1466 76.8525 0.0000 -10.5338 0.0000
# 2 36.1466 24.4601 39.3479 0.0000 -8.0423 0.0000
# 3 76.8525 39.3479 151.8178 0.0000 -7.5062 0.0000
# 4 0.0000 0.0000 0.0000 19.1679 0.0000 -6.6830
# 5 -10.5338 -8.0423 -7.5062 0.0000 36.2702 0.0000
# 6 0.0000 0.0000 0.0000 -6.6830 0.0000 22.0574
#
#
#
# Elastic Compliance Matrix: (Units=1/GPa)
#
#
# Indices 1 2 3 4 5 6 
#
# 1 0.017349 -0.019786 -0.003659 0.000000 -0.000106 0.000000
# 2 -0.019786 0.098171 -0.014787 0.000000 0.012961 0.000000
# 3 -0.003659 -0.014787 0.012182 0.000000 -0.001821 0.000000
# 4 0.000000 0.000000 0.000000 0.058333 0.000000 0.017674
# 5 -0.000106 0.012961 -0.001821 0.000000 0.030037 0.000000
# 6 0.000000 0.000000 0.000000 0.017674 0.000000 0.050691
#
#
# Mechanical properties :
#
#
# Convention : Reuss Voigt Hill
#
# Bulk Modulus (GPa) = 19.51716 66.22027 42.86871
# Shear Modulus (GPa) = 13.87703 24.76185 19.31944
#
# Velocity S-wave (km/s) = 2.65797 3.55053 3.13617
# Velocity P-wave (km/s) = 4.39954 7.10783 5.91089
#
# Compressibility (1/GPa) = 0.05123696
#
# Stress axis : x y z
#
# Youngs Moduli (GPa) = 57.63998 10.18626 82.08969
#
# Poissons Ratio (x) = 0.20155 0.30040
# Poissons Ratio (y) = 1.14047 1.21387
# Poissons Ratio (z) = 0.21093 0.15062
#
# Static dielectric constant tensor:
#      x y z
#    x 3.832620 0.000000 -0.141930 
#    y 0.000000 3.286740 0.000000 
#    z -0.141930 0.000000 3.871180 
# 
# 
# High freq. dielectric constant tensor:
#      x y z
#    x 1.762950 0.000000 -0.005500 
#    y 0.000000 1.727860 0.000000 
#    z -0.005500 0.000000 1.783730 
# 
# From -- ./inp_files/216808.got.cif
#   From: 2010.06.25/outbox.cif.g09.slc.cpg/sg12_109_cif.got.tgz:216808.got - 2010.06.28 00:19:55.
