data_PCOD8082672
_publ_section_title
;
Structure prediction by ZEFSAII (Michael W. Deem and Ramdas Pophale) SiO2 
 PCOD8082672
Probable space group: C 2/M
;
_chemical_formula_sum "Si O2"
_cell_formula_units_Z 48
_cell_length_a 24.839105
_cell_length_b 9.090281
_cell_length_c 23.884371
_cell_angle_alpha 90.000000
_cell_angle_beta 150.060613
_cell_angle_gamma 90.000000
_cell_volume 2691.536789
_symmetry_space_group_name_H-M "C 2/M"
_symmetry_group_IT_number 12
_symmetry_cell_setting 'monoclinic'
loop_
_space_group_symop_operation_xyz
x,y,z
-x,y,-z
-x,-y,-z
x,-y,z
1/2+x,1/2+y,z
1/2-x,1/2+y,-z
1/2-x,1/2-y,-z
1/2+x,1/2-y,z
loop_
_atom_site_type_symbol
_atom_site_label
_atom_site_fract_x
_atom_site_fract_y
_atom_site_fract_z
Si Si1 0.098771 0.673454 0.735921
Si Si2 0.508455 0.173930 0.887078
Si Si3 0.136354 0.672501 0.893121
Si Si4 0.438827 0.824775 0.499438
Si Si5 0.678591 0.328314 0.114549
Si Si6 0.801085 0.828487 0.736167
O O1 0.101997 0.500000 0.729976
O O2 0.080135 0.717582 0.783720
O O3 0.213805 0.734730 0.818159
O O4 0.000461 0.736821 0.610046
O O5 0.559109 0.223626 0.873540
O O6 0.387907 0.236241 0.779709
O O7 0.506052 0.000000 0.891474
O O8 0.576190 0.241255 0.999060
O O9 0.158752 0.500000 0.915379
O O10 0.250000 0.750000 0.000000
O O11 0.500000 0.762302 0.500000
O O12 0.315593 0.770278 0.389137
O O13 0.439839 0.000000 0.497977
O O14 0.661302 0.500000 0.086043
O O15 0.686920 0.297478 0.187492
O O16 0.816877 0.000000 0.737087
#
# Coordination Sequence:
#
# PCOD8082672 Si02
#       6
#     8   8   8   8   8   8
#     4   9  16  29  52  79 103 125 160 215 262 294
#     4  11  23  35  48  72 108 144 172 202 250 309
#     4  10  20  34  53  75 100 135 173 209 251 299
#     4   9  15  28  52  81 104 123 161 215 261 298
#     4  10  18  31  54  80 103 129 167 214 258 301
#     4  10  20  33  53  80 105 132 169 212 256 303
#
# _framework density 17.833679
#
# number of rings (size 3 to 8) (size 9 to 14) (size 15 to 20)
#    0.000    2.167    3.333    1.000    0.000    3.333 
#    0.000    0.833    0.000    2.500    0.000    0.000 
#    0.000    0.000    0.000    0.000    0.000    0.000 
#
# Total GULP energy -297603.287656 kJ/mol
# GULP energy per Si atom -12400.136986 kJ/mol
# Density = 1.779309 g / cm^3
# Si number density = 17.833679 Si / 1000 Ang^3
#
#
#
# Elastic Constant Matrix: (Units=GPa)
#
#
# Indices 1 2 3 4 5 6 
#
# 1 106.0369 35.8407 65.0173 0.0000 7.6343 0.0000
# 2 35.8407 33.3490 32.1790 0.0000 3.6725 0.0000
# 3 65.0173 32.1790 156.5107 0.0000 6.6404 0.0000
# 4 0.0000 0.0000 0.0000 12.3310 0.0000 2.6996
# 5 7.6343 3.6725 6.6404 0.0000 33.8837 0.0000
# 6 0.0000 0.0000 0.0000 2.6996 0.0000 22.1862
#
#
#
# Elastic Compliance Matrix: (Units=1/GPa)
#
#
# Indices 1 2 3 4 5 6 
#
# 1 0.016701 -0.013913 -0.004015 0.000000 -0.001468 0.000000
# 2 -0.013913 0.049220 -0.004282 0.000000 -0.001361 0.000000
# 3 -0.004015 -0.004282 0.008954 0.000000 -0.000386 0.000000
# 4 0.000000 0.000000 0.000000 0.083316 0.000000 -0.010138
# 5 -0.001468 -0.001361 -0.000386 0.000000 0.030067 0.000000
# 6 0.000000 0.000000 0.000000 -0.010138 0.000000 0.046307
#
#
# Mechanical properties :
#
#
# Convention : Reuss Voigt Hill
#
# Bulk Modulus (GPa) = 32.83571 62.44118 47.63844
# Shear Modulus (GPa) = 17.29290 24.53749 20.91519
#
# Velocity S-wave (km/s) = 3.11734 3.71335 3.42832
# Velocity P-wave (km/s) = 5.60440 7.31261 6.51474
#
# Compressibility (1/GPa) = 0.03045465
#
# Stress axis : x y z
#
# Youngs Moduli (GPa) = 59.87757 20.31682 111.68063
#
# Poissons Ratio (x) = 0.28266 0.44840
# Poissons Ratio (y) = 0.83306 0.47827
# Poissons Ratio (z) = 0.24041 0.08701
#
# Static dielectric constant tensor:
#      x y z
#    x 3.464450 0.000000 -0.057580 
#    y 0.000000 2.928430 0.000000 
#    z -0.057580 0.000000 3.623000 
# 
# 
# High freq. dielectric constant tensor:
#      x y z
#    x 1.693400 0.000000 -0.000880 
#    y 0.000000 1.649900 0.000000 
#    z -0.000880 0.000000 1.696410 
# 
# From -- ./inp_files/172108.got.cif
#   From: 2010.06.25/outbox.cif.g09.slc.cpg/sg12_87_cif.got.tgz:172108.got - 2010.06.28 00:19:55.
