data_PCOD8082616
_publ_section_title
;
Structure prediction by ZEFSAII (Michael W. Deem and Ramdas Pophale) SiO2 
 PCOD8082616
Probable space group: C 2/M
;
_chemical_formula_sum "Si O2"
_cell_formula_units_Z 56
_cell_length_a 25.399290
_cell_length_b 8.827403
_cell_length_c 13.738832
_cell_angle_alpha 90.000000
_cell_angle_beta 67.440378
_cell_angle_gamma 90.000000
_cell_volume 2844.672142
_symmetry_space_group_name_H-M "C 2/M"
_symmetry_group_IT_number 12
_symmetry_cell_setting 'monoclinic'
loop_
_space_group_symop_operation_xyz
x,y,z
-x,y,-z
-x,-y,-z
x,-y,z
1/2+x,1/2+y,z
1/2-x,1/2+y,-z
1/2-x,1/2-y,-z
1/2+x,1/2-y,z
loop_
_atom_site_type_symbol
_atom_site_label
_atom_site_fract_x
_atom_site_fract_y
_atom_site_fract_z
Si Si1 0.866030 0.177884 0.780314
Si Si2 0.940387 0.820078 0.078215
Si Si3 0.586492 0.679574 0.686827
Si Si4 0.294180 0.179675 0.394865
Si Si5 0.339647 0.680063 0.013611
Si Si6 0.253096 0.177208 0.213320
Si Si7 0.485613 0.319728 0.617012
O O1 0.814570 0.213959 0.742136
O O2 0.924992 0.248110 0.696958
O O3 0.875208 0.000000 0.786165
O O4 0.850275 0.244718 0.897732
O O5 0.929547 0.763705 0.194641
O O6 0.891032 0.758134 0.043647
O O7 0.942590 0.000000 0.072720
O O8 0.000000 0.750641 0.000000
O O9 0.596099 0.500000 0.674454
O O10 0.644251 0.762454 0.615010
O O11 0.535859 0.733659 0.652616
O O12 0.250000 0.250000 0.500000
O O13 0.278947 0.237762 0.296618
O O14 0.290795 0.000000 0.402723
O O15 0.336044 0.500000 0.016158
O O16 0.281381 0.742829 0.100243
O O17 0.264058 0.000000 0.194294
O O18 0.500000 0.255233 0.500000
O O19 0.481907 0.500000 0.616822
#
# Coordination Sequence:
#
# PCOD8082616 Si02
#       7
#     8   8   8   8   8   8   8
#     4   9  18  32  51  80 112 143 181 226 269 315
#     4   9  16  27  48  78 110 141 174 217 266 315
#     4  10  19  34  57  84 111 139 179 229 277 327
#     4  11  24  39  58  82 110 145 185 229 276 330
#     4  10  18  31  53  80 111 141 177 222 269 323
#     4  10  21  36  55  79 111 144 178 222 272 324
#     4   9  18  31  53  82 109 140 183 230 273 319
#
# _framework density 19.685922999999999
#
# number of rings (size 3 to 8) (size 9 to 14) (size 15 to 20)
#    0.000    2.286    1.429    1.714    2.000    4.000 
#    0.000    0.000    0.000    5.571    0.000    0.000 
#    0.000    0.000    0.000    0.000    0.000    0.000 
#
# Total GULP energy -347201.538306 kJ/mol
# GULP energy per Si atom -12400.054939 kJ/mol
# Density = 1.964112 g / cm^3
# Si number density = 19.685923 Si / 1000 Ang^3
#
#
#
# Elastic Constant Matrix: (Units=GPa)
#
#
# Indices 1 2 3 4 5 6 
#
# 1 146.7350 22.1802 65.3569 0.0000 -13.2160 0.0000
# 2 22.1802 23.2824 22.4943 0.0000 -4.4518 0.0000
# 3 65.3569 22.4943 144.4904 0.0000 -18.4927 0.0000
# 4 0.0000 0.0000 0.0000 19.7437 0.0000 -5.0784
# 5 -13.2160 -4.4518 -18.4927 0.0000 40.6753 0.0000
# 6 0.0000 0.0000 0.0000 -5.0784 0.0000 18.7325
#
#
#
# Elastic Compliance Matrix: (Units=1/GPa)
#
#
# Indices 1 2 3 4 5 6 
#
# 1 0.009133 -0.005469 -0.003161 0.000000 0.000932 0.000000
# 2 -0.005469 0.053996 -0.005737 0.000000 0.001524 0.000000
# 3 -0.003161 -0.005737 0.009590 0.000000 0.002705 0.000000
# 4 0.000000 0.000000 0.000000 0.054446 0.000000 0.014760
# 5 0.000932 0.001524 0.002705 0.000000 0.026284 0.000000
# 6 0.000000 0.000000 0.000000 0.014760 0.000000 0.057385
#
#
# Mechanical properties :
#
#
# Convention : Reuss Voigt Hill
#
# Bulk Modulus (GPa) = 22.73494 59.39671 41.06583
# Shear Modulus (GPa) = 19.66731 29.46207 24.56469
#
# Velocity S-wave (km/s) = 3.16421 3.87280 3.53630
# Velocity P-wave (km/s) = 4.99235 7.08772 6.13022
#
# Compressibility (1/GPa) = 0.04398516
#
# Stress axis : x y z
#
# Youngs Moduli (GPa) = 109.48819 18.52002 104.27700
#
# Poissons Ratio (x) = 0.10129 0.32957
# Poissons Ratio (y) = 0.59882 0.59825
# Poissons Ratio (z) = 0.34604 0.10625
#
# Static dielectric constant tensor:
#      x y z
#    x 4.009520 0.000000 -0.088380 
#    y 0.000000 3.008310 0.000000 
#    z -0.088380 0.000000 3.844160 
# 
# 
# High freq. dielectric constant tensor:
#      x y z
#    x 1.785340 0.000000 -0.002830 
#    y 0.000000 1.707910 0.000000 
#    z -0.002830 0.000000 1.779280 
# 
# From -- ./inp_files/181147.got.cif
#   From: 2010.06.25/outbox.cif.g09.slc.cpg/sg12_91_cif.got.tgz:181147.got - 2010.06.28 00:19:55.
