data_PCOD8082685
_publ_section_title
;
Structure prediction by ZEFSAII (Michael W. Deem and Ramdas Pophale) SiO2 
 PCOD8082685
Probable space group: C 2/M
;
_chemical_formula_sum "Si O2"
_cell_formula_units_Z 48
_cell_length_a 13.557907
_cell_length_b 13.375401
_cell_length_c 22.787190
_cell_angle_alpha 90.000000
_cell_angle_beta 42.297278
_cell_angle_gamma 90.000000
_cell_volume 2780.934108
_symmetry_space_group_name_H-M "C 2/M"
_symmetry_group_IT_number 12
_symmetry_cell_setting 'monoclinic'
loop_
_space_group_symop_operation_xyz
x,y,z
-x,y,-z
-x,-y,-z
x,-y,z
1/2+x,1/2+y,z
1/2-x,1/2+y,-z
1/2-x,1/2-y,-z
1/2+x,1/2-y,z
loop_
_atom_site_type_symbol
_atom_site_label
_atom_site_fract_x
_atom_site_fract_y
_atom_site_fract_z
Si Si1 0.377674 0.889030 0.005236
Si Si2 0.817111 0.231460 0.711948
Si Si3 0.970648 0.382923 0.182048
Si Si4 0.946866 0.884713 0.335270
Si Si5 0.847334 0.616908 0.595386
Si Si6 0.849580 0.232986 0.826272
O O1 0.454269 0.853565 0.912125
O O2 0.306395 0.000000 0.029037
O O3 0.500000 0.896426 0.000000
O O4 0.260130 0.805724 0.075500
O O5 0.696903 0.153498 0.741553
O O6 0.823315 0.326406 0.667048
O O7 0.771330 0.263238 0.798846
O O8 0.979080 0.178530 0.643827
O O9 0.970967 0.500000 0.193872
O O10 0.064843 0.331073 0.191089
O O11 0.777353 0.856856 0.397974
O O12 0.036510 0.857987 0.236278
O O13 0.965451 0.000000 0.342672
O O14 0.844223 0.500000 0.612249
O O15 0.000000 0.650461 0.500000
#
# Coordination Sequence:
#
# PCOD8082685 Si02
#       6
#     8   8   8   8   8   8
#     4  10  18  31  54  80 107 142 187 223 256 304
#     4  10  19  35  56  79 102 143 177 220 264 314
#     4  11  21  34  52  79 112 145 178 225 270 307
#     4   9  18  33  54  80 103 135 181 217 258 316
#     4  10  21  38  58  81 109 138 172 218 272 328
#     4  10  20  32  54  80 107 143 177 223 264 310
#
# _framework density 17.260387000000001
#
# number of rings (size 3 to 8) (size 9 to 14) (size 15 to 20)
#    1.000    1.000    3.333    1.500    0.000    1.333 
#    0.000    0.000    0.000    2.500    0.000    0.000 
#    0.000    0.000    0.000    0.000    0.000    0.000 
#
# Total GULP energy -297394.626751 kJ/mol
# GULP energy per Si atom -12391.442781 kJ/mol
# Density = 1.722110 g / cm^3
# Si number density = 17.260387 Si / 1000 Ang^3
#
#
#
# Elastic Constant Matrix: (Units=GPa)
#
#
# Indices 1 2 3 4 5 6 
#
# 1 86.3379 56.2117 23.9094 0.0000 -11.8241 0.0000
# 2 56.2117 77.4716 27.6695 0.0000 -3.5273 0.0000
# 3 23.9094 27.6695 50.5367 0.0000 -14.0143 0.0000
# 4 0.0000 0.0000 0.0000 25.4853 0.0000 -1.2707
# 5 -11.8241 -3.5273 -14.0143 0.0000 26.9058 0.0000
# 6 0.0000 0.0000 0.0000 -1.2707 0.0000 28.2112
#
#
#
# Elastic Compliance Matrix: (Units=1/GPa)
#
#
# Indices 1 2 3 4 5 6 
#
# 1 0.023622 -0.016902 0.000400 0.000000 0.008374 0.000000
# 2 -0.016902 0.028333 -0.009989 0.000000 -0.008916 0.000000
# 3 0.000400 -0.009989 0.028932 0.000000 0.013936 0.000000
# 4 0.000000 0.000000 0.000000 0.039327 0.000000 0.001771
# 5 0.008374 -0.008916 0.013936 0.000000 0.046937 0.000000
# 6 0.000000 0.000000 0.000000 0.001771 0.000000 0.035527
#
#
# Mechanical properties :
#
#
# Convention : Reuss Voigt Hill
#
# Bulk Modulus (GPa) = 35.83409 47.76972 41.80190
# Shear Modulus (GPa) = 18.87073 23.22416 21.04745
#
# Velocity S-wave (km/s) = 3.31009 3.67211 3.49579
# Velocity P-wave (km/s) = 5.95104 6.76130 6.36907
#
# Compressibility (1/GPa) = 0.02790639
#
# Stress axis : x y z
#
# Youngs Moduli (GPa) = 42.33259 35.29457 34.56379
#
# Poissons Ratio (x) = 0.59653 -0.01382
# Poissons Ratio (y) = 0.71548 0.34525
# Poissons Ratio (z) = -0.01693 0.35255
#
# Static dielectric constant tensor:
#      x y z
#    x 3.160100 0.000000 -0.321700 
#    y 0.000000 3.067560 0.000000 
#    z -0.321700 0.000000 2.475130 
# 
# 
# High freq. dielectric constant tensor:
#      x y z
#    x 1.670160 0.000000 -0.010020 
#    y 0.000000 1.658650 0.000000 
#    z -0.010020 0.000000 1.647040 
# 
# From -- ./inp_files/310197.got.cif
#   From: 2010.06.25/outbox.cif.g09.slc.cpg/sg12_156_cif.got.tgz:310197.got - 2010.06.28 00:19:55.
