data_PCOD8082484
_publ_section_title
;
Structure prediction by ZEFSAII (Michael W. Deem and Ramdas Pophale) SiO2 
 PCOD8082484
Probable space group: C 2/M
;
_chemical_formula_sum "Si O2"
_cell_formula_units_Z 48
_cell_length_a 24.873799
_cell_length_b 9.494248
_cell_length_c 14.710878
_cell_angle_alpha 90.000000
_cell_angle_beta 133.678692
_cell_angle_gamma 90.000000
_cell_volume 2512.546654
_symmetry_space_group_name_H-M "C 2/M"
_symmetry_group_IT_number 12
_symmetry_cell_setting 'monoclinic'
loop_
_space_group_symop_operation_xyz
x,y,z
-x,y,-z
-x,-y,-z
x,-y,z
1/2+x,1/2+y,z
1/2-x,1/2+y,-z
1/2-x,1/2-y,-z
1/2+x,1/2-y,z
loop_
_atom_site_type_symbol
_atom_site_label
_atom_site_fract_x
_atom_site_fract_y
_atom_site_fract_z
Si Si1 0.721732 0.330928 0.377789
Si Si2 0.559581 0.845087 0.645248
Si Si3 0.052534 0.166635 0.143353
Si Si4 0.700445 0.838738 0.709706
Si Si5 0.797779 0.159273 0.988088
Si Si6 0.535701 0.335220 0.784875
O O1 0.723823 0.500000 0.396107
O O2 0.750000 0.250000 0.500000
O O3 0.638991 0.284444 0.247093
O O4 0.779303 0.280044 0.366347
O O5 0.500000 0.869765 0.500000
O O6 0.631282 0.766856 0.682745
O O7 0.520461 0.748840 0.674966
O O8 0.581904 0.000000 0.711776
O O9 0.019527 0.216875 0.201178
O O10 0.049060 0.000000 0.130338
O O11 0.000000 0.229103 0.000000
O O12 0.676710 0.000000 0.669563
O O13 0.773700 0.821342 0.856009
O O14 0.882386 0.206393 0.087388
O O15 0.788072 0.000000 0.009966
O O16 0.750000 0.250000 0.000000
O O17 0.525867 0.500000 0.753698
#
# Coordination Sequence:
#
# PCOD8082484 Si02
#       6
#     8   8   8   8   8   8
#     4  10  21  37  58  82 108 142 183 228 272 319
#     4  10  21  35  52  75 104 144 181 209 255 321
#     4   9  18  35  58  82 108 143 186 225 266 322
#     4   9  18  34  54  75 103 138 176 213 256 316
#     4  10  18  31  52  78 105 134 170 212 260 313
#     4  10  20  33  54  83 108 133 172 223 271 312
#
# _framework density 19.104122
#
# number of rings (size 3 to 8) (size 9 to 14) (size 15 to 20)
#    0.000    2.333    1.667    1.000    2.333    4.333 
#    0.000    1.667    0.000    4.000    0.000    0.000 
#    0.000    0.000    0.000    0.000    0.000    0.000 
#
# Total GULP energy -297393.887243 kJ/mol
# GULP energy per Si atom -12391.411968 kJ/mol
# Density = 1.906064 g / cm^3
# Si number density = 19.104122 Si / 1000 Ang^3
#
#
#
# Elastic Constant Matrix: (Units=GPa)
#
#
# Indices 1 2 3 4 5 6 
#
# 1 125.2936 29.2771 35.9337 0.0000 -21.6600 0.0000
# 2 29.2771 34.6468 23.6700 0.0000 -9.4175 0.0000
# 3 35.9337 23.6700 92.8244 0.0000 -9.0972 0.0000
# 4 0.0000 0.0000 0.0000 -334.7984 0.0000 137.5373
# 5 -21.6600 -9.4175 -9.0972 0.0000 36.5854 0.0000
# 6 0.0000 0.0000 0.0000 137.5373 0.0000 -32.0030
#
#
#
# Elastic Compliance Matrix: (Units=1/GPa)
#
#
# Indices 1 2 3 4 5 6 
#
# 1 0.010852 -0.006586 -0.002109 0.000000 0.004205 0.000000
# 2 -0.006586 0.040762 -0.007378 0.000000 0.004759 0.000000
# 3 -0.002109 -0.007378 0.013491 0.000000 0.000207 0.000000
# 4 0.000000 0.000000 0.000000 0.003902 0.000000 0.016769
# 5 0.004205 0.004759 0.000207 0.000000 0.031099 0.000000
# 6 0.000000 0.000000 0.000000 0.016769 0.000000 0.040819
#
#
# Mechanical properties :
#
#
# Convention : Reuss Voigt Hill
#
# Bulk Modulus (GPa) = 30.34169 47.83627 39.08898
# Shear Modulus (GPa) = 27.16507 -55.11758 -13.97625
#
# Velocity S-wave (km/s) = 3.77496 -5.37715 -2.70771
# Velocity P-wave (km/s) = 5.90908 3.66846 3.27564
#
# Compressibility (1/GPa) = 0.03295796
#
# Stress axis : x y z
#
# Youngs Moduli (GPa) = 92.14773 24.53248 74.12161
#
# Poissons Ratio (x) = 0.16157 0.15636
# Poissons Ratio (y) = 0.60689 0.54689
# Poissons Ratio (z) = 0.19438 0.18101
#
# Static dielectric constant tensor:
#      x y z
#    x 3.707660 0.000000 0.025840 
#    y 0.000000 3.012580 0.000000 
#    z 0.025840 0.000000 3.571510 
# 
# 
# High freq. dielectric constant tensor:
#      x y z
#    x 1.759120 0.000000 0.001820 
#    y 0.000000 1.692760 0.000000 
#    z 0.001820 0.000000 1.749250 
# 
# From -- ./inp_files/164004.got.cif
#   From: 2010.06.25/outbox.cif.g09.slc.cpg/sg12_83_cif.got.tgz:164004.got - 2010.06.28 00:19:55.
