data_PCOD8082398
_publ_section_title
;
Structure prediction by ZEFSAII (Michael W. Deem and Ramdas Pophale) SiO2 
 PCOD8082398
Probable space group: C 2/M
;
_chemical_formula_sum "Si O2"
_cell_formula_units_Z 56
_cell_length_a 19.724422
_cell_length_b 9.307395
_cell_length_c 24.334515
_cell_angle_alpha 90.000000
_cell_angle_beta 45.218354
_cell_angle_gamma 90.000000
_cell_volume 3170.946621
_symmetry_space_group_name_H-M "C 2/M"
_symmetry_group_IT_number 12
_symmetry_cell_setting 'monoclinic'
loop_
_space_group_symop_operation_xyz
x,y,z
-x,y,-z
-x,-y,-z
x,-y,z
1/2+x,1/2+y,z
1/2-x,1/2+y,-z
1/2-x,1/2-y,-z
1/2+x,1/2-y,z
loop_
_atom_site_type_symbol
_atom_site_label
_atom_site_fract_x
_atom_site_fract_y
_atom_site_fract_z
Si Si1 0.941747 0.670864 0.872393
Si Si2 0.562246 0.169765 0.304678
Si Si3 0.209154 0.669541 0.131178
Si Si4 0.583912 0.831753 0.701233
Si Si5 0.227236 0.832180 0.458667
Si Si6 0.075045 0.170416 0.004629
Si Si7 0.984846 0.831620 0.447182
O O1 0.940311 0.500000 0.883826
O O2 0.847617 0.721205 0.891430
O O3 0.952122 0.752422 0.923599
O O4 0.035113 0.724685 0.784940
O O5 0.656285 0.220102 0.217193
O O6 0.470833 0.224124 0.321873
O O7 0.558157 0.249691 0.365383
O O8 0.562208 0.000000 0.315461
O O9 0.206057 0.500000 0.131488
O O10 0.318060 0.725029 0.071458
O O11 0.695558 0.789536 0.632904
O O12 0.566190 0.000000 0.712099
O O13 0.250000 0.750000 0.500000
O O14 0.123456 0.784550 0.500144
O O15 0.234854 0.000000 0.466625
O O16 0.072448 0.000000 0.015171
O O17 0.000000 0.216132 0.000000
O O18 0.000000 0.780044 0.500000
O O19 0.002722 0.000000 0.429090
#
# Coordination Sequence:
#
# PCOD8082398 Si02
#       7
#     8   8   8   8   8   8   8
#     4   9  17  32  54  75  95 122 165 207 233 276
#     4   9  16  31  54  73  92 123 168 207 234 281
#     4   8  16  32  54  75  94 125 163 200 242 285
#     4   8  15  29  50  74  94 119 158 204 245 274
#     4  10  18  31  52  72  96 129 165 201 239 285
#     4  10  20  34  50  71 104 135 155 187 244 299
#     4  10  21  34  46  69 105 135 158 195 249 295
#
# _framework density 17.660340999999999
#
# number of rings (size 3 to 8) (size 9 to 14) (size 15 to 20)
#    0.000    2.857    1.429    2.143    0.000    0.571 
#    2.571    4.286    0.000    0.000    0.000    0.000 
#    0.000    0.000    0.000    0.000    0.000    0.000 
#
# Total GULP energy -346976.768679 kJ/mol
# GULP energy per Si atom -12392.027453 kJ/mol
# Density = 1.762015 g / cm^3
# Si number density = 17.660341 Si / 1000 Ang^3
#
#
#
# Elastic Constant Matrix: (Units=GPa)
#
#
# Indices 1 2 3 4 5 6 
#
# 1 116.9079 33.3706 79.0051 0.0000 10.8841 0.0000
# 2 33.3706 28.0623 39.7809 0.0000 7.3072 -0.0002
# 3 79.0051 39.7809 154.9365 0.0000 12.0097 0.0000
# 4 0.0000 0.0000 0.0000 29.7313 0.0000 6.7607
# 5 10.8841 7.3072 12.0097 0.0000 30.7730 0.0000
# 6 0.0000 -0.0002 0.0000 6.7607 0.0000 18.4357
#
#
#
# Elastic Compliance Matrix: (Units=1/GPa)
#
#
# Indices 1 2 3 4 5 6 
#
# 1 0.014941 -0.010750 -0.004792 0.000000 -0.000862 0.000000
# 2 -0.010750 0.065704 -0.010800 0.000000 -0.007585 0.000001
# 3 -0.004792 -0.010800 0.011694 0.000000 -0.000305 0.000000
# 4 0.000000 0.000000 0.000000 0.036695 0.000000 -0.013457
# 5 -0.000862 -0.007585 -0.000305 0.000000 0.034721 0.000000
# 6 0.000000 0.000001 0.000000 -0.013457 0.000000 0.059177
#
#
# Mechanical properties :
#
#
# Convention : Reuss Voigt Hill
#
# Bulk Modulus (GPa) = 25.21746 67.13555 46.17651
# Shear Modulus (GPa) = 17.31101 25.63800 21.47450
#
# Velocity S-wave (km/s) = 3.13424 3.81429 3.49086
# Velocity P-wave (km/s) = 5.23528 7.58260 6.51552
#
# Compressibility (1/GPa) = 0.03965506
#
# Stress axis : x y z
#
# Youngs Moduli (GPa) = 66.93200 15.21976 85.51200
#
# Poissons Ratio (x) = 0.16361 0.40974
# Poissons Ratio (y) = 0.71951 0.92357
# Poissons Ratio (z) = 0.32071 0.16438
#
# Static dielectric constant tensor:
#      x y z
#    x 3.231410 0.000000 -0.193200 
#    y 0.000000 2.922500 0.000000 
#    z -0.193200 0.000000 3.481950 
# 
# 
# High freq. dielectric constant tensor:
#      x y z
#    x 1.669000 0.000000 -0.006350 
#    y 0.000000 1.648640 0.000000 
#    z -0.006350 0.000000 1.700360 
# 
# From -- ./inp_files/280430.got.cif
#   From: 2010.06.25/outbox.cif.g09.slc.cpg/sg12_141_cif.got.tgz:280430.got - 2010.06.28 00:19:55.
