data_PCOD8082606
_publ_section_title
;
Structure prediction by ZEFSAII (Michael W. Deem and Ramdas Pophale) SiO2 
 PCOD8082606
Probable space group: C 2/M
;
_chemical_formula_sum "Si O2"
_cell_formula_units_Z 64
_cell_length_a 28.449271
_cell_length_b 9.070595
_cell_length_c 13.056654
_cell_angle_alpha 90.000000
_cell_angle_beta 86.530036
_cell_angle_gamma 90.000000
_cell_volume 3363.116222
_symmetry_space_group_name_H-M "C 2/M"
_symmetry_group_IT_number 12
_symmetry_cell_setting 'monoclinic'
loop_
_space_group_symop_operation_xyz
x,y,z
-x,y,-z
-x,-y,-z
x,-y,z
1/2+x,1/2+y,z
1/2-x,1/2+y,-z
1/2-x,1/2-y,-z
1/2+x,1/2-y,z
loop_
_atom_site_type_symbol
_atom_site_label
_atom_site_fract_x
_atom_site_fract_y
_atom_site_fract_z
Si Si1 0.278445 0.669529 0.908815
Si Si2 0.449481 0.675275 0.302799
Si Si3 0.202230 0.674842 0.540271
Si Si4 0.303080 0.168116 0.225312
Si Si5 0.445050 0.675261 0.702213
Si Si6 0.388795 0.326261 0.123184
Si Si7 0.383633 0.325449 0.896110
Si Si8 0.609813 0.325205 0.493394
O O1 0.282570 0.500000 0.941512
O O2 0.250662 0.688021 0.805491
O O3 0.330677 0.737428 0.888639
O O4 0.250000 0.750000 0.000000
O O5 0.451564 0.500000 0.302243
O O6 0.502090 0.740570 0.304322
O O7 0.426264 0.736066 0.200636
O O8 0.418833 0.729259 0.403207
O O9 0.205638 0.500000 0.524112
O O10 0.250000 0.750000 0.500000
O O11 0.193553 0.720036 0.658677
O O12 0.159467 0.741623 0.480373
O O13 0.336904 0.265680 0.150968
O O14 0.319580 0.000000 0.211516
O O15 0.447155 0.500000 0.708304
O O16 0.417290 0.741678 0.803927
O O17 0.419563 0.724511 0.601741
O O18 0.385421 0.500000 0.134553
O O19 0.403759 0.281277 0.005697
O O20 0.382435 0.500000 0.883073
O O21 0.618827 0.500000 0.494085
#
# Coordination Sequence:
#
# PCOD8082606 Si02
#       8
#     8   8   8   8   8   8   8   8
#     4  10  19  32  51  75 103 136 175 212 256 315
#     4   9  17  30  51  81 107 136 182 228 270 314
#     4  11  24  39  56  81 111 142 178 218 267 322
#     4  10  21  35  53  76 105 140 177 214 261 325
#     4   9  18  31  51  79 111 144 177 221 274 325
#     4  10  18  31  53  79 108 137 176 226 265 307
#     4   9  18  30  47  75 109 141 173 216 270 317
#     4  10  19  34  58  81 108 142 180 224 268 318
#
# _framework density 19.029969999999999
#
# number of rings (size 3 to 8) (size 9 to 14) (size 15 to 20)
#    0.000    2.250    2.500    0.750    1.750    2.500 
#    0.000    2.500    0.000    3.000    0.000    0.875 
#    0.000    0.000    0.000    0.000    0.000    0.000 
#
# Total GULP energy -396776.520507 kJ/mol
# GULP energy per Si atom -12399.266266 kJ/mol
# Density = 1.898666 g / cm^3
# Si number density = 19.029970 Si / 1000 Ang^3
#
#
#
# Elastic Constant Matrix: (Units=GPa)
#
#
# Indices 1 2 3 4 5 6 
#
# 1 162.6347 26.6945 74.7531 0.0000 1.9909 0.0000
# 2 26.6945 28.4908 24.3967 0.0000 -0.0272 0.0000
# 3 74.7531 24.3967 137.7157 0.0000 8.2868 0.0000
# 4 0.0000 0.0000 0.0000 14.0349 0.0000 0.3671
# 5 1.9909 -0.0272 8.2868 0.0000 35.0088 0.0000
# 6 0.0000 0.0000 0.0000 0.3671 0.0000 21.9893
#
#
#
# Elastic Compliance Matrix: (Units=1/GPa)
#
#
# Indices 1 2 3 4 5 6 
#
# 1 0.008734 -0.004835 -0.003910 0.000000 0.000425 0.000000
# 2 -0.004835 0.044163 -0.005293 0.000000 0.001562 0.000000
# 3 -0.003910 -0.005293 0.010457 0.000000 -0.002257 0.000000
# 4 0.000000 0.000000 0.000000 0.071282 0.000000 -0.001190
# 5 0.000425 0.001562 -0.002257 0.000000 0.029076 0.000000
# 6 0.000000 0.000000 0.000000 -0.001190 0.000000 0.045497
#
#
# Mechanical properties :
#
#
# Convention : Reuss Voigt Hill
#
# Bulk Modulus (GPa) = 28.34600 64.50328 46.42464
# Shear Modulus (GPa) = 20.07666 27.73971 23.90819
#
# Velocity S-wave (km/s) = 3.25160 3.82211 3.54834
# Velocity P-wave (km/s) = 5.38749 7.31076 6.42154
#
# Compressibility (1/GPa) = 0.03527835
#
# Stress axis : x y z
#
# Youngs Moduli (GPa) = 114.48973 22.64324 95.62704
#
# Poissons Ratio (x) = 0.10948 0.37391
# Poissons Ratio (y) = 0.55356 0.50617
# Poissons Ratio (z) = 0.44767 0.11985
#
# Static dielectric constant tensor:
#      x y z
#    x 3.734550 0.000000 0.113600 
#    y 0.000000 3.022000 0.000000 
#    z 0.113600 0.000000 3.788560 
# 
# 
# High freq. dielectric constant tensor:
#      x y z
#    x 1.748590 0.000000 0.008990 
#    y 0.000000 1.688110 0.000000 
#    z 0.008990 0.000000 1.751770 
# 
# From -- ./inp_files/182104.got.cif
#   From: 2010.06.25/outbox.cif.g09.slc.cpg/sg12_92_cif.got.tgz:182104.got - 2010.06.28 00:19:55.
