data_PCOD8082675
_publ_section_title
;
Structure prediction by ZEFSAII (Michael W. Deem and Ramdas Pophale) SiO2 
 PCOD8082675
Probable space group: C 2/M
;
_chemical_formula_sum "Si O2"
_cell_formula_units_Z 64
_cell_length_a 20.667905
_cell_length_b 9.375795
_cell_length_c 22.942424
_cell_angle_alpha 90.000000
_cell_angle_beta 128.693446
_cell_angle_gamma 90.000000
_cell_volume 3469.907030
_symmetry_space_group_name_H-M "C 2/M"
_symmetry_group_IT_number 12
_symmetry_cell_setting 'monoclinic'
loop_
_space_group_symop_operation_xyz
x,y,z
-x,y,-z
-x,-y,-z
x,-y,z
1/2+x,1/2+y,z
1/2-x,1/2+y,-z
1/2-x,1/2-y,-z
1/2+x,1/2-y,z
loop_
_atom_site_type_symbol
_atom_site_label
_atom_site_fract_x
_atom_site_fract_y
_atom_site_fract_z
Si Si1 0.865926 0.666012 0.194663
Si Si2 0.398011 0.841377 0.707103
Si Si3 0.539558 0.667755 0.842721
Si Si4 0.925175 0.843770 0.500816
Si Si5 0.036983 0.831889 0.080278
Si Si6 0.775812 0.167054 0.799468
Si Si7 0.516501 0.841407 0.359657
Si Si8 0.722920 0.666739 0.659306
O O1 0.880315 0.500000 0.188228
O O2 0.773456 0.693997 0.167307
O O3 0.881874 0.752802 0.143218
O O4 0.933206 0.716099 0.280866
O O5 0.454787 0.719536 0.766212
O O6 0.407707 0.840617 0.643097
O O7 0.304833 0.802372 0.668957
O O8 0.421733 0.000000 0.744707
O O9 0.550656 0.500000 0.839235
O O10 0.528285 0.705051 0.904976
O O11 0.955607 0.753984 0.571903
O O12 0.850320 0.771359 0.422534
O O13 0.000000 0.862249 0.500000
O O14 0.896763 0.000000 0.507502
O O15 0.130271 0.771310 0.143328
O O16 0.047060 0.000000 0.079101
O O17 0.000000 0.765236 0.000000
O O18 0.725605 0.249136 0.721375
O O19 0.775516 0.000000 0.783898
O O20 0.499258 0.000000 0.373885
O O21 0.708971 0.500000 0.665459
#
# Coordination Sequence:
#
# PCOD8082675 Si02
#       8
#     8   8   8   8   8   8   8   8
#     4   9  19  34  53  76 106 141 173 214 262 304
#     4   9  18  33  51  72 101 134 167 210 265 309
#     4  10  18  31  54  80 104 134 175 213 251 307
#     4  10  21  34  46  66  98 133 168 210 263 311
#     4   9  18  33  54  81 110 136 166 211 262 305
#     4  10  19  34  56  80 103 134 180 217 249 307
#     4   9  18  32  48  68  95 130 171 211 256 304
#     4  10  20  33  51  73 102 137 169 213 267 305
#
# _framework density 18.444298
#
# number of rings (size 3 to 8) (size 9 to 14) (size 15 to 20)
#    0.000    2.500    1.250    1.875    0.000    3.750 
#    0.000    0.625    0.000    3.375    0.000    0.000 
#    0.000    0.000    0.000    0.000    0.000    0.000 
#
# Total GULP energy -396635.359652 kJ/mol
# GULP energy per Si atom -12394.854989 kJ/mol
# Density = 1.840232 g / cm^3
# Si number density = 18.444298 Si / 1000 Ang^3
#
#
#
# Elastic Constant Matrix: (Units=GPa)
#
#
# Indices 1 2 3 4 5 6 
#
# 1 96.7962 28.4904 21.0309 0.0000 -11.5185 0.0000
# 2 28.4904 55.4213 33.2322 0.0000 -14.1904 0.0000
# 3 21.0309 33.2322 81.6816 0.0000 -18.8768 0.0000
# 4 0.0000 0.0000 0.0000 19.1675 0.0000 -6.5059
# 5 -11.5185 -14.1904 -18.8768 0.0000 23.4767 0.0000
# 6 0.0000 0.0000 0.0000 -6.5059 0.0000 28.9502
#
#
#
# Elastic Compliance Matrix: (Units=1/GPa)
#
#
# Indices 1 2 3 4 5 6 
#
# 1 0.012316 -0.005483 -0.000380 0.000000 0.002423 0.000000
# 2 -0.005483 0.027640 -0.008100 0.000000 0.007504 0.000000
# 3 -0.000380 -0.008100 0.017762 0.000000 0.009199 0.000000
# 4 0.000000 0.000000 0.000000 0.056480 0.000000 0.012692
# 5 0.002423 0.007504 0.009199 0.000000 0.055717 0.000000
# 6 0.000000 0.000000 0.000000 0.012692 0.000000 0.037394
#
#
# Mechanical properties :
#
#
# Convention : Reuss Voigt Hill
#
# Bulk Modulus (GPa) = 33.56548 44.37845 38.97197
# Shear Modulus (GPa) = 20.39442 24.39524 22.39483
#
# Velocity S-wave (km/s) = 3.32886 3.64076 3.48830
# Velocity P-wave (km/s) = 5.74568 6.46425 6.11553
#
# Compressibility (1/GPa) = 0.02979251
#
# Stress axis : x y z
#
# Youngs Moduli (GPa) = 81.19737 36.17904 56.30028
#
# Poissons Ratio (x) = 0.19836 0.02142
# Poissons Ratio (y) = 0.44518 0.45601
# Poissons Ratio (z) = 0.03089 0.29303
#
# Static dielectric constant tensor:
#      x y z
#    x 3.435220 0.000000 0.022080 
#    y 0.000000 3.316600 0.000000 
#    z 0.022080 0.000000 3.248150 
# 
# 
# High freq. dielectric constant tensor:
#      x y z
#    x 1.729400 0.000000 -0.006370 
#    y 0.000000 1.698240 0.000000 
#    z -0.006370 0.000000 1.691280 
# 
# From -- ./inp_files/324235.got.cif
#   From: 2010.06.25/outbox.cif.g09.slc.cpg/sg12_163_cif.got.tgz:324235.got - 2010.06.28 00:19:55.
