data_PCOD8082091
_publ_section_title
;
Structure prediction by ZEFSAII (Michael W. Deem and Ramdas Pophale) SiO2 
 PCOD8082091
Probable space group: C 2/M
;
_chemical_formula_sum "Si O2"
_cell_formula_units_Z 56
_cell_length_a 18.883781
_cell_length_b 10.549463
_cell_length_c 23.553419
_cell_angle_alpha 90.000000
_cell_angle_beta 41.193634
_cell_angle_gamma 90.000000
_cell_volume 3090.287285
_symmetry_space_group_name_H-M "C 2/M"
_symmetry_group_IT_number 12
_symmetry_cell_setting 'monoclinic'
loop_
_space_group_symop_operation_xyz
x,y,z
-x,y,-z
-x,-y,-z
x,-y,z
1/2+x,1/2+y,z
1/2-x,1/2+y,-z
1/2-x,1/2-y,-z
1/2+x,1/2-y,z
loop_
_atom_site_type_symbol
_atom_site_label
_atom_site_fract_x
_atom_site_fract_y
_atom_site_fract_z
Si Si1 0.632006 0.354192 0.797760
Si Si2 0.543544 0.856720 0.268181
Si Si3 0.204680 0.854641 0.874788
Si Si4 0.832971 0.650868 0.611774
Si Si5 0.300266 0.861120 0.032345
Si Si6 0.972444 0.650837 0.428736
Si Si7 0.922079 0.230819 0.866280
O O1 0.662692 0.500000 0.783736
O O2 0.647607 0.301581 0.852203
O O3 0.717516 0.292885 0.701446
O O4 0.510786 0.338022 0.850653
O O5 0.668117 0.850279 0.210666
O O6 0.474997 0.797645 0.362252
O O7 0.519780 0.778430 0.225810
O O8 0.508015 0.000000 0.277446
O O9 0.169785 0.756406 0.944908
O O10 0.168772 0.000000 0.911975
O O11 0.832129 0.500000 0.611766
O O12 0.865752 0.695902 0.527830
O O13 0.922768 0.701323 0.601258
O O14 0.174370 0.863798 0.091652
O O15 0.326134 0.000000 0.043402
O O16 0.370891 0.847283 0.932531
O O17 0.979523 0.500000 0.421265
#
# Coordination Sequence:
#
# PCOD8082091 Si02
#       7
#     8   8   8   8   8   8   8
#     4  10  18  31  48  72 101 126 155 204 256 293
#     4   9  15  28  47  69  96 129 163 197 239 293
#     4   9  18  32  54  77  98 125 165 210 251 291
#     4   8  13  22  41  70  99 122 151 195 247 289
#     4  10  21  38  53  69  95 133 173 208 245 298
#     4   8  12  21  42  70  96 124 155 193 239 288
#     4  10  21  32  49  70  95 129 168 203 247 297
#
# _framework density 18.121292
#
# number of rings (size 3 to 8) (size 9 to 14) (size 15 to 20)
#    0.000    2.857    1.429    1.714    0.000    4.571 
#    0.000    4.286    0.000    0.000    0.000    0.000 
#    0.000   11.429    0.000    0.000    0.000    0.000 
#
# Total GULP energy -346891.376079 kJ/mol
# GULP energy per Si atom -12388.977717 kJ/mol
# Density = 1.808005 g / cm^3
# Si number density = 18.121292 Si / 1000 Ang^3
#
#
#
# Elastic Constant Matrix: (Units=GPa)
#
#
# Indices 1 2 3 4 5 6 
#
# 1 76.3019 13.3210 37.3030 0.0000 14.5981 0.0000
# 2 13.3210 56.3516 35.5445 0.0000 15.0882 0.0001
# 3 37.3030 35.5445 114.5717 0.0000 22.3600 0.0000
# 4 0.0000 0.0000 0.0000 11.4869 0.0000 5.1538
# 5 14.5981 15.0882 22.3600 0.0000 28.3386 0.0000
# 6 0.0000 0.0001 0.0000 5.1538 0.0000 16.1412
#
#
#
# Elastic Compliance Matrix: (Units=1/GPa)
#
#
# Indices 1 2 3 4 5 6 
#
# 1 0.016152 0.000281 -0.004365 0.000000 -0.005026 0.000000
# 2 0.000281 0.023505 -0.005807 0.000000 -0.008077 0.000000
# 3 -0.004365 -0.005807 0.012894 0.000000 -0.004833 0.000000
# 4 0.000000 0.000000 0.000000 0.101613 0.000000 -0.032444
# 5 -0.005026 -0.008077 -0.004833 0.000000 0.045991 0.000000
# 6 0.000000 0.000000 0.000000 -0.032444 0.000000 0.072312
#
#
# Mechanical properties :
#
#
# Convention : Reuss Voigt Hill
#
# Bulk Modulus (GPa) = 30.51714 46.61802 38.56758
# Shear Modulus (GPa) = 16.49219 21.93046 19.21133
#
# Velocity S-wave (km/s) = 3.02006 3.48257 3.25953
# Velocity P-wave (km/s) = 5.38870 6.47707 5.95779
#
# Compressibility (1/GPa) = 0.03276847
#
# Stress axis : x y z
#
# Youngs Moduli (GPa) = 61.90999 42.54420 77.55330
#
# Poissons Ratio (x) = -0.01195 0.33854
# Poissons Ratio (y) = -0.01739 0.45037
# Poissons Ratio (z) = 0.27026 0.24706
#
# Static dielectric constant tensor:
#      x y z
#    x 3.111040 0.000000 0.182220 
#    y 0.000000 2.810980 0.000000 
#    z 0.182220 0.000000 3.764760 
# 
# 
# High freq. dielectric constant tensor:
#      x y z
#    x 1.681250 0.000000 0.013870 
#    y 0.000000 1.641360 0.000000 
#    z 0.013870 0.000000 1.719250 
# 
# From -- ./inp_files/315249.got.cif
#   From: 2010.06.25/outbox.cif.g09.slc.cpg/sg12_158_cif.got.tgz:315249.got - 2010.06.28 00:19:55.
