data_PCOD8082736
_publ_section_title
;
Structure prediction by ZEFSAII (Michael W. Deem and Ramdas Pophale) SiO2 
 PCOD8082736
Probable space group: C 2/M
;
_chemical_formula_sum "Si O2"
_cell_formula_units_Z 64
_cell_length_a 30.562690
_cell_length_b 13.727432
_cell_length_c 9.116456
_cell_angle_alpha 90.000000
_cell_angle_beta 93.302842
_cell_angle_gamma 90.000000
_cell_volume 3818.430914
_symmetry_space_group_name_H-M "C 2/M"
_symmetry_group_IT_number 12
_symmetry_cell_setting 'monoclinic'
loop_
_space_group_symop_operation_xyz
x,y,z
-x,y,-z
-x,-y,-z
x,-y,z
1/2+x,1/2+y,z
1/2-x,1/2+y,-z
1/2-x,1/2-y,-z
1/2+x,1/2-y,z
loop_
_atom_site_type_symbol
_atom_site_label
_atom_site_fract_x
_atom_site_fract_y
_atom_site_fract_z
Si Si1 0.295077 0.393216 0.159079
Si Si2 0.777141 0.386140 0.083553
Si Si3 0.115930 0.888562 0.963327
Si Si4 0.041721 0.257578 0.914106
Si Si5 0.497936 0.887689 0.669946
Si Si6 0.749713 0.240723 0.672173
Si Si7 0.165346 0.727192 0.134473
Si Si8 0.915136 0.611220 0.841448
O O1 0.278118 0.500000 0.194418
O O2 0.281249 0.329404 0.291753
O O3 0.269693 0.361209 0.003842
O O4 0.347413 0.390309 0.156001
O O5 0.789507 0.500000 0.078779
O O6 0.771672 0.354937 0.253612
O O7 0.814676 0.321306 0.011069
O O8 0.137336 0.825423 0.098562
O O9 0.105685 0.000000 0.012803
O O10 0.071959 0.837605 0.891943
O O11 0.028675 0.310262 0.759853
O O12 0.068244 0.337412 0.008721
O O13 0.000000 0.222196 0.000000
O O14 0.500000 0.861939 0.500000
O O15 0.447972 0.872519 0.712146
O O16 0.512774 0.000000 0.702748
O O17 0.750000 0.250000 0.500000
O O18 0.798925 0.252057 0.736570
O O19 0.132676 0.651589 0.207643
O O20 0.911049 0.500000 0.883373
#
# Coordination Sequence:
#
# PCOD8082736 Si02
#       8
#     8   8   8   8   8   8   8   8
#     4   9  17  33  53  70  91 129 174 209 246 294
#     4  10  18  32  54  72  94 129 170 211 251 300
#     4  10  18  31  55  75  93 125 172 217 247 286
#     4   9  18  31  50  77 101 126 162 206 248 291
#     4   9  17  32  52  76 106 139 164 189 243 310
#     4  11  21  33  48  73 106 134 165 209 257 311
#     4  10  18  34  51  75  99 130 173 209 254 297
#     4   9  17  30  51  76 101 127 161 205 245 290
#
# _framework density 16.760811
#
# number of rings (size 3 to 8) (size 9 to 14) (size 15 to 20)
#    0.000    2.375    2.500    1.500    0.000    2.750 
#    2.250    0.000    0.000    0.375    0.000    0.000 
#    0.000    0.000    0.000    0.000    0.000    0.000 
#
# Total GULP energy -396564.554764 kJ/mol
# GULP energy per Si atom -12392.642336 kJ/mol
# Density = 1.672266 g / cm^3
# Si number density = 16.760811 Si / 1000 Ang^3
#
#
#
# Elastic Constant Matrix: (Units=GPa)
#
#
# Indices 1 2 3 4 5 6 
#
# 1 94.2448 54.8203 32.5122 0.0000 1.1155 0.0000
# 2 54.8203 122.0242 47.6464 0.0000 -2.8856 0.0000
# 3 32.5122 47.6464 110.5380 0.0000 -5.5277 0.0000
# 4 0.0000 0.0000 0.0000 16.6361 0.0000 -1.3156
# 5 1.1155 -2.8856 -5.5277 0.0000 14.5281 0.0000
# 6 0.0000 0.0000 0.0000 -1.3156 0.0000 31.6159
#
#
#
# Elastic Compliance Matrix: (Units=1/GPa)
#
#
# Indices 1 2 3 4 5 6 
#
# 1 0.014778 -0.005957 -0.001932 0.000000 -0.003053 0.000000
# 2 -0.005957 0.012257 -0.003452 0.000000 0.001578 0.000000
# 3 -0.001932 -0.003452 0.011291 0.000000 0.003759 0.000000
# 4 0.000000 0.000000 0.000000 0.060309 0.000000 0.002510
# 5 -0.003053 0.001578 0.003759 0.000000 0.070810 0.000000
# 6 0.000000 0.000000 0.000000 0.002510 0.000000 0.031734
#
#
# Mechanical properties :
#
#
# Convention : Reuss Voigt Hill
#
# Bulk Modulus (GPa) = 63.92198 66.30721 65.11459
# Shear Modulus (GPa) = 21.82693 25.34457 23.58575
#
# Velocity S-wave (km/s) = 3.61260 3.89283 3.75533
# Velocity P-wave (km/s) = 7.45800 7.73643 7.59849
#
# Compressibility (1/GPa) = 0.01564407
#
# Stress axis : x y z
#
# Youngs Moduli (GPa) = 67.66646 81.58819 88.56852
#
# Poissons Ratio (x) = 0.48604 0.17107
# Poissons Ratio (y) = 0.40311 0.30574
# Poissons Ratio (z) = 0.13070 0.28164
#
# Static dielectric constant tensor:
#      x y z
#    x 3.364680 0.000000 -0.097730 
#    y 0.000000 3.328320 0.000000 
#    z -0.097730 0.000000 2.767810 
# 
# 
# High freq. dielectric constant tensor:
#      x y z
#    x 1.650790 0.000000 -0.011680 
#    y 0.000000 1.656050 0.000000 
#    z -0.011680 0.000000 1.606310 
# 
# From -- ./inp_files/111221.got.cif
#   From: 2010.06.25/outbox.cif.g09.slc.cpg/sg12_56_cif.got.tgz:111221.got - 2010.06.28 00:19:55.
