data_PCOD8082343
_publ_section_title
;
Structure prediction by ZEFSAII (Michael W. Deem and Ramdas Pophale) SiO2 
 PCOD8082343
Probable space group: C 2/M
;
_chemical_formula_sum "Si O2"
_cell_formula_units_Z 48
_cell_length_a 7.770926
_cell_length_b 19.099296
_cell_length_c 19.010594
_cell_angle_alpha 90.000000
_cell_angle_beta 65.872687
_cell_angle_gamma 90.000000
_cell_volume 2575.046311
_symmetry_space_group_name_H-M "C 2/M"
_symmetry_group_IT_number 12
_symmetry_cell_setting 'monoclinic'
loop_
_space_group_symop_operation_xyz
x,y,z
-x,y,-z
-x,-y,-z
x,-y,z
1/2+x,1/2+y,z
1/2-x,1/2+y,-z
1/2-x,1/2-y,-z
1/2+x,1/2-y,z
loop_
_atom_site_type_symbol
_atom_site_label
_atom_site_fract_x
_atom_site_fract_y
_atom_site_fract_z
Si Si1 0.414078 0.583142 0.585922
Si Si2 0.999826 0.580394 0.307934
Si Si3 0.630226 0.330977 0.166611
Si Si4 0.615693 0.419606 0.692067
Si Si5 0.463453 0.830977 0.833388
Si Si6 0.798769 0.329716 1.000000
O O1 0.500000 0.615642 0.500000
O O2 0.419596 0.500000 0.580410
O O3 0.540700 0.609803 0.630135
O O4 0.199030 0.609801 0.630133
O O5 0.976234 0.500000 0.288097
O O6 0.157073 0.587572 0.342928
O O7 0.071495 0.623852 0.229573
O O8 0.469355 0.376149 0.229572
O O9 0.572417 0.250000 0.177580
O O10 0.823668 0.341267 0.176330
O O11 0.649424 0.360063 0.082112
O O12 0.552424 0.500000 0.711904
O O13 0.313652 0.860062 0.917886
O O14 0.750000 0.250000 0.000000
O O15 0.000000 0.338643 0.000000
#
# Coordination Sequence:
#
# PCOD8082343 Si02
#       6
#     8   8   8   8   8   8
#     4   9  18  34  56  79 103 133 168 211 260 309
#     4  10  20  34  53  79 107 135 172 214 256 307
#     4  10  18  31  51  76 104 139 176 216 257 305
#     4  10  20  34  53  79 107 135 172 214 256 307
#     4  10  18  31  51  76 104 139 176 216 257 305
#     4   8  16  28  45  70 101 133 174 216 252 292
#
# _framework density 18.640442
#
# number of rings (size 3 to 8) (size 9 to 14) (size 15 to 20)
#    0.000    2.500    1.667    1.000    0.000    2.000 
#    0.000    4.167    0.000    6.000    0.000    0.000 
#    0.000    0.000    0.000    0.000    0.000    0.000 
#
# Total GULP energy -297338.802995 kJ/mol
# GULP energy per Si atom -12389.116791 kJ/mol
# Density = 1.859802 g / cm^3
# Si number density = 18.640442 Si / 1000 Ang^3
#
#
#
# Elastic Constant Matrix: (Units=GPa)
#
#
# Indices 1 2 3 4 5 6 
#
# 1 104.4005 20.0280 58.7298 0.0000 -0.6173 0.0000
# 2 20.0280 40.0061 38.7225 0.0000 0.7337 0.0000
# 3 58.7298 38.7225 168.9510 0.0000 3.1464 0.0000
# 4 0.0000 0.0000 0.0000 28.5544 0.0000 0.3164
# 5 -0.6173 0.7337 3.1464 0.0000 15.1503 0.0000
# 6 0.0000 0.0000 0.0000 0.3164 0.0000 20.4691
#
#
#
# Elastic Compliance Matrix: (Units=1/GPa)
#
#
# Indices 1 2 3 4 5 6 
#
# 1 0.012135 -0.002561 -0.003657 0.000000 0.001378 0.000000
# 2 -0.002561 0.032663 -0.006590 0.000000 -0.000317 0.000000
# 3 -0.003657 -0.006590 0.008731 0.000000 -0.001643 0.000000
# 4 0.000000 0.000000 0.000000 0.035027 0.000000 -0.000542
# 5 0.001378 -0.000317 -0.001643 0.000000 0.066418 0.000000
# 6 0.000000 0.000000 0.000000 -0.000542 0.000000 0.048863
#
#
# Mechanical properties :
#
#
# Convention : Reuss Voigt Hill
#
# Bulk Modulus (GPa) = 35.82526 60.92426 48.37476
# Shear Modulus (GPa) = 20.94182 25.89322 23.41752
#
# Velocity S-wave (km/s) = 3.35544 3.73109 3.54824
# Velocity P-wave (km/s) = 5.85430 7.16354 6.54175
#
# Compressibility (1/GPa) = 0.02791326
#
# Stress axis : x y z
#
# Youngs Moduli (GPa) = 82.40509 30.61609 114.53247
#
# Poissons Ratio (x) = 0.07840 0.41886
# Poissons Ratio (y) = 0.21101 0.75477
# Poissons Ratio (z) = 0.30137 0.20176
#
# Static dielectric constant tensor:
#      x y z
#    x 3.622910 0.000000 0.010360 
#    y 0.000000 2.985670 0.000000 
#    z 0.010360 0.000000 3.886920 
# 
# 
# High freq. dielectric constant tensor:
#      x y z
#    x 1.736800 0.000000 -0.000200 
#    y 0.000000 1.671170 0.000000 
#    z -0.000200 0.000000 1.731640 
# 
# From -- ./inp_files/300395.got.cif
#   From: 2010.06.25/outbox.cif.g09.slc.cpg/sg12_151_cif.got.tgz:300395.got - 2010.06.28 00:19:55.
