data_PCOD8082811
_publ_section_title
;
Structure prediction by ZEFSAII (Michael W. Deem and Ramdas Pophale) SiO2 
 PCOD8082811
Probable space group: C 2/M
;
_chemical_formula_sum "Si O2"
_cell_formula_units_Z 64
_cell_length_a 14.323824
_cell_length_b 14.962318
_cell_length_c 17.259373
_cell_angle_alpha 90.000000
_cell_angle_beta 117.953750
_cell_angle_gamma 90.000000
_cell_volume 3267.412887
_symmetry_space_group_name_H-M "C 2/M"
_symmetry_group_IT_number 12
_symmetry_cell_setting 'monoclinic'
loop_
_space_group_symop_operation_xyz
x,y,z
-x,y,-z
-x,-y,-z
x,-y,z
1/2+x,1/2+y,z
1/2-x,1/2+y,-z
1/2-x,1/2-y,-z
1/2+x,1/2-y,z
loop_
_atom_site_type_symbol
_atom_site_label
_atom_site_fract_x
_atom_site_fract_y
_atom_site_fract_z
Si Si1 0.704609 0.099959 0.005234
Si Si2 0.186786 0.662869 0.453509
Si Si3 0.259837 0.233086 0.848992
Si Si4 0.566839 0.832516 0.816512
Si Si5 0.876110 0.101953 0.948707
Si Si6 0.167558 0.719272 0.284077
Si Si7 0.038052 0.600932 0.639530
Si Si8 0.748004 0.901287 0.630106
O O1 0.685098 0.165713 0.069604
O O2 0.698656 0.000000 0.035965
O O3 0.611231 0.112544 0.906635
O O4 0.819192 0.117078 0.009833
O O5 0.250000 0.750000 0.500000
O O6 0.202795 0.650549 0.366736
O O7 0.234555 0.589703 0.531068
O O8 0.059398 0.667944 0.416523
O O9 0.139887 0.245932 0.829710
O O10 0.322406 0.328039 0.869105
O O11 0.258764 0.196772 0.760716
O O12 0.450819 0.798137 0.790453
O O13 0.571779 0.894284 0.742380
O O14 0.856080 0.000000 0.912238
O O15 0.000000 0.122734 0.000000
O O16 0.171540 0.822842 0.314461
O O17 0.000374 0.500000 0.607279
O O18 0.135608 0.627274 0.623077
O O19 0.784714 0.000000 0.673933
#
# Coordination Sequence:
#
# PCOD8082811 Si02
#       8
#     8   8   8   8   8   8   8   8
#     4  10  22  39  56  80 112 155 199 236 278 333
#     4   9  19  34  51  77 116 147 179 211 264 340
#     4  11  22  36  58  80 116 154 190 237 284 338
#     4  10  20  37  56  79 116 149 185 233 288 331
#     4   9  19  34  57  84 108 140 187 239 292 340
#     4  10  22  36  55  83 113 148 189 225 279 341
#     4  10  18  31  56  88 114 139 175 233 293 336
#     4  10  19  35  58  87 115 139 176 234 295 346
#
# _framework density 19.587361000000001
#
# number of rings (size 3 to 8) (size 9 to 14) (size 15 to 20)
#    0.000    2.125    1.250    2.625    3.500    2.000 
#    0.000    5.000    0.000    0.000    0.000    0.875 
#    0.000    0.000    0.000    0.000    0.000    0.000 
#
# Total GULP energy -396507.354028 kJ/mol
# GULP energy per Si atom -12390.854813 kJ/mol
# Density = 1.954278 g / cm^3
# Si number density = 19.587361 Si / 1000 Ang^3
#
#
#
# Elastic Constant Matrix: (Units=GPa)
#
#
# Indices 1 2 3 4 5 6 
#
# 1 50.5865 35.7581 26.9468 0.0000 0.8518 0.0000
# 2 35.7581 69.8702 27.2837 0.0000 0.0149 0.0000
# 3 26.9468 27.2837 91.6496 0.0000 -10.6608 0.0000
# 4 0.0000 0.0000 0.0000 22.2768 0.0000 1.6212
# 5 0.8518 0.0149 -10.6608 0.0000 34.0904 0.0000
# 6 0.0000 0.0000 0.0000 1.6212 0.0000 22.1712
#
#
#
# Elastic Compliance Matrix: (Units=1/GPa)
#
#
# Indices 1 2 3 4 5 6 
#
# 1 0.033327 -0.014836 -0.005685 0.000000 -0.002604 0.000000
# 2 -0.014836 0.022880 -0.002498 0.000000 -0.000421 0.000000
# 3 -0.005685 -0.002498 0.013847 0.000000 0.004473 0.000000
# 4 0.000000 0.000000 0.000000 0.045130 0.000000 -0.003300
# 5 -0.002604 -0.000421 0.004473 0.000000 0.030798 0.000000
# 6 0.000000 0.000000 0.000000 -0.003300 0.000000 0.045345
#
#
# Mechanical properties :
#
#
# Convention : Reuss Voigt Hill
#
# Bulk Modulus (GPa) = 41.63889 43.56485 42.60187
# Shear Modulus (GPa) = 20.37729 23.84887 22.11308
#
# Velocity S-wave (km/s) = 3.22891 3.49315 3.36362
# Velocity P-wave (km/s) = 5.93341 6.20959 6.07307
#
# Compressibility (1/GPa) = 0.02401601
#
# Stress axis : x y z
#
# Youngs Moduli (GPa) = 30.00537 43.70535 72.21877
#
# Poissons Ratio (x) = 0.64840 0.41059
# Poissons Ratio (y) = 0.44515 0.18043
# Poissons Ratio (z) = 0.17059 0.10919
#
# Static dielectric constant tensor:
#      x y z
#    x 3.547480 0.000000 -0.110920 
#    y 0.000000 3.512080 0.000000 
#    z -0.110920 0.000000 3.765320 
# 
# 
# High freq. dielectric constant tensor:
#      x y z
#    x 1.750000 0.000000 -0.005670 
#    y 0.000000 1.744260 0.000000 
#    z -0.005670 0.000000 1.770670 
# 
# From -- ./inp_files/270328.got.cif
#   From: 2010.06.25/outbox.cif.g09.slc.cpg/sg12_136_cif.got.tgz:270328.got - 2010.06.28 00:19:55.
