data_PCOD8082145
_publ_section_title
;
Structure prediction by ZEFSAII (Michael W. Deem and Ramdas Pophale) SiO2 
 PCOD8082145
Probable space group: C 2/M
;
_chemical_formula_sum "Si O2"
_cell_formula_units_Z 64
_cell_length_a 18.836716
_cell_length_b 18.284211
_cell_length_c 12.149447
_cell_angle_alpha 90.000000
_cell_angle_beta 62.678868
_cell_angle_gamma 90.000000
_cell_volume 3717.662365
_symmetry_space_group_name_H-M "C 2/M"
_symmetry_group_IT_number 12
_symmetry_cell_setting 'monoclinic'
loop_
_space_group_symop_operation_xyz
x,y,z
-x,y,-z
-x,-y,-z
x,-y,z
1/2+x,1/2+y,z
1/2-x,1/2+y,-z
1/2-x,1/2-y,-z
1/2+x,1/2-y,z
loop_
_atom_site_type_symbol
_atom_site_label
_atom_site_fract_x
_atom_site_fract_y
_atom_site_fract_z
Si Si1 0.696639 0.414185 0.410179
Si Si2 0.329473 0.664048 0.982595
Si Si3 0.925836 0.082443 0.319887
Si Si4 0.919399 0.814429 0.120948
Si Si5 0.004263 0.417075 0.127857
Si Si6 0.651347 0.160676 0.777339
Si Si7 0.660782 0.162980 0.020146
Si Si8 0.903762 0.917523 0.728747
O O1 0.721111 0.500000 0.384678
O O2 0.653771 0.396850 0.556285
O O3 0.772545 0.360293 0.350880
O O4 0.635955 0.392102 0.356295
O O5 0.345188 0.750438 0.970688
O O6 0.377247 0.633235 0.846784
O O7 0.364846 0.638154 0.074803
O O8 0.236944 0.639544 0.039266
O O9 0.941533 0.134047 0.205516
O O10 0.000541 0.088822 0.350416
O O11 0.919006 0.000000 0.279567
O O12 0.869470 0.746390 0.204974
O O13 0.000000 0.787306 0.000000
O O14 0.010500 0.500000 0.164640
O O15 0.922291 0.381341 0.228212
O O16 0.079956 0.373496 0.124540
O O17 0.000000 0.410835 0.000000
O O18 0.671687 0.134176 0.887162
O O19 0.877544 0.000000 0.775837
#
# Coordination Sequence:
#
# PCOD8082145 Si02
#       8
#     8   8   8   8   8   8   8   8
#     4  10  20  35  54  77 105 134 170 215 259 303
#     4  10  18  31  49  74 101 139 167 204 256 304
#     4  10  22  37  52  73 104 141 176 213 252 297
#     4  11  21  34  54  76 104 140 174 205 253 308
#     4   9  17  28  45  71 102 130 160 204 254 305
#     4  10  18  31  52  77 102 133 167 205 260 309
#     4   9  18  30  47  72 105 135 167 206 255 306
#     4  10  19  32  53  76 100 132 172 211 256 307
#
# _framework density 17.215119000000001
#
# number of rings (size 3 to 8) (size 9 to 14) (size 15 to 20)
#    0.000    2.125    2.500    2.625    0.000    3.750 
#    0.000    0.000    0.000    0.000    0.000    0.875 
#    0.000    3.000    0.000    0.000    0.000    0.000 
#
# Total GULP energy -396678.335480 kJ/mol
# GULP energy per Si atom -12396.197984 kJ/mol
# Density = 1.717594 g / cm^3
# Si number density = 17.215119 Si / 1000 Ang^3
#
#
#
# Elastic Constant Matrix: (Units=GPa)
#
#
# Indices 1 2 3 4 5 6 
#
# 1 112.5362 35.3275 28.8106 0.0000 -14.8916 0.0000
# 2 35.3275 58.4519 34.5493 0.0000 -8.7949 0.0000
# 3 28.8106 34.5493 66.8597 0.0000 -15.6236 0.0000
# 4 0.0000 0.0000 0.0000 23.1651 0.0000 -5.6785
# 5 -14.8916 -8.7949 -15.6236 0.0000 25.7662 0.0000
# 6 0.0000 0.0000 0.0000 -5.6785 0.0000 18.3446
#
#
#
# Elastic Compliance Matrix: (Units=1/GPa)
#
#
# Indices 1 2 3 4 5 6 
#
# 1 0.011484 -0.005710 -0.001052 0.000000 0.004050 0.000000
# 2 -0.005710 0.027484 -0.012025 0.000000 -0.001210 0.000000
# 3 -0.001052 -0.012025 0.023910 0.000000 0.009786 0.000000
# 4 0.000000 0.000000 0.000000 0.046713 0.000000 0.014460
# 5 0.004050 -0.001210 0.009786 0.000000 0.046672 0.000000
# 6 0.000000 0.000000 0.000000 0.014460 0.000000 0.058988
#
#
# Mechanical properties :
#
#
# Convention : Reuss Voigt Hill
#
# Bulk Modulus (GPa) = 39.51542 48.35806 43.93674
# Shear Modulus (GPa) = 19.13816 22.73257 20.93536
#
# Velocity S-wave (km/s) = 3.33784 3.63781 3.49105
# Velocity P-wave (km/s) = 6.15294 6.76730 6.46742
#
# Compressibility (1/GPa) = 0.02530658
#
# Stress axis : x y z
#
# Youngs Moduli (GPa) = 87.08113 36.38443 41.82299
#
# Poissons Ratio (x) = 0.20774 0.04398
# Poissons Ratio (y) = 0.49719 0.50291
# Poissons Ratio (z) = 0.09157 0.43751
#
# Static dielectric constant tensor:
#      x y z
#    x 3.588570 0.000000 -0.074480 
#    y 0.000000 3.079300 0.000000 
#    z -0.074480 0.000000 2.901160 
# 
# 
# High freq. dielectric constant tensor:
#      x y z
#    x 1.677900 0.000000 -0.016100 
#    y 0.000000 1.655260 0.000000 
#    z -0.016100 0.000000 1.627260 
# 
# From -- ./inp_files/168459.got.cif
#   From: 2010.06.25/outbox.cif.g09.slc.cpg/sg12_85_cif.got.tgz:168459.got - 2010.06.28 00:19:55.
