data_PCOD8082057
_publ_section_title
;
Structure prediction by ZEFSAII (Michael W. Deem and Ramdas Pophale) SiO2 
 PCOD8082057
Probable space group: C 2/M
;
_chemical_formula_sum "Si O2"
_cell_formula_units_Z 64
_cell_length_a 9.037342
_cell_length_b 22.107237
_cell_length_c 17.387091
_cell_angle_alpha 90.000000
_cell_angle_beta 97.376917
_cell_angle_gamma 90.000000
_cell_volume 3445.025845
_symmetry_space_group_name_H-M "C 2/M"
_symmetry_group_IT_number 12
_symmetry_cell_setting 'monoclinic'
loop_
_space_group_symop_operation_xyz
x,y,z
-x,y,-z
-x,-y,-z
x,-y,z
1/2+x,1/2+y,z
1/2-x,1/2+y,-z
1/2-x,1/2-y,-z
1/2+x,1/2-y,z
loop_
_atom_site_type_symbol
_atom_site_label
_atom_site_fract_x
_atom_site_fract_y
_atom_site_fract_z
Si Si1 0.612385 0.791212 0.071086
Si Si2 0.949455 0.429771 0.582424
Si Si3 0.224444 0.153613 0.649570
Si Si4 0.636768 0.762528 0.557304
Si Si5 0.997309 0.146535 0.239079
Si Si6 0.184974 0.640085 0.686264
Si Si7 0.948703 0.167527 0.072322
Si Si8 0.529532 0.790421 0.232837
O O1 0.783196 0.802720 0.057308
O O2 0.574087 0.720463 0.077301
O O3 0.586934 0.817308 0.155456
O O4 0.500000 0.820907 0.000000
O O5 0.911034 0.500000 0.584285
O O6 0.797278 0.395015 0.596541
O O7 0.000000 0.411181 0.500000
O O8 0.081746 0.415644 0.652154
O O9 0.108245 0.198576 0.598978
O O10 0.355858 0.195835 0.691034
O O11 0.132983 0.122398 0.713098
O O12 0.500000 0.788464 0.500000
O O13 0.750000 0.750000 0.500000
O O14 0.696868 0.813008 0.617852
O O15 0.150506 0.117551 0.280112
O O16 0.995792 0.219405 0.232849
O O17 0.965251 0.125408 0.149095
O O18 0.122029 0.673787 0.757699
O O19 0.000000 0.128673 0.000000
#
# Coordination Sequence:
#
# PCOD8082057 Si02
#       8
#     8   8   8   8   8   8   8   8
#     4  10  19  28  43  65 102 154 197 222 246 313
#     4  10  23  44  62  75 102 146 191 231 275 327
#     4  11  20  35  53  80 109 141 179 222 279 327
#     4  12  21  31  48  77 110 135 171 216 271 334
#     4  11  19  31  50  79 114 143 180 222 274 325
#     4  11  21  33  54  80 110 148 178 223 274 333
#     4  10  20  29  43  67 107 155 192 218 254 318
#     4  10  18  31  47  73 112 151 182 212 268 326
#
# _framework density 18.57751
#
# number of rings (size 3 to 8) (size 9 to 14) (size 15 to 20)
#    0.000    1.375    3.750    4.875    7.000    0.000 
#    0.000    0.625    0.000    1.875    0.000    0.000 
#    0.000   19.000    0.000    0.000    0.000    0.000 
#
# Total GULP energy -396536.771026 kJ/mol
# GULP energy per Si atom -12391.774095 kJ/mol
# Density = 1.853523 g / cm^3
# Si number density = 18.577510 Si / 1000 Ang^3
#
#
#
# Elastic Constant Matrix: (Units=GPa)
#
#
# Indices 1 2 3 4 5 6 
#
# 1 88.3875 1.8219 31.0881 0.0000 -8.8048 0.0000
# 2 1.8219 32.7610 13.5066 0.0000 -0.9273 0.0000
# 3 31.0881 13.5066 120.0169 0.0000 -18.9384 0.0000
# 4 0.0000 0.0000 0.0000 12.3388 0.0000 -0.8929
# 5 -8.8048 -0.9273 -18.9384 0.0000 41.6999 0.0000
# 6 0.0000 0.0000 0.0000 -0.8929 0.0000 4.8976
#
#
#
# Elastic Compliance Matrix: (Units=1/GPa)
#
#
# Indices 1 2 3 4 5 6 
#
# 1 0.012521 0.000624 -0.003118 0.000000 0.001242 0.000000
# 2 0.000624 0.032079 -0.003919 0.000000 -0.000935 0.000000
# 3 -0.003118 -0.003919 0.010194 0.000000 0.003884 0.000000
# 4 0.000000 0.000000 0.000000 0.082129 0.000000 0.014973
# 5 0.001242 -0.000935 0.003884 0.000000 0.025986 0.000000
# 6 0.000000 0.000000 0.000000 0.014973 0.000000 0.206913
#
#
# Mechanical properties :
#
#
# Convention : Reuss Voigt Hill
#
# Bulk Modulus (GPa) = 23.82762 37.11094 30.46928
# Shear Modulus (GPa) = 12.60598 24.77050 18.68824
#
# Velocity S-wave (km/s) = 2.60775 3.65548 3.17513
# Velocity P-wave (km/s) = 4.68199 6.15113 5.46614
#
# Compressibility (1/GPa) = 0.04196809
#
# Stress axis : x y z
#
# Youngs Moduli (GPa) = 79.86437 31.17326 98.09967
#
# Poissons Ratio (x) = -0.01946 0.30584
# Poissons Ratio (y) = -0.04985 0.38448
# Poissons Ratio (z) = 0.24899 0.12218
#
# Static dielectric constant tensor:
#      x y z
#    x 3.494410 0.000000 -0.161220 
#    y 0.000000 2.679330 0.000000 
#    z -0.161220 0.000000 4.195110 
# 
# 
# High freq. dielectric constant tensor:
#      x y z
#    x 1.732660 0.000000 -0.012100 
#    y 0.000000 1.630870 0.000000 
#    z -0.012100 0.000000 1.751670 
# 
# From -- ./inp_files/258938.got.cif
#   From: 2010.06.25/outbox.cif.g09.slc.cpg/sg12_130_cif.got.tgz:258938.got - 2010.06.28 00:19:55.
