data_PCOD8082670
_publ_section_title
;
Structure prediction by ZEFSAII (Michael W. Deem and Ramdas Pophale) SiO2 
 PCOD8082670
Probable space group: C 2/M
;
_chemical_formula_sum "Si O2"
_cell_formula_units_Z 56
_cell_length_a 31.822550
_cell_length_b 8.778454
_cell_length_c 19.240028
_cell_angle_alpha 90.000000
_cell_angle_beta 146.759608
_cell_angle_gamma 90.000000
_cell_volume 2946.188280
_symmetry_space_group_name_H-M "C 2/M"
_symmetry_group_IT_number 12
_symmetry_cell_setting 'monoclinic'
loop_
_space_group_symop_operation_xyz
x,y,z
-x,y,-z
-x,-y,-z
x,-y,z
1/2+x,1/2+y,z
1/2-x,1/2+y,-z
1/2-x,1/2-y,-z
1/2+x,1/2-y,z
loop_
_atom_site_type_symbol
_atom_site_label
_atom_site_fract_x
_atom_site_fract_y
_atom_site_fract_z
Si Si1 0.161830 0.827122 0.596276
Si Si2 0.587917 0.178450 0.621931
Si Si3 0.337968 0.169023 0.547848
Si Si4 0.419908 0.180706 0.916415
Si Si5 0.184481 0.328033 0.113070
Si Si6 0.340868 0.668098 0.685922
Si Si7 0.224402 0.182573 0.891205
O O1 0.117320 0.715750 0.586085
O O2 0.146201 0.769524 0.497582
O O3 0.251225 0.819987 0.738289
O O4 0.131375 0.000000 0.561716
O O5 0.500000 0.233976 0.500000
O O6 0.638782 0.264346 0.751158
O O7 0.594539 0.000000 0.646531
O O8 0.377131 0.254256 0.667239
O O9 0.249613 0.152170 0.444326
O O10 0.373882 0.000000 0.587993
O O11 0.391351 0.243410 0.953468
O O12 0.356901 0.225882 0.773438
O O13 0.425158 0.000000 0.928425
O O14 0.500000 0.251802 0.000000
O O15 0.165273 0.500000 0.066137
O O16 0.215222 0.252211 0.083823
O O17 0.377580 0.500000 0.745305
O O18 0.224540 0.000000 0.893862
O O19 0.250000 0.250000 0.000000
#
# Coordination Sequence:
#
# PCOD8082670 Si02
#       7
#     8   8   8   8   8   8   8
#     4  10  18  31  54  79 107 139 175 225 271 323
#     4  10  21  37  57  83 115 148 184 230 280 337
#     4  10  19  31  50  75 101 133 173 217 263 314
#     4  10  19  33  53  74 101 140 181 220 265 322
#     4   8  16  31  51  76 103 133 175 222 268 316
#     4  10  20  32  48  72 102 135 171 218 265 308
#     4  10  20  36  59  85 112 146 188 237 285 339
#
# _framework density 19.007611000000001
#
# number of rings (size 3 to 8) (size 9 to 14) (size 15 to 20)
#    0.000    2.286    1.429    3.000    0.000    2.571 
#    0.000    2.143    0.000    6.857    0.000    0.000 
#    0.000    0.000    0.000    0.000    0.000    0.000 
#
# Total GULP energy -346914.452586 kJ/mol
# GULP energy per Si atom -12389.801878 kJ/mol
# Density = 1.896435 g / cm^3
# Si number density = 19.007611 Si / 1000 Ang^3
#
#
#
# Elastic Constant Matrix: (Units=GPa)
#
#
# Indices 1 2 3 4 5 6 
#
# 1 125.4966 33.5491 63.5442 0.0000 -14.7476 0.0000
# 2 33.5491 49.4350 29.1280 0.0000 2.4790 0.0000
# 3 63.5442 29.1280 69.9210 0.0000 -12.9249 0.0000
# 4 0.0000 0.0000 0.0000 22.1575 0.0000 -4.6558
# 5 -14.7476 2.4790 -12.9249 0.0000 32.7140 0.0000
# 6 0.0000 0.0000 0.0000 -4.6558 0.0000 24.7615
#
#
#
# Elastic Compliance Matrix: (Units=1/GPa)
#
#
# Indices 1 2 3 4 5 6 
#
# 1 0.015221 -0.003391 -0.011979 0.000000 0.002386 0.000000
# 2 -0.003391 0.029115 -0.010505 0.000000 -0.007885 0.000000
# 3 -0.011979 -0.010505 0.030976 0.000000 0.007634 0.000000
# 4 0.000000 0.000000 0.000000 0.046988 0.000000 0.008835
# 5 0.002386 -0.007885 0.007634 0.000000 0.035257 0.000000
# 6 0.000000 0.000000 0.000000 0.008835 0.000000 0.042046
#
#
# Mechanical properties :
#
#
# Convention : Reuss Voigt Hill
#
# Bulk Modulus (GPa) = 42.44134 55.25503 48.84819
# Shear Modulus (GPa) = 19.28973 23.83536 21.56255
#
# Velocity S-wave (km/s) = 3.18911 3.54501 3.37176
# Velocity P-wave (km/s) = 5.99480 6.77416 6.39636
#
# Compressibility (1/GPa) = 0.02356193
#
# Stress axis : x y z
#
# Youngs Moduli (GPa) = 65.70024 34.34676 32.28356
#
# Poissons Ratio (x) = 0.11647 0.38672
# Poissons Ratio (y) = 0.22279 0.33913
# Poissons Ratio (z) = 0.78702 0.36080
#
# Static dielectric constant tensor:
#      x y z
#    x 3.766480 0.000000 -0.021240 
#    y 0.000000 3.510790 0.000000 
#    z -0.021240 0.000000 3.256200 
# 
# 
# High freq. dielectric constant tensor:
#      x y z
#    x 1.743900 0.000000 -0.015070 
#    y 0.000000 1.733420 0.000000 
#    z -0.015070 0.000000 1.707120 
# 
# From -- ./inp_files/295146.got.cif
#   From: 2010.06.25/outbox.cif.g09.slc.cpg/sg12_148_cif.got.tgz:295146.got - 2010.06.28 00:19:55.
