data_PCOD8082071
_publ_section_title
;
Structure prediction by ZEFSAII (Michael W. Deem and Ramdas Pophale) SiO2 
 PCOD8082071
Probable space group: C 2/M
;
_chemical_formula_sum "Si O2"
_cell_formula_units_Z 64
_cell_length_a 24.248557
_cell_length_b 9.697909
_cell_length_c 16.046578
_cell_angle_alpha 90.000000
_cell_angle_beta 81.667792
_cell_angle_gamma 90.000000
_cell_volume 3733.686656
_symmetry_space_group_name_H-M "C 2/M"
_symmetry_group_IT_number 12
_symmetry_cell_setting 'monoclinic'
loop_
_space_group_symop_operation_xyz
x,y,z
-x,y,-z
-x,-y,-z
x,-y,z
1/2+x,1/2+y,z
1/2-x,1/2+y,-z
1/2-x,1/2-y,-z
1/2+x,1/2-y,z
loop_
_atom_site_type_symbol
_atom_site_label
_atom_site_fract_x
_atom_site_fract_y
_atom_site_fract_z
Si Si1 0.102806 0.652810 0.992310
Si Si2 0.445597 0.659184 0.866842
Si Si3 0.016415 0.162924 0.407719
Si Si4 0.140576 0.340672 0.800531
Si Si5 0.885037 0.157580 0.718136
Si Si6 0.267106 0.343813 0.787957
Si Si7 0.446865 0.658055 0.263654
Si Si8 0.285112 0.153555 0.934396
O O1 0.076131 0.500000 0.988194
O O2 0.058862 0.756104 0.045270
O O3 0.153329 0.643999 0.044795
O O4 0.125414 0.706924 0.898046
O O5 0.434230 0.500000 0.891663
O O6 0.401453 0.715354 0.806720
O O7 0.507603 0.682459 0.818339
O O8 0.076737 0.223482 0.363577
O O9 0.000000 0.231805 0.500000
O O10 0.970545 0.201666 0.348492
O O11 0.019998 0.000000 0.418862
O O12 0.125287 0.500000 0.791704
O O13 0.205949 0.315209 0.764747
O O14 0.106640 0.251828 0.741817
O O15 0.818861 0.167771 0.710857
O O16 0.905444 0.000000 0.719256
O O17 0.267384 0.500000 0.827200
O O18 0.283820 0.223407 0.845725
O O19 0.427375 0.500000 0.268726
O O20 0.258966 0.000000 0.934489
O O21 0.250000 0.250000 0.000000
#
# Coordination Sequence:
#
# PCOD8082071 Si02
#       8
#     8   8   8   8   8   8   8   8
#     4  10  20  31  43  64  92 124 168 206 239 281
#     4   9  17  30  48  67  90 121 159 205 249 278
#     4   8  14  28  53  82 103 116 142 192 246 290
#     4  10  21  34  45  62  93 134 168 196 232 281
#     4   8  14  25  46  73  96 120 151 194 243 284
#     4  10  18  31  48  67  94 127 166 204 238 284
#     4   9  19  34  50  72  96 121 158 197 235 289
#     4  11  20  30  44  65  93 126 167 213 250 278
#
# _framework density 17.141235000000002
#
# number of rings (size 3 to 8) (size 9 to 14) (size 15 to 20)
#    0.000    2.625    2.500    1.875    0.000    2.500 
#    0.000    2.500    0.000    1.125    0.000    0.000 
#    0.000    0.000    0.000    0.000    0.000    0.000 
#
# Total GULP energy -396445.093953 kJ/mol
# GULP energy per Si atom -12388.909186 kJ/mol
# Density = 1.710222 g / cm^3
# Si number density = 17.141235 Si / 1000 Ang^3
#
#
#
# Elastic Constant Matrix: (Units=GPa)
#
#
# Indices 1 2 3 4 5 6 
#
# 1 106.8928 39.9874 52.6567 0.0000 -3.6831 0.0000
# 2 39.9874 63.9281 36.0301 0.0000 0.1215 0.0000
# 3 52.6567 36.0301 94.0089 0.0000 -10.8883 0.0000
# 4 0.0000 0.0000 0.0000 11.4434 0.0000 3.5142
# 5 -3.6831 0.1215 -10.8883 0.0000 17.2188 0.0000
# 6 0.0000 0.0000 0.0000 3.5142 0.0000 25.0220
#
#
#
# Elastic Compliance Matrix: (Units=1/GPa)
#
#
# Indices 1 2 3 4 5 6 
#
# 1 0.014381 -0.005626 -0.005975 0.000000 -0.000663 0.000000
# 2 -0.005626 0.022625 -0.006126 0.000000 -0.005237 0.000000
# 3 -0.005975 -0.006126 0.017469 0.000000 0.009811 0.000000
# 4 0.000000 0.000000 0.000000 0.091326 0.000000 -0.012826
# 5 -0.000663 -0.005237 0.009811 0.000000 0.064175 0.000000
# 6 0.000000 0.000000 0.000000 -0.012826 0.000000 0.041766
#
#
# Mechanical properties :
#
#
# Convention : Reuss Voigt Hill
#
# Bulk Modulus (GPa) = 52.58191 58.01982 55.30087
# Shear Modulus (GPa) = 17.03369 19.81387 18.42378
#
# Velocity S-wave (km/s) = 3.15576 3.40357 3.28200
# Velocity P-wave (km/s) = 6.63481 7.02619 6.83330
#
# Compressibility (1/GPa) = 0.01901795
#
# Stress axis : x y z
#
# Youngs Moduli (GPa) = 69.53838 44.19977 57.24542
#
# Poissons Ratio (x) = 0.24867 0.34206
# Poissons Ratio (y) = 0.39123 0.35071
# Poissons Ratio (z) = 0.41552 0.27079
#
# Static dielectric constant tensor:
#      x y z
#    x 3.170140 0.000000 -0.174860 
#    y 0.000000 2.995050 0.000000 
#    z -0.174860 0.000000 3.189560 
# 
# 
# High freq. dielectric constant tensor:
#      x y z
#    x 1.660590 0.000000 -0.015420 
#    y 0.000000 1.639280 0.000000 
#    z -0.015420 0.000000 1.627670 
# 
# From -- ./inp_files/287574.got.cif
#   From: 2010.06.25/outbox.cif.g09.slc.cpg/sg12_144_cif.got.tgz:287574.got - 2010.06.28 00:19:55.
