data_PCOD8082764
_publ_section_title
;
Structure prediction by ZEFSAII (Michael W. Deem and Ramdas Pophale) SiO2 
 PCOD8082764
Probable space group: C 2/M
;
_chemical_formula_sum "Si O2"
_cell_formula_units_Z 56
_cell_length_a 9.788056
_cell_length_b 18.961418
_cell_length_c 13.571784
_cell_angle_alpha 90.000000
_cell_angle_beta 93.917354
_cell_angle_gamma 90.000000
_cell_volume 2512.975983
_symmetry_space_group_name_H-M "C 2/M"
_symmetry_group_IT_number 12
_symmetry_cell_setting 'monoclinic'
loop_
_space_group_symop_operation_xyz
x,y,z
-x,y,-z
-x,-y,-z
x,-y,z
1/2+x,1/2+y,z
1/2-x,1/2+y,-z
1/2-x,1/2-y,-z
1/2+x,1/2-y,z
loop_
_atom_site_type_symbol
_atom_site_label
_atom_site_fract_x
_atom_site_fract_y
_atom_site_fract_z
Si Si1 0.959576 0.305673 0.110418
Si Si2 0.892702 0.156902 0.085147
Si Si3 0.256629 0.825767 0.366501
Si Si4 0.216436 0.424145 0.942471
Si Si5 0.067839 0.696092 0.318477
Si Si6 0.587347 0.423153 0.216961
Si Si7 0.852533 0.579733 0.540789
O O1 0.078537 0.298220 0.199311
O O2 0.859582 0.237624 0.113687
O O3 0.881229 0.377847 0.132221
O O4 0.000000 0.315629 0.000000
O O5 0.947735 0.119206 0.187473
O O6 0.753802 0.117908 0.044850
O O7 0.000000 0.160864 0.000000
O O8 0.154810 0.759004 0.373167
O O9 0.408127 0.798872 0.343619
O O10 0.194838 0.878785 0.283925
O O11 0.257477 0.870973 0.467352
O O12 0.149442 0.500000 0.966081
O O13 0.353501 0.437556 0.888507
O O14 0.131668 0.620983 0.354734
O O15 0.558147 0.500000 0.265178
O O16 0.792069 0.500000 0.553346
O O17 0.000000 0.572275 0.500000
#
# Coordination Sequence:
#
# PCOD8082764 Si02
#       7
#     8   8   8   8   8   8   8
#     4  11  22  36  55  81 118 167 205 248 294 369
#     4   9  18  32  50  75 106 144 196 246 294 339
#     4  11  21  39  62  96 122 158 200 251 306 371
#     4  10  20  33  51  76 110 154 201 249 298 351
#     4  11  23  39  64  91 126 161 205 252 309 355
#     4  10  18  31  55  82 112 148 195 251 300 352
#     4   9  20  39  66  96 124 156 201 255 308 366
#
# _framework density 22.284337000000001
#
# number of rings (size 3 to 8) (size 9 to 14) (size 15 to 20)
#    0.000    1.857    2.857    1.714    0.000    4.286 
#    0.000    0.000    0.000    2.571    0.000    0.000 
#    0.000    0.000    0.000    0.000    0.000    0.000 
#
# Total GULP energy -346866.043592 kJ/mol
# GULP energy per Si atom -12388.072985 kJ/mol
# Density = 2.223362 g / cm^3
# Si number density = 22.284337 Si / 1000 Ang^3
#
#
#
# Elastic Constant Matrix: (Units=GPa)
#
#
# Indices 1 2 3 4 5 6 
#
# 1 43.8090 40.1448 23.2461 0.0000 23.1522 0.0000
# 2 40.1448 221.9548 64.2059 0.0000 26.6475 0.0000
# 3 23.2461 64.2059 115.2453 0.0000 25.2748 0.0000
# 4 0.0000 0.0000 0.0000 30.2712 0.0000 7.3671
# 5 23.1522 26.6475 25.2748 0.0000 31.0136 0.0000
# 6 0.0000 0.0000 0.0000 7.3671 0.0000 21.0981
#
#
#
# Elastic Compliance Matrix: (Units=1/GPa)
#
#
# Indices 1 2 3 4 5 6 
#
# 1 0.040875 -0.004153 -0.000026 0.000000 -0.026924 0.000000
# 2 -0.004153 0.005978 -0.002492 0.000000 -0.000006 0.000000
# 3 -0.000026 -0.002492 0.011685 0.000000 -0.007363 0.000000
# 4 0.000000 0.000000 0.000000 0.036103 0.000000 -0.012606
# 5 -0.026924 -0.000006 -0.007363 0.000000 0.058348 0.000000
# 6 0.000000 0.000000 0.000000 -0.012606 0.000000 0.051799
#
#
# Mechanical properties :
#
#
# Convention : Reuss Voigt Hill
#
# Bulk Modulus (GPa) = 22.12576 70.68920 46.40748
# Shear Modulus (GPa) = 21.44128 33.37074 27.40601
#
# Velocity S-wave (km/s) = 3.10525 3.87395 3.51070
# Velocity P-wave (km/s) = 4.77568 7.19724 6.10768
#
# Compressibility (1/GPa) = 0.04519618
#
# Stress axis : x y z
#
# Youngs Moduli (GPa) = 24.46509 167.28061 85.57781
#
# Poissons Ratio (x) = 0.69470 0.00226
# Poissons Ratio (y) = 0.10160 0.21322
# Poissons Ratio (z) = 0.00064 0.41679
#
# Static dielectric constant tensor:
#      x y z
#    x 3.542690 0.000000 0.333970 
#    y 0.000000 4.673970 0.000000 
#    z 0.333970 0.000000 4.003830 
# 
# 
# High freq. dielectric constant tensor:
#      x y z
#    x 1.826940 0.000000 0.032390 
#    y 0.000000 1.902030 0.000000 
#    z 0.032390 0.000000 1.870380 
# 
# From -- ./inp_files/206247.got.cif
#   From: 2010.06.25/outbox.cif.g09.slc.cpg/sg12_104_cif.got.tgz:206247.got - 2010.06.28 00:19:55.
