data_PCOD8082305
_publ_section_title
;
Structure prediction by ZEFSAII (Michael W. Deem and Ramdas Pophale) SiO2 
 PCOD8082305
Probable space group: C 2/M
;
_chemical_formula_sum "Si O2"
_cell_formula_units_Z 48
_cell_length_a 18.889073
_cell_length_b 8.653909
_cell_length_c 18.191260
_cell_angle_alpha 90.000000
_cell_angle_beta 58.868201
_cell_angle_gamma 90.000000
_cell_volume 2545.361722
_symmetry_space_group_name_H-M "C 2/M"
_symmetry_group_IT_number 12
_symmetry_cell_setting 'monoclinic'
loop_
_space_group_symop_operation_xyz
x,y,z
-x,y,-z
-x,-y,-z
x,-y,z
1/2+x,1/2+y,z
1/2-x,1/2+y,-z
1/2-x,1/2-y,-z
1/2+x,1/2-y,z
loop_
_atom_site_type_symbol
_atom_site_label
_atom_site_fract_x
_atom_site_fract_y
_atom_site_fract_z
Si Si1 0.168404 0.178708 0.513127
Si Si2 0.319101 0.816682 0.016637
Si Si3 0.707980 0.818528 0.186869
Si Si4 0.606915 0.681333 0.695780
Si Si5 0.226309 0.181325 0.332283
Si Si6 0.928583 0.817264 0.845742
O O1 0.250000 0.250000 0.500000
O O2 0.097562 0.216304 0.611935
O O3 0.159408 0.230960 0.432433
O O4 0.185636 0.000000 0.499728
O O5 0.405999 0.751935 0.938533
O O6 0.320117 0.000000 0.016146
O O7 0.250000 0.750000 0.000000
O O8 0.294989 0.753851 0.110393
O O9 0.699189 0.779226 0.276815
O O10 0.629819 0.749750 0.186208
O O11 0.710074 0.000000 0.173117
O O12 0.624545 0.500000 0.698918
O O13 0.680630 0.777826 0.692682
O O14 0.522090 0.733455 0.779051
O O15 0.221879 0.000000 0.315796
O O16 0.917745 0.000000 0.852460
#
# Coordination Sequence:
#
# PCOD8082305 Si02
#       6
#     8   8   8   8   8   8
#     4   8  15  29  49  72  97 129 166 200 239 290
#     4  10  18  31  51  73  98 128 165 203 243 295
#     4  11  21  34  52  73 100 132 168 207 247 293
#     4   9  18  33  53  76 102 132 165 202 245 295
#     4  10  19  32  52  76 102 131 166 207 248 292
#     4  10  19  33  53  76 102 131 165 203 245 294
#
# _framework density 18.857831999999998
#
# number of rings (size 3 to 8) (size 9 to 14) (size 15 to 20)
#    0.000    2.333    0.000    6.000    0.000    2.000 
#    0.000    1.667    0.000   10.000    0.000    0.000 
#    0.000    0.000    0.000    0.000    0.000    0.000 
#
# Total GULP energy -297315.291203 kJ/mol
# GULP energy per Si atom -12388.137133 kJ/mol
# Density = 1.881491 g / cm^3
# Si number density = 18.857832 Si / 1000 Ang^3
#
#
#
# Elastic Constant Matrix: (Units=GPa)
#
#
# Indices 1 2 3 4 5 6 
#
# 1 21.8277 6.6216 -11.3993 0.0000 1.4859 -0.0006
# 2 6.6216 85.9013 11.8710 -0.0001 -1.2039 -0.0011
# 3 -11.3993 11.8710 31.3574 -0.0001 2.1233 0.0003
# 4 0.0000 -0.0001 -0.0001 29.7112 0.0000 3.0305
# 5 1.4859 -1.2039 2.1233 0.0000 30.3942 0.0000
# 6 -0.0006 -0.0011 0.0003 3.0305 0.0000 23.4610
#
#
#
# Elastic Compliance Matrix: (Units=1/GPa)
#
#
# Indices 1 2 3 4 5 6 
#
# 1 0.062489 -0.008524 0.026298 0.000000 -0.005230 0.000001
# 2 -0.008524 0.013467 -0.008301 0.000000 0.001530 0.000001
# 3 0.026298 -0.008301 0.044914 0.000000 -0.004752 0.000000
# 4 0.000000 0.000000 0.000000 0.034107 0.000000 -0.004406
# 5 -0.005230 0.001530 -0.004752 0.000000 0.033549 0.000000
# 6 0.000001 0.000001 0.000000 -0.004406 0.000000 0.043193
#
#
# Mechanical properties :
#
#
# Convention : Reuss Voigt Hill
#
# Bulk Modulus (GPa) = 7.15227 17.03034 12.09130
# Shear Modulus (GPa) = 19.27680 25.51282 22.39481
#
# Velocity S-wave (km/s) = 3.20068 3.68217 3.44984
# Velocity P-wave (km/s) = 4.17853 5.20849 4.72168
#
# Compressibility (1/GPa) = 0.13981583
#
# Stress axis : x y z
#
# Youngs Moduli (GPa) = 16.00282 74.25621 22.26454
#
# Poissons Ratio (x) = 0.63299 -0.58551
# Poissons Ratio (y) = 0.13641 0.18481
# Poissons Ratio (z) = -0.42084 0.61637
#
# Static dielectric constant tensor:
#      x y z
#    x 2.965000 0.000000 -0.040760 
#    y 0.000000 3.430200 0.000000 
#    z -0.040760 0.000000 4.714460 
# 
# 
# High freq. dielectric constant tensor:
#      x y z
#    x 1.675920 0.000000 0.002560 
#    y 0.000000 1.742670 0.000000 
#    z 0.002560 0.000000 1.763470 
# 
# From -- ./inp_files/280775.got.cif
#   From: 2010.06.25/outbox.cif.g09.slc.cpg/sg12_141_cif.got.tgz:280775.got - 2010.06.28 00:19:55.
