data_PCOD8082857
_publ_section_title
;
Structure prediction by ZEFSAII (Michael W. Deem and Ramdas Pophale) SiO2 
 PCOD8082857
Probable space group: C 2/M
;
_chemical_formula_sum "Si O2"
_cell_formula_units_Z 48
_cell_length_a 16.046402
_cell_length_b 17.623634
_cell_length_c 16.294430
_cell_angle_alpha 90.000000
_cell_angle_beta 35.131396
_cell_angle_gamma 90.000000
_cell_volume 2651.688641
_symmetry_space_group_name_H-M "C 2/M"
_symmetry_group_IT_number 12
_symmetry_cell_setting 'monoclinic'
loop_
_space_group_symop_operation_xyz
x,y,z
-x,y,-z
-x,-y,-z
x,-y,z
1/2+x,1/2+y,z
1/2-x,1/2+y,-z
1/2-x,1/2-y,-z
1/2+x,1/2-y,z
loop_
_atom_site_type_symbol
_atom_site_label
_atom_site_fract_x
_atom_site_fract_y
_atom_site_fract_z
Si Si1 0.795078 0.588472 0.851132
Si Si2 0.286088 0.728552 0.597037
Si Si3 0.100377 0.338807 0.616562
Si Si4 0.368834 0.584640 0.454230
Si Si5 0.015335 0.086476 0.172673
Si Si6 0.860490 0.820391 0.161843
O O1 0.825115 0.500000 0.812169
O O2 0.732980 0.622393 0.817064
O O3 0.940640 0.630476 0.760208
O O4 0.682286 0.603185 0.015689
O O5 0.142291 0.721613 0.654794
O O6 0.389137 0.795490 0.479176
O O7 0.373543 0.647804 0.523435
O O8 0.236906 0.748778 0.729472
O O9 0.215719 0.408151 0.528401
O O10 0.382981 0.500000 0.480280
O O11 0.495482 0.601119 0.285866
O O12 0.907000 0.137344 0.207207
O O13 0.977042 0.000000 0.181138
O O14 0.000000 0.790043 0.000000
#
# Coordination Sequence:
#
# PCOD8082857 Si02
#       6
#     8   8   8   8   8   8
#     4  10  20  30  48  81 110 128 159 205 253 303
#     4   9  18  33  48  69 104 131 171 207 239 307
#     4   9  17  32  51  70 102 127 162 213 248 283
#     4   9  16  30  54  70  90 130 169 208 248 285
#     4   9  16  29  46  70 103 137 164 193 244 310
#     4  10  18  32  48  68 105 147 166 190 250 308
#
# _framework density 18.101672000000001
#
# number of rings (size 3 to 8) (size 9 to 14) (size 15 to 20)
#    1.000    1.667    1.667    1.000    0.000    2.667 
#    0.000    8.333    0.000    0.500    0.000    2.333 
#    0.000    0.000    0.000    0.000    0.000    0.000 
#
# Total GULP energy -297374.231892 kJ/mol
# GULP energy per Si atom -12390.592995 kJ/mol
# Density = 1.806047 g / cm^3
# Si number density = 18.101672 Si / 1000 Ang^3
#
#
#
# Elastic Constant Matrix: (Units=GPa)
#
#
# Indices 1 2 3 4 5 6 
#
# 1 20.5893 15.7294 26.9933 0.0042 -5.0640 -0.0020
# 2 15.7294 98.3808 59.6525 0.0039 9.4658 -0.0019
# 3 26.9933 59.6525 113.6273 0.0051 0.4461 -0.0023
# 4 0.0042 0.0039 0.0051 34.8833 -0.0032 3.0127
# 5 -5.0640 9.4658 0.4461 -0.0032 22.4787 0.0011
# 6 -0.0020 -0.0019 -0.0023 3.0127 0.0011 20.6517
#
#
#
# Elastic Compliance Matrix: (Units=1/GPa)
#
#
# Indices 1 2 3 4 5 6 
#
# 1 0.078288 -0.004555 -0.016285 -0.000005 0.019878 0.000005
# 2 -0.004555 0.016070 -0.007324 -0.000001 -0.007648 0.000001
# 3 -0.016285 -0.007324 0.016518 0.000000 -0.000912 0.000000
# 4 -0.000005 -0.000001 0.000000 0.029033 0.000004 -0.004235
# 5 0.019878 -0.007648 -0.000912 0.000004 0.052203 -0.000002
# 6 0.000005 0.000001 0.000000 -0.004235 -0.000002 0.049040
#
#
# Mechanical properties :
#
#
# Convention : Reuss Voigt Hill
#
# Bulk Modulus (GPa) = 18.33274 48.59419 33.46346
# Shear Modulus (GPa) = 15.83971 24.28422 20.06196
#
# Velocity S-wave (km/s) = 2.96132 3.66669 3.33272
# Velocity P-wave (km/s) = 4.67356 6.69549 5.77372
#
# Compressibility (1/GPa) = 0.05454723
#
# Stress axis : x y z
#
# Youngs Moduli (GPa) = 12.77336 62.22900 60.54033
#
# Poissons Ratio (x) = 0.28348 0.98588
# Poissons Ratio (y) = 0.05819 0.44340
# Poissons Ratio (z) = 0.20801 0.45577
#
# Static dielectric constant tensor:
#      x y z
#    x 2.793200 0.000000 0.031170 
#    y 0.000000 3.286600 0.000000 
#    z 0.031170 0.000000 3.412970 
# 
# 
# High freq. dielectric constant tensor:
#      x y z
#    x 1.648950 0.000000 0.002450 
#    y 0.000000 1.699250 0.000000 
#    z 0.002450 0.000000 1.707370 
# 
# From -- ./inp_files/278888.got.cif
#   From: 2010.06.25/outbox.cif.g09.slc.cpg/sg12_140_cif.got.tgz:278888.got - 2010.06.28 00:19:55.
