data_PCOD8082844
_publ_section_title
;
Structure prediction by ZEFSAII (Michael W. Deem and Ramdas Pophale) SiO2 
 PCOD8082844
Probable space group: C 2/M
;
_chemical_formula_sum "Si O2"
_cell_formula_units_Z 48
_cell_length_a 13.821740
_cell_length_b 17.948283
_cell_length_c 12.891900
_cell_angle_alpha 90.000000
_cell_angle_beta 114.054721
_cell_angle_gamma 90.000000
_cell_volume 2920.436785
_symmetry_space_group_name_H-M "C 2/M"
_symmetry_group_IT_number 12
_symmetry_cell_setting 'monoclinic'
loop_
_space_group_symop_operation_xyz
x,y,z
-x,y,-z
-x,-y,-z
x,-y,z
1/2+x,1/2+y,z
1/2-x,1/2+y,-z
1/2-x,1/2-y,-z
1/2+x,1/2-y,z
loop_
_atom_site_type_symbol
_atom_site_label
_atom_site_fract_x
_atom_site_fract_y
_atom_site_fract_z
Si Si1 0.720438 0.852687 0.215318
Si Si2 0.932794 0.086326 0.370332
Si Si3 0.131861 0.500000 0.932445
Si Si4 0.604206 0.000000 0.166692
Si Si5 0.716799 0.373338 0.988579
Si Si6 0.509754 0.582454 0.180799
Si Si7 0.392870 0.715989 0.896086
O O1 0.833580 0.856696 0.322371
O O2 0.658199 0.924547 0.230608
O O3 0.734345 0.847128 0.098014
O O4 0.652009 0.777577 0.204949
O O5 0.005502 0.099234 0.301522
O O6 0.000000 0.107457 0.500000
O O7 0.893405 0.000000 0.355448
O O8 0.013442 0.500000 0.836141
O O9 0.117418 0.500000 0.049496
O O10 0.196953 0.428153 0.921959
O O11 0.607213 0.416301 0.919453
O O12 0.695676 0.304135 0.056122
O O13 0.556897 0.500000 0.181687
O O14 0.585585 0.641832 0.160383
O O15 0.500000 0.745125 0.000000
#
# Coordination Sequence:
#
# PCOD8082844 Si02
#       7
#     8   8   4   4   8   8   8
#     4  10  18  32  44  68  97 121 153 191 230 270
#     4   9  17  33  56  72  85 113 154 200 245 277
#     4   9  16  26  43  62  85 129 165 177 214 260
#     4   9  18  28  43  60  91 123 152 191 221 262
#     4   9  17  28  45  64  94 132 157 184 218 270
#     4   9  17  31  47  69  95 119 156 198 229 268
#     4  10  21  28  43  69 101 131 154 180 221 277
#
# _framework density 16.435897000000001
#
# number of rings (size 3 to 8) (size 9 to 14) (size 15 to 20)
#    0.000    2.667    1.667    0.500    5.833    1.000 
#    0.000    0.833    0.000    0.000    0.000    0.000 
#    0.000    2.000    0.000    0.000    0.000    0.000 
#
# Total GULP energy -297441.724946 kJ/mol
# GULP energy per Si atom -12393.405206 kJ/mol
# Density = 1.639849 g / cm^3
# Si number density = 16.435897 Si / 1000 Ang^3
#
#
#
# Elastic Constant Matrix: (Units=GPa)
#
#
# Indices 1 2 3 4 5 6 
#
# 1 71.1730 39.8494 20.8363 0.0000 8.6122 0.0000
# 2 39.8494 98.7295 32.5968 0.0000 12.2849 0.0000
# 3 20.8363 32.5968 66.0524 0.0000 10.2924 0.0000
# 4 0.0000 0.0000 0.0000 15.2065 0.0000 4.9068
# 5 8.6122 12.2849 10.2924 0.0000 14.2810 0.0000
# 6 0.0000 0.0000 0.0000 4.9068 0.0000 21.1862
#
#
#
# Elastic Compliance Matrix: (Units=1/GPa)
#
#
# Indices 1 2 3 4 5 6 
#
# 1 0.018735 -0.006325 -0.002113 0.000000 -0.004334 0.000000
# 2 -0.006325 0.014866 -0.004442 0.000000 -0.005773 0.000000
# 3 -0.002113 -0.004442 0.019381 0.000000 -0.008872 0.000000
# 4 0.000000 0.000000 0.000000 0.071073 0.000000 -0.016461
# 5 -0.004334 -0.005773 -0.008872 0.000000 0.083997 0.000000
# 6 0.000000 0.000000 0.000000 -0.016461 0.000000 0.051013
#
#
# Mechanical properties :
#
#
# Convention : Reuss Voigt Hill
#
# Bulk Modulus (GPa) = 36.73488 46.94665 41.84077
# Shear Modulus (GPa) = 17.01268 19.64623 18.32946
#
# Velocity S-wave (km/s) = 3.22078 3.46110 3.34310
# Velocity P-wave (km/s) = 6.01915 6.67816 6.35720
#
# Compressibility (1/GPa) = 0.02722208
#
# Stress axis : x y z
#
# Youngs Moduli (GPa) = 53.37737 67.26610 51.59782
#
# Poissons Ratio (x) = 0.42543 0.10904
# Poissons Ratio (y) = 0.33759 0.22919
# Poissons Ratio (z) = 0.11280 0.29879
#
# Static dielectric constant tensor:
#      x y z
#    x 3.180330 0.000000 0.004740 
#    y 0.000000 3.090780 0.000000 
#    z 0.004740 0.000000 2.735040 
# 
# 
# High freq. dielectric constant tensor:
#      x y z
#    x 1.630570 0.000000 0.003680 
#    y 0.000000 1.634690 0.000000 
#    z 0.003680 0.000000 1.577310 
# 
# From -- ./inp_files/144984.got.cif
#   From: 2010.06.25/outbox.cif.g09.slc.cpg/sg12_73_cif.got.tgz:144984.got - 2010.06.28 00:19:55.
