data_PCOD8082560
_publ_section_title
;
Structure prediction by ZEFSAII (Michael W. Deem and Ramdas Pophale) SiO2 
 PCOD8082560
Probable space group: C 2/M
;
_chemical_formula_sum "Si O2"
_cell_formula_units_Z 64
_cell_length_a 22.583309
_cell_length_b 19.032596
_cell_length_c 21.201710
_cell_angle_alpha 90.000000
_cell_angle_beta 156.820797
_cell_angle_gamma 90.000000
_cell_volume 3586.911809
_symmetry_space_group_name_H-M "C 2/M"
_symmetry_group_IT_number 12
_symmetry_cell_setting 'monoclinic'
loop_
_space_group_symop_operation_xyz
x,y,z
-x,y,-z
-x,-y,-z
x,-y,z
1/2+x,1/2+y,z
1/2-x,1/2+y,-z
1/2-x,1/2-y,-z
1/2+x,1/2-y,z
loop_
_atom_site_type_symbol
_atom_site_label
_atom_site_fract_x
_atom_site_fract_y
_atom_site_fract_z
Si Si1 0.818996 0.420288 0.005378
Si Si2 0.711850 0.249791 0.767838
Si Si3 0.881437 0.800008 0.153068
Si Si4 0.552810 0.786486 0.419505
Si Si5 0.396445 0.921779 0.223197
Si Si6 0.556526 0.143211 0.991474
Si Si7 0.886093 0.154511 0.025418
Si Si8 0.853783 0.218364 0.780336
O O1 0.757184 0.500000 0.939561
O O2 0.903677 0.409339 0.154853
O O3 0.936337 0.407066 0.062457
O O4 0.683139 0.364294 0.867727
O O5 0.531530 0.244880 0.600147
O O6 0.772944 0.204919 0.768157
O O7 0.774768 0.329009 0.826540
O O8 0.772896 0.217164 0.893639
O O9 0.956581 0.830871 0.163299
O O10 0.010265 0.759430 0.316945
O O11 0.750000 0.750000 0.000000
O O12 0.510581 0.868256 0.368343
O O13 0.729775 0.779114 0.604049
O O14 0.449606 0.000000 0.292854
O O15 0.222532 0.913627 0.077580
O O16 0.447586 0.209465 0.871456
O O17 0.500000 0.103301 0.000000
O O18 0.029426 0.153614 0.118179
#
# Coordination Sequence:
#
# PCOD8082560 Si02
#       8
#     8   8   8   8   8   8   8   8
#     4  10  18  31  53  75  99 132 176 210 243 295
#     4   9  16  31  51  70 101 132 167 209 243 297
#     4  11  16  31  52  74  97 126 177 209 246 290
#     4  11  19  30  53  75 102 133 164 222 250 300
#     4   9  19  33  52  72  95 137 174 207 253 303
#     4   9  17  31  49  73 105 133 168 213 245 293
#     4   9  17  30  50  69  98 126 160 211 246 301
#     4  10  20  29  47  82 103 127 164 207 269 295
#
# _framework density 17.842646999999999
#
# number of rings (size 3 to 8) (size 9 to 14) (size 15 to 20)
#    0.000    2.250    5.000    2.250    0.000    0.750 
#    0.000    0.625    0.000   12.750    0.000    1.750 
#    0.000    0.000    0.000    0.000    0.000    0.000 
#
# Total GULP energy -396420.291057 kJ/mol
# GULP energy per Si atom -12388.134096 kJ/mol
# Density = 1.780204 g / cm^3
# Si number density = 17.842647 Si / 1000 Ang^3
#
#
#
# Elastic Constant Matrix: (Units=GPa)
#
#
# Indices 1 2 3 4 5 6 
#
# 1 82.3673 11.3445 4.8543 -0.0038 3.4184 -0.0023
# 2 11.3445 72.3026 14.9652 -0.0100 -2.1980 -0.0041
# 3 4.8543 14.9652 65.6342 -0.0041 -2.5230 -0.0025
# 4 -0.0038 -0.0100 -0.0041 12.0894 -0.0019 1.6543
# 5 3.4184 -2.1980 -2.5230 -0.0019 21.7108 -0.0007
# 6 -0.0023 -0.0041 -0.0025 1.6543 -0.0007 19.0518
#
#
#
# Elastic Compliance Matrix: (Units=1/GPa)
#
#
# Indices 1 2 3 4 5 6 
#
# 1 0.012531 -0.001915 -0.000576 0.000002 -0.002234 0.000001
# 2 -0.001915 0.014834 -0.003186 0.000011 0.001433 0.000002
# 3 -0.000576 -0.003186 0.016068 0.000003 0.001635 0.000001
# 4 0.000002 0.000011 0.000003 0.083712 0.000008 -0.007269
# 5 -0.002234 0.001433 0.001635 0.000008 0.046747 0.000001
# 6 0.000001 0.000002 0.000001 -0.007269 0.000001 0.053120
#
#
# Mechanical properties :
#
#
# Convention : Reuss Voigt Hill
#
# Bulk Modulus (GPa) = 31.17205 31.40355 31.28780
# Shear Modulus (GPa) = 20.07568 23.17974 21.62771
#
# Velocity S-wave (km/s) = 3.35797 3.60824 3.48535
# Velocity P-wave (km/s) = 5.70465 5.91588 5.81123
#
# Compressibility (1/GPa) = 0.03208002
#
# Stress axis : x y z
#
# Youngs Moduli (GPa) = 79.80124 67.41204 62.23631
#
# Poissons Ratio (x) = 0.12908 0.03585
# Poissons Ratio (y) = 0.15281 0.19826
# Poissons Ratio (z) = 0.04597 0.21475
#
# Static dielectric constant tensor:
#      x y z
#    x 3.731780 -0.000050 0.076910 
#    y -0.000050 3.106690 0.000000 
#    z 0.076910 0.000000 3.066950 
# 
# 
# High freq. dielectric constant tensor:
#      x y z
#    x 1.713190 0.000000 0.001140 
#    y 0.000000 1.650020 0.000000 
#    z 0.001140 0.000000 1.656900 
# 
# From -- ./inp_files/350034.got.cif
#   From: 2010.06.25/outbox.cif.g09.slc.cpg/sg12_176_cif.got.tgz:350034.got - 2010.06.28 00:19:55.
