data_PCOD8082734
_publ_section_title
;
Structure prediction by ZEFSAII (Michael W. Deem and Ramdas Pophale) SiO2 
 PCOD8082734
Probable space group: C 2/M
;
_chemical_formula_sum "Si O2"
_cell_formula_units_Z 40
_cell_length_a 7.397742
_cell_length_b 23.376844
_cell_length_c 13.732912
_cell_angle_alpha 90.000000
_cell_angle_beta 124.099375
_cell_angle_gamma 90.000000
_cell_volume 1966.585741
_symmetry_space_group_name_H-M "C 2/M"
_symmetry_group_IT_number 12
_symmetry_cell_setting 'monoclinic'
loop_
_space_group_symop_operation_xyz
x,y,z
-x,y,-z
-x,-y,-z
x,-y,z
1/2+x,1/2+y,z
1/2-x,1/2+y,-z
1/2-x,1/2-y,-z
1/2+x,1/2-y,z
loop_
_atom_site_type_symbol
_atom_site_label
_atom_site_fract_x
_atom_site_fract_y
_atom_site_fract_z
Si Si1 0.799585 0.563215 0.313648
Si Si2 0.271171 0.291588 0.398167
Si Si3 0.778598 0.089791 0.491748
Si Si4 0.621142 0.276799 0.770171
Si Si5 0.394703 0.663725 0.867367
O O1 0.707746 0.500000 0.258946
O O2 0.689923 0.582392 0.382942
O O3 0.737262 0.609632 0.213414
O O4 0.062414 0.555261 0.396582
O O5 0.500000 0.264030 0.500000
O O6 0.219633 0.344780 0.451306
O O7 0.256811 0.311304 0.279074
O O8 0.101800 0.239862 0.353842
O O9 0.000000 0.070784 0.500000
O O10 0.588009 0.318031 0.851781
O O11 0.742388 0.218744 0.839247
O O12 0.500000 0.644059 0.000000
#
# Coordination Sequence:
#
# PCOD8082734 Si02
#       5
#     8   8   8   8   8
#     4  11  24  40  60  90 121 156 201 241 291 357
#     4  10  18  31  54  86 123 150 180 233 300 359
#     4  10  20  38  62  89 120 155 191 240 298 356
#     4  10  21  35  56  88 116 152 195 240 295 358
#     4  11  22  40  60  83 115 156 203 249 292 340
#
# _framework density 20.339818999999999
#
# number of rings (size 3 to 8) (size 9 to 14) (size 15 to 20)
#    0.000    1.600    2.000    4.800    0.000    3.600 
#    0.000    0.000    0.000    0.000    0.000    4.200 
#    0.000    0.000    0.000    0.000    0.000    0.000 
#
# Total GULP energy -247778.149334 kJ/mol
# GULP energy per Si atom -12388.907467 kJ/mol
# Density = 2.029352 g / cm^3
# Si number density = 20.339819 Si / 1000 Ang^3
#
#
#
# Elastic Constant Matrix: (Units=GPa)
#
#
# Indices 1 2 3 4 5 6 
#
# 1 104.0061 19.0865 31.2593 0.0000 -14.9878 0.0000
# 2 19.0865 94.4808 41.5803 0.0000 -18.0051 0.0000
# 3 31.2593 41.5803 105.8527 0.0000 -12.7458 0.0000
# 4 0.0000 0.0000 0.0000 0.1066 0.0000 -10.0688
# 5 -14.9878 -18.0051 -12.7458 0.0000 24.9994 0.0000
# 6 0.0000 0.0000 0.0000 -10.0688 0.0000 -21.9903
#
#
#
# Elastic Compliance Matrix: (Units=1/GPa)
#
#
# Indices 1 2 3 4 5 6 
#
# 1 0.011186 -0.000093 -0.002629 0.000000 0.005299 0.000000
# 2 -0.000093 0.014096 -0.004575 0.000000 0.007764 0.000000
# 3 -0.002629 -0.004575 0.012182 0.000000 0.001340 0.000000
# 4 0.000000 0.000000 0.000000 0.212008 0.000000 -0.097073
# 5 0.005299 0.007764 0.001340 0.000000 0.049453 0.000000
# 6 0.000000 0.000000 0.000000 -0.097073 0.000000 -0.001027
#
#
# Mechanical properties :
#
#
# Convention : Reuss Voigt Hill
#
# Bulk Modulus (GPa) = 43.72466 54.24352 48.98409
# Shear Modulus (GPa) = 15.61952 14.78404 15.20178
#
# Velocity S-wave (km/s) = 2.77416 2.69894 2.73681
# Velocity P-wave (km/s) = 5.63959 6.03647 5.84140
#
# Compressibility (1/GPa) = 0.02287039
#
# Stress axis : x y z
#
# Youngs Moduli (GPa) = 89.40136 70.94312 82.09036
#
# Poissons Ratio (x) = 0.00660 0.21578
# Poissons Ratio (y) = 0.00832 0.37554
# Poissons Ratio (z) = 0.23500 0.32454
#
# Static dielectric constant tensor:
#      x y z
#    x 4.181640 0.000000 -0.064800 
#    y 0.000000 3.426060 0.000000 
#    z -0.064800 0.000000 3.510420 
# 
# 
# High freq. dielectric constant tensor:
#      x y z
#    x 1.808950 0.000000 -0.013530 
#    y 0.000000 1.776780 0.000000 
#    z -0.013530 0.000000 1.773800 
# 
# From -- ./inp_files/198094.got.cif
#   From: 2010.06.25/outbox.cif.g09.slc.cpg/sg12_100_cif.got.tgz:198094.got - 2010.06.28 00:19:55.
