data_PCOD8082056
_publ_section_title
;
Structure prediction by ZEFSAII (Michael W. Deem and Ramdas Pophale) SiO2 
 PCOD8082056
Probable space group: C 2/M
;
_chemical_formula_sum "Si O2"
_cell_formula_units_Z 36
_cell_length_a 18.125533
_cell_length_b 19.052047
_cell_length_c 11.503737
_cell_angle_alpha 90.000000
_cell_angle_beta 148.261206
_cell_angle_gamma 90.000000
_cell_volume 2089.760031
_symmetry_space_group_name_H-M "C 2/M"
_symmetry_group_IT_number 12
_symmetry_cell_setting 'monoclinic'
loop_
_space_group_symop_operation_xyz
x,y,z
-x,y,-z
-x,-y,-z
x,-y,z
1/2+x,1/2+y,z
1/2-x,1/2+y,-z
1/2-x,1/2-y,-z
1/2+x,1/2-y,z
loop_
_atom_site_type_symbol
_atom_site_label
_atom_site_fract_x
_atom_site_fract_y
_atom_site_fract_z
Si Si1 0.715214 0.150357 0.640139
Si Si2 0.805050 0.500000 0.121063
Si Si3 0.000000 0.221789 0.000000
Si Si4 0.117248 0.500000 0.506988
Si Si5 0.229656 0.149178 0.019403
Si Si6 0.461235 0.230504 0.197521
O O1 0.683968 0.072381 0.546998
O O2 0.700791 0.154622 0.759915
O O3 0.606951 0.208086 0.448318
O O4 0.868489 0.170870 0.800419
O O5 0.852047 0.500000 0.316405
O O6 0.709114 0.567210 0.961353
O O7 0.953197 0.500000 0.251261
O O8 0.973827 0.271874 0.075010
O O9 0.335806 0.179485 0.066426
O O10 0.081181 0.190248 0.817942
#
# Coordination Sequence:
#
# PCOD8082056 Si02
#       6
#     8   4   4   4   8   8
#     4  10  18  32  49  73  97 123 157 196 237 280
#     4   9  14  28  46  76  98 112 147 199 249 284
#     4  10  22  31  44  67 100 134 160 186 228 279
#     4   9  16  25  50  72  95 121 146 195 250 279
#     4   9  18  29  52  77  93 117 157 199 241 278
#     4  10  18  31  47  72  98 126 156 193 232 281
#
# _framework density 17.226858
#
# number of rings (size 3 to 8) (size 9 to 14) (size 15 to 20)
#    0.000    2.444    2.222    1.333    0.000    0.444 
#    0.000    1.111    0.000    2.667    0.000   34.222 
#    0.000    0.000    0.000    0.000    0.000    0.000 
#
# Total GULP energy -223092.811883 kJ/mol
# GULP energy per Si atom -12394.045105 kJ/mol
# Density = 1.718765 g / cm^3
# Si number density = 17.226858 Si / 1000 Ang^3
#
#
#
# Elastic Constant Matrix: (Units=GPa)
#
#
# Indices 1 2 3 4 5 6 
#
# 1 99.2454 44.2724 28.5277 0.0000 8.3622 0.0000
# 2 44.2724 158.8590 66.5461 0.0000 9.2909 0.0000
# 3 28.5277 66.5461 86.8698 0.0000 21.4829 0.0000
# 4 0.0000 0.0000 0.0000 29.4226 0.0000 2.9492
# 5 8.3622 9.2909 21.4829 0.0000 19.8786 0.0000
# 6 0.0000 0.0000 0.0000 2.9492 0.0000 17.1475
#
#
#
# Elastic Compliance Matrix: (Units=1/GPa)
#
#
# Indices 1 2 3 4 5 6 
#
# 1 0.011812 -0.002610 -0.001300 0.000000 -0.002344 0.000000
# 2 -0.002610 0.010159 -0.008219 0.000000 0.005232 0.000000
# 3 -0.001300 -0.008219 0.023404 0.000000 -0.020905 0.000000
# 4 0.000000 0.000000 0.000000 0.034584 0.000000 -0.005948
# 5 -0.002344 0.005232 -0.020905 0.000000 0.071438 0.000000
# 6 0.000000 0.000000 0.000000 -0.005948 0.000000 0.059340
#
#
# Mechanical properties :
#
#
# Convention : Reuss Voigt Hill
#
# Bulk Modulus (GPa) = 47.35501 69.29629 58.32565
# Shear Modulus (GPa) = 20.65818 26.99828 23.82823
#
# Velocity S-wave (km/s) = 3.46668 3.96311 3.72318
# Velocity P-wave (km/s) = 6.60095 7.82654 7.23973
#
# Compressibility (1/GPa) = 0.02111709
#
# Stress axis : x y z
#
# Youngs Moduli (GPa) = 84.66308 98.43090 42.72698
#
# Poissons Ratio (x) = 0.25693 0.05553
# Poissons Ratio (y) = 0.22099 0.35119
# Poissons Ratio (z) = 0.11002 0.80904
#
# Static dielectric constant tensor:
#      x y z
#    x 3.141020 0.000000 0.164360 
#    y 0.000000 3.578410 0.000000 
#    z 0.164360 0.000000 3.023340 
# 
# 
# High freq. dielectric constant tensor:
#      x y z
#    x 1.651070 0.000000 0.020970 
#    y 0.000000 1.671050 0.000000 
#    z 0.020970 0.000000 1.635760 
# 
# From -- ./inp_files/47257.got.cif
#   From: 2010.06.25/outbox.cif.g09.slc.cpg/sg12_24_cif.got.tgz:47257.got - 2010.06.28 00:19:55.
