data_PCOD8082014
_publ_section_title
;
Structure prediction by ZEFSAII (Michael W. Deem and Ramdas Pophale) SiO2 
 PCOD8082014
Probable space group: C 2/M
;
_chemical_formula_sum "Si O2"
_cell_formula_units_Z 48
_cell_length_a 20.167320
_cell_length_b 20.683071
_cell_length_c 9.205188
_cell_angle_alpha 90.000000
_cell_angle_beta 41.894899
_cell_angle_gamma 90.000000
_cell_volume 2564.013836
_symmetry_space_group_name_H-M "C 2/M"
_symmetry_group_IT_number 12
_symmetry_cell_setting 'monoclinic'
loop_
_space_group_symop_operation_xyz
x,y,z
-x,y,-z
-x,-y,-z
x,-y,z
1/2+x,1/2+y,z
1/2-x,1/2+y,-z
1/2-x,1/2-y,-z
1/2+x,1/2-y,z
loop_
_atom_site_type_symbol
_atom_site_label
_atom_site_fract_x
_atom_site_fract_y
_atom_site_fract_z
Si Si1 0.982198 0.809817 0.359923
Si Si2 0.528732 0.070212 0.783902
Si Si3 0.437983 0.196787 0.951973
Si Si4 0.946872 0.926775 0.935692
Si Si5 0.728133 0.306324 0.421536
Si Si6 0.259633 0.572347 0.409421
O O1 0.868456 0.790299 0.515017
O O2 0.000000 0.805332 0.500000
O O3 0.051447 0.758773 0.165362
O O4 0.013630 0.880845 0.255452
O O5 0.473000 0.132074 0.807188
O O6 0.644289 0.081940 0.562684
O O7 0.496805 0.000000 0.770089
O O8 0.500000 0.070347 0.000000
O O9 0.500000 0.206524 0.000000
O O10 0.322002 0.187234 0.165241
O O11 0.972783 0.000000 0.847148
O O12 0.827621 0.918635 0.154464
O O13 0.000000 0.908389 0.000000
O O14 0.750000 0.250000 0.500000
O O15 0.705839 0.375126 0.530886
O O16 0.277773 0.500000 0.444017
#
# Coordination Sequence:
#
# PCOD8082014 Si02
#       6
#     8   8   8   8   8   8
#     4  12  26  40  56  84 122 158 193 242 298 346
#     4   9  16  29  53  90 119 137 177 241 295 334
#     4  11  20  36  60  86 111 152 194 241 285 344
#     4  10  20  36  60  86 112 151 200 243 283 340
#     4  12  21  35  60  85 111 151 198 240 285 344
#     4  10  18  30  55  90 117 141 187 242 289 337
#
# _framework density 18.720649000000002
#
# number of rings (size 3 to 8) (size 9 to 14) (size 15 to 20)
#    0.000    1.333    6.667    1.500    0.000    1.000 
#    0.000    0.000    0.000    0.500    0.000    0.000 
#    0.000    0.000    0.000    0.000    0.000    0.000 
#
# Total GULP energy -297486.216542 kJ/mol
# GULP energy per Si atom -12395.259023 kJ/mol
# Density = 1.867804 g / cm^3
# Si number density = 18.720649 Si / 1000 Ang^3
#
#
#
# Elastic Constant Matrix: (Units=GPa)
#
#
# Indices 1 2 3 4 5 6 
#
# 1 77.9945 40.3050 47.6997 0.0000 -2.8973 0.0000
# 2 40.3050 132.1241 36.8073 0.0000 6.9298 0.0000
# 3 47.6997 36.8073 94.7208 0.0000 -19.7847 0.0000
# 4 0.0000 0.0000 0.0000 28.8521 0.0000 -10.6829
# 5 -2.8973 6.9298 -19.7847 0.0000 32.3061 0.0000
# 6 0.0000 0.0000 0.0000 -10.6829 0.0000 8.6880
#
#
#
# Elastic Compliance Matrix: (Units=1/GPa)
#
#
# Indices 1 2 3 4 5 6 
#
# 1 0.020313 -0.003336 -0.009636 0.000000 -0.003364 0.000000
# 2 -0.003336 0.009619 -0.002926 0.000000 -0.004154 0.000000
# 3 -0.009636 -0.002926 0.018917 0.000000 0.011348 0.000000
# 4 0.000000 0.000000 0.000000 0.063629 0.000000 0.078239
# 5 -0.003364 -0.004154 0.011348 0.000000 0.038493 0.000000
# 6 0.000000 0.000000 0.000000 0.078239 0.000000 0.211306
#
#
# Mechanical properties :
#
#
# Convention : Reuss Voigt Hill
#
# Bulk Modulus (GPa) = 58.63437 61.60704 60.12070
# Shear Modulus (GPa) = 12.50759 25.97107 19.23933
#
# Velocity S-wave (km/s) = 2.58760 3.72868 3.20926
# Velocity P-wave (km/s) = 6.34951 7.17757 6.77620
#
# Compressibility (1/GPa) = 0.01705484
#
# Stress axis : x y z
#
# Youngs Moduli (GPa) = 49.22862 103.95853 52.86239
#
# Poissons Ratio (x) = 0.34680 0.50937
# Poissons Ratio (y) = 0.16422 0.15466
# Poissons Ratio (z) = 0.47436 0.30415
#
# Static dielectric constant tensor:
#      x y z
#    x 3.004510 0.000000 -0.448700 
#    y 0.000000 4.013460 0.000000 
#    z -0.448700 0.000000 3.697940 
# 
# 
# High freq. dielectric constant tensor:
#      x y z
#    x 1.663460 0.000000 -0.042810 
#    y 0.000000 1.757630 0.000000 
#    z -0.042810 0.000000 1.735410 
# 
# From -- ./inp_files/77686.got.cif
#   From: 2010.06.25/outbox.cif.g09.slc.cpg/sg12_39_cif.got.tgz:77686.got - 2010.06.28 00:19:55.
