data_PCOD8082898
_publ_section_title
;
Structure prediction by ZEFSAII (Michael W. Deem and Ramdas Pophale) SiO2 
 PCOD8082898
Probable space group: C 2/M
;
_chemical_formula_sum "Si O2"
_cell_formula_units_Z 64
_cell_length_a 19.162892
_cell_length_b 16.330729
_cell_length_c 11.283138
_cell_angle_alpha 90.000000
_cell_angle_beta 93.212166
_cell_angle_gamma 90.000000
_cell_volume 3525.442716
_symmetry_space_group_name_H-M "C 2/M"
_symmetry_group_IT_number 12
_symmetry_cell_setting 'monoclinic'
loop_
_space_group_symop_operation_xyz
x,y,z
-x,y,-z
-x,-y,-z
x,-y,z
1/2+x,1/2+y,z
1/2-x,1/2+y,-z
1/2-x,1/2-y,-z
1/2+x,1/2-y,z
loop_
_atom_site_type_symbol
_atom_site_label
_atom_site_fract_x
_atom_site_fract_y
_atom_site_fract_z
Si Si1 0.953231 0.591997 0.271330
Si Si2 0.568604 0.408825 0.927189
Si Si3 0.890177 0.406224 0.685941
Si Si4 0.606040 0.239050 0.865345
Si Si5 0.672291 0.093823 0.559040
Si Si6 0.724024 0.410011 0.015028
Si Si7 0.329501 0.193352 0.883598
Si Si8 0.260238 0.818296 0.238648
O O1 0.948339 0.500000 0.214337
O O2 0.943569 0.661929 0.170518
O O3 0.897075 0.601464 0.369141
O O4 0.028647 0.605419 0.337487
O O5 0.567915 0.500000 0.864005
O O6 0.568850 0.328484 0.841203
O O7 0.500000 0.402023 0.000000
O O8 0.640083 0.401776 0.010080
O O9 0.869573 0.500000 0.693218
O O10 0.844286 0.369286 0.572865
O O11 0.874753 0.369473 0.812981
O O12 0.672558 0.236946 0.785782
O O13 0.625253 0.230615 0.005874
O O14 0.733804 0.147207 0.626807
O O15 0.697140 0.000000 0.552754
O O16 0.747422 0.500000 0.976892
O O17 0.756191 0.395264 0.148342
O O18 0.757720 0.345583 0.927122
O O19 0.308836 0.264551 0.788608
#
# Coordination Sequence:
#
# PCOD8082898 Si02
#       8
#     8   8   8   8   8   8   8   8
#     4   9  19  33  53  76 101 133 166 203 247 297
#     4  10  20  32  49  71  96 131 169 202 241 290
#     4  10  21  34  48  72 100 133 168 200 244 299
#     4  10  19  33  51  74 104 132 163 201 250 298
#     4   9  18  34  53  70  96 130 170 211 241 281
#     4  10  18  32  50  70  99 129 159 199 248 296
#     4  11  20  31  46  73 103 133 156 200 245 305
#     4  10  18  32  50  74  96 128 169 199 245 294
#
# _framework density 18.153749000000001
#
# number of rings (size 3 to 8) (size 9 to 14) (size 15 to 20)
#    0.000    2.125    2.500    1.875    1.750    5.500 
#    0.000    1.250    0.000    0.000    0.000    0.000 
#    0.000   10.000    0.000    3.750    0.000    0.000 
#
# Total GULP energy -396482.115476 kJ/mol
# GULP energy per Si atom -12390.066109 kJ/mol
# Density = 1.811243 g / cm^3
# Si number density = 18.153749 Si / 1000 Ang^3
#
#
#
# Elastic Constant Matrix: (Units=GPa)
#
#
# Indices 1 2 3 4 5 6 
#
# 1 36.7297 14.7542 9.8943 0.0000 0.7271 0.0000
# 2 14.7542 114.7765 33.0755 0.0000 9.8638 0.0000
# 3 9.8943 33.0755 54.7916 0.0000 10.4457 0.0000
# 4 0.0000 0.0000 0.0000 23.7808 0.0000 4.1639
# 5 0.7271 9.8638 10.4457 0.0000 16.5628 0.0000
# 6 0.0000 0.0000 0.0000 4.1639 0.0000 25.8647
#
#
#
# Elastic Compliance Matrix: (Units=1/GPa)
#
#
# Indices 1 2 3 4 5 6 
#
# 1 0.029432 -0.002840 -0.004179 0.000000 0.003035 0.000000
# 2 -0.002840 0.010919 -0.005527 0.000000 -0.002892 0.000000
# 3 -0.004179 -0.005527 0.024643 0.000000 -0.012066 0.000000
# 4 0.000000 0.000000 0.000000 0.043270 0.000000 -0.006966
# 5 0.003035 -0.002892 -0.012066 0.000000 0.069575 0.000000
# 6 0.000000 0.000000 0.000000 -0.006966 0.000000 0.039784
#
#
# Mechanical properties :
#
#
# Convention : Reuss Voigt Hill
#
# Bulk Modulus (GPa) = 25.06178 35.74956 30.40567
# Shear Modulus (GPa) = 19.52996 23.14657 21.33826
#
# Velocity S-wave (km/s) = 3.28351 3.57463 3.43216
# Velocity P-wave (km/s) = 5.31136 6.06405 5.70014
#
# Compressibility (1/GPa) = 0.03990139
#
# Stress axis : x y z
#
# Youngs Moduli (GPa) = 33.97616 91.58365 40.58026
#
# Poissons Ratio (x) = 0.26009 0.16959
# Poissons Ratio (y) = 0.09649 0.22429
# Poissons Ratio (z) = 0.14199 0.50619
#
# Static dielectric constant tensor:
#      x y z
#    x 3.218420 0.000000 0.206470 
#    y 0.000000 3.743340 0.000000 
#    z 0.206470 0.000000 3.194290 
# 
# 
# High freq. dielectric constant tensor:
#      x y z
#    x 1.691300 0.000000 0.015980 
#    y 0.000000 1.715670 0.000000 
#    z 0.015980 0.000000 1.666880 
# 
# From -- ./inp_files/168114.got.cif
#   From: 2010.06.25/outbox.cif.g09.slc.cpg/sg12_85_cif.got.tgz:168114.got - 2010.06.28 00:19:55.
