data_PCOD8082885
_publ_section_title
;
Structure prediction by ZEFSAII (Michael W. Deem and Ramdas Pophale) SiO2 
 PCOD8082885
Probable space group: C 2/M
;
_chemical_formula_sum "Si O2"
_cell_formula_units_Z 56
_cell_length_a 18.701900
_cell_length_b 13.804983
_cell_length_c 17.093256
_cell_angle_alpha 90.000000
_cell_angle_beta 53.374445
_cell_angle_gamma 90.000000
_cell_volume 3541.761372
_symmetry_space_group_name_H-M "C 2/M"
_symmetry_group_IT_number 12
_symmetry_cell_setting 'monoclinic'
loop_
_space_group_symop_operation_xyz
x,y,z
-x,y,-z
-x,-y,-z
x,-y,z
1/2+x,1/2+y,z
1/2-x,1/2+y,-z
1/2-x,1/2-y,-z
1/2+x,1/2-y,z
loop_
_atom_site_type_symbol
_atom_site_label
_atom_site_fract_x
_atom_site_fract_y
_atom_site_fract_z
Si Si1 0.485969 0.742935 0.727578
Si Si2 0.524788 0.610047 0.573037
Si Si3 0.140848 0.887015 0.911174
Si Si4 0.599217 0.889635 0.432109
Si Si5 0.653675 0.759202 0.529078
Si Si6 0.839848 0.611866 0.783862
Si Si7 0.006677 0.114462 0.867632
O O1 0.458432 0.670333 0.673944
O O2 0.580003 0.794650 0.641808
O O3 0.408711 0.823168 0.789512
O O4 0.502090 0.680218 0.794330
O O5 0.500000 0.623533 0.500000
O O6 0.522860 0.500000 0.601709
O O7 0.624583 0.652500 0.517946
O O8 0.240110 0.844317 0.858952
O O9 0.090730 0.849738 0.865373
O O10 0.152130 0.000000 0.890873
O O11 0.083241 0.864752 0.025391
O O12 0.500000 0.843873 0.500000
O O13 0.660878 0.833417 0.452628
O O14 0.638028 0.879152 0.321219
O O15 0.595680 0.000000 0.462665
O O16 0.750000 0.750000 0.500000
O O17 0.847531 0.500000 0.807287
O O18 0.014082 0.000000 0.841771
#
# Coordination Sequence:
#
# PCOD8082885 Si02
#       7
#     8   8   8   8   8   8   8
#     4  10  20  30  48  72  97 128 159 199 238 288
#     4   9  18  33  48  63  91 130 163 192 228 276
#     4   8  17  32  52  74  98 123 156 203 246 292
#     4  10  18  32  50  66  94 131 163 193 235 286
#     4  10  21  31  42  70  99 122 159 199 236 280
#     4  10  19  31  50  74  95 126 165 201 242 282
#     4   9  17  33  51  74 102 125 154 197 250 292
#
# _framework density 15.811342
#
# number of rings (size 3 to 8) (size 9 to 14) (size 15 to 20)
#    0.857    1.714    1.429    2.571    2.000    1.143 
#    0.000    0.000    0.000    0.000    0.000    2.000 
#    0.000    0.000    0.000    0.000    0.000    0.000 
#
# Total GULP energy -346926.712354 kJ/mol
# GULP energy per Si atom -12390.239727 kJ/mol
# Density = 1.577535 g / cm^3
# Si number density = 15.811342 Si / 1000 Ang^3
#
#
#
# Elastic Constant Matrix: (Units=GPa)
#
#
# Indices 1 2 3 4 5 6 
#
# 1 104.3802 33.9066 24.6449 0.0000 -11.9096 0.0000
# 2 33.9066 59.5828 15.2111 0.0000 3.9263 0.0000
# 3 24.6449 15.2111 50.3401 0.0000 0.2043 0.0000
# 4 0.0000 0.0000 0.0000 9.2139 0.0000 -2.2844
# 5 -11.9096 3.9263 0.2043 0.0000 30.5300 0.0000
# 6 0.0000 0.0000 0.0000 -2.2844 0.0000 13.1095
#
#
#
# Elastic Compliance Matrix: (Units=1/GPa)
#
#
# Indices 1 2 3 4 5 6 
#
# 1 0.013657 -0.007012 -0.004593 0.000000 0.006260 0.000000
# 2 -0.007012 0.021949 -0.003177 0.000000 -0.005537 0.000000
# 3 -0.004593 -0.003177 0.023080 0.000000 -0.001537 0.000000
# 4 0.000000 0.000000 0.000000 0.113432 0.000000 0.019766
# 5 0.006260 -0.005537 -0.001537 0.000000 0.035919 0.000000
# 6 0.000000 0.000000 0.000000 0.019766 0.000000 0.079725
#
#
# Mechanical properties :
#
#
# Convention : Reuss Voigt Hill
#
# Bulk Modulus (GPa) = 34.33741 40.20312 37.27026
# Shear Modulus (GPa) = 15.28903 19.94005 17.61454
#
# Velocity S-wave (km/s) = 3.11298 3.55508 3.34135
# Velocity P-wave (km/s) = 5.88939 6.50642 6.20558
#
# Compressibility (1/GPa) = 0.02912276
#
# Stress axis : x y z
#
# Youngs Moduli (GPa) = 73.22498 45.55938 43.32837
#
# Poissons Ratio (x) = 0.31944 0.19899
# Poissons Ratio (y) = 0.51342 0.13767
# Poissons Ratio (z) = 0.33629 0.14475
#
# Static dielectric constant tensor:
#      x y z
#    x 3.095070 0.000000 -0.156760 
#    y 0.000000 2.941300 0.000000 
#    z -0.156760 0.000000 3.036720 
# 
# 
# High freq. dielectric constant tensor:
#      x y z
#    x 1.600470 0.000000 -0.001010 
#    y 0.000000 1.588260 0.000000 
#    z -0.001010 0.000000 1.601390 
# 
# From -- ./inp_files/224652.got.cif
#   From: 2010.06.25/outbox.cif.g09.slc.cpg/sg12_113_cif.got.tgz:224652.got - 2010.06.28 00:19:55.
