data_PCOD8082915
_publ_section_title
;
Structure prediction by ZEFSAII (Michael W. Deem and Ramdas Pophale) SiO2 
 PCOD8082915
Probable space group: C 2/M
;
_chemical_formula_sum "Si O2"
_cell_formula_units_Z 40
_cell_length_a 5.329578
_cell_length_b 18.614506
_cell_length_c 19.798573
_cell_angle_alpha 90.000000
_cell_angle_beta 96.363040
_cell_angle_gamma 90.000000
_cell_volume 1952.066158
_symmetry_space_group_name_H-M "C 2/M"
_symmetry_group_IT_number 12
_symmetry_cell_setting 'monoclinic'
loop_
_space_group_symop_operation_xyz
x,y,z
-x,y,-z
-x,-y,-z
x,-y,z
1/2+x,1/2+y,z
1/2-x,1/2+y,-z
1/2-x,1/2-y,-z
1/2+x,1/2-y,z
loop_
_atom_site_type_symbol
_atom_site_label
_atom_site_fract_x
_atom_site_fract_y
_atom_site_fract_z
Si Si1 0.874840 0.419583 0.143897
Si Si2 0.969694 0.678918 0.421599
Si Si3 0.552906 0.336520 0.633322
Si Si4 0.409737 0.418285 0.229406
Si Si5 0.710026 0.220660 0.923684
O O1 0.852150 0.500000 0.114143
O O2 0.664334 0.405873 0.194536
O O3 0.820137 0.365483 0.080150
O O4 0.156056 0.404711 0.179219
O O5 0.211820 0.632991 0.403895
O O6 0.000000 0.702276 0.500000
O O7 0.713921 0.632718 0.403102
O O8 0.951736 0.750162 0.374728
O O9 0.588709 0.360489 0.711023
O O10 0.406580 0.500000 0.257551
O O11 0.452739 0.255952 0.886304
O O12 0.750000 0.250000 0.000000
#
# Coordination Sequence:
#
# PCOD8082915 Si02
#       5
#     8   8   8   8   8
#     4  10  21  40  60  83 115 162 197 225 284 359
#     4  10  19  33  53  74 108 146 181 229 282 342
#     4  10  18  32  50  77 104 138 188 227 284 322
#     4  10  21  37  57  80 114 151 192 236 275 333
#     4  10  21  40  60  88 123 149 188 243 294 322
#
# _framework density 20.491109999999999
#
# number of rings (size 3 to 8) (size 9 to 14) (size 15 to 20)
#    0.000    2.000    0.000    5.400    0.000    0.000 
#   21.600    4.000    0.000    6.600    0.000    0.000 
#    0.000    0.000    0.000    0.000    0.000    0.000 
#
# Total GULP energy -247796.244019 kJ/mol
# GULP energy per Si atom -12389.812201 kJ/mol
# Density = 2.044447 g / cm^3
# Si number density = 20.491110 Si / 1000 Ang^3
#
#
#
# Elastic Constant Matrix: (Units=GPa)
#
#
# Indices 1 2 3 4 5 6 
#
# 1 199.6542 16.1087 15.0153 0.0000 14.8890 0.0000
# 2 16.1087 96.1960 53.7189 0.0000 15.6184 0.0000
# 3 15.0153 53.7189 75.4055 0.0000 9.2948 0.0000
# 4 0.0000 0.0000 0.0000 17.2509 0.0000 -2.8085
# 5 14.8890 15.6184 9.2948 0.0000 13.4494 0.0000
# 6 0.0000 0.0000 0.0000 -2.8085 0.0000 17.4475
#
#
#
# Elastic Compliance Matrix: (Units=1/GPa)
#
#
# Indices 1 2 3 4 5 6 
#
# 1 0.005479 0.000440 -0.000649 0.000000 -0.006128 0.000000
# 2 0.000440 0.019510 -0.012171 0.000000 -0.014733 0.000000
# 3 -0.000649 -0.012171 0.022114 0.000000 -0.000431 0.000000
# 4 0.000000 0.000000 0.000000 0.059528 0.000000 0.009582
# 5 -0.006128 -0.014733 -0.000431 0.000000 0.098543 0.000000
# 6 0.000000 0.000000 0.000000 0.009582 0.000000 0.058857
#
#
# Mechanical properties :
#
#
# Convention : Reuss Voigt Hill
#
# Bulk Modulus (GPa) = 44.75504 60.10463 52.42983
# Shear Modulus (GPa) = 16.87823 28.72374 22.80098
#
# Velocity S-wave (km/s) = 2.87311 3.74808 3.33937
# Velocity P-wave (km/s) = 5.73541 6.93733 6.36480
#
# Compressibility (1/GPa) = 0.02234385
#
# Stress axis : x y z
#
# Youngs Moduli (GPa) = 182.51684 51.25496 45.21929
#
# Poissons Ratio (x) = -0.02254 0.02935
# Poissons Ratio (y) = -0.08028 0.55035
# Poissons Ratio (z) = 0.11846 0.62381
#
# Static dielectric constant tensor:
#      x y z
#    x 5.014610 0.000000 0.131060 
#    y 0.000000 3.504500 0.000000 
#    z 0.131060 0.000000 3.257920 
# 
# 
# High freq. dielectric constant tensor:
#      x y z
#    x 1.854090 0.000000 0.003190 
#    y 0.000000 1.764550 0.000000 
#    z 0.003190 0.000000 1.766030 
# 
# From -- ./inp_files/252601.got.cif
#   From: 2010.06.25/outbox.cif.g09.slc.cpg/sg12_127_cif.got.tgz:252601.got - 2010.06.28 00:19:55.
