data_PCOD8082814
_publ_section_title
;
Structure prediction by ZEFSAII (Michael W. Deem and Ramdas Pophale) SiO2 
 PCOD8082814
Probable space group: C 2/M
;
_chemical_formula_sum "Si O2"
_cell_formula_units_Z 48
_cell_length_a 14.042994
_cell_length_b 13.386626
_cell_length_c 15.104793
_cell_angle_alpha 90.000000
_cell_angle_beta 51.163530
_cell_angle_gamma 90.000000
_cell_volume 2211.816252
_symmetry_space_group_name_H-M "C 2/M"
_symmetry_group_IT_number 12
_symmetry_cell_setting 'monoclinic'
loop_
_space_group_symop_operation_xyz
x,y,z
-x,y,-z
-x,-y,-z
x,-y,z
1/2+x,1/2+y,z
1/2-x,1/2+y,-z
1/2-x,1/2-y,-z
1/2+x,1/2-y,z
loop_
_atom_site_type_symbol
_atom_site_label
_atom_site_fract_x
_atom_site_fract_y
_atom_site_fract_z
Si Si1 0.848413 0.616006 0.914476
Si Si2 0.686947 0.115642 0.567388
Si Si3 0.082235 0.297203 0.296996
Si Si4 0.931139 0.277343 0.124163
Si Si5 0.709464 0.615600 0.164283
Si Si6 0.751502 0.294305 0.642951
O O1 0.872454 0.500000 0.907231
O O2 0.824023 0.648362 0.827020
O O3 0.975317 0.666032 0.867866
O O4 0.735563 0.643784 0.045377
O O5 0.553007 0.161913 0.632676
O O6 0.755945 0.180155 0.602058
O O7 0.756848 0.127235 0.432656
O O8 0.682423 0.000000 0.598224
O O9 0.093114 0.179134 0.266556
O O10 0.126499 0.315513 0.371429
O O11 0.830710 0.357282 0.149206
O O12 0.864851 0.193608 0.223451
O O13 0.000000 0.227327 0.000000
O O14 0.677477 0.500000 0.195490
#
# Coordination Sequence:
#
# PCOD8082814 Si02
#       6
#     8   8   8   8   8   8
#     4  10  18  31  56  89 122 163 207 248 299 364
#     4  11  24  44  68  90 120 164 212 257 301 365
#     4  11  21  35  60  93 125 158 206 257 309 360
#     4   9  17  33  60  90 122 159 204 251 302 359
#     4   9  19  33  53  86 128 165 201 248 305 363
#     4  10  23  40  61  96 124 157 205 260 309 357
#
# _framework density 21.701620999999999
#
# number of rings (size 3 to 8) (size 9 to 14) (size 15 to 20)
#    0.000    2.000    1.667    2.000    0.000    6.667 
#    0.000    3.333    0.000    8.500    0.000    0.000 
#    0.000    0.000    0.000    0.000    0.000    0.000 
#
# Total GULP energy -297466.057062 kJ/mol
# GULP energy per Si atom -12394.419044 kJ/mol
# Density = 2.165223 g / cm^3
# Si number density = 21.701621 Si / 1000 Ang^3
#
#
#
# Elastic Constant Matrix: (Units=GPa)
#
#
# Indices 1 2 3 4 5 6 
#
# 1 55.2790 15.8083 16.2808 0.0000 22.4234 0.0000
# 2 15.8083 43.2658 10.6311 0.0000 -13.6184 0.0000
# 3 16.2808 10.6311 111.4097 0.0000 11.8096 0.0000
# 4 0.0000 0.0000 0.0000 30.2600 0.0000 -5.4530
# 5 22.4234 -13.6184 11.8096 0.0000 28.3625 0.0000
# 6 0.0000 0.0000 0.0000 -5.4530 0.0000 22.3935
#
#
#
# Elastic Compliance Matrix: (Units=1/GPa)
#
#
# Indices 1 2 3 4 5 6 
#
# 1 0.055296 -0.041211 0.002703 0.000000 -0.064630 0.000000
# 2 -0.041211 0.059927 -0.006486 0.000000 0.064056 0.000000
# 3 0.002703 -0.006486 0.010207 0.000000 -0.009501 0.000000
# 4 0.000000 0.000000 0.000000 0.034564 0.000000 0.008416
# 5 -0.064630 0.064056 -0.009501 0.000000 0.121068 0.000000
# 6 0.000000 0.000000 0.000000 0.008416 0.000000 0.046705
#
#
# Mechanical properties :
#
#
# Convention : Reuss Voigt Hill
#
# Bulk Modulus (GPa) = 28.21608 32.82167 30.51887
# Shear Modulus (GPa) = 11.63958 27.35214 19.49586
#
# Velocity S-wave (km/s) = 2.31843 3.55403 3.00052
# Velocity P-wave (km/s) = 4.49409 5.65671 5.10858
#
# Compressibility (1/GPa) = 0.03544079
#
# Stress axis : x y z
#
# Youngs Moduli (GPa) = 18.08451 16.68706 97.97208
#
# Poissons Ratio (x) = 0.68769 -0.26480
# Poissons Ratio (y) = 0.74528 0.63546
# Poissons Ratio (z) = -0.04888 0.10823
#
# Static dielectric constant tensor:
#      x y z
#    x 3.763740 0.000000 0.290480 
#    y 0.000000 3.667150 0.000000 
#    z 0.290480 0.000000 4.533010 
# 
# 
# High freq. dielectric constant tensor:
#      x y z
#    x 1.835780 0.000000 0.018920 
#    y 0.000000 1.819460 0.000000 
#    z 0.018920 0.000000 1.876790 
# 
# From -- ./inp_files/213265.got.cif
#   From: 2010.06.25/outbox.cif.g09.slc.cpg/sg12_107_cif.got.tgz:213265.got - 2010.06.28 00:19:55.
