data_PCOD8082589
_publ_section_title
;
Structure prediction by ZEFSAII (Michael W. Deem and Ramdas Pophale) SiO2 
 PCOD8082589
Probable space group: C 2/M
;
_chemical_formula_sum "Si O2"
_cell_formula_units_Z 64
_cell_length_a 15.541453
_cell_length_b 9.171401
_cell_length_c 25.195434
_cell_angle_alpha 90.000000
_cell_angle_beta 72.371031
_cell_angle_gamma 90.000000
_cell_volume 3422.624153
_symmetry_space_group_name_H-M "C 2/M"
_symmetry_group_IT_number 12
_symmetry_cell_setting 'monoclinic'
loop_
_space_group_symop_operation_xyz
x,y,z
-x,y,-z
-x,-y,-z
x,-y,z
1/2+x,1/2+y,z
1/2-x,1/2+y,-z
1/2-x,1/2-y,-z
1/2+x,1/2-y,z
loop_
_atom_site_type_symbol
_atom_site_label
_atom_site_fract_x
_atom_site_fract_y
_atom_site_fract_z
Si Si1 0.464696 0.172624 0.384880
Si Si2 0.908165 0.672800 0.187080
Si Si3 0.605764 0.826884 0.118060
Si Si4 0.721709 0.826931 0.882064
Si Si5 0.341495 0.829527 0.622454
Si Si6 0.340081 0.173642 0.313366
Si Si7 0.403904 0.172763 0.999967
Si Si8 0.838915 0.330240 0.500862
O O1 0.568993 0.223192 0.362633
O O2 0.408169 0.234823 0.345613
O O3 0.420413 0.226228 0.448388
O O4 0.462920 0.000000 0.383335
O O5 0.909836 0.500000 0.184752
O O6 0.838225 0.729744 0.155945
O O7 0.877217 0.730107 0.250192
O O8 0.008639 0.730262 0.156137
O O9 0.681389 0.750274 0.139930
O O10 0.619456 0.774545 0.054831
O O11 0.614511 0.000000 0.122349
O O12 0.734770 0.000000 0.877956
O O13 0.673348 0.774445 0.945291
O O14 0.258846 0.737198 0.659608
O O15 0.361604 0.795302 0.557273
O O16 0.320995 0.000000 0.634944
O O17 0.333076 0.000000 0.316584
O O18 0.411976 0.000000 0.999984
O O19 0.500000 0.239751 0.000000
O O20 0.822105 0.500000 0.494729
O O21 0.750000 0.250000 0.500000
#
# Coordination Sequence:
#
# PCOD8082589 Si02
#       8
#     8   8   8   8   8   8   8   8
#     4   9  18  33  53  75 102 135 166 200 251 307
#     4   9  19  35  54  73  98 137 178 209 245 306
#     4  10  19  33  54  79 103 132 173 212 251 304
#     4  10  19  33  53  77 104 134 169 209 258 305
#     4  10  20  34  54  79 105 134 168 208 256 308
#     4  10  20  36  55  74  99 134 176 215 250 294
#     4   9  15  28  53  77 100 135 171 204 248 310
#     4  10  18  31  53  78 104 134 167 204 251 305
#
# _framework density 18.699103999999998
#
# number of rings (size 3 to 8) (size 9 to 14) (size 15 to 20)
#    0.000    2.375    2.500    0.750    0.000    2.500 
#    0.000    4.375    0.000    2.250    0.000    0.000 
#    0.000    0.000    0.000    0.000    0.000    0.000 
#
# Total GULP energy -396758.252419 kJ/mol
# GULP energy per Si atom -12398.695388 kJ/mol
# Density = 1.865654 g / cm^3
# Si number density = 18.699104 Si / 1000 Ang^3
#
#
#
# Elastic Constant Matrix: (Units=GPa)
#
#
# Indices 1 2 3 4 5 6 
#
# 1 178.7249 30.0524 77.8559 0.0000 -12.1789 0.0000
# 2 30.0524 21.1259 25.5201 0.0000 -3.4376 0.0000
# 3 77.8559 25.5201 150.7459 0.0000 -3.6515 0.0000
# 4 0.0000 0.0000 0.0000 16.8643 0.0000 -4.0929
# 5 -12.1789 -3.4376 -3.6515 0.0000 14.5778 0.0000
# 6 0.0000 0.0000 0.0000 -4.0929 0.0000 29.5676
#
#
#
# Elastic Compliance Matrix: (Units=1/GPa)
#
#
# Indices 1 2 3 4 5 6 
#
# 1 0.008503 -0.007777 -0.002965 0.000000 0.004527 0.000000
# 2 -0.007777 0.068626 -0.007411 0.000000 0.007829 0.000000
# 3 -0.002965 -0.007411 0.009374 0.000000 -0.001877 0.000000
# 4 0.000000 0.000000 0.000000 0.061358 0.000000 0.008493
# 5 0.004527 0.007829 -0.001877 0.000000 0.073756 0.000000
# 6 0.000000 0.000000 0.000000 0.008493 0.000000 0.034997
#
#
# Mechanical properties :
#
#
# Convention : Reuss Voigt Hill
#
# Bulk Modulus (GPa) = 19.92220 68.60596 44.26408
# Shear Modulus (GPa) = 16.14706 26.67982 21.41344
#
# Velocity S-wave (km/s) = 2.94176 3.78139 3.38769
# Velocity P-wave (km/s) = 4.71337 7.47224 6.24701
#
# Compressibility (1/GPa) = 0.05019526
#
# Stress axis : x y z
#
# Youngs Moduli (GPa) = 117.60284 14.57177 106.67314
#
# Poissons Ratio (x) = 0.11333 0.31632
# Poissons Ratio (y) = 0.91464 0.79060
# Poissons Ratio (z) = 0.34873 0.10800
#
# Static dielectric constant tensor:
#      x y z
#    x 3.543270 0.000000 0.095350 
#    y 0.000000 2.950690 0.000000 
#    z 0.095350 0.000000 3.709400 
# 
# 
# High freq. dielectric constant tensor:
#      x y z
#    x 1.741970 0.000000 -0.000400 
#    y 0.000000 1.674670 0.000000 
#    z -0.000400 0.000000 1.730380 
# 
# From -- ./inp_files/335616.got.cif
#   From: 2010.06.25/outbox.cif.g09.slc.cpg/sg12_168_cif.got.tgz:335616.got - 2010.06.28 00:19:55.
