data_PCOD8082265
_publ_section_title
;
Structure prediction by ZEFSAII (Michael W. Deem and Ramdas Pophale) SiO2 
 PCOD8082265
Probable space group: C 2/M
;
_chemical_formula_sum "Si O2"
_cell_formula_units_Z 60
_cell_length_a 26.634876
_cell_length_b 13.313495
_cell_length_c 21.905107
_cell_angle_alpha 90.000000
_cell_angle_beta 24.666959
_cell_angle_gamma 90.000000
_cell_volume 3241.763783
_symmetry_space_group_name_H-M "C 2/M"
_symmetry_group_IT_number 12
_symmetry_cell_setting 'monoclinic'
loop_
_space_group_symop_operation_xyz
x,y,z
-x,y,-z
-x,-y,-z
x,-y,z
1/2+x,1/2+y,z
1/2-x,1/2+y,-z
1/2-x,1/2-y,-z
1/2+x,1/2-y,z
loop_
_atom_site_type_symbol
_atom_site_label
_atom_site_fract_x
_atom_site_fract_y
_atom_site_fract_z
Si Si1 0.935989 0.696224 0.326599
Si Si2 0.052055 0.615843 0.087177
Si Si3 0.061139 0.614019 0.547401
Si Si4 0.500000 0.752436 0.500000
Si Si5 0.103283 0.322309 0.843665
Si Si6 0.730006 0.616761 0.242063
Si Si7 0.681384 0.388724 0.584306
Si Si8 0.156037 0.109256 0.751991
O O1 0.984598 0.664940 0.339259
O O2 0.824524 0.628120 0.427396
O O3 0.890402 0.811526 0.379590
O O4 0.044716 0.679064 0.158206
O O5 0.065909 0.500000 0.088614
O O6 0.924602 0.635098 0.192759
O O7 0.165996 0.652010 0.920591
O O8 0.011520 0.500000 0.598174
O O9 0.013663 0.676962 0.543208
O O10 0.203769 0.614517 0.389295
O O11 0.612765 0.682218 0.360117
O O12 0.228139 0.362568 0.733972
O O13 0.094520 0.200886 0.855177
O O14 0.000000 0.368482 0.000000
O O15 0.698915 0.500000 0.267809
O O16 0.656600 0.500000 0.586039
O O17 0.630206 0.376835 0.709039
O O18 0.106078 0.000000 0.829004
#
# Coordination Sequence:
#
# PCOD8082265 Si02
#       8
#     8   8   8   4   8   8   8   8
#     4  10  18  32  53  77 110 144 179 216 265 321
#     4  10  19  33  55  82 112 145 176 213 264 331
#     4  10  21  36  56  79 101 136 183 228 264 311
#     4  12  22  40  60  74 102 140 182 238 282 312
#     4  10  18  31  50  78 111 142 175 209 259 321
#     4  10  22  37  55  80 108 140 183 228 272 320
#     4   9  17  28  48  79 114 145 172 209 261 320
#     4   9  16  30  48  74 110 139 170 214 259 311
#
# _framework density 18.508444000000001
#
# number of rings (size 3 to 8) (size 9 to 14) (size 15 to 20)
#    0.000    2.133    2.667    2.800    0.000    1.867 
#    0.000    2.000    0.000    1.600    0.000    0.000 
#    0.000    0.000    0.000    0.000    0.000    0.000 
#
# Total GULP energy -371855.917185 kJ/mol
# GULP energy per Si atom -12395.197239 kJ/mol
# Density = 1.846632 g / cm^3
# Si number density = 18.508444 Si / 1000 Ang^3
#
#
#
# Elastic Constant Matrix: (Units=GPa)
#
#
# Indices 1 2 3 4 5 6 
#
# 1 105.6348 53.1842 38.7046 -0.0002 13.0976 0.0001
# 2 53.1842 131.7230 32.0788 -0.0002 3.0687 0.0001
# 3 38.7046 32.0788 60.5309 -0.0004 7.9805 0.0003
# 4 -0.0002 -0.0002 -0.0004 24.0035 0.0002 5.0642
# 5 13.0976 3.0687 7.9805 0.0002 19.7793 -0.0001
# 6 0.0001 0.0001 0.0003 5.0642 -0.0001 25.2067
#
#
#
# Elastic Compliance Matrix: (Units=1/GPa)
#
#
# Indices 1 2 3 4 5 6 
#
# 1 0.014732 -0.004262 -0.006297 0.000000 -0.006553 0.000000
# 2 -0.004262 0.009955 -0.002872 0.000000 0.002436 0.000000
# 3 -0.006297 -0.002872 0.022666 0.000000 -0.004530 0.000000
# 4 0.000000 0.000000 0.000000 0.043505 -0.000001 -0.008740
# 5 -0.006553 0.002436 -0.004530 -0.000001 0.056347 0.000000
# 6 0.000000 0.000000 0.000000 -0.008740 0.000000 0.041428
#
#
# Mechanical properties :
#
#
# Convention : Reuss Voigt Hill
#
# Bulk Modulus (GPa) = 48.80125 60.64710 54.72418
# Shear Modulus (GPa) = 22.48945 25.39263 23.94104
#
# Velocity S-wave (km/s) = 3.48960 3.70800 3.60046
# Velocity P-wave (km/s) = 6.53151 7.15337 6.84950
#
# Compressibility (1/GPa) = 0.02049128
#
# Stress axis : x y z
#
# Youngs Moduli (GPa) = 67.87806 100.45079 44.11832
#
# Poissons Ratio (x) = 0.42812 0.27783
# Poissons Ratio (y) = 0.28930 0.12670
# Poissons Ratio (z) = 0.42746 0.28848
#
# Static dielectric constant tensor:
#      x y z
#    x 3.318410 0.000000 0.161030 
#    y 0.000000 3.582110 0.000000 
#    z 0.161030 0.000000 3.139960 
# 
# 
# High freq. dielectric constant tensor:
#      x y z
#    x 1.697770 0.000000 0.022440 
#    y 0.000000 1.731620 0.000000 
#    z 0.022440 0.000000 1.688070 
# 
# From -- ./inp_files/325253.got.cif
#   From: 2010.06.25/outbox.cif.g09.slc.cpg/sg12_163_cif.got.tgz:325253.got - 2010.06.28 00:19:55.
