data_PCOD8082586
_publ_section_title
;
Structure prediction by ZEFSAII (Michael W. Deem and Ramdas Pophale) SiO2 
 PCOD8082586
Probable space group: C 2/M
;
_chemical_formula_sum "Si O2"
_cell_formula_units_Z 56
_cell_length_a 19.285317
_cell_length_b 9.032353
_cell_length_c 21.842877
_cell_angle_alpha 90.000000
_cell_angle_beta 54.678965
_cell_angle_gamma 90.000000
_cell_volume 3104.473593
_symmetry_space_group_name_H-M "C 2/M"
_symmetry_group_IT_number 12
_symmetry_cell_setting 'monoclinic'
loop_
_space_group_symop_operation_xyz
x,y,z
-x,y,-z
-x,-y,-z
x,-y,z
1/2+x,1/2+y,z
1/2-x,1/2+y,-z
1/2-x,1/2-y,-z
1/2+x,1/2-y,z
loop_
_atom_site_type_symbol
_atom_site_label
_atom_site_fract_x
_atom_site_fract_y
_atom_site_fract_z
Si Si1 0.869959 0.831883 0.442371
Si Si2 0.543229 0.329707 0.302955
Si Si3 0.195674 0.670455 0.078480
Si Si4 0.209609 0.671955 0.208614
Si Si5 0.494136 0.172782 0.803105
Si Si6 0.158629 0.172537 0.756780
Si Si7 0.265833 0.170834 0.394882
O O1 0.829623 0.802561 0.530129
O O2 0.832375 0.717106 0.412973
O O3 0.972176 0.812484 0.392561
O O4 0.847059 0.000000 0.433172
O O5 0.560606 0.500000 0.278103
O O6 0.630935 0.256621 0.280660
O O7 0.505579 0.250447 0.262533
O O8 0.219189 0.500000 0.061822
O O9 0.220721 0.730074 0.133342
O O10 0.095710 0.698731 0.117148
O O11 0.250000 0.750000 0.000000
O O12 0.184467 0.500000 0.220457
O O13 0.295661 0.701648 0.201719
O O14 0.569033 0.242759 0.805530
O O15 0.512024 0.000000 0.784177
O O16 0.220713 0.231914 0.672233
O O17 0.141771 0.000000 0.754127
O O18 0.281686 0.000000 0.369880
#
# Coordination Sequence:
#
# PCOD8082586 Si02
#       7
#     8   8   8   8   8   8   8
#     4   9  18  31  47  73 104 135 178 224 266 312
#     4  10  18  31  53  78 102 134 180 224 260 310
#     4   9  19  37  59  82 106 133 168 209 255 309
#     4   9  21  38  54  75 108 142 173 214 262 312
#     4  10  20  34  54  80 108 138 173 214 258 308
#     4  11  21  35  53  76 106 141 180 220 261 310
#     4  10  19  30  48  73 104 140 174 221 274 311
#
# _framework density 18.038485000000001
#
# number of rings (size 3 to 8) (size 9 to 14) (size 15 to 20)
#    0.000    2.286    1.429    2.571    0.000    5.143 
#    0.000    1.429    0.000    8.571    0.000    0.000 
#    0.000    0.000    0.000    0.000    0.000    0.000 
#
# Total GULP energy -347145.820596 kJ/mol
# GULP energy per Si atom -12398.065021 kJ/mol
# Density = 1.799743 g / cm^3
# Si number density = 18.038485 Si / 1000 Ang^3
#
#
#
# Elastic Constant Matrix: (Units=GPa)
#
#
# Indices 1 2 3 4 5 6 
#
# 1 99.3301 49.4089 42.9213 0.0000 -7.5556 0.0001
# 2 49.4089 90.1850 41.2228 -0.0001 -7.9002 0.0003
# 3 42.9213 41.2228 107.4385 0.0000 -12.4415 0.0000
# 4 0.0000 -0.0001 0.0000 30.0125 0.0000 -3.6570
# 5 -7.5556 -7.9002 -12.4415 0.0000 20.9458 0.0000
# 6 0.0001 0.0003 0.0000 -3.6570 0.0000 28.5112
#
#
#
# Elastic Compliance Matrix: (Units=1/GPa)
#
#
# Indices 1 2 3 4 5 6 
#
# 1 0.014811 -0.006522 -0.003308 0.000000 0.000918 0.000000
# 2 -0.006522 0.016410 -0.003486 0.000000 0.001766 0.000000
# 3 -0.003308 -0.003486 0.012539 0.000000 0.004940 0.000000
# 4 0.000000 0.000000 0.000000 0.033848 0.000000 0.004342
# 5 0.000918 0.001766 0.004940 0.000000 0.051673 0.000000
# 6 0.000000 0.000000 0.000000 0.004342 0.000000 0.035631
#
#
# Mechanical properties :
#
#
# Convention : Reuss Voigt Hill
#
# Bulk Modulus (GPa) = 58.38796 62.67330 60.53063
# Shear Modulus (GPa) = 25.34811 26.78728 26.06769
#
# Velocity S-wave (km/s) = 3.75270 3.85776 3.80559
# Velocity P-wave (km/s) = 7.15652 7.39342 7.27594
#
# Compressibility (1/GPa) = 0.01712682
#
# Stress axis : x y z
#
# Youngs Moduli (GPa) = 67.51825 60.94023 79.75145
#
# Poissons Ratio (x) = 0.39743 0.26384
# Poissons Ratio (y) = 0.44033 0.27803
# Poissons Ratio (z) = 0.22337 0.21245
#
# Static dielectric constant tensor:
#      x y z
#    x 3.224680 0.000000 -0.179390 
#    y 0.000000 3.442700 0.000000 
#    z -0.179390 0.000000 3.367890 
# 
# 
# High freq. dielectric constant tensor:
#      x y z
#    x 1.676120 0.000000 -0.019660 
#    y 0.000000 1.709880 0.000000 
#    z -0.019660 0.000000 1.690840 
# 
# From -- ./inp_files/345483.got.cif
#   From: 2010.06.25/outbox.cif.g09.slc.cpg/sg12_173_cif.got.tgz:345483.got - 2010.06.28 00:19:55.
