data_PCOD8082462
_publ_section_title
;
Structure prediction by ZEFSAII (Michael W. Deem and Ramdas Pophale) SiO2 
 PCOD8082462
Probable space group: C 2/M
;
_chemical_formula_sum "Si O2"
_cell_formula_units_Z 64
_cell_length_a 20.098601
_cell_length_b 8.603103
_cell_length_c 24.566812
_cell_angle_alpha 90.000000
_cell_angle_beta 125.549969
_cell_angle_gamma 90.000000
_cell_volume 3456.092611
_symmetry_space_group_name_H-M "C 2/M"
_symmetry_group_IT_number 12
_symmetry_cell_setting 'monoclinic'
loop_
_space_group_symop_operation_xyz
x,y,z
-x,y,-z
-x,-y,-z
x,-y,z
1/2+x,1/2+y,z
1/2-x,1/2+y,-z
1/2-x,1/2-y,-z
1/2+x,1/2-y,z
loop_
_atom_site_type_symbol
_atom_site_label
_atom_site_fract_x
_atom_site_fract_y
_atom_site_fract_z
Si Si1 0.875871 0.683375 0.947309
Si Si2 0.875134 0.183290 0.442534
Si Si3 0.772428 0.817249 0.568958
Si Si4 0.960567 0.182926 0.672464
Si Si5 0.717828 0.316025 0.928654
Si Si6 0.037513 0.183632 0.821071
Si Si7 0.493073 0.817510 0.415984
Si Si8 0.986994 0.683869 0.906018
O O1 0.886074 0.500000 0.953278
O O2 0.782177 0.735032 0.912134
O O3 0.908306 0.740694 0.903931
O O4 0.932383 0.745364 0.023776
O O5 0.783461 0.240185 0.410979
O O6 0.908053 0.266467 0.403612
O O7 0.931998 0.226141 0.520789
O O8 0.876348 0.000000 0.434143
O O9 0.750000 0.750000 0.500000
O O10 0.865228 0.774171 0.627075
O O11 0.756969 0.000000 0.560958
O O12 0.998226 0.245684 0.746695
O O13 0.008875 0.273065 0.648143
O O14 0.974261 0.000000 0.670886
O O15 0.713930 0.500000 0.932052
O O16 0.629276 0.247252 0.871047
O O17 0.750000 0.250000 0.000000
O O18 0.981558 0.237460 0.844604
O O19 0.040062 0.000000 0.821064
O O20 0.506608 0.000000 0.430514
O O21 0.988186 0.500000 0.898317
#
# Coordination Sequence:
#
# PCOD8082462 Si02
#       8
#     8   8   8   8   8   8   8   8
#     4   8  15  28  49  75 101 133 171 217 263 305
#     4  11  21  35  57  84 115 144 177 226 283 329
#     4  11  21  35  57  82 109 142 187 236 279 327
#     4  10  22  39  55  75 112 153 180 218 283 336
#     4  10  18  31  52  77 104 134 177 222 262 310
#     4  10  21  35  52  77 109 143 174 213 268 327
#     4  11  21  35  57  84 112 143 186 227 267 326
#     4   9  16  30  51  73 101 137 175 215 262 311
#
# _framework density 18.518021999999998
#
# number of rings (size 3 to 8) (size 9 to 14) (size 15 to 20)
#    0.000    2.000    2.500    4.125    0.000    1.000 
#    0.000    3.125    0.000    1.500    0.000    0.000 
#    0.000    0.000    0.000    0.000    0.000    0.000 
#
# Total GULP energy -396774.274731 kJ/mol
# GULP energy per Si atom -12399.196085 kJ/mol
# Density = 1.847587 g / cm^3
# Si number density = 18.518022 Si / 1000 Ang^3
#
#
#
# Elastic Constant Matrix: (Units=GPa)
#
#
# Indices 1 2 3 4 5 6 
#
# 1 155.1239 29.1451 72.2291 0.0000 -13.0888 0.0000
# 2 29.1451 45.7897 25.9114 0.0000 -1.2545 0.0000
# 3 72.2291 25.9114 121.8820 0.0000 -11.7093 0.0000
# 4 0.0000 0.0000 0.0000 21.2736 0.0000 -5.8293
# 5 -13.0888 -1.2545 -11.7093 0.0000 30.7742 0.0000
# 6 0.0000 0.0000 0.0000 -5.8293 0.0000 30.2041
#
#
#
# Elastic Compliance Matrix: (Units=1/GPa)
#
#
# Indices 1 2 3 4 5 6 
#
# 1 0.009421 -0.003289 -0.004683 0.000000 0.002091 0.000000
# 2 -0.003289 0.026006 -0.003749 0.000000 -0.001765 0.000000
# 3 -0.004683 -0.003749 0.012010 0.000000 0.002425 0.000000
# 4 0.000000 0.000000 0.000000 0.049631 0.000000 0.009579
# 5 0.002091 -0.001765 0.002425 0.000000 0.034235 0.000000
# 6 0.000000 0.000000 0.000000 0.009579 0.000000 0.034957
#
#
# Mechanical properties :
#
#
# Convention : Reuss Voigt Hill
#
# Bulk Modulus (GPa) = 41.67658 64.15184 52.91421
# Shear Modulus (GPa) = 25.29070 29.48437 27.38753
#
# Velocity S-wave (km/s) = 3.69959 3.99457 3.84991
# Velocity P-wave (km/s) = 6.38781 7.48288 6.95693
#
# Compressibility (1/GPa) = 0.02399429
#
# Stress axis : x y z
#
# Youngs Moduli (GPa) = 106.14041 38.45301 83.26458
#
# Poissons Ratio (x) = 0.12649 0.38994
# Poissons Ratio (y) = 0.34914 0.31215
# Poissons Ratio (z) = 0.49707 0.14416
#
# Static dielectric constant tensor:
#      x y z
#    x 3.527350 0.000000 -0.000540 
#    y 0.000000 3.235290 0.000000 
#    z -0.000540 0.000000 3.279440 
# 
# 
# High freq. dielectric constant tensor:
#      x y z
#    x 1.738760 0.000000 -0.007450 
#    y 0.000000 1.706240 0.000000 
#    z -0.007450 0.000000 1.687210 
# 
# From -- ./inp_files/346245.got.cif
#   From: 2010.06.25/outbox.cif.g09.slc.cpg/sg12_174_cif.got.tgz:346245.got - 2010.06.28 00:19:55.
