data_PCOD8082292
_publ_section_title
;
Structure prediction by ZEFSAII (Michael W. Deem and Ramdas Pophale) SiO2 
 PCOD8082292
Probable space group: C 2/M
;
_chemical_formula_sum "Si O2"
_cell_formula_units_Z 64
_cell_length_a 17.325086
_cell_length_b 27.412555
_cell_length_c 8.291172
_cell_angle_alpha 90.000000
_cell_angle_beta 64.910855
_cell_angle_gamma 90.000000
_cell_volume 3566.159992
_symmetry_space_group_name_H-M "C 2/M"
_symmetry_group_IT_number 12
_symmetry_cell_setting 'monoclinic'
loop_
_space_group_symop_operation_xyz
x,y,z
-x,y,-z
-x,-y,-z
x,-y,z
1/2+x,1/2+y,z
1/2-x,1/2+y,-z
1/2-x,1/2-y,-z
1/2+x,1/2-y,z
loop_
_atom_site_type_symbol
_atom_site_label
_atom_site_fract_x
_atom_site_fract_y
_atom_site_fract_z
Si Si1 0.239091 0.202197 0.113756
Si Si2 0.843219 0.861462 0.382561
Si Si3 0.403636 0.553741 0.531198
Si Si4 0.826805 0.361762 0.263996
Si Si5 0.590773 0.837349 0.501534
Si Si6 0.257811 0.943849 0.113727
Si Si7 0.592831 0.724077 0.487262
Si Si8 0.247534 0.376275 0.159010
O O1 0.320983 0.186296 0.152112
O O2 0.155955 0.206439 0.293959
O O3 0.250000 0.250000 0.000000
O O4 0.222828 0.158337 0.009443
O O5 0.897861 0.906553 0.397031
O O6 0.752944 0.859360 0.547818
O O7 0.892430 0.809936 0.367675
O O8 0.826725 0.872962 0.210488
O O9 0.500000 0.555523 0.500000
O O10 0.381860 0.500000 0.480410
O O11 0.338159 0.565002 0.735408
O O12 0.906965 0.360233 0.317913
O O13 0.824797 0.411485 0.160529
O O14 0.500000 0.846679 0.500000
O O15 0.610422 0.780303 0.511906
O O16 0.658972 0.860868 0.320185
O O17 0.286183 0.000000 0.103369
O O18 0.262039 0.928942 0.920063
O O19 0.500000 0.715494 0.500000
#
# Coordination Sequence:
#
# PCOD8082292 Si02
#       8
#     8   8   8   8   8   8   8   8
#     4  10  18  31  51  72 102 134 165 206 239 299
#     4   9  18  30  50  74 102 135 175 209 239 297
#     4   9  17  32  53  74 100 137 173 205 248 298
#     4   8  18  32  52  76  95 133 172 196 257 304
#     4  10  20  35  54  74 101 131 170 217 256 304
#     4   9  18  35  55  76 102 131 167 209 253 306
#     4  10  20  33  50  71 103 142 174 206 251 294
#     4  10  20  33  52  78  99 132 171 207 258 297
#
# _framework density 17.946473999999998
#
# number of rings (size 3 to 8) (size 9 to 14) (size 15 to 20)
#    0.000    2.625    1.250    1.125    1.750    2.000 
#    0.000    6.875    0.000    4.500    0.000    0.000 
#    0.000    0.000    0.000    0.000    0.000    0.000 
#
# Total GULP energy -396493.080654 kJ/mol
# GULP energy per Si atom -12390.408770 kJ/mol
# Density = 1.790563 g / cm^3
# Si number density = 17.946474 Si / 1000 Ang^3
#
#
#
# Elastic Constant Matrix: (Units=GPa)
#
#
# Indices 1 2 3 4 5 6 
#
# 1 86.9010 51.3090 49.1392 0.0000 20.8926 0.0000
# 2 51.3090 107.0613 49.9514 0.0000 15.5638 0.0000
# 3 49.1392 49.9514 81.7951 0.0000 27.9922 0.0000
# 4 0.0000 0.0000 0.0000 15.8349 0.0000 -2.2328
# 5 20.8926 15.5638 27.9922 0.0000 29.7591 0.0000
# 6 0.0000 0.0000 0.0000 -2.2328 0.0000 19.6410
#
#
#
# Elastic Compliance Matrix: (Units=1/GPa)
#
#
# Indices 1 2 3 4 5 6 
#
# 1 0.019822 -0.005604 -0.006971 0.000000 -0.004429 0.000000
# 2 -0.005604 0.014666 -0.006358 0.000000 0.002244 0.000000
# 3 -0.006971 -0.006358 0.025783 0.000000 -0.016033 0.000000
# 4 0.000000 0.000000 0.000000 0.064180 0.000000 0.007296
# 5 -0.004429 0.002244 -0.016033 0.000000 0.050620 0.000000
# 6 0.000000 0.000000 0.000000 0.007296 0.000000 0.051743
#
#
# Mechanical properties :
#
#
# Convention : Reuss Voigt Hill
#
# Bulk Modulus (GPa) = 44.62933 64.06184 54.34559
# Shear Modulus (GPa) = 18.37224 21.40419 19.88822
#
# Velocity S-wave (km/s) = 3.20304 3.45725 3.33257
# Velocity P-wave (km/s) = 6.21299 7.19099 6.71981
#
# Compressibility (1/GPa) = 0.02240679
#
# Stress axis : x y z
#
# Youngs Moduli (GPa) = 50.44792 68.18380 38.78489
#
# Poissons Ratio (x) = 0.38208 0.27036
# Poissons Ratio (y) = 0.28270 0.24660
# Poissons Ratio (z) = 0.35166 0.43352
#
# Static dielectric constant tensor:
#      x y z
#    x 3.344720 0.000000 0.402390 
#    y 0.000000 3.687840 0.000000 
#    z 0.402390 0.000000 3.656770 
# 
# 
# High freq. dielectric constant tensor:
#      x y z
#    x 1.678570 0.000000 0.018510 
#    y 0.000000 1.699810 0.000000 
#    z 0.018510 0.000000 1.685960 
# 
# From -- ./inp_files/66950.got.cif
#   From: 2010.06.25/outbox.cif.g09.slc.cpg/sg12_34_cif.got.tgz:66950.got - 2010.06.28 00:19:55.
