data_PCOD8082810
_publ_section_title
;
Structure prediction by ZEFSAII (Michael W. Deem and Ramdas Pophale) SiO2 
 PCOD8082810
Probable space group: C 2/M
;
_chemical_formula_sum "Si O2"
_cell_formula_units_Z 64
_cell_length_a 11.884906
_cell_length_b 22.160581
_cell_length_c 11.601268
_cell_angle_alpha 90.000000
_cell_angle_beta 80.336326
_cell_angle_gamma 90.000000
_cell_volume 3012.143195
_symmetry_space_group_name_H-M "C 2/M"
_symmetry_group_IT_number 12
_symmetry_cell_setting 'monoclinic'
loop_
_space_group_symop_operation_xyz
x,y,z
-x,y,-z
-x,-y,-z
x,-y,z
1/2+x,1/2+y,z
1/2-x,1/2+y,-z
1/2-x,1/2-y,-z
1/2+x,1/2-y,z
loop_
_atom_site_type_symbol
_atom_site_label
_atom_site_fract_x
_atom_site_fract_y
_atom_site_fract_z
Si Si1 0.113699 0.780303 0.781554
Si Si2 0.064783 0.223755 0.376193
Si Si3 0.733441 0.668823 0.186251
Si Si4 0.120427 0.870948 0.979996
Si Si5 0.837625 0.429691 0.832280
Si Si6 0.613917 0.933490 0.549035
Si Si7 0.913266 0.567099 0.177570
Si Si8 0.197165 0.655459 0.374061
O O1 0.188824 0.727833 0.825422
O O2 0.082977 0.820759 0.894643
O O3 0.177857 0.821544 0.676729
O O4 0.007769 0.756720 0.724825
O O5 0.156130 0.173007 0.316323
O O6 0.119268 0.286271 0.407744
O O7 0.000000 0.197242 0.500000
O O8 0.815627 0.611809 0.153699
O O9 0.648213 0.664795 0.092922
O O10 0.227446 0.912372 0.926635
O O11 0.000000 0.909226 0.000000
O O12 0.830203 0.500000 0.797249
O O13 0.847825 0.388368 0.718553
O O14 0.955499 0.418740 0.885729
O O15 0.500000 0.918176 0.500000
O O16 0.584405 0.928554 0.686100
O O17 0.704289 0.882798 0.491835
O O18 0.661337 0.000000 0.510401
O O19 0.878376 0.500000 0.141113
#
# Coordination Sequence:
#
# PCOD8082810 Si02
#       8
#     8   8   8   8   8   8   8   8
#     4  10  23  40  61  91 123 165 212 261 313 376
#     4  11  24  38  60  96 133 169 208 258 317 384
#     4  11  24  42  66  90 125 173 213 265 324 374
#     4  11  23  45  66  88 126 169 219 265 316 384
#     4  10  21  39  64  96 125 159 210 269 324 375
#     4  10  18  31  56  87 124 165 199 246 309 377
#     4  10  22  39  61  93 130 164 210 264 321 381
#     4  10  20  33  59  89 125 161 205 254 306 376
#
# _framework density 21.247330999999999
#
# number of rings (size 3 to 8) (size 9 to 14) (size 15 to 20)
#    0.000    1.625    2.500    1.875    3.500    2.250 
#    2.250    1.250    0.000    0.375    0.000    0.000 
#    0.000    0.000    0.000    0.000    0.000    0.000 
#
# Total GULP energy -396476.016119 kJ/mol
# GULP energy per Si atom -12389.875504 kJ/mol
# Density = 2.119897 g / cm^3
# Si number density = 21.247331 Si / 1000 Ang^3
#
#
#
# Elastic Constant Matrix: (Units=GPa)
#
#
# Indices 1 2 3 4 5 6 
#
# 1 112.5319 42.1753 37.6780 0.0000 -14.4118 0.0000
# 2 42.1753 79.7149 23.2978 0.0000 -16.0339 0.0000
# 3 37.6780 23.2978 51.2067 0.0000 -13.9968 0.0000
# 4 0.0000 0.0000 0.0000 5.8304 0.0000 -7.0887
# 5 -14.4118 -16.0339 -13.9968 0.0000 37.3039 0.0000
# 6 0.0000 0.0000 0.0000 -7.0887 0.0000 24.3561
#
#
#
# Elastic Compliance Matrix: (Units=1/GPa)
#
#
# Indices 1 2 3 4 5 6 
#
# 1 0.013205 -0.004747 -0.007487 0.000000 0.000252 0.000000
# 2 -0.004747 0.016784 -0.002978 0.000000 0.004263 0.000000
# 3 -0.007487 -0.002978 0.028138 0.000000 0.006385 0.000000
# 4 0.000000 0.000000 0.000000 0.265446 0.000000 0.077257
# 5 0.000252 0.004263 0.006385 0.000000 0.031132 0.000000
# 6 0.000000 0.000000 0.000000 0.077257 0.000000 0.063543
#
#
# Mechanical properties :
#
#
# Convention : Reuss Voigt Hill
#
# Bulk Modulus (GPa) = 36.09923 49.97282 43.03603
# Shear Modulus (GPa) = 10.91923 22.85157 16.88540
#
# Velocity S-wave (km/s) = 2.26942 3.28304 2.82211
# Velocity P-wave (km/s) = 4.88814 6.15969 5.56038
#
# Compressibility (1/GPa) = 0.02770142
#
# Stress axis : x y z
#
# Youngs Moduli (GPa) = 75.73015 59.57970 35.53890
#
# Poissons Ratio (x) = 0.28285 0.26609
# Poissons Ratio (y) = 0.35952 0.10584
# Poissons Ratio (z) = 0.56702 0.17743
#
# Static dielectric constant tensor:
#      x y z
#    x 4.053330 0.000000 -0.195500 
#    y 0.000000 3.839880 0.000000 
#    z -0.195500 0.000000 3.959380 
# 
# 
# High freq. dielectric constant tensor:
#      x y z
#    x 1.832100 0.000000 -0.009350 
#    y 0.000000 1.819290 0.000000 
#    z -0.009350 0.000000 1.843190 
# 
# From -- ./inp_files/135365.got.cif
#   From: 2010.06.25/outbox.cif.g09.slc.cpg/sg12_68_cif.got.tgz:135365.got - 2010.06.28 00:19:55.
