data_PCOD8082273
_publ_section_title
;
Structure prediction by ZEFSAII (Michael W. Deem and Ramdas Pophale) SiO2 
 PCOD8082273
Probable space group: C 2/M
;
_chemical_formula_sum "Si O2"
_cell_formula_units_Z 48
_cell_length_a 22.942249
_cell_length_b 8.716974
_cell_length_c 24.143967
_cell_angle_alpha 90.000000
_cell_angle_beta 34.843075
_cell_angle_gamma 90.000000
_cell_volume 2758.658650
_symmetry_space_group_name_H-M "C 2/M"
_symmetry_group_IT_number 12
_symmetry_cell_setting 'monoclinic'
loop_
_space_group_symop_operation_xyz
x,y,z
-x,y,-z
-x,-y,-z
x,-y,z
1/2+x,1/2+y,z
1/2-x,1/2+y,-z
1/2-x,1/2-y,-z
1/2+x,1/2-y,z
loop_
_atom_site_type_symbol
_atom_site_label
_atom_site_fract_x
_atom_site_fract_y
_atom_site_fract_z
Si Si1 0.168842 0.320380 0.022084
Si Si2 0.985492 0.818158 0.785625
Si Si3 0.788262 0.819422 0.413377
Si Si4 0.620877 0.819077 0.455094
Si Si5 0.330843 0.679793 0.813333
Si Si6 0.596241 0.317841 0.360274
O O1 0.160318 0.500000 0.038707
O O2 0.214880 0.284609 0.924734
O O3 0.250000 0.250000 0.000000
O O4 0.059090 0.244407 0.120742
O O5 0.915817 0.753150 0.789548
O O6 0.099623 0.754789 0.688487
O O7 0.983715 0.000000 0.789982
O O8 0.750000 0.750000 0.500000
O O9 0.713755 0.770910 0.421895
O O10 0.792151 0.000000 0.417817
O O11 0.522059 0.727204 0.552643
O O12 0.648784 0.767307 0.371052
O O13 0.598611 0.000000 0.474020
O O14 0.350983 0.500000 0.795660
O O15 0.346511 0.744759 0.739353
O O16 0.605750 0.500000 0.360530
#
# Coordination Sequence:
#
# PCOD8082273 Si02
#       6
#     8   8   8   8   8   8
#     4   9  16  28  45  68  95 122 151 190 234 277
#     4   9  17  31  47  67  95 125 153 190 234 278
#     4  10  21  34  50  70  97 128 158 192 234 281
#     4  10  20  33  46  68  98 124 151 193 239 275
#     4   8  15  27  46  69  92 115 149 192 230 266
#     4  10  18  31  51  70  89 123 161 193 229 278
#
# _framework density 17.399761000000002
#
# number of rings (size 3 to 8) (size 9 to 14) (size 15 to 20)
#    0.000    2.667    0.000    4.500    0.000    3.333 
#    0.000   10.000    0.000    1.000    0.000    7.000 
#    0.000    0.000    0.000    0.000    0.000    0.000 
#
# Total GULP energy -297440.625747 kJ/mol
# GULP energy per Si atom -12393.359406 kJ/mol
# Density = 1.736016 g / cm^3
# Si number density = 17.399761 Si / 1000 Ang^3
#
#
#
# Elastic Constant Matrix: (Units=GPa)
#
#
# Indices 1 2 3 4 5 6 
#
# 1 99.4353 20.1890 73.1738 -0.0001 3.5858 0.0001
# 2 20.1890 33.2388 26.6164 -0.0003 1.2052 0.0002
# 3 73.1738 26.6164 174.0142 -0.0001 11.0287 0.0001
# 4 -0.0001 -0.0003 -0.0001 28.0750 0.0000 1.2522
# 5 3.5858 1.2052 11.0287 0.0000 28.1585 0.0000
# 6 0.0001 0.0002 0.0001 1.2522 0.0000 19.6220
#
#
#
# Elastic Compliance Matrix: (Units=1/GPa)
#
#
# Indices 1 2 3 4 5 6 
#
# 1 0.015184 -0.004675 -0.005701 0.000000 0.000500 0.000000
# 2 -0.004675 0.035734 -0.003528 0.000000 0.000448 0.000000
# 3 -0.005701 -0.003528 0.008848 0.000000 -0.002588 0.000000
# 4 0.000000 0.000000 0.000000 0.035720 0.000000 -0.002279
# 5 0.000500 0.000448 -0.002588 0.000000 0.036444 0.000000
# 6 0.000000 0.000000 0.000000 -0.002279 0.000000 0.051109
#
#
# Mechanical properties :
#
#
# Convention : Reuss Voigt Hill
#
# Bulk Modulus (GPa) = 31.29296 60.73852 46.01574
# Shear Modulus (GPa) = 22.57338 27.61839 25.09588
#
# Velocity S-wave (km/s) = 3.60577 3.98840 3.80190
# Velocity P-wave (km/s) = 5.94636 7.49621 6.76581
#
# Compressibility (1/GPa) = 0.03195607
#
# Stress axis : x y z
#
# Youngs Moduli (GPa) = 65.86074 27.98465 113.02245
#
# Poissons Ratio (x) = 0.13083 0.64438
# Poissons Ratio (y) = 0.30790 0.39876
# Poissons Ratio (z) = 0.37549 0.09874
#
# Static dielectric constant tensor:
#      x y z
#    x 3.241360 0.000000 0.081480 
#    y 0.000000 3.187550 0.000000 
#    z 0.081480 0.000000 3.829350 
# 
# 
# High freq. dielectric constant tensor:
#      x y z
#    x 1.638380 0.000000 0.009950 
#    y 0.000000 1.663990 0.000000 
#    z 0.009950 0.000000 1.687030 
# 
# From -- ./inp_files/348290.got.cif
#   From: 2010.06.25/outbox.cif.g09.slc.cpg/sg12_175_cif.got.tgz:348290.got - 2010.06.28 00:19:55.
