data_PCOD8082581
_publ_section_title
;
Structure prediction by ZEFSAII (Michael W. Deem and Ramdas Pophale) SiO2 
 PCOD8082581
Probable space group: C 2/M
;
_chemical_formula_sum "Si O2"
_cell_formula_units_Z 44
_cell_length_a 16.090299
_cell_length_b 22.513729
_cell_length_c 8.375884
_cell_angle_alpha 90.000000
_cell_angle_beta 122.710679
_cell_angle_gamma 90.000000
_cell_volume 2552.994686
_symmetry_space_group_name_H-M "C 2/M"
_symmetry_group_IT_number 12
_symmetry_cell_setting 'monoclinic'
loop_
_space_group_symop_operation_xyz
x,y,z
-x,y,-z
-x,-y,-z
x,-y,z
1/2+x,1/2+y,z
1/2-x,1/2+y,-z
1/2-x,1/2-y,-z
1/2+x,1/2-y,z
loop_
_atom_site_type_symbol
_atom_site_label
_atom_site_fract_x
_atom_site_fract_y
_atom_site_fract_z
Si Si1 0.889578 0.783285 0.943332
Si Si2 0.014880 0.500000 0.762436
Si Si3 0.277942 0.867000 0.300562
Si Si4 0.940362 0.290467 0.289753
Si Si5 0.629230 0.822173 0.294051
Si Si6 0.500000 0.096543 0.000000
Si Si7 0.332411 0.000000 0.345870
O O1 0.826101 0.843330 0.874592
O O2 0.839118 0.738772 0.760722
O O3 0.885551 0.758322 0.121556
O O4 0.000000 0.797537 0.000000
O O5 0.911535 0.500000 0.566640
O O6 0.020210 0.440783 0.865800
O O7 0.112844 0.500000 0.762866
O O8 0.366050 0.840264 0.283060
O O9 0.289447 0.844263 0.495982
O O10 0.269946 0.938731 0.291330
O O11 0.000000 0.259646 0.500000
O O12 0.020997 0.321603 0.263235
O O13 0.604022 0.867819 0.125809
#
# Coordination Sequence:
#
# PCOD8082581 Si02
#       7
#     8   4   8   8   8   4   4
#     4  10  20  35  53  73 101 133 171 212 254 287
#     4  10  22  30  50  72 107 143 152 194 243 313
#     4  11  21  33  50  77 104 135 169 205 246 297
#     4   9  18  31  52  77 102 128 160 205 257 308
#     4  10  18  31  53  77 106 129 162 204 250 305
#     4  11  16  32  50  74 106 137 158 182 254 305
#     4  11  22  32  47  74 102 134 173 196 241 299
#
# _framework density 17.234660999999999
#
# number of rings (size 3 to 8) (size 9 to 14) (size 15 to 20)
#    0.000    1.818    4.545    2.182    5.091    0.000 
#    0.000    0.455    0.000    0.000    0.000    0.636 
#    0.000    0.000    0.000    0.000    0.000    0.000 
#
# Total GULP energy -272596.006109 kJ/mol
# GULP energy per Si atom -12390.727550 kJ/mol
# Density = 1.719543 g / cm^3
# Si number density = 17.234661 Si / 1000 Ang^3
#
#
#
# Elastic Constant Matrix: (Units=GPa)
#
#
# Indices 1 2 3 4 5 6 
#
# 1 36.1846 33.0578 25.6606 0.0000 -4.6856 0.0000
# 2 33.0578 128.2144 63.8238 0.0000 4.9507 0.0000
# 3 25.6606 63.8238 101.9967 0.0000 -5.0211 0.0000
# 4 0.0000 0.0000 0.0000 66.1468 0.0000 103.7102
# 5 -4.6856 4.9507 -5.0211 0.0000 20.8090 0.0000
# 6 0.0000 0.0000 0.0000 103.7102 0.0000 289.2014
#
#
#
# Elastic Compliance Matrix: (Units=1/GPa)
#
#
# Indices 1 2 3 4 5 6 
#
# 1 0.039678 -0.008555 -0.004138 0.000000 0.009971 0.000000
# 2 -0.008555 0.013597 -0.006689 0.000000 -0.006775 0.000000
# 3 -0.004138 -0.006689 0.015245 0.000000 0.004338 0.000000
# 4 0.000000 0.000000 0.000000 0.034536 0.000000 -0.012385
# 5 0.009971 -0.006775 0.004338 0.000000 0.052960 0.000000
# 6 0.000000 0.000000 0.000000 -0.012385 0.000000 0.007899
#
#
# Mechanical properties :
#
#
# Convention : Reuss Voigt Hill
#
# Bulk Modulus (GPa) = 33.60882 56.83113 45.21997
# Shear Modulus (GPa) = 23.51861 84.82166 54.17013
#
# Velocity S-wave (km/s) = 3.69807 7.02300 5.61241
# Velocity P-wave (km/s) = 6.14633 9.94032 8.26400
#
# Compressibility (1/GPa) = 0.02975409
#
# Stress axis : x y z
#
# Youngs Moduli (GPa) = 25.20290 73.54705 65.59730
#
# Poissons Ratio (x) = 0.62923 0.27143
# Poissons Ratio (y) = 0.21562 0.43879
# Poissons Ratio (z) = 0.10429 0.49197
#
# Static dielectric constant tensor:
#      x y z
#    x 2.938450 0.000000 -0.270140 
#    y 0.000000 3.067770 0.000000 
#    z -0.270140 0.000000 3.530060 
# 
# 
# High freq. dielectric constant tensor:
#      x y z
#    x 1.633650 0.000000 -0.023540 
#    y 0.000000 1.651030 0.000000 
#    z -0.023540 0.000000 1.681420 
# 
# From -- ./inp_files/63278.got.cif
#   From: 2010.06.25/outbox.cif.g09.slc.cpg/sg12_32_cif.got.tgz:63278.got - 2010.06.28 00:19:55.
