data_PCOD8082318
_publ_section_title
;
Structure prediction by ZEFSAII (Michael W. Deem and Ramdas Pophale) SiO2 
 PCOD8082318
Probable space group: C 2/M
;
_chemical_formula_sum "Si O2"
_cell_formula_units_Z 60
_cell_length_a 8.687455
_cell_length_b 19.051484
_cell_length_c 19.190021
_cell_angle_alpha 90.000000
_cell_angle_beta 90.864286
_cell_angle_gamma 90.000000
_cell_volume 3175.758107
_symmetry_space_group_name_H-M "C 2/M"
_symmetry_group_IT_number 12
_symmetry_cell_setting 'monoclinic'
loop_
_space_group_symop_operation_xyz
x,y,z
-x,y,-z
-x,-y,-z
x,-y,z
1/2+x,1/2+y,z
1/2-x,1/2+y,-z
1/2-x,1/2-y,-z
1/2+x,1/2-y,z
loop_
_atom_site_type_symbol
_atom_site_label
_atom_site_fract_x
_atom_site_fract_y
_atom_site_fract_z
Si Si1 0.205693 0.165495 0.622176
Si Si2 0.000000 0.208055 0.000000
Si Si3 0.217467 0.421839 0.660676
Si Si4 0.968604 0.301947 0.816377
Si Si5 0.610439 0.921826 0.278352
Si Si6 0.321581 0.080058 0.498428
Si Si7 0.747008 0.217372 0.906522
Si Si8 0.098693 0.210000 0.316494
O O1 0.243446 0.104032 0.677247
O O2 0.230798 0.135905 0.544971
O O3 0.305290 0.234044 0.639259
O O4 0.030037 0.185730 0.630495
O O5 0.878559 0.256355 0.039599
O O6 0.118552 0.167461 0.054712
O O7 0.272816 0.500000 0.685460
O O8 0.248190 0.412581 0.578998
O O9 0.302411 0.359404 0.703052
O O10 0.035749 0.414622 0.671942
O O11 0.144684 0.315971 0.844041
O O12 0.909672 0.376733 0.791021
O O13 0.849554 0.280435 0.875805
O O14 0.971350 0.243588 0.754675
O O15 0.640301 0.000000 0.252560
O O16 0.500000 0.100522 0.500000
O O17 0.300311 0.000000 0.525946
#
# Coordination Sequence:
#
# PCOD8082318 Si02
#       8
#     8   4   8   8   8   8   8   8
#     4  11  22  36  54  73 102 133 173 226 276 323
#     4   8  16  28  48  82 108 132 172 206 246 292
#     4  10  21  37  55  73 101 135 174 224 275 324
#     4  10  18  31  51  74 108 140 167 208 258 307
#     4  10  19  34  54  76 101 138 179 218 263 319
#     4  10  20  37  58  74  92 131 180 224 276 331
#     4   9  16  29  50  78 109 137 165 206 252 293
#     4  11  23  37  51  79 107 137 172 215 270 326
#
# _framework density 18.893125000000001
#
# number of rings (size 3 to 8) (size 9 to 14) (size 15 to 20)
#    0.000    2.000    1.333    4.400    0.000    2.133 
#    0.000    1.333    0.000    0.000    0.000   17.733 
#    0.000    0.000    0.000    0.000    0.000    0.000 
#
# Total GULP energy -371662.623025 kJ/mol
# GULP energy per Si atom -12388.754101 kJ/mol
# Density = 1.885012 g / cm^3
# Si number density = 18.893125 Si / 1000 Ang^3
#
#
#
# Elastic Constant Matrix: (Units=GPa)
#
#
# Indices 1 2 3 4 5 6 
#
# 1 67.8110 22.6847 13.8542 0.0000 -0.5039 0.0000
# 2 22.6847 100.1932 27.3407 0.0000 0.0476 0.0000
# 3 13.8542 27.3407 61.4755 0.0000 -3.0771 0.0000
# 4 0.0000 0.0000 0.0000 8.2155 0.0000 -3.1524
# 5 -0.5039 0.0476 -3.0771 0.0000 35.6867 0.0000
# 6 0.0000 0.0000 0.0000 -3.1524 0.0000 19.6415
#
#
#
# Elastic Compliance Matrix: (Units=1/GPa)
#
#
# Indices 1 2 3 4 5 6 
#
# 1 0.016237 -0.003048 -0.002302 0.000000 0.000035 0.000000
# 2 -0.003048 0.011939 -0.004646 0.000000 -0.000460 0.000000
# 3 -0.002302 -0.004646 0.018932 0.000000 0.001606 0.000000
# 4 0.000000 0.000000 0.000000 0.129710 0.000000 0.020818
# 5 0.000035 -0.000460 0.001606 0.000000 0.028161 0.000000
# 6 0.000000 0.000000 0.000000 0.020818 0.000000 0.054254
#
#
# Mechanical properties :
#
#
# Convention : Reuss Voigt Hill
#
# Bulk Modulus (GPa) = 36.87806 39.69322 38.28564
# Shear Modulus (GPa) = 17.34528 23.74873 20.54701
#
# Velocity S-wave (km/s) = 3.03326 3.54927 3.30136
# Velocity P-wave (km/s) = 5.64174 6.15235 5.90257
#
# Compressibility (1/GPa) = 0.02711639
#
# Stress axis : x y z
#
# Youngs Moduli (GPa) = 61.58743 83.76052 52.82080
#
# Poissons Ratio (x) = 0.25531 0.12158
# Poissons Ratio (y) = 0.18773 0.24539
# Poissons Ratio (z) = 0.14176 0.38913
#
# Static dielectric constant tensor:
#      x y z
#    x 3.738510 0.000000 0.233450 
#    y 0.000000 3.423980 0.000000 
#    z 0.233450 0.000000 3.620970 
# 
# 
# High freq. dielectric constant tensor:
#      x y z
#    x 1.745780 0.000000 0.002670 
#    y 0.000000 1.700840 0.000000 
#    z 0.002670 0.000000 1.732150 
# 
# From -- ./inp_files/258055.got.cif
#   From: 2010.06.25/outbox.cif.g09.slc.cpg/sg12_130_cif.got.tgz:258055.got - 2010.06.28 00:19:55.
