data_PCOD8082567
_publ_section_title
;
Structure prediction by ZEFSAII (Michael W. Deem and Ramdas Pophale) SiO2 
 PCOD8082567
Probable space group: C 2/M
;
_chemical_formula_sum "Si O2"
_cell_formula_units_Z 56
_cell_length_a 20.150160
_cell_length_b 14.644711
_cell_length_c 11.013999
_cell_angle_alpha 90.000000
_cell_angle_beta 67.941923
_cell_angle_gamma 90.000000
_cell_volume 3012.257396
_symmetry_space_group_name_H-M "C 2/M"
_symmetry_group_IT_number 12
_symmetry_cell_setting 'monoclinic'
loop_
_space_group_symop_operation_xyz
x,y,z
-x,y,-z
-x,-y,-z
x,-y,z
1/2+x,1/2+y,z
1/2-x,1/2+y,-z
1/2-x,1/2-y,-z
1/2+x,1/2-y,z
loop_
_atom_site_type_symbol
_atom_site_label
_atom_site_fract_x
_atom_site_fract_y
_atom_site_fract_z
Si Si1 0.818488 0.399288 0.260734
Si Si2 0.143961 0.748713 0.101333
Si Si3 0.573101 0.237639 0.896896
Si Si4 0.245358 0.398307 0.959388
Si Si5 0.332234 0.605445 0.555124
Si Si6 0.550682 0.302789 0.364272
Si Si7 0.940005 0.896918 0.279097
O O1 0.841454 0.500000 0.292713
O O2 0.886840 0.331869 0.222921
O O3 0.795981 0.407798 0.137309
O O4 0.750727 0.360819 0.384951
O O5 0.180456 0.845067 0.111689
O O6 0.076566 0.734316 0.239060
O O7 0.123312 0.760509 0.975520
O O8 0.196468 0.662237 0.084462
O O9 0.553706 0.330037 0.839250
O O10 0.500000 0.193317 0.000000
O O11 0.258790 0.500000 0.004682
O O12 0.333514 0.500000 0.594862
O O13 0.378504 0.659353 0.621367
O O14 0.363640 0.618525 0.398400
O O15 0.500000 0.252904 0.500000
O O16 0.503058 0.381918 0.334366
O O17 0.946145 0.000000 0.225815
#
# Coordination Sequence:
#
# PCOD8082567 Si02
#       7
#     8   8   8   8   8   8   8
#     4   9  18  33  55  76  94 125 170 218 254 276
#     4  10  19  33  52  77 102 128 166 204 246 301
#     4  11  22  35  47  71 108 137 165 196 240 309
#     4   9  18  32  53  78 101 126 162 212 255 285
#     4   9  17  32  54  77  96 121 169 216 247 285
#     4  10  18  31  53  76  99 129 164 208 250 287
#     4  10  21  34  48  72 107 140 162 192 245 305
#
# _framework density 18.590709
#
# number of rings (size 3 to 8) (size 9 to 14) (size 15 to 20)
#    0.000    2.286    2.857    0.429    0.000    4.000 
#    0.000    0.000    0.000    0.429    0.000    0.000 
#    0.000    0.000    0.000    0.000    0.000    0.000 
#
# Total GULP energy -347007.361660 kJ/mol
# GULP energy per Si atom -12393.120059 kJ/mol
# Density = 1.854840 g / cm^3
# Si number density = 18.590709 Si / 1000 Ang^3
#
#
#
# Elastic Constant Matrix: (Units=GPa)
#
#
# Indices 1 2 3 4 5 6 
#
# 1 56.8294 27.8033 23.2829 0.0000 -20.9941 0.0000
# 2 27.8033 84.0067 28.5311 0.0000 -13.7262 0.0000
# 3 23.2829 28.5311 91.3045 0.0000 -27.6760 0.0000
# 4 0.0000 0.0000 0.0000 23.1278 0.0000 -3.7010
# 5 -20.9941 -13.7262 -27.6760 0.0000 36.9305 0.0000
# 6 0.0000 0.0000 0.0000 -3.7010 0.0000 16.4288
#
#
#
# Elastic Compliance Matrix: (Units=1/GPa)
#
#
# Indices 1 2 3 4 5 6 
#
# 1 0.025191 -0.006128 -0.001111 0.000000 0.011210 0.000000
# 2 -0.006128 0.014970 -0.003215 0.000000 -0.000329 0.000000
# 3 -0.001111 -0.003215 0.015122 0.000000 0.009506 0.000000
# 4 0.000000 0.000000 0.000000 0.044855 0.000000 0.010105
# 5 0.011210 -0.000329 0.009506 0.000000 0.040452 0.000000
# 6 0.000000 0.000000 0.000000 0.010105 0.000000 0.063145
#
#
# Mechanical properties :
#
#
# Convention : Reuss Voigt Hill
#
# Bulk Modulus (GPa) = 29.09100 43.48614 36.28857
# Shear Modulus (GPa) = 21.17728 25.46563 23.32145
#
# Velocity S-wave (km/s) = 3.37877 3.70510 3.54569
# Velocity P-wave (km/s) = 5.55909 6.46110 6.02699
#
# Compressibility (1/GPa) = 0.03437490
#
# Stress axis : x y z
#
# Youngs Moduli (GPa) = 39.69629 66.79922 66.13045
#
# Poissons Ratio (x) = 0.40938 0.07345
# Poissons Ratio (y) = 0.24328 0.21260
# Poissons Ratio (z) = 0.04409 0.21475
#
# Static dielectric constant tensor:
#      x y z
#    x 3.351930 0.000000 -0.356900 
#    y 0.000000 3.383230 0.000000 
#    z -0.356900 0.000000 3.524400 
# 
# 
# High freq. dielectric constant tensor:
#      x y z
#    x 1.709480 0.000000 -0.025290 
#    y 0.000000 1.690910 0.000000 
#    z -0.025290 0.000000 1.723350 
# 
# From -- ./inp_files/155945.got.cif
#   From: 2010.06.25/outbox.cif.g09.slc.cpg/sg12_78_cif.got.tgz:155945.got - 2010.06.28 00:19:55.
