data_PCOD8082377
_publ_section_title
;
Structure prediction by ZEFSAII (Michael W. Deem and Ramdas Pophale) SiO2 
 PCOD8082377
Probable space group: C 2/M
;
_chemical_formula_sum "Si O2"
_cell_formula_units_Z 60
_cell_length_a 20.747825
_cell_length_b 21.812133
_cell_length_c 14.911504
_cell_angle_alpha 90.000000
_cell_angle_beta 29.731107
_cell_angle_gamma 90.000000
_cell_volume 3346.668622
_symmetry_space_group_name_H-M "C 2/M"
_symmetry_group_IT_number 12
_symmetry_cell_setting 'monoclinic'
loop_
_space_group_symop_operation_xyz
x,y,z
-x,y,-z
-x,-y,-z
x,-y,z
1/2+x,1/2+y,z
1/2-x,1/2+y,-z
1/2-x,1/2-y,-z
1/2+x,1/2-y,z
loop_
_atom_site_type_symbol
_atom_site_label
_atom_site_fract_x
_atom_site_fract_y
_atom_site_fract_z
Si Si1 0.687643 0.931685 0.603059
Si Si2 0.652597 0.164804 0.149086
Si Si3 0.650225 0.124288 0.827939
Si Si4 0.500000 0.197248 0.500000
Si Si5 0.253666 0.251182 0.273593
Si Si6 0.818536 0.191030 0.374293
Si Si7 0.885303 0.430940 0.942766
Si Si8 0.598315 0.729158 0.084852
O O1 0.690709 0.927475 0.707503
O O2 0.764890 0.876164 0.463580
O O3 0.539653 0.925483 0.751819
O O4 0.741197 0.000000 0.511998
O O5 0.571838 0.155884 0.338709
O O6 0.668441 0.099841 0.082323
O O7 0.576401 0.211605 0.174752
O O8 0.798720 0.185569 0.991365
O O9 0.737237 0.183171 0.696114
O O10 0.500000 0.142610 0.000000
O O11 0.678584 0.100812 0.893359
O O12 0.394336 0.239513 0.578427
O O13 0.301147 0.302047 0.287745
O O14 0.350898 0.249524 0.072518
O O15 0.750000 0.250000 0.500000
O O16 0.966496 0.191968 0.228936
O O17 0.836286 0.500000 0.001929
#
# Coordination Sequence:
#
# PCOD8082377 Si02
#       8
#     8   8   8   4   8   8   8   8
#     4  10  21  34  51  79 116 148 178 225 275 319
#     4  10  20  36  53  77 108 141 177 220 278 323
#     4  10  18  31  51  80 111 141 178 223 271 317
#     4  10  22  34  51  80 113 140 166 224 280 322
#     4  11  20  33  55  82 111 137 176 226 274 322
#     4  12  21  33  56  83 107 140 185 226 267 321
#     4  10  19  34  55  77 107 147 186 220 263 326
#     4  10  21  35  54  77 108 140 175 229 275 315
#
# _framework density 17.928276
#
# number of rings (size 3 to 8) (size 9 to 14) (size 15 to 20)
#    0.000    1.600    2.667    4.000    0.000    1.600 
#    0.000    1.000    0.000    4.800    0.000    2.800 
#    0.000    0.000    0.000    0.000    0.000    0.000 
#
# Total GULP energy -371951.694304 kJ/mol
# GULP energy per Si atom -12398.389810 kJ/mol
# Density = 1.788747 g / cm^3
# Si number density = 17.928276 Si / 1000 Ang^3
#
#
#
# Elastic Constant Matrix: (Units=GPa)
#
#
# Indices 1 2 3 4 5 6 
#
# 1 102.0568 48.6065 34.5070 -0.0014 8.4898 0.0010
# 2 48.6065 126.6675 38.3358 -0.0008 1.4751 0.0011
# 3 34.5070 38.3358 61.5952 0.0002 2.9033 0.0017
# 4 -0.0014 -0.0008 0.0002 25.7784 0.0009 2.5600
# 5 8.4898 1.4751 2.9033 0.0009 25.0845 -0.0010
# 6 0.0010 0.0011 0.0017 2.5600 -0.0010 22.5983
#
#
#
# Elastic Compliance Matrix: (Units=1/GPa)
#
#
# Indices 1 2 3 4 5 6 
#
# 1 0.013582 -0.003596 -0.005192 0.000001 -0.003784 0.000000
# 2 -0.003596 0.010680 -0.004685 0.000000 0.001131 0.000000
# 3 -0.005192 -0.004685 0.022085 0.000000 -0.000523 -0.000001
# 4 0.000001 0.000000 0.000000 0.039234 -0.000002 -0.004444
# 5 -0.003784 0.001131 -0.000523 -0.000002 0.041140 0.000002
# 6 0.000000 0.000000 -0.000001 -0.004444 0.000002 0.044755
#
#
# Mechanical properties :
#
#
# Convention : Reuss Voigt Hill
#
# Bulk Modulus (GPa) = 51.55122 59.24645 55.39884
# Shear Modulus (GPa) = 24.40364 25.95024 25.17694
#
# Velocity S-wave (km/s) = 3.69342 3.80866 3.75148
# Velocity P-wave (km/s) = 6.85602 7.24288 7.05210
#
# Compressibility (1/GPa) = 0.01939818
#
# Stress axis : x y z
#
# Youngs Moduli (GPa) = 73.62917 93.63703 45.28061
#
# Poissons Ratio (x) = 0.33674 0.23510
# Poissons Ratio (y) = 0.26479 0.21216
# Poissons Ratio (z) = 0.38229 0.43873
#
# Static dielectric constant tensor:
#      x y z
#    x 3.521250 0.000000 0.114330 
#    y 0.000000 3.196880 0.000000 
#    z 0.114330 0.000000 3.256830 
# 
# 
# High freq. dielectric constant tensor:
#      x y z
#    x 1.704980 0.000000 0.011820 
#    y 0.000000 1.673870 0.000000 
#    z 0.011820 0.000000 1.682750 
# 
# From -- ./inp_files/235185.got.cif
#   From: 2010.06.25/outbox.cif.g09.slc.cpg/sg12_118_cif.got.tgz:235185.got - 2010.06.28 00:19:55.
