data_PCOD8082774
_publ_section_title
;
Structure prediction by ZEFSAII (Michael W. Deem and Ramdas Pophale) SiO2 
 PCOD8082774
Probable space group: C 2/M
;
_chemical_formula_sum "Si O2"
_cell_formula_units_Z 56
_cell_length_a 9.042203
_cell_length_b 19.985491
_cell_length_c 16.362646
_cell_angle_alpha 90.000000
_cell_angle_beta 91.546486
_cell_angle_gamma 90.000000
_cell_volume 2955.863622
_symmetry_space_group_name_H-M "C 2/M"
_symmetry_group_IT_number 12
_symmetry_cell_setting 'monoclinic'
loop_
_space_group_symop_operation_xyz
x,y,z
-x,y,-z
-x,-y,-z
x,-y,z
1/2+x,1/2+y,z
1/2-x,1/2+y,-z
1/2-x,1/2-y,-z
1/2+x,1/2-y,z
loop_
_atom_site_type_symbol
_atom_site_label
_atom_site_fract_x
_atom_site_fract_y
_atom_site_fract_z
Si Si1 0.222463 0.337165 0.663586
Si Si2 0.267557 0.189885 0.851372
Si Si3 0.048056 0.426620 0.093019
Si Si4 0.167815 0.681658 0.491094
Si Si5 0.949894 0.817213 0.905829
Si Si6 0.748869 0.078702 0.819749
Si Si7 0.888441 0.702022 0.680292
O O1 0.219710 0.365317 0.568541
O O2 0.258934 0.397332 0.725703
O O3 0.348393 0.280651 0.673356
O O4 0.065594 0.303914 0.684902
O O5 0.318012 0.125682 0.903836
O O6 0.336427 0.256759 0.890553
O O7 0.317073 0.173070 0.760594
O O8 0.091584 0.197038 0.851525
O O9 0.102480 0.500000 0.123562
O O10 0.912113 0.402456 0.147470
O O11 0.000000 0.431759 0.000000
O O12 0.250000 0.750000 0.500000
O O13 0.182049 0.657532 0.396608
O O14 0.000000 0.701468 0.500000
O O15 0.872693 0.885790 0.877013
O O16 0.000000 0.822274 0.000000
O O17 0.779540 0.000000 0.824079
#
# Coordination Sequence:
#
# PCOD8082774 Si02
#       7
#     8   8   8   8   8   8   8
#     4  10  18  34  54  82 114 140 182 224 276 333
#     4  12  21  36  59  82 113 142 182 231 284 331
#     4  10  21  38  58  79 107 147 189 228 275 332
#     4   8  16  28  49  79 112 138 169 219 269 328
#     4  12  25  38  56  83 113 146 188 238 286 334
#     4  11  23  39  57  78 110 153 193 233 282 336
#     4  10  18  31  55  84 113 139 176 223 278 328
#
# _framework density 18.945392999999999
#
# number of rings (size 3 to 8) (size 9 to 14) (size 15 to 20)
#    0.000    1.571    2.857    3.429    0.000    0.857 
#    0.000    0.000    0.000    4.714    0.000    1.000 
#    0.000    0.000    0.000    0.000    0.000    0.000 
#
# Total GULP energy -346957.935348 kJ/mol
# GULP energy per Si atom -12391.354834 kJ/mol
# Density = 1.890227 g / cm^3
# Si number density = 18.945393 Si / 1000 Ang^3
#
#
#
# Elastic Constant Matrix: (Units=GPa)
#
#
# Indices 1 2 3 4 5 6 
#
# 1 64.1771 35.2512 3.1251 0.0000 4.2468 0.0000
# 2 35.2512 91.3405 24.6990 0.0000 5.7471 0.0000
# 3 3.1251 24.6990 116.7036 0.0000 2.5097 0.0000
# 4 0.0000 0.0000 0.0000 20.9030 0.0000 4.8881
# 5 4.2468 5.7471 2.5097 0.0000 20.1892 0.0000
# 6 0.0000 0.0000 0.0000 4.8881 0.0000 21.6951
#
#
#
# Elastic Compliance Matrix: (Units=1/GPa)
#
#
# Indices 1 2 3 4 5 6 
#
# 1 0.020008 -0.007909 0.001183 0.000000 -0.002104 0.000000
# 2 -0.007909 0.014924 -0.002899 0.000000 -0.002224 0.000000
# 3 0.001183 -0.002899 0.009163 0.000000 -0.000563 0.000000
# 4 0.000000 0.000000 0.000000 0.050501 0.000000 -0.011378
# 5 -0.002104 -0.002224 -0.000563 0.000000 0.050677 0.000000
# 6 0.000000 0.000000 0.000000 -0.011378 0.000000 0.048657
#
#
# Mechanical properties :
#
#
# Convention : Reuss Voigt Hill
#
# Bulk Modulus (GPa) = 40.24914 44.26353 42.25634
# Shear Modulus (GPa) = 22.57733 26.50052 24.53892
#
# Velocity S-wave (km/s) = 3.45585 3.74409 3.60286
# Velocity P-wave (km/s) = 6.10040 6.48887 6.29763
#
# Compressibility (1/GPa) = 0.02484525
#
# Stress axis : x y z
#
# Youngs Moduli (GPa) = 49.98020 67.00473 109.13860
#
# Poissons Ratio (x) = 0.52996 -0.12915
# Poissons Ratio (y) = 0.39531 0.31639
# Poissons Ratio (z) = -0.05915 0.19424
#
# Static dielectric constant tensor:
#      x y z
#    x 3.567440 0.000000 0.032090 
#    y 0.000000 3.196520 0.000000 
#    z 0.032090 0.000000 4.244320 
# 
# 
# High freq. dielectric constant tensor:
#      x y z
#    x 1.738140 0.000000 0.002450 
#    y 0.000000 1.693210 0.000000 
#    z 0.002450 0.000000 1.764320 
# 
# From -- ./inp_files/197537.got.cif
#   From: 2010.06.25/outbox.cif.g09.slc.cpg/sg12_99_cif.got.tgz:197537.got - 2010.06.28 00:19:55.
