data_PCOD8082107
_publ_section_title
;
Structure prediction by ZEFSAII (Michael W. Deem and Ramdas Pophale) SiO2 
 PCOD8082107
Probable space group: C 2/M
;
_chemical_formula_sum "Si O2"
_cell_formula_units_Z 56
_cell_length_a 16.748139
_cell_length_b 20.900460
_cell_length_c 14.182762
_cell_angle_alpha 90.000000
_cell_angle_beta 36.201386
_cell_angle_gamma 90.000000
_cell_volume 2932.210742
_symmetry_space_group_name_H-M "C 2/M"
_symmetry_group_IT_number 12
_symmetry_cell_setting 'monoclinic'
loop_
_space_group_symop_operation_xyz
x,y,z
-x,y,-z
-x,-y,-z
x,-y,z
1/2+x,1/2+y,z
1/2-x,1/2+y,-z
1/2-x,1/2-y,-z
1/2+x,1/2-y,z
loop_
_atom_site_type_symbol
_atom_site_label
_atom_site_fract_x
_atom_site_fract_y
_atom_site_fract_z
Si Si1 0.634833 0.314382 0.635043
Si Si2 0.639354 0.663548 0.409499
Si Si3 0.130559 0.427787 0.098692
Si Si4 0.647126 0.071777 0.868403
Si Si5 0.568829 0.820110 0.649202
Si Si6 0.670561 0.248330 0.213369
Si Si7 0.146812 0.840685 0.061144
O O1 0.624144 0.318434 0.532134
O O2 0.603977 0.238922 0.688049
O O3 0.780956 0.338769 0.534362
O O4 0.513556 0.356078 0.797644
O O5 0.500000 0.635812 0.500000
O O6 0.750774 0.609198 0.294992
O O7 0.679392 0.726523 0.311361
O O8 0.090468 0.500000 0.168272
O O9 0.999870 0.381206 0.234211
O O10 0.187678 0.427315 0.938650
O O11 0.260110 0.403869 0.035238
O O12 0.642689 0.000000 0.831340
O O13 0.500000 0.103767 0.000000
O O14 0.464680 0.795164 0.669098
O O15 0.670805 0.307073 0.139596
O O16 0.805077 0.206956 0.067303
#
# Coordination Sequence:
#
# PCOD8082107 Si02
#       7
#     8   8   8   8   8   8   8
#     4  10  19  30  51  71 100 125 162 208 258 279
#     4  12  19  31  47  76  93 127 166 207 238 291
#     4  10  18  31  49  67  92 133 174 199 229 291
#     4  10  21  33  44  63 100 139 167 196 233 282
#     4   9  18  32  48  70  97 131 157 205 254 297
#     4   9  17  30  50  65  94 125 160 199 251 280
#     4   9  16  31  47  66  88 126 159 201 240 291
#
# _framework density 19.098217000000002
#
# number of rings (size 3 to 8) (size 9 to 14) (size 15 to 20)
#    0.000    2.143    4.286    1.714    0.000    0.286 
#    0.000    1.429    0.000    0.000    0.000    8.000 
#    0.000    0.000    0.000   47.143    0.000    0.000 
#
# Total GULP energy -346899.473521 kJ/mol
# GULP energy per Si atom -12389.266911 kJ/mol
# Density = 1.905475 g / cm^3
# Si number density = 19.098217 Si / 1000 Ang^3
#
#
#
# Elastic Constant Matrix: (Units=GPa)
#
#
# Indices 1 2 3 4 5 6 
#
# 1 34.4264 15.6246 31.6426 -0.0015 -14.5144 -0.0014
# 2 15.6246 93.8785 51.2593 -0.0006 -9.2291 -0.0011
# 3 31.6426 51.2593 139.6271 -0.0021 -32.1600 -0.0039
# 4 -0.0015 -0.0006 -0.0021 22.3214 0.0010 -15.2462
# 5 -14.5144 -9.2291 -32.1600 0.0010 29.0386 0.0017
# 6 -0.0014 -0.0011 -0.0039 -15.2462 0.0017 -3.0722
#
#
#
# Elastic Compliance Matrix: (Units=1/GPa)
#
#
# Indices 1 2 3 4 5 6 
#
# 1 0.040776 -0.002656 -0.005055 0.000000 0.013938 -0.000003
# 2 -0.002656 0.013550 -0.004949 0.000000 -0.002502 0.000000
# 3 -0.005055 -0.004949 0.012324 -0.000001 0.009549 -0.000002
# 4 0.000000 0.000000 -0.000001 0.010206 0.000002 -0.050648
# 5 0.013938 -0.002502 0.009549 0.000002 0.051184 0.000003
# 6 -0.000003 0.000000 -0.000002 -0.050648 0.000003 -0.074152
#
#
# Mechanical properties :
#
#
# Convention : Reuss Voigt Hill
#
# Bulk Modulus (GPa) = 24.19569 51.66501 37.93035
# Shear Modulus (GPa) = 53.77261 20.95126 37.36194
#
# Velocity S-wave (km/s) = 5.31196 3.31573 4.42781
# Velocity P-wave (km/s) = 7.09360 6.46295 6.78561
#
# Compressibility (1/GPa) = 0.04132967
#
# Stress axis : x y z
#
# Youngs Moduli (GPa) = 24.52428 73.79895 81.14434
#
# Poissons Ratio (x) = 0.19601 0.41021
# Poissons Ratio (y) = 0.06514 0.40157
# Poissons Ratio (z) = 0.12398 0.36522
#
# Static dielectric constant tensor:
#      x y z
#    x 3.173130 0.000000 -0.384060 
#    y 0.000000 3.422960 0.000000 
#    z -0.384060 0.000000 3.901510 
# 
# 
# High freq. dielectric constant tensor:
#      x y z
#    x 1.701160 0.000000 -0.030050 
#    y 0.000000 1.711070 0.000000 
#    z -0.030050 0.000000 1.755450 
# 
# From -- ./inp_files/284987.got.cif
#   From: 2010.06.25/outbox.cif.g09.slc.cpg/sg12_143_cif.got.tgz:284987.got - 2010.06.28 00:19:55.
