data_PCOD8082874
_publ_section_title
;
Structure prediction by ZEFSAII (Michael W. Deem and Ramdas Pophale) SiO2 
 PCOD8082874
Probable space group: C 2/M
;
_chemical_formula_sum "Si O2"
_cell_formula_units_Z 56
_cell_length_a 15.768188
_cell_length_b 21.489341
_cell_length_c 15.403406
_cell_angle_alpha 90.000000
_cell_angle_beta 35.985641
_cell_angle_gamma 90.000000
_cell_volume 3066.835563
_symmetry_space_group_name_H-M "C 2/M"
_symmetry_group_IT_number 12
_symmetry_cell_setting 'monoclinic'
loop_
_space_group_symop_operation_xyz
x,y,z
-x,y,-z
-x,-y,-z
x,-y,z
1/2+x,1/2+y,z
1/2-x,1/2+y,-z
1/2-x,1/2-y,-z
1/2+x,1/2-y,z
loop_
_atom_site_type_symbol
_atom_site_label
_atom_site_fract_x
_atom_site_fract_y
_atom_site_fract_z
Si Si1 0.553051 0.000000 0.809683
Si Si2 0.577000 0.302731 0.635645
Si Si3 0.559546 0.886751 0.192346
Si Si4 0.203225 0.121774 0.132977
Si Si5 0.168127 0.269688 0.865325
Si Si6 0.839405 0.297424 0.314942
Si Si7 0.935815 0.310275 0.648771
Si Si8 0.220339 0.500000 0.839364
O O1 0.546045 0.942393 0.749308
O O2 0.693646 0.000000 0.756606
O O3 0.424760 0.000000 0.984973
O O4 0.459067 0.355585 0.750690
O O5 0.717181 0.332394 0.473265
O O6 0.635192 0.274701 0.678097
O O7 0.523328 0.247156 0.617199
O O8 0.496236 0.826943 0.196257
O O9 0.554849 0.873193 0.299924
O O10 0.721876 0.897611 0.020682
O O11 0.299105 0.178672 0.089671
O O12 0.193839 0.062964 0.206053
O O13 0.214124 0.302669 0.738315
O O14 0.266295 0.208090 0.792381
O O15 0.000000 0.250135 0.000000
O O16 0.000000 0.324750 0.500000
#
# Coordination Sequence:
#
# PCOD8082874 Si02
#       8
#     4   8   8   8   8   8   8   4
#     4   9  18  34  52  79  99 134 171 214 253 298
#     4   9  20  32  49  71 108 139 167 198 260 309
#     4  10  20  33  53  73 102 131 173 213 252 301
#     4  10  20  32  50  78 102 136 170 214 250 301
#     4  11  20  29  50  77 103 128 169 207 254 305
#     4  10  18  32  49  74 103 140 163 205 255 309
#     4  10  20  34  48  73 103 133 164 208 259 306
#     4   9  18  32  55  75 106 133 173 209 253 297
#
# _framework density 18.259864
#
# number of rings (size 3 to 8) (size 9 to 14) (size 15 to 20)
#    0.000    2.143    2.857    0.857    4.000    1.714 
#    0.000    1.071    0.000    1.714    0.000    0.500 
#    0.000    0.000    0.000    0.000    0.000    0.000 
#
# Total GULP energy -346902.150125 kJ/mol
# GULP energy per Si atom -12389.362504 kJ/mol
# Density = 1.821830 g / cm^3
# Si number density = 18.259864 Si / 1000 Ang^3
#
#
#
# Elastic Constant Matrix: (Units=GPa)
#
#
# Indices 1 2 3 4 5 6 
#
# 1 59.4605 25.3424 30.0859 -0.0047 5.8558 0.0020
# 2 25.3424 62.2816 38.7591 -0.0037 5.7201 0.0022
# 3 30.0859 38.7591 77.4877 -0.0139 -2.8548 0.0120
# 4 -0.0047 -0.0037 -0.0139 14.4261 0.0042 1.2369
# 5 5.8558 5.7201 -2.8548 0.0042 37.0473 -0.0045
# 6 0.0020 0.0022 0.0120 1.2369 -0.0045 26.2543
#
#
#
# Elastic Compliance Matrix: (Units=1/GPa)
#
#
# Indices 1 2 3 4 5 6 
#
# 1 0.022453 -0.004839 -0.006419 0.000001 -0.003296 0.000001
# 2 -0.004839 0.025133 -0.010838 -0.000005 -0.003951 0.000003
# 3 -0.006419 -0.010838 0.020977 0.000015 0.004304 -0.000008
# 4 0.000001 -0.000005 0.000015 0.069600 -0.000007 -0.003279
# 5 -0.003296 -0.003951 0.004304 -0.000007 0.028455 0.000004
# 6 0.000001 0.000003 -0.000008 -0.003279 0.000004 0.038243
#
#
# Mechanical properties :
#
#
# Convention : Reuss Voigt Hill
#
# Bulk Modulus (GPa) = 41.03181 43.06717 42.04949
# Shear Modulus (GPa) = 19.44196 22.54838 20.99517
#
# Velocity S-wave (km/s) = 3.26657 3.51787 3.39455
# Velocity P-wave (km/s) = 6.06194 6.33541 6.20019
#
# Compressibility (1/GPa) = 0.02437133
#
# Stress axis : x y z
#
# Youngs Moduli (GPa) = 44.53838 39.78893 47.67078
#
# Poissons Ratio (x) = 0.19253 0.30598
# Poissons Ratio (y) = 0.21551 0.51666
# Poissons Ratio (z) = 0.28588 0.43124
#
# Static dielectric constant tensor:
#      x y z
#    x 3.479980 -0.000010 0.012900 
#    y -0.000010 3.165880 0.000030 
#    z 0.012900 0.000030 3.333080 
# 
# 
# High freq. dielectric constant tensor:
#      x y z
#    x 1.702170 0.000000 -0.000370 
#    y 0.000000 1.665340 0.000000 
#    z -0.000370 0.000000 1.707890 
# 
# From -- ./inp_files/218266.got.cif
#   From: 2010.06.25/outbox.cif.g09.slc.cpg/sg12_110_cif.got.tgz:218266.got - 2010.06.28 00:19:55.
