data_PCOD8082445
_publ_section_title
;
Structure prediction by ZEFSAII (Michael W. Deem and Ramdas Pophale) SiO2 
 PCOD8082445
Probable space group: C 2/M
;
_chemical_formula_sum "Si O2"
_cell_formula_units_Z 56
_cell_length_a 21.114926
_cell_length_b 14.176176
_cell_length_c 12.345402
_cell_angle_alpha 90.000000
_cell_angle_beta 132.919339
_cell_angle_gamma 90.000000
_cell_volume 2706.142712
_symmetry_space_group_name_H-M "C 2/M"
_symmetry_group_IT_number 12
_symmetry_cell_setting 'monoclinic'
loop_
_space_group_symop_operation_xyz
x,y,z
-x,y,-z
-x,-y,-z
x,-y,z
1/2+x,1/2+y,z
1/2-x,1/2+y,-z
1/2-x,1/2-y,-z
1/2+x,1/2-y,z
loop_
_atom_site_type_symbol
_atom_site_label
_atom_site_fract_x
_atom_site_fract_y
_atom_site_fract_z
Si Si1 0.019760 0.228798 0.719774
Si Si2 0.733654 0.393037 0.482936
Si Si3 0.375940 0.236523 0.714994
Si Si4 0.377850 0.607333 0.437567
Si Si5 0.596089 0.100600 0.072870
Si Si6 0.174897 0.110124 0.865482
Si Si7 0.367838 0.106666 0.134184
O O1 0.098075 0.158790 0.843488
O O2 0.067538 0.322626 0.725665
O O3 0.971175 0.255147 0.774877
O O4 0.956193 0.178908 0.558788
O O5 0.746369 0.500000 0.457931
O O6 0.664379 0.341259 0.324826
O O7 0.822598 0.334956 0.574635
O O8 0.698935 0.385906 0.565211
O O9 0.368724 0.192793 0.825857
O O10 0.415041 0.500000 0.478038
O O11 0.336180 0.637017 0.274596
O O12 0.644734 0.000000 0.159493
O O13 0.500000 0.086672 0.000000
O O14 0.601107 0.114576 0.952269
O O15 0.165774 0.000000 0.870947
O O16 0.268160 0.141861 0.021253
O O17 0.377577 0.000000 0.190607
#
# Coordination Sequence:
#
# PCOD8082445 Si02
#       7
#     8   8   8   8   8   8   8
#     4  11  20  31  50  79 110 137 168 212 261 310
#     4   9  18  32  51  76 107 136 164 209 262 311
#     4  10  19  30  49  77 106 135 169 208 257 315
#     4   9  18  34  57  82 104 131 173 218 262 308
#     4  10  18  31  52  76 103 129 162 212 259 300
#     4  10  20  35  55  78 105 136 175 219 261 305
#     4  10  21  35  53  79 107 139 174 213 262 311
#
# _framework density 20.693660000000001
#
# number of rings (size 3 to 8) (size 9 to 14) (size 15 to 20)
#    0.000    2.143    1.429    2.571    0.000    4.571 
#    0.000    0.000    0.000    3.857    0.000   10.000 
#    0.000    0.000    0.000    0.000    0.000    0.000 
#
# Total GULP energy -346921.486972 kJ/mol
# GULP energy per Si atom -12390.053106 kJ/mol
# Density = 2.064656 g / cm^3
# Si number density = 20.693660 Si / 1000 Ang^3
#
#
#
# Elastic Constant Matrix: (Units=GPa)
#
#
# Indices 1 2 3 4 5 6 
#
# 1 64.3348 23.3966 12.3803 0.0000 21.3496 0.0000
# 2 23.3966 113.2589 37.7047 0.0000 6.9381 0.0000
# 3 12.3803 37.7047 53.8316 0.0000 15.3056 0.0000
# 4 0.0000 0.0000 0.0000 42.7755 0.0000 6.8263
# 5 21.3496 6.9381 15.3056 0.0000 27.6904 0.0000
# 6 0.0000 0.0000 0.0000 6.8263 0.0000 26.6508
#
#
#
# Elastic Compliance Matrix: (Units=1/GPa)
#
#
# Indices 1 2 3 4 5 6 
#
# 1 0.022589 -0.004614 0.003156 0.000000 -0.018005 0.000000
# 2 -0.004614 0.012538 -0.009301 0.000000 0.005557 0.000000
# 3 0.003156 -0.009301 0.028943 0.000000 -0.016101 0.000000
# 4 0.000000 0.000000 0.000000 0.024374 0.000000 -0.006243
# 5 -0.018005 0.005557 -0.016101 0.000000 0.057503 0.000000
# 6 0.000000 0.000000 0.000000 -0.006243 0.000000 0.039121
#
#
# Mechanical properties :
#
#
# Convention : Reuss Voigt Hill
#
# Bulk Modulus (GPa) = 23.50043 42.04316 32.77180
# Shear Modulus (GPa) = 22.64785 29.95293 26.30039
#
# Velocity S-wave (km/s) = 3.31181 3.80866 3.56889
# Velocity P-wave (km/s) = 5.09952 6.30097 5.73181
#
# Compressibility (1/GPa) = 0.04255242
#
# Stress axis : x y z
#
# Youngs Moduli (GPa) = 44.26865 79.75489 34.55068
#
# Poissons Ratio (x) = 0.36799 -0.10904
# Poissons Ratio (y) = 0.20426 0.32135
# Poissons Ratio (z) = -0.13970 0.74179
#
# Static dielectric constant tensor:
#      x y z
#    x 12.042670 0.000000 -1.172780 
#    y 0.000000 4.189300 0.000000 
#    z -1.172780 0.000000 3.902810 
# 
# 
# High freq. dielectric constant tensor:
#      x y z
#    x 1.793860 0.000000 0.039370 
#    y 0.000000 1.822650 0.000000 
#    z 0.039370 0.000000 1.784500 
# 
# From -- ./inp_files/240456.got.cif
#   From: 2010.06.25/outbox.cif.g09.slc.cpg/sg12_121_cif.got.tgz:240456.got - 2010.06.28 00:19:55.
