data_PCOD8082776
_publ_section_title
;
Structure prediction by ZEFSAII (Michael W. Deem and Ramdas Pophale) SiO2 
 PCOD8082776
Probable space group: C 2/M
;
_chemical_formula_sum "Si O2"
_cell_formula_units_Z 48
_cell_length_a 15.569063
_cell_length_b 27.517053
_cell_length_c 10.295402
_cell_angle_alpha 90.000000
_cell_angle_beta 150.994301
_cell_angle_gamma 90.000000
_cell_volume 2138.734406
_symmetry_space_group_name_H-M "C 2/M"
_symmetry_group_IT_number 12
_symmetry_cell_setting 'monoclinic'
loop_
_space_group_symop_operation_xyz
x,y,z
-x,y,-z
-x,-y,-z
x,-y,z
1/2+x,1/2+y,z
1/2-x,1/2+y,-z
1/2-x,1/2-y,-z
1/2+x,1/2-y,z
loop_
_atom_site_type_symbol
_atom_site_label
_atom_site_fract_x
_atom_site_fract_y
_atom_site_fract_z
Si Si1 0.710310 0.598943 0.777996
Si Si2 0.792342 0.946254 0.490602
Si Si3 0.855889 0.295665 0.924760
Si Si4 0.211018 0.879217 0.282818
Si Si5 0.851338 0.272220 0.512928
Si Si6 0.214025 0.054612 0.051271
O O1 0.500000 0.602259 0.500000
O O2 0.777427 0.567755 0.744235
O O3 0.783797 0.573234 0.004566
O O4 0.788257 0.652007 0.872087
O O5 0.719738 0.907576 0.498313
O O6 0.003273 0.945861 0.773502
O O7 0.722283 0.000000 0.433085
O O8 0.943227 0.273298 0.171685
O O9 0.687414 0.262593 0.661093
O O10 0.000000 0.298255 0.000000
O O11 0.288961 0.825691 0.390624
O O12 0.283933 0.908774 0.254732
O O13 0.000000 0.875260 0.000000
O O14 0.750000 0.250000 0.500000
O O15 0.285554 0.000000 0.171893
#
# Coordination Sequence:
#
# PCOD8082776 Si02
#       6
#     8   8   8   8   8   8
#     4  10  20  35  57  85 118 152 190 239 293 342
#     4   9  16  28  52  84 113 147 195 242 279 332
#     4  10  21  38  61  85 114 152 197 241 289 353
#     4  10  18  31  55  84 114 150 196 243 285 338
#     4  10  20  36  59  84 113 150 195 243 294 346
#     4   9  18  32  52  81 116 152 190 235 286 339
#
# _framework density 22.443179000000001
#
# number of rings (size 3 to 8) (size 9 to 14) (size 15 to 20)
#    0.000    2.333    0.000    4.500    0.000    6.667 
#    0.000    4.167    0.000   12.000    0.000    0.000 
#    0.000    0.000    0.000    0.000    0.000    0.000 
#
# Total GULP energy -297535.106984 kJ/mol
# GULP energy per Si atom -12397.296124 kJ/mol
# Density = 2.239210 g / cm^3
# Si number density = 22.443179 Si / 1000 Ang^3
#
#
#
# Elastic Constant Matrix: (Units=GPa)
#
#
# Indices 1 2 3 4 5 6 
#
# 1 50.2465 26.2461 32.1350 0.0000 -31.1760 0.0000
# 2 26.2461 159.8042 51.7747 0.0000 -19.9783 0.0000
# 3 32.1350 51.7747 95.1755 0.0000 -36.7006 0.0000
# 4 0.0000 0.0000 0.0000 38.6141 0.0000 -5.7208
# 5 -31.1760 -19.9783 -36.7006 0.0000 27.1286 0.0000
# 6 0.0000 0.0000 0.0000 -5.7208 0.0000 35.3082
#
#
#
# Elastic Compliance Matrix: (Units=1/GPa)
#
#
# Indices 1 2 3 4 5 6 
#
# 1 0.086032 -0.005716 0.022082 0.000000 0.124532 0.000000
# 2 -0.005716 0.007976 -0.005596 0.000000 -0.008265 0.000000
# 3 0.022082 -0.005596 0.029878 0.000000 0.061676 0.000000
# 4 0.000000 0.000000 0.000000 0.026534 0.000000 0.004299
# 5 0.124532 -0.008265 0.061676 0.000000 0.257323 0.000000
# 6 0.000000 0.000000 0.000000 0.004299 0.000000 0.029019
#
#
# Mechanical properties :
#
#
# Convention : Reuss Voigt Hill
#
# Bulk Modulus (GPa) = 6.87629 58.39310 32.63470
# Shear Modulus (GPa) = 10.78287 33.21487 21.99887
#
# Velocity S-wave (km/s) = 2.19430 3.85119 3.13422
# Velocity P-wave (km/s) = 3.08066 6.77128 5.26026
#
# Compressibility (1/GPa) = 0.14542718
#
# Stress axis : x y z
#
# Youngs Moduli (GPa) = 11.62353 125.37237 33.46912
#
# Poissons Ratio (x) = 0.71657 -0.73907
# Poissons Ratio (y) = 0.06643 0.18731
# Poissons Ratio (z) = -0.25667 0.70164
#
# Static dielectric constant tensor:
#      x y z
#    x 3.830030 0.000000 -0.382790 
#    y 0.000000 4.175220 0.000000 
#    z -0.382790 0.000000 4.454360 
# 
# 
# High freq. dielectric constant tensor:
#      x y z
#    x 1.853310 0.000000 -0.022910 
#    y 0.000000 1.898400 0.000000 
#    z -0.022910 0.000000 1.887080 
# 
# From -- ./inp_files/52408.got.cif
#   From: 2010.06.25/outbox.cif.g09.slc.cpg/sg12_27_cif.got.tgz:52408.got - 2010.06.28 00:19:55.
