data_PCOD8082548
_publ_section_title
;
Structure prediction by ZEFSAII (Michael W. Deem and Ramdas Pophale) SiO2 
 PCOD8082548
Probable space group: C 2/M
;
_chemical_formula_sum "Si O2"
_cell_formula_units_Z 40
_cell_length_a 20.708508
_cell_length_b 9.155818
_cell_length_c 19.414260
_cell_angle_alpha 90.000000
_cell_angle_beta 36.535100
_cell_angle_gamma 90.000000
_cell_volume 2191.359952
_symmetry_space_group_name_H-M "C 2/M"
_symmetry_group_IT_number 12
_symmetry_cell_setting 'monoclinic'
loop_
_space_group_symop_operation_xyz
x,y,z
-x,y,-z
-x,-y,-z
x,-y,z
1/2+x,1/2+y,z
1/2-x,1/2+y,-z
1/2-x,1/2-y,-z
1/2+x,1/2-y,z
loop_
_atom_site_type_symbol
_atom_site_label
_atom_site_fract_x
_atom_site_fract_y
_atom_site_fract_z
Si Si1 0.768277 0.826776 0.647077
Si Si2 0.320632 0.170790 0.996156
Si Si3 0.456906 0.673585 0.384081
Si Si4 0.442194 0.828205 0.252811
Si Si5 0.811708 0.172916 0.760894
O O1 0.866329 0.771920 0.515270
O O2 0.654036 0.773329 0.714245
O O3 0.783115 0.759355 0.710816
O O4 0.770255 0.000000 0.649778
O O5 0.446151 0.213174 0.880946
O O6 0.300985 0.000000 0.002507
O O7 0.250000 0.250000 0.000000
O O8 0.281335 0.220691 0.105526
O O9 0.456244 0.500000 0.375726
O O10 0.430575 0.744312 0.333892
O O11 0.572349 0.732063 0.312442
O O12 0.434210 0.000000 0.274688
O O13 0.818612 0.000000 0.748581
#
# Coordination Sequence:
#
# PCOD8082548 Si02
#       5
#     8   8   8   8   8
#     4   9  18  31  48  74 102 126 160 203 242 280
#     4  10  19  32  51  73  96 125 161 200 241 287
#     4  10  18  31  53  74  96 130 166 198 233 283
#     4  10  20  32  49  74 102 129 157 198 246 287
#     4   9  17  30  50  74  96 125 165 203 237 278
#
# _framework density 18.253505000000001
#
# number of rings (size 3 to 8) (size 9 to 14) (size 15 to 20)
#    0.000    2.400    2.000    1.200    0.000    3.200 
#    0.000    4.000    0.000    6.000    0.000    2.800 
#    0.000    0.000    0.000    0.000    0.000    0.000 
#
# Total GULP energy -247999.139347 kJ/mol
# GULP energy per Si atom -12399.956967 kJ/mol
# Density = 1.821196 g / cm^3
# Si number density = 18.253505 Si / 1000 Ang^3
#
#
#
# Elastic Constant Matrix: (Units=GPa)
#
#
# Indices 1 2 3 4 5 6 
#
# 1 148.3328 17.8444 75.0496 0.0000 14.3877 0.0000
# 2 17.8444 15.1644 20.0986 0.0004 4.2698 -0.0003
# 3 75.0496 20.0986 159.7204 -0.0001 14.9057 0.0000
# 4 0.0000 0.0004 -0.0001 18.3357 -0.0001 3.8724
# 5 14.3877 4.2698 14.9057 -0.0001 29.7925 0.0001
# 6 0.0000 -0.0003 0.0000 3.8724 0.0001 23.0491
#
#
#
# Elastic Compliance Matrix: (Units=1/GPa)
#
#
# Indices 1 2 3 4 5 6 
#
# 1 0.009409 -0.005886 -0.003498 0.000000 -0.001950 0.000000
# 2 -0.005886 0.084110 -0.007300 -0.000002 -0.005560 0.000002
# 3 -0.003498 -0.007300 0.008988 0.000000 -0.001761 0.000000
# 4 0.000000 -0.000002 0.000000 0.056545 0.000000 -0.009500
# 5 -0.001950 -0.005560 -0.001761 0.000000 0.036185 0.000000
# 6 0.000000 0.000002 0.000000 -0.009500 0.000000 0.044982
#
#
# Mechanical properties :
#
#
# Convention : Reuss Voigt Hill
#
# Bulk Modulus (GPa) = 14.46363 61.02252 37.74308
# Shear Modulus (GPa) = 16.85590 28.25048 22.55319
#
# Velocity S-wave (km/s) = 3.04210 3.93832 3.51886
# Velocity P-wave (km/s) = 4.50335 7.36095 6.10179
#
# Compressibility (1/GPa) = 0.06913892
#
# Stress axis : x y z
#
# Youngs Moduli (GPa) = 106.28314 11.88918 111.26351
#
# Poissons Ratio (x) = 0.06998 0.38924
# Poissons Ratio (y) = 0.62557 0.81218
# Poissons Ratio (z) = 0.37182 0.08679
#
# Static dielectric constant tensor:
#      x y z
#    x 3.768210 0.000000 0.068810 
#    y 0.000000 2.927320 0.000000 
#    z 0.068810 0.000000 3.746270 
# 
# 
# High freq. dielectric constant tensor:
#      x y z
#    x 1.717070 0.000000 -0.001500 
#    y 0.000000 1.655370 0.000000 
#    z -0.001500 0.000000 1.727370 
# 
# From -- ./inp_files/140285.got.cif
#   From: 2010.06.25/outbox.cif.g09.slc.cpg/sg12_71_cif.got.tgz:140285.got - 2010.06.28 00:19:55.
