data_PCOD8082956
_publ_section_title
;
Structure prediction by ZEFSAII (Michael W. Deem and Ramdas Pophale) SiO2 
 PCOD8082956
Probable space group: C 2/M
;
_chemical_formula_sum "Si O2"
_cell_formula_units_Z 64
_cell_length_a 20.254348
_cell_length_b 8.875730
_cell_length_c 24.297727
_cell_angle_alpha 90.000000
_cell_angle_beta 51.277969
_cell_angle_gamma 90.000000
_cell_volume 3407.911765
_symmetry_space_group_name_H-M "C 2/M"
_symmetry_group_IT_number 12
_symmetry_cell_setting 'monoclinic'
loop_
_space_group_symop_operation_xyz
x,y,z
-x,y,-z
-x,-y,-z
x,-y,z
1/2+x,1/2+y,z
1/2-x,1/2+y,-z
1/2-x,1/2-y,-z
1/2+x,1/2-y,z
loop_
_atom_site_type_symbol
_atom_site_label
_atom_site_fract_x
_atom_site_fract_y
_atom_site_fract_z
Si Si1 0.587936 0.678983 0.560001
Si Si2 0.396156 0.679163 0.659595
Si Si3 0.489974 0.179036 0.918553
Si Si4 0.866922 0.320984 0.076220
Si Si5 0.306121 0.678340 0.598574
Si Si6 0.874986 0.677617 0.346165
Si Si7 0.965761 0.320788 0.808203
Si Si8 0.822907 0.179538 0.813147
O O1 0.591108 0.500000 0.561589
O O2 0.491984 0.737978 0.604839
O O3 0.639937 0.741945 0.480812
O O4 0.630594 0.743469 0.592257
O O5 0.393655 0.500000 0.659971
O O6 0.342729 0.745894 0.636340
O O7 0.356042 0.739248 0.737109
O O8 0.577249 0.236981 0.901014
O O9 0.481694 0.242849 0.861291
O O10 0.491473 0.000000 0.916096
O O11 0.410275 0.234301 0.996796
O O12 0.864302 0.500000 0.079108
O O13 0.772062 0.257271 0.129567
O O14 0.316143 0.500000 0.594228
O O15 0.208249 0.725432 0.644512
O O16 0.877811 0.500000 0.354110
O O17 0.956572 0.734455 0.270101
O O18 0.957888 0.500000 0.811898
O O19 0.879294 0.249014 0.831943
O O20 0.827176 0.000000 0.814701
#
# Coordination Sequence:
#
# PCOD8082956 Si02
#       8
#     8   8   8   8   8   8   8   8
#     4  10  18  32  52  70  93 124 155 194 241 285
#     4   9  17  29  47  72  96 118 153 199 239 274
#     4   8  15  29  48  73 100 125 155 194 237 274
#     4   8  15  28  49  75  99 121 155 201 236 268
#     4   9  18  30  48  72  93 119 160 201 236 277
#     4  10  20  32  47  70  97 125 157 195 235 280
#     4  10  20  32  48  69  98 131 158 189 234 284
#     4  10  19  31  50  74  97 124 158 197 237 275
#
# _framework density 18.77983
#
# number of rings (size 3 to 8) (size 9 to 14) (size 15 to 20)
#    0.000    2.750    1.250    1.500    1.750    2.000 
#    0.000    0.000    0.000    4.500    0.000    1.750 
#    0.000    0.000    0.000    0.000    0.000    0.000 
#
# Total GULP energy -396744.018163 kJ/mol
# GULP energy per Si atom -12398.250568 kJ/mol
# Density = 1.873709 g / cm^3
# Si number density = 18.779830 Si / 1000 Ang^3
#
#
#
# Elastic Constant Matrix: (Units=GPa)
#
#
# Indices 1 2 3 4 5 6 
#
# 1 152.5489 15.6474 74.7385 0.0001 0.8808 0.0004
# 2 15.6474 8.9109 11.6393 0.0001 0.2426 0.0007
# 3 74.7385 11.6393 124.6266 0.0000 2.9744 0.0001
# 4 0.0001 0.0001 0.0000 11.7101 0.0000 3.2310
# 5 0.8808 0.2426 2.9744 0.0000 45.4519 0.0001
# 6 0.0004 0.0007 0.0001 3.2310 0.0001 22.9185
#
#
#
# Elastic Compliance Matrix: (Units=1/GPa)
#
#
# Indices 1 2 3 4 5 6 
#
# 1 0.010193 -0.011291 -0.005063 0.000000 0.000194 0.000000
# 2 -0.011291 0.140321 -0.006331 0.000000 -0.000116 -0.000004
# 3 -0.005063 -0.006331 0.011666 0.000000 -0.000632 0.000000
# 4 0.000000 0.000000 0.000000 0.088852 0.000000 -0.012526
# 5 0.000194 -0.000116 -0.000632 0.000000 0.022039 0.000000
# 6 0.000000 -0.000004 0.000000 -0.012526 0.000000 0.045399
#
#
# Mechanical properties :
#
#
# Convention : Reuss Voigt Hill
#
# Bulk Modulus (GPa) = 8.56086 54.45967 31.51026
# Shear Modulus (GPa) = 12.41383 28.28686 20.35035
#
# Velocity S-wave (km/s) = 2.57382 3.88524 3.29542
# Velocity P-wave (km/s) = 3.66076 7.01347 5.59419
#
# Compressibility (1/GPa) = 0.11681070
#
# Stress axis : x y z
#
# Youngs Moduli (GPa) = 98.11013 7.12652 85.71596
#
# Poissons Ratio (x) = 0.08046 0.43395
# Poissons Ratio (y) = 1.10772 0.54270
# Poissons Ratio (z) = 0.49670 0.04512
#
# Static dielectric constant tensor:
#      x y z
#    x 3.697190 0.000000 -0.008060 
#    y 0.000000 2.821610 0.000000 
#    z -0.008060 0.000000 3.730500 
# 
# 
# High freq. dielectric constant tensor:
#      x y z
#    x 1.744900 0.000000 -0.000430 
#    y 0.000000 1.663920 0.000000 
#    z -0.000430 0.000000 1.740430 
# 
# From -- ./inp_files/315083.got.cif
#   From: 2010.06.25/outbox.cif.g09.slc.cpg/sg12_158_cif.got.tgz:315083.got - 2010.06.28 00:19:55.
