data_PCOD8082328
_publ_section_title
;
Structure prediction by ZEFSAII (Michael W. Deem and Ramdas Pophale) SiO2 
 PCOD8082328
Probable space group: C 2/M
;
_chemical_formula_sum "Si O2"
_cell_formula_units_Z 52
_cell_length_a 14.175636
_cell_length_b 23.212945
_cell_length_c 10.830943
_cell_angle_alpha 90.000000
_cell_angle_beta 56.824584
_cell_angle_gamma 90.000000
_cell_volume 2983.074491
_symmetry_space_group_name_H-M "C 2/M"
_symmetry_group_IT_number 12
_symmetry_cell_setting 'monoclinic'
loop_
_space_group_symop_operation_xyz
x,y,z
-x,y,-z
-x,-y,-z
x,-y,z
1/2+x,1/2+y,z
1/2-x,1/2+y,-z
1/2-x,1/2-y,-z
1/2+x,1/2-y,z
loop_
_atom_site_type_symbol
_atom_site_label
_atom_site_fract_x
_atom_site_fract_y
_atom_site_fract_z
Si Si1 0.250442 0.327092 0.583764
Si Si2 0.835016 0.228749 0.771053
Si Si3 0.500000 0.682947 0.000000
Si Si4 0.773038 0.161416 0.054884
Si Si5 0.623143 0.065821 0.061662
Si Si6 0.636413 0.065880 0.766083
Si Si7 0.421764 0.268978 0.305758
O O1 0.308478 0.298637 0.659788
O O2 0.219948 0.393805 0.627509
O O3 0.339235 0.321266 0.407577
O O4 0.137070 0.292541 0.632254
O O5 0.784644 0.293230 0.811151
O O6 0.968644 0.231086 0.688180
O O7 0.778523 0.189601 0.916259
O O8 0.397687 0.644668 0.017694
O O9 0.453241 0.724787 0.139776
O O10 0.698282 0.104130 0.099509
O O11 0.492334 0.081529 0.173535
O O12 0.644955 0.000000 0.083280
O O13 0.658531 0.076184 0.894824
O O14 0.663155 0.000000 0.711102
#
# Coordination Sequence:
#
# PCOD8082328 Si02
#       7
#     8   8   4   8   8   8   8
#     4  11  19  34  52  79 106 135 168 213 260 306
#     4  10  19  31  49  76 103 138 171 204 262 303
#     4  10  20  36  49  74 105 134 176 206 258 310
#     4  10  18  31  51  75 102 140 169 214 248 303
#     4   9  17  31  52  80 105 134 173 212 254 301
#     4   9  18  31  52  79 107 132 166 216 262 303
#     4  10  22  32  51  76 107 135 169 212 255 309
#
# _framework density 17.431678999999999
#
# number of rings (size 3 to 8) (size 9 to 14) (size 15 to 20)
#    0.000    2.154    3.077    2.308    0.000    1.231 
#    0.000    0.385    0.000    6.462    0.000    2.154 
#    0.000    0.000    0.000    0.000    0.000    0.000 
#
# Total GULP energy -322384.472184 kJ/mol
# GULP energy per Si atom -12399.402776 kJ/mol
# Density = 1.739200 g / cm^3
# Si number density = 17.431679 Si / 1000 Ang^3
#
#
#
# Elastic Constant Matrix: (Units=GPa)
#
#
# Indices 1 2 3 4 5 6 
#
# 1 78.8715 47.4622 17.6201 0.0000 -16.6642 0.0000
# 2 47.4622 100.2787 39.3582 0.0000 -11.0520 0.0000
# 3 17.6201 39.3582 86.9324 0.0000 -11.4202 0.0000
# 4 0.0000 0.0000 0.0000 23.4976 0.0000 -3.7088
# 5 -16.6642 -11.0520 -11.4202 0.0000 20.6689 0.0000
# 6 0.0000 0.0000 0.0000 -3.7088 0.0000 27.1894
#
#
#
# Elastic Compliance Matrix: (Units=1/GPa)
#
#
# Indices 1 2 3 4 5 6 
#
# 1 0.020284 -0.008823 0.001522 0.000000 0.012478 0.000000
# 2 -0.008823 0.016236 -0.005776 0.000000 -0.001623 0.000000
# 3 0.001522 -0.005776 0.014627 0.000000 0.006221 0.000000
# 4 0.000000 0.000000 0.000000 0.043494 0.000000 0.005933
# 5 0.012478 -0.001623 0.006221 0.000000 0.061011 0.000000
# 6 0.000000 0.000000 0.000000 0.005933 0.000000 0.037588
#
#
# Mechanical properties :
#
#
# Convention : Reuss Voigt Hill
#
# Bulk Modulus (GPa) = 40.00868 52.77373 46.39120
# Shear Modulus (GPa) = 21.95628 25.04732 23.50180
#
# Velocity S-wave (km/s) = 3.55288 3.79474 3.67580
# Velocity P-wave (km/s) = 6.31127 7.03849 6.68478
#
# Compressibility (1/GPa) = 0.02499458
#
# Stress axis : x y z
#
# Youngs Moduli (GPa) = 49.29881 61.59077 68.36769
#
# Poissons Ratio (x) = 0.54342 -0.10408
# Poissons Ratio (y) = 0.43496 0.39488
# Poissons Ratio (z) = -0.07505 0.35573
#
# Static dielectric constant tensor:
#      x y z
#    x 3.328570 0.000000 -0.121740 
#    y 0.000000 3.021230 0.000000 
#    z -0.121740 0.000000 3.202130 
# 
# 
# High freq. dielectric constant tensor:
#      x y z
#    x 1.682640 0.000000 -0.009350 
#    y 0.000000 1.646510 0.000000 
#    z -0.009350 0.000000 1.662570 
# 
# From -- ./inp_files/147548.got.cif
#   From: 2010.06.25/outbox.cif.g09.slc.cpg/sg12_74_cif.got.tgz:147548.got - 2010.06.28 00:19:55.
