data_PCOD8082908
_publ_section_title
;
Structure prediction by ZEFSAII (Michael W. Deem and Ramdas Pophale) SiO2 
 PCOD8082908
Probable space group: C 2/M
;
_chemical_formula_sum "Si O2"
_cell_formula_units_Z 44
_cell_length_a 13.453116
_cell_length_b 10.177909
_cell_length_c 19.188932
_cell_angle_alpha 90.000000
_cell_angle_beta 69.536099
_cell_angle_gamma 90.000000
_cell_volume 2461.626091
_symmetry_space_group_name_H-M "C 2/M"
_symmetry_group_IT_number 12
_symmetry_cell_setting 'monoclinic'
loop_
_space_group_symop_operation_xyz
x,y,z
-x,y,-z
-x,-y,-z
x,-y,z
1/2+x,1/2+y,z
1/2-x,1/2+y,-z
1/2-x,1/2-y,-z
1/2+x,1/2-y,z
loop_
_atom_site_type_symbol
_atom_site_label
_atom_site_fract_x
_atom_site_fract_y
_atom_site_fract_z
Si Si1 0.822654 0.850834 0.393314
Si Si2 0.895564 0.150438 0.222494
Si Si3 0.297124 0.650644 0.102236
Si Si4 0.000000 0.290738 0.000000
Si Si5 0.063483 0.353513 0.132876
Si Si6 0.602824 0.149673 0.518680
O O1 0.833008 0.823282 0.308958
O O2 0.701277 0.825603 0.443368
O O3 0.896583 0.748813 0.416441
O O4 0.857442 0.000000 0.403230
O O5 0.812841 0.177549 0.180600
O O6 0.993337 0.250738 0.193431
O O7 0.938335 0.000000 0.207941
O O8 0.296962 0.500000 0.083164
O O9 0.182624 0.706614 0.106795
O O10 0.393615 0.706700 0.034067
O O11 0.979729 0.373624 0.935231
O O12 0.059050 0.500000 0.168206
O O13 0.500000 0.183307 0.500000
O O14 0.601495 0.000000 0.547177
#
# Coordination Sequence:
#
# PCOD8082908 Si02
#       6
#     8   8   8   4   8   8
#     4   9  18  33  51  72 100 130 161 201 244 286
#     4   9  19  35  51  69  97 132 166 199 239 291
#     4   9  18  32  51  73  96 127 165 200 241 295
#     4  10  18  32  50  72  99 128 159 202 249 294
#     4  10  20  33  50  74 100 127 162 205 248 287
#     4   9  18  32  52  77 101 128 163 200 240 287
#
# _framework density 17.874364
#
# number of rings (size 3 to 8) (size 9 to 14) (size 15 to 20)
#    0.000    2.727    0.000    1.091    0.000    3.273 
#    0.000    8.182    0.000    0.000    0.000    0.000 
#    0.000    0.000    0.000    0.000    0.000    0.000 
#
# Total GULP energy -272703.747377 kJ/mol
# GULP energy per Si atom -12395.624881 kJ/mol
# Density = 1.783368 g / cm^3
# Si number density = 17.874364 Si / 1000 Ang^3
#
#
#
# Elastic Constant Matrix: (Units=GPa)
#
#
# Indices 1 2 3 4 5 6 
#
# 1 106.7144 45.7784 24.9536 0.0000 -7.3531 0.0000
# 2 45.7784 78.1196 40.5078 0.0000 0.3889 0.0000
# 3 24.9536 40.5078 85.1332 0.0000 4.5046 0.0000
# 4 0.0000 0.0000 0.0000 50.7827 0.0000 33.5702
# 5 -7.3531 0.3889 4.5046 0.0000 18.7172 0.0000
# 6 0.0000 0.0000 0.0000 33.5702 0.0000 65.5074
#
#
#
# Elastic Compliance Matrix: (Units=1/GPa)
#
#
# Indices 1 2 3 4 5 6 
#
# 1 0.013041 -0.007352 -0.000611 0.000000 0.005423 0.000000
# 2 -0.007352 0.021187 -0.007850 0.000000 -0.001439 0.000000
# 3 -0.000611 -0.007850 0.015867 0.000000 -0.003896 0.000000
# 4 0.000000 0.000000 0.000000 0.029780 0.000000 -0.015261
# 5 0.005423 -0.001439 -0.003896 0.000000 0.056525 0.000000
# 6 0.000000 0.000000 0.000000 -0.015261 0.000000 0.023086
#
#
# Mechanical properties :
#
#
# Convention : Reuss Voigt Hill
#
# Bulk Modulus (GPa) = 54.14714 54.71631 54.43173
# Shear Modulus (GPa) = 25.34602 37.58329 31.46466
#
# Velocity S-wave (km/s) = 3.76973 4.59043 4.20017
# Velocity P-wave (km/s) = 7.02188 7.66643 7.35122
#
# Compressibility (1/GPa) = 0.01846820
#
# Stress axis : x y z
#
# Youngs Moduli (GPa) = 76.67866 47.19861 63.02519
#
# Poissons Ratio (x) = 0.34702 0.03852
# Poissons Ratio (y) = 0.56377 0.49474
# Poissons Ratio (z) = 0.04686 0.37051
#
# Static dielectric constant tensor:
#      x y z
#    x 3.378310 0.000000 -0.020640 
#    y 0.000000 3.321210 0.000000 
#    z -0.020640 0.000000 3.252840 
# 
# 
# High freq. dielectric constant tensor:
#      x y z
#    x 1.691750 0.000000 0.000110 
#    y 0.000000 1.691130 0.000000 
#    z 0.000110 0.000000 1.685090 
# 
# From -- ./inp_files/262055.got.cif
#   From: 2010.06.25/outbox.cif.g09.slc.cpg/sg12_132_cif.got.tgz:262055.got - 2010.06.28 00:19:55.
