data_PCOD8082747
_publ_section_title
;
Structure prediction by ZEFSAII (Michael W. Deem and Ramdas Pophale) SiO2 
 PCOD8082747
Probable space group: C 2/M
;
_chemical_formula_sum "Si O2"
_cell_formula_units_Z 64
_cell_length_a 22.638124
_cell_length_b 18.475922
_cell_length_c 17.086943
_cell_angle_alpha 90.000000
_cell_angle_beta 30.507741
_cell_angle_gamma 90.000000
_cell_volume 3628.101230
_symmetry_space_group_name_H-M "C 2/M"
_symmetry_group_IT_number 12
_symmetry_cell_setting 'monoclinic'
loop_
_space_group_symop_operation_xyz
x,y,z
-x,y,-z
-x,-y,-z
x,-y,z
1/2+x,1/2+y,z
1/2-x,1/2+y,-z
1/2-x,1/2-y,-z
1/2+x,1/2-y,z
loop_
_atom_site_type_symbol
_atom_site_label
_atom_site_fract_x
_atom_site_fract_y
_atom_site_fract_z
Si Si1 0.869418 0.084244 0.835093
Si Si2 0.493151 0.224620 0.156945
Si Si3 0.111766 0.159080 0.914645
Si Si4 0.294924 0.794084 0.270586
Si Si5 0.557338 0.704451 0.629728
Si Si6 0.417880 0.786135 0.666502
Si Si7 0.270180 0.917504 0.848756
Si Si8 0.773148 0.332108 0.125204
O O1 0.801380 0.105997 0.833010
O O2 0.988941 0.128446 0.707519
O O3 0.901750 0.000000 0.793346
O O4 0.791154 0.102404 0.999497
O O5 0.404452 0.183582 0.200011
O O6 0.422629 0.261411 0.307858
O O7 0.562690 0.287023 0.034519
O O8 0.599026 0.171079 0.062025
O O9 0.191804 0.208070 0.764910
O O10 0.185343 0.096161 0.871705
O O11 0.000000 0.122521 0.000000
O O12 0.180175 0.809504 0.450399
O O13 0.291480 0.845713 0.197549
O O14 0.484304 0.765179 0.668655
O O15 0.500000 0.766543 0.500000
O O16 0.387226 0.870751 0.705410
O O17 0.295660 0.744015 0.801356
O O18 0.310095 0.000000 0.801777
#
# Coordination Sequence:
#
# PCOD8082747 Si02
#       8
#     8   8   8   8   8   8   8   8
#     4  10  22  35  53  78 106 141 183 218 260 319
#     4  10  18  31  55  80 101 134 173 219 263 312
#     4   9  17  32  49  72 104 136 168 215 255 310
#     4  10  19  32  52  80 107 128 173 221 265 311
#     4  11  19  32  54  78 107 136 173 220 273 305
#     4  11  19  32  51  76 106 136 170 216 268 319
#     4  11  20  33  49  74 106 140 178 215 257 317
#     4  10  18  35  55  74 104 138 169 221 266 306
#
# _framework density 17.640080999999999
#
# number of rings (size 3 to 8) (size 9 to 14) (size 15 to 20)
#    0.000    1.750    5.000    2.250    0.000    2.500 
#    0.000    1.250    0.000    2.250    0.000    1.750 
#    0.000    0.000    0.000    0.000    0.000    0.000 
#
# Total GULP energy -396669.135843 kJ/mol
# GULP energy per Si atom -12395.910495 kJ/mol
# Density = 1.759993 g / cm^3
# Si number density = 17.640081 Si / 1000 Ang^3
#
#
#
# Elastic Constant Matrix: (Units=GPa)
#
#
# Indices 1 2 3 4 5 6 
#
# 1 85.5750 21.2477 26.0367 0.0001 -3.8044 0.0000
# 2 21.2477 58.5857 19.5039 0.0000 -2.0528 0.0000
# 3 26.0367 19.5039 78.8248 0.0001 1.1549 -0.0001
# 4 0.0001 0.0000 0.0001 16.0493 -0.0001 0.3085
# 5 -3.8044 -2.0528 1.1549 -0.0001 24.8094 0.0001
# 6 0.0000 0.0000 -0.0001 0.3085 0.0001 17.7343
#
#
#
# Elastic Compliance Matrix: (Units=1/GPa)
#
#
# Indices 1 2 3 4 5 6 
#
# 1 0.013814 -0.003718 -0.003672 0.000000 0.001982 0.000000
# 2 -0.003718 0.019679 -0.003659 0.000000 0.001228 0.000000
# 3 -0.003672 -0.003659 0.014827 0.000000 -0.001556 0.000000
# 4 0.000000 0.000000 0.000000 0.062329 0.000000 -0.001084
# 5 0.001982 0.001228 -0.001556 0.000000 0.040785 0.000000
# 6 0.000000 0.000000 0.000000 -0.001084 0.000000 0.056407
#
#
# Mechanical properties :
#
#
# Convention : Reuss Voigt Hill
#
# Bulk Modulus (GPa) = 38.13609 39.61801 38.87705
# Shear Modulus (GPa) = 20.94851 22.13173 21.54012
#
# Velocity S-wave (km/s) = 3.44983 3.54591 3.49820
# Velocity P-wave (km/s) = 6.12653 6.26678 6.19705
#
# Compressibility (1/GPa) = 0.02622188
#
# Stress axis : x y z
#
# Youngs Moduli (GPa) = 72.38936 50.81637 67.44252
#
# Poissons Ratio (x) = 0.18894 0.24765
# Poissons Ratio (y) = 0.26916 0.24677
# Poissons Ratio (z) = 0.26581 0.18594
#
# Static dielectric constant tensor:
#      x y z
#    x 3.742960 0.000000 -0.166220 
#    y 0.000000 2.909380 0.000000 
#    z -0.166220 0.000000 3.485180 
# 
# 
# High freq. dielectric constant tensor:
#      x y z
#    x 1.700090 0.000000 -0.001470 
#    y 0.000000 1.633520 0.000000 
#    z -0.001470 0.000000 1.684620 
# 
# From -- ./inp_files/290425.got.cif
#   From: 2010.06.25/outbox.cif.g09.slc.cpg/sg12_146_cif.got.tgz:290425.got - 2010.06.28 00:19:55.
