data_PCOD8082131
_publ_section_title
;
Structure prediction by ZEFSAII (Michael W. Deem and Ramdas Pophale) SiO2 
 PCOD8082131
Probable space group: C 2/M
;
_chemical_formula_sum "Si O2"
_cell_formula_units_Z 56
_cell_length_a 23.935289
_cell_length_b 8.844469
_cell_length_c 23.612684
_cell_angle_alpha 90.000000
_cell_angle_beta 36.815079
_cell_angle_gamma 90.000000
_cell_volume 2995.383743
_symmetry_space_group_name_H-M "C 2/M"
_symmetry_group_IT_number 12
_symmetry_cell_setting 'monoclinic'
loop_
_space_group_symop_operation_xyz
x,y,z
-x,y,-z
-x,-y,-z
x,-y,z
1/2+x,1/2+y,z
1/2-x,1/2+y,-z
1/2-x,1/2-y,-z
1/2+x,1/2-y,z
loop_
_atom_site_type_symbol
_atom_site_label
_atom_site_fract_x
_atom_site_fract_y
_atom_site_fract_z
Si Si1 0.900070 0.676031 0.593900
Si Si2 0.482173 0.321306 0.329599
Si Si3 0.552187 0.680085 0.872813
Si Si4 0.841206 0.320332 0.762758
Si Si5 0.621787 0.320360 0.696899
Si Si6 0.135658 0.820603 0.921233
Si Si7 0.171014 0.675722 0.468360
O O1 0.915609 0.500000 0.592391
O O2 0.858744 0.743619 0.685186
O O3 0.831301 0.704304 0.597283
O O4 0.000000 0.752661 0.500000
O O5 0.489076 0.500000 0.326210
O O6 0.584792 0.252809 0.254616
O O7 0.446219 0.264237 0.297643
O O8 0.410185 0.269102 0.435960
O O9 0.555566 0.500000 0.866928
O O10 0.587525 0.749644 0.784557
O O11 0.616548 0.738577 0.872554
O O12 0.445684 0.735252 0.970401
O O13 0.851072 0.500000 0.758867
O O14 0.736096 0.266002 0.863208
O O15 0.622664 0.500000 0.700879
O O16 0.726747 0.266941 0.595831
O O17 0.134512 0.000000 0.918602
O O18 0.153980 0.500000 0.496411
#
# Coordination Sequence:
#
# PCOD8082131 Si02
#       7
#     8   8   8   8   8   8   8
#     4   9  15  25  45  70  90 111 146 191 232 270
#     4  11  22  33  43  64  97 132 162 190 224 271
#     4   8  13  26  46  74 101 116 141 194 249 280
#     4  10  18  31  49  71  96 124 156 190 231 280
#     4   9  18  30  46  65  91 126 159 188 230 282
#     4   8  14  24  47  77  99 115 143 194 246 280
#     4  10  18  32  52  70  88 120 160 198 235 274
#
# _framework density 18.695436000000001
#
# number of rings (size 3 to 8) (size 9 to 14) (size 15 to 20)
#    0.000    2.714    1.429    2.571    0.000    3.429 
#    0.000    2.857    0.000    0.000    0.000    6.000 
#    0.000    0.000    0.000    0.000    0.000    0.000 
#
# Total GULP energy -347022.397201 kJ/mol
# GULP energy per Si atom -12393.657043 kJ/mol
# Density = 1.865288 g / cm^3
# Si number density = 18.695436 Si / 1000 Ang^3
#
#
#
# Elastic Constant Matrix: (Units=GPa)
#
#
# Indices 1 2 3 4 5 6 
#
# 1 124.3091 20.5875 51.2170 0.0123 -29.4074 -0.0099
# 2 20.5875 22.1063 12.2222 0.0269 -5.9555 -0.0212
# 3 51.2170 12.2222 89.2603 0.0056 -24.3372 -0.0082
# 4 0.0123 0.0269 0.0056 7.6571 -0.0098 -3.3224
# 5 -29.4074 -5.9555 -24.3372 -0.0098 35.8178 0.0060
# 6 -0.0099 -0.0212 -0.0082 -3.3224 0.0060 21.4357
#
#
#
# Elastic Compliance Matrix: (Units=1/GPa)
#
#
# Indices 1 2 3 4 5 6 
#
# 1 0.012595 -0.007600 -0.004555 0.000016 0.005982 -0.000003
# 2 -0.007600 0.054098 -0.002818 -0.000165 0.000841 0.000023
# 3 -0.004555 -0.002818 0.016024 0.000015 0.006679 0.000002
# 4 0.000016 -0.000165 0.000015 0.140014 0.000031 0.021701
# 5 0.005982 0.000841 0.006679 0.000031 0.037509 0.000000
# 6 -0.000003 0.000023 0.000002 0.021701 0.000000 0.050015
#
#
# Mechanical properties :
#
#
# Convention : Reuss Voigt Hill
#
# Bulk Modulus (GPa) = 18.94946 44.85880 31.90413
# Shear Modulus (GPa) = 13.97467 23.09205 18.53336
#
# Velocity S-wave (km/s) = 2.73699 3.51831 3.15196
# Velocity P-wave (km/s) = 4.48844 6.36799 5.50896
#
# Compressibility (1/GPa) = 0.05277197
#
# Stress axis : x y z
#
# Youngs Moduli (GPa) = 79.39585 18.48497 62.40655
#
# Poissons Ratio (x) = 0.14048 0.28428
# Poissons Ratio (y) = 0.60338 0.17584
# Poissons Ratio (z) = 0.36168 0.05208
#
# Static dielectric constant tensor:
#      x y z
#    x 3.638900 0.000000 -0.103000 
#    y 0.000000 2.812170 0.000000 
#    z -0.103000 0.000000 3.673140 
# 
# 
# High freq. dielectric constant tensor:
#      x y z
#    x 1.732340 0.000000 -0.010940 
#    y 0.000000 1.656760 0.000000 
#    z -0.010940 0.000000 1.727690 
# 
# From -- ./inp_files/320914.got.cif
#   From: 2010.06.25/outbox.cif.g09.slc.cpg/sg12_161_cif.got.tgz:320914.got - 2010.06.28 00:19:55.
