data_PCOD8082793
_publ_section_title
;
Structure prediction by ZEFSAII (Michael W. Deem and Ramdas Pophale) SiO2 
 PCOD8082793
Probable space group: C 2/M
;
_chemical_formula_sum "Si O2"
_cell_formula_units_Z 64
_cell_length_a 27.785948
_cell_length_b 14.464683
_cell_length_c 10.354857
_cell_angle_alpha 90.000000
_cell_angle_beta 49.535815
_cell_angle_gamma 90.000000
_cell_volume 3166.324878
_symmetry_space_group_name_H-M "C 2/M"
_symmetry_group_IT_number 12
_symmetry_cell_setting 'monoclinic'
loop_
_space_group_symop_operation_xyz
x,y,z
-x,y,-z
-x,-y,-z
x,-y,z
1/2+x,1/2+y,z
1/2-x,1/2+y,-z
1/2-x,1/2-y,-z
1/2+x,1/2-y,z
loop_
_atom_site_type_symbol
_atom_site_label
_atom_site_fract_x
_atom_site_fract_y
_atom_site_fract_z
Si Si1 0.094793 0.601450 0.130900
Si Si2 0.022645 0.392105 0.822261
Si Si3 0.549389 0.392687 0.800064
Si Si4 0.226999 0.781901 0.241138
Si Si5 0.655322 0.720791 0.109892
Si Si6 0.859141 0.272655 0.384962
Si Si7 0.969022 0.108094 0.687560
Si Si8 0.190445 0.601194 0.741948
O O1 0.097514 0.500000 0.193017
O O2 0.127410 0.674810 0.169160
O O3 0.023686 0.630445 0.217022
O O4 0.126713 0.596678 0.935015
O O5 0.035478 0.500000 0.814450
O O6 0.086769 0.343621 0.671488
O O7 0.000000 0.351424 0.000000
O O8 0.570974 0.500000 0.768001
O O9 0.611586 0.327838 0.704406
O O10 0.516196 0.368466 0.722106
O O11 0.500000 0.370781 0.000000
O O12 0.183423 0.810979 0.197034
O O13 0.185002 0.726399 0.414051
O O14 0.250841 0.876627 0.265737
O O15 0.287595 0.719481 0.093692
O O16 0.598974 0.653690 0.165398
O O17 0.815907 0.314423 0.346556
O O18 0.000000 0.145010 0.500000
O O19 0.955825 0.000000 0.700937
O O20 0.202134 0.500000 0.657213
#
# Coordination Sequence:
#
# PCOD8082793 Si02
#       8
#     8   8   8   8   8   8   8   8
#     4   9  18  34  59  87 114 147 190 237 296 354
#     4  10  18  31  55  89 117 146 187 236 297 356
#     4  10  23  38  57  91 128 157 192 247 316 369
#     4  10  24  39  56  83 115 159 209 238 289 349
#     4  10  21  41  61  81 117 159 199 248 291 349
#     4  12  21  35  60  87 118 156 194 244 293 359
#     4  10  21  39  65  92 115 152 205 250 297 362
#     4  10  21  38  59  85 115 149 196 249 291 345
#
# _framework density 20.212707000000002
#
# number of rings (size 3 to 8) (size 9 to 14) (size 15 to 20)
#    0.000    1.875    1.250    2.625    3.500    1.000 
#    0.000    4.375    0.000    2.625    0.000    0.000 
#    0.000    0.000    0.000    0.000    0.000    0.000 
#
# Total GULP energy -396729.915965 kJ/mol
# GULP energy per Si atom -12397.809874 kJ/mol
# Density = 2.016670 g / cm^3
# Si number density = 20.212707 Si / 1000 Ang^3
#
#
#
# Elastic Constant Matrix: (Units=GPa)
#
#
# Indices 1 2 3 4 5 6 
#
# 1 102.7675 63.8949 39.3062 0.0000 2.1693 0.0000
# 2 63.8949 97.9641 44.4089 0.0000 -4.5861 0.0000
# 3 39.3062 44.4089 87.9044 0.0000 3.8761 0.0000
# 4 0.0000 0.0000 0.0000 15.9767 0.0000 -0.4670
# 5 2.1693 -4.5861 3.8761 0.0000 24.4494 0.0000
# 6 0.0000 0.0000 0.0000 -0.4670 0.0000 27.0896
#
#
#
# Elastic Compliance Matrix: (Units=1/GPa)
#
#
# Indices 1 2 3 4 5 6 
#
# 1 0.017020 -0.010188 -0.002329 0.000000 -0.003052 0.000000
# 2 -0.010188 0.019655 -0.005616 0.000000 0.005481 0.000000
# 3 -0.002329 -0.005616 0.015399 0.000000 -0.003288 0.000000
# 4 0.000000 0.000000 0.000000 0.062623 0.000000 0.001079
# 5 -0.003052 0.005481 -0.003288 0.000000 0.042721 0.000000
# 6 0.000000 0.000000 0.000000 0.001079 0.000000 0.036933
#
#
# Mechanical properties :
#
#
# Convention : Reuss Voigt Hill
#
# Bulk Modulus (GPa) = 63.25498 64.87287 64.06392
# Shear Modulus (GPa) = 21.19654 22.90488 22.05071
#
# Velocity S-wave (km/s) = 3.24184 3.36994 3.30651
# Velocity P-wave (km/s) = 6.73612 6.87799 6.80742
#
# Compressibility (1/GPa) = 0.01580903
#
# Stress axis : x y z
#
# Youngs Moduli (GPa) = 58.75303 50.87705 64.93753
#
# Poissons Ratio (x) = 0.51835 0.15124
# Poissons Ratio (y) = 0.59859 0.36467
# Poissons Ratio (z) = 0.13683 0.28571
#
# Static dielectric constant tensor:
#      x y z
#    x 3.710560 0.000000 -0.076160 
#    y 0.000000 3.708650 0.000000 
#    z -0.076160 0.000000 3.637600 
# 
# 
# High freq. dielectric constant tensor:
#      x y z
#    x 1.793490 0.000000 -0.010850 
#    y 0.000000 1.786080 0.000000 
#    z -0.010850 0.000000 1.777050 
# 
# From -- ./inp_files/189452.got.cif
#   From: 2010.06.25/outbox.cif.g09.slc.cpg/sg12_95_cif.got.tgz:189452.got - 2010.06.28 00:19:55.
