data_PCOD8082576
_publ_section_title
;
Structure prediction by ZEFSAII (Michael W. Deem and Ramdas Pophale) SiO2 
 PCOD8082576
Probable space group: C 2/M
;
_chemical_formula_sum "Si O2"
_cell_formula_units_Z 40
_cell_length_a 17.568268
_cell_length_b 20.609635
_cell_length_c 7.707064
_cell_angle_alpha 90.000000
_cell_angle_beta 129.819359
_cell_angle_gamma 90.000000
_cell_volume 2143.322056
_symmetry_space_group_name_H-M "C 2/M"
_symmetry_group_IT_number 12
_symmetry_cell_setting 'monoclinic'
loop_
_space_group_symop_operation_xyz
x,y,z
-x,y,-z
-x,-y,-z
x,-y,z
1/2+x,1/2+y,z
1/2-x,1/2+y,-z
1/2-x,1/2-y,-z
1/2+x,1/2-y,z
loop_
_atom_site_type_symbol
_atom_site_label
_atom_site_fract_x
_atom_site_fract_y
_atom_site_fract_z
Si Si1 0.284974 0.572548 0.371329
Si Si2 0.231131 0.335442 0.597217
Si Si3 0.415228 0.743064 0.763705
Si Si4 0.005859 0.120859 0.311549
Si Si5 0.790650 0.074777 0.981709
O O1 0.244615 0.500000 0.345092
O O2 0.231292 0.622498 0.420381
O O3 0.402632 0.571721 0.581556
O O4 0.265674 0.594055 0.143715
O O5 0.325309 0.287313 0.745843
O O6 0.130791 0.292747 0.443889
O O7 0.225650 0.380662 0.758816
O O8 0.477959 0.685974 0.769859
O O9 0.500000 0.779911 0.000000
O O10 0.000000 0.142975 0.500000
O O11 0.906319 0.084936 0.104932
O O12 0.763973 0.000000 0.907720
#
# Coordination Sequence:
#
# PCOD8082576 Si02
#       5
#     8   8   8   8   8
#     4   9  18  31  49  76 104 130 165 207 254 303
#     4  10  20  33  51  74 101 139 169 203 250 296
#     4  10  19  35  49  70 106 134 172 207 242 300
#     4   9  17  31  48  76 104 132 161 205 260 306
#     4  10  18  31  53  77 103 131 164 207 255 305
#
# _framework density 18.662616
#
# number of rings (size 3 to 8) (size 9 to 14) (size 15 to 20)
#    0.000    2.400    2.000    1.200    0.000    2.400 
#    3.600    7.000    0.000    2.400    0.000    2.800 
#    0.000    0.000    0.000    0.000    0.000    0.000 
#
# Total GULP energy -247918.739976 kJ/mol
# GULP energy per Si atom -12395.936999 kJ/mol
# Density = 1.862014 g / cm^3
# Si number density = 18.662616 Si / 1000 Ang^3
#
#
#
# Elastic Constant Matrix: (Units=GPa)
#
#
# Indices 1 2 3 4 5 6 
#
# 1 27.7619 13.0637 19.1007 0.0000 -7.3683 0.0000
# 2 13.0637 76.7269 54.1983 0.0000 -4.5010 0.0000
# 3 19.1007 54.1983 113.9232 0.0000 -6.0526 0.0000
# 4 0.0000 0.0000 0.0000 38.7514 0.0000 -4.2478
# 5 -7.3683 -4.5010 -6.0526 0.0000 21.7556 0.0000
# 6 0.0000 0.0000 0.0000 -4.2478 0.0000 0.7581
#
#
#
# Elastic Compliance Matrix: (Units=1/GPa)
#
#
# Indices 1 2 3 4 5 6 
#
# 1 0.044572 -0.003066 -0.005325 0.000000 0.012980 0.000000
# 2 -0.003066 0.019888 -0.008916 0.000000 0.000596 0.000000
# 3 -0.005325 -0.008916 0.013924 0.000000 0.000226 0.000000
# 4 0.000000 0.000000 0.000000 0.066898 0.000000 0.374868
# 5 0.012980 0.000596 0.000226 0.000000 0.050548 0.000000
# 6 0.000000 0.000000 0.000000 0.374868 0.000000 3.419774
#
#
# Mechanical properties :
#
#
# Convention : Reuss Voigt Hill
#
# Bulk Modulus (GPa) = 22.84626 43.45970 33.15298
# Shear Modulus (GPa) = 1.36433 21.05630 11.21031
#
# Velocity S-wave (km/s) = 0.85594 3.36260 2.45354
# Velocity P-wave (km/s) = 3.63939 6.19788 5.08227
#
# Compressibility (1/GPa) = 0.04377084
#
# Stress axis : x y z
#
# Youngs Moduli (GPa) = 22.43557 50.28071 71.81671
#
# Poissons Ratio (x) = 0.15417 0.38240
# Poissons Ratio (y) = 0.06879 0.64032
# Poissons Ratio (z) = 0.11946 0.44830
#
# Static dielectric constant tensor:
#      x y z
#    x 3.155180 0.000000 -0.149610 
#    y 0.000000 3.387420 0.000000 
#    z -0.149610 0.000000 3.466650 
# 
# 
# High freq. dielectric constant tensor:
#      x y z
#    x 1.687760 0.000000 -0.019710 
#    y 0.000000 1.719850 0.000000 
#    z -0.019710 0.000000 1.719720 
# 
# From -- ./inp_files/47051.got.cif
#   From: 2010.06.25/outbox.cif.g09.slc.cpg/sg12_24_cif.got.tgz:47051.got - 2010.06.28 00:19:55.
