data_PCOD8082875
_publ_section_title
;
Structure prediction by ZEFSAII (Michael W. Deem and Ramdas Pophale) SiO2 
 PCOD8082875
Probable space group: C 2/M
;
_chemical_formula_sum "Si O2"
_cell_formula_units_Z 60
_cell_length_a 11.277037
_cell_length_b 28.013512
_cell_length_c 11.410171
_cell_angle_alpha 90.000000
_cell_angle_beta 87.108029
_cell_angle_gamma 90.000000
_cell_volume 3599.989744
_symmetry_space_group_name_H-M "C 2/M"
_symmetry_group_IT_number 12
_symmetry_cell_setting 'monoclinic'
loop_
_space_group_symop_operation_xyz
x,y,z
-x,y,-z
-x,-y,-z
x,-y,z
1/2+x,1/2+y,z
1/2-x,1/2+y,-z
1/2-x,1/2-y,-z
1/2+x,1/2-y,z
loop_
_atom_site_type_symbol
_atom_site_label
_atom_site_fract_x
_atom_site_fract_y
_atom_site_fract_z
Si Si1 0.763982 0.817947 0.615310
Si Si2 0.628782 0.195017 0.172162
Si Si3 0.062250 0.446701 0.122235
Si Si4 0.738909 0.877304 0.008165
Si Si5 0.541424 0.702510 0.220848
Si Si6 0.406444 0.130210 0.216640
Si Si7 0.500000 0.641770 0.000000
Si Si8 0.800509 0.791855 0.364531
O O1 0.867932 0.827644 0.703522
O O2 0.655451 0.853041 0.658879
O O3 0.802617 0.826710 0.478716
O O4 0.733529 0.762490 0.612506
O O5 0.707447 0.175488 0.059851
O O6 0.607661 0.251441 0.163576
O O7 0.500330 0.170421 0.174979
O O8 0.703457 0.183395 0.285556
O O9 0.089557 0.500000 0.167093
O O10 0.183034 0.417206 0.096701
O O11 0.978380 0.420007 0.222403
O O12 0.000000 0.448199 0.000000
O O13 0.879290 0.889033 0.001173
O O14 0.692473 0.877132 0.878087
O O15 0.431092 0.714250 0.307444
O O16 0.492705 0.672917 0.116048
#
# Coordination Sequence:
#
# PCOD8082875 Si02
#       8
#     8   8   8   8   8   8   4   8
#     4  10  20  32  47  65  96 134 175 212 235 269
#     4  10  20  31  47  67  94 133 168 206 243 280
#     4   8  16  32  55  76  98 124 150 196 259 313
#     4  10  20  33  48  72 102 124 159 202 250 300
#     4  11  21  31  45  65  99 133 175 203 237 280
#     4  10  18  32  49  74  99 124 162 202 245 297
#     4  12  22  30  49  70 100 134 159 204 242 294
#     4  10  20  33  45  64  95 137 178 207 234 274
#
# _framework density 16.666715
#
# number of rings (size 3 to 8) (size 9 to 14) (size 15 to 20)
#    0.000    2.000    4.000    1.600    1.867    1.067 
#    0.000    0.333    0.000    0.000    0.000    7.467 
#    0.000    1.067    0.000    0.000    0.000    0.000 
#
# Total GULP energy -371737.157260 kJ/mol
# GULP energy per Si atom -12391.238575 kJ/mol
# Density = 1.662878 g / cm^3
# Si number density = 16.666715 Si / 1000 Ang^3
#
#
#
# Elastic Constant Matrix: (Units=GPa)
#
#
# Indices 1 2 3 4 5 6 
#
# 1 100.2592 18.1351 13.2785 0.0000 -2.8939 0.0000
# 2 18.1351 46.6335 17.3420 0.0000 2.2522 0.0000
# 3 13.2785 17.3420 56.8918 0.0000 -8.5918 0.0000
# 4 0.0000 0.0000 0.0000 9.9069 0.0000 -8.4539
# 5 -2.8939 2.2522 -8.5918 0.0000 19.1541 0.0000
# 6 0.0000 0.0000 0.0000 -8.4539 0.0000 7.5352
#
#
#
# Elastic Compliance Matrix: (Units=1/GPa)
#
#
# Indices 1 2 3 4 5 6 
#
# 1 0.010871 -0.003893 -0.001109 0.000000 0.001603 0.000000
# 2 -0.003893 0.026383 -0.008250 0.000000 -0.007391 0.000000
# 3 -0.001109 -0.008250 0.021959 0.000000 0.010653 0.000000
# 4 0.000000 0.000000 0.000000 2.367928 0.000000 2.656625
# 5 0.001603 -0.007391 0.010653 0.000000 0.058098 0.000000
# 6 0.000000 0.000000 0.000000 2.656625 0.000000 3.113232
#
#
# Mechanical properties :
#
#
# Convention : Reuss Voigt Hill
#
# Bulk Modulus (GPa) = 30.57066 33.47730 32.02398
# Shear Modulus (GPa) = 0.88717 17.65449 9.27083
#
# Velocity S-wave (km/s) = 0.73038 3.25817 2.36105
# Velocity P-wave (km/s) = 4.36960 5.85527 5.16612
#
# Compressibility (1/GPa) = 0.03271111
#
# Stress axis : x y z
#
# Youngs Moduli (GPa) = 91.98458 37.90390 45.53844
#
# Poissons Ratio (x) = 0.14755 0.05049
# Poissons Ratio (y) = 0.35808 0.37567
# Poissons Ratio (z) = 0.10198 0.31269
#
# Static dielectric constant tensor:
#      x y z
#    x 3.330240 0.000000 -0.026850 
#    y 0.000000 2.965390 0.000000 
#    z -0.026850 0.000000 3.229850 
# 
# 
# High freq. dielectric constant tensor:
#      x y z
#    x 1.656420 0.000000 -0.002150 
#    y 0.000000 1.593010 0.000000 
#    z -0.002150 0.000000 1.632150 
# 
# From -- ./inp_files/137301.got.cif
#   From: 2010.06.25/outbox.cif.g09.slc.cpg/sg12_69_cif.got.tgz:137301.got - 2010.06.28 00:19:55.
