data_PCOD8082545
_publ_section_title
;
Structure prediction by ZEFSAII (Michael W. Deem and Ramdas Pophale) SiO2 
 PCOD8082545
Probable space group: C 2/M
;
_chemical_formula_sum "Si O2"
_cell_formula_units_Z 64
_cell_length_a 20.777846
_cell_length_b 8.932652
_cell_length_c 20.381399
_cell_angle_alpha 90.000000
_cell_angle_beta 113.508594
_cell_angle_gamma 90.000000
_cell_volume 3468.840933
_symmetry_space_group_name_H-M "C 2/M"
_symmetry_group_IT_number 12
_symmetry_cell_setting 'monoclinic'
loop_
_space_group_symop_operation_xyz
x,y,z
-x,y,-z
-x,-y,-z
x,-y,z
1/2+x,1/2+y,z
1/2-x,1/2+y,-z
1/2-x,1/2-y,-z
1/2+x,1/2-y,z
loop_
_atom_site_type_symbol
_atom_site_label
_atom_site_fract_x
_atom_site_fract_y
_atom_site_fract_z
Si Si1 0.888216 0.822616 0.699312
Si Si2 0.298196 0.322558 0.784094
Si Si3 0.294202 0.323797 0.925728
Si Si4 0.549461 0.673737 0.766856
Si Si5 0.357698 0.177780 0.304986
Si Si6 0.921246 0.677797 0.466199
Si Si7 0.824272 0.321883 0.545622
Si Si8 0.343384 0.326249 0.082555
O O1 0.852425 0.763975 0.751821
O O2 0.851253 0.735935 0.625849
O O3 0.969123 0.775375 0.736384
O O4 0.878493 0.000000 0.685445
O O5 0.295437 0.500000 0.779115
O O6 0.323711 0.268816 0.867072
O O7 0.220276 0.258228 0.738921
O O8 0.285344 0.500000 0.920296
O O9 0.216558 0.260293 0.903034
O O10 0.345309 0.274293 0.006581
O O11 0.556642 0.500000 0.751896
O O12 0.588852 0.767002 0.728007
O O13 0.582535 0.707028 0.852281
O O14 0.382649 0.238835 0.385686
O O15 0.358304 0.000000 0.303543
O O16 0.924002 0.500000 0.465916
O O17 0.879143 0.733119 0.512803
O O18 0.000000 0.744211 0.500000
O O19 0.816906 0.500000 0.543513
O O20 0.750000 0.250000 0.500000
O O21 0.323812 0.500000 0.078149
#
# Coordination Sequence:
#
# PCOD8082545 Si02
#       8
#     8   8   8   8   8   8   8   8
#     4  10  21  37  54  73 105 141 171 207 255 309
#     4   9  17  31  51  74  97 132 178 216 248 294
#     4   9  16  29  50  74  98 131 175 214 248 296
#     4  10  20  33  49  75 109 139 163 204 267 314
#     4  10  18  31  53  74  94 126 172 215 248 296
#     4   9  18  32  51  75 100 128 166 211 252 294
#     4  11  22  38  59  80 103 134 173 214 257 306
#     4   9  17  29  47  74 106 133 163 209 262 306
#
# _framework density 18.449967000000001
#
# number of rings (size 3 to 8) (size 9 to 14) (size 15 to 20)
#    0.000    2.375    1.250    1.875    0.000    3.500 
#    0.000    4.375    0.000    7.125    0.000    0.000 
#    0.000    6.000    0.000    0.000    0.000    0.000 
#
# Total GULP energy -396705.701676 kJ/mol
# GULP energy per Si atom -12397.053177 kJ/mol
# Density = 1.840797 g / cm^3
# Si number density = 18.449967 Si / 1000 Ang^3
#
#
#
# Elastic Constant Matrix: (Units=GPa)
#
#
# Indices 1 2 3 4 5 6 
#
# 1 136.1033 20.9372 66.1267 0.0000 -14.0134 0.0000
# 2 20.9372 23.2344 22.8798 0.0000 -1.4311 0.0000
# 3 66.1267 22.8798 146.6322 0.0000 -17.7166 0.0000
# 4 0.0000 0.0000 0.0000 20.4506 0.0000 -2.9682
# 5 -14.0134 -1.4311 -17.7166 0.0000 33.7028 0.0000
# 6 0.0000 0.0000 0.0000 -2.9682 0.0000 23.3264
#
#
#
# Elastic Compliance Matrix: (Units=1/GPa)
#
#
# Indices 1 2 3 4 5 6 
#
# 1 0.010091 -0.005596 -0.003416 0.000000 0.002162 0.000000
# 2 -0.005596 0.054103 -0.006324 0.000000 -0.003353 0.000000
# 3 -0.003416 -0.006324 0.009763 0.000000 0.003443 0.000000
# 4 0.000000 0.000000 0.000000 0.049818 0.000000 0.006339
# 5 0.002162 -0.003353 0.003443 0.000000 0.032238 0.000000
# 6 0.000000 0.000000 0.000000 0.006339 0.000000 0.043676
#
#
# Mechanical properties :
#
#
# Convention : Reuss Voigt Hill
#
# Bulk Modulus (GPa) = 23.10246 58.42859 40.76552
# Shear Modulus (GPa) = 20.42579 28.56438 24.49509
#
# Velocity S-wave (km/s) = 3.33091 3.93900 3.64765
# Velocity P-wave (km/s) = 5.22897 7.24051 6.31534
#
# Compressibility (1/GPa) = 0.04328543
#
# Stress axis : x y z
#
# Youngs Moduli (GPa) = 99.10255 18.48333 102.42639
#
# Poissons Ratio (x) = 0.10343 0.34991
# Poissons Ratio (y) = 0.55455 0.64771
# Poissons Ratio (z) = 0.33855 0.11688
#
# Static dielectric constant tensor:
#      x y z
#    x 3.523720 0.000000 0.147910 
#    y 0.000000 3.113120 0.000000 
#    z 0.147910 0.000000 1.791920 
# 
# 
# High freq. dielectric constant tensor:
#      x y z
#    x 1.707640 0.000000 -0.005060 
#    y 0.000000 1.683700 0.000000 
#    z -0.005060 0.000000 1.738130 
# 
# From -- ./inp_files/320033.got.cif
#   From: 2010.06.25/outbox.cif.g09.slc.cpg/sg12_161_cif.got.tgz:320033.got - 2010.06.28 00:19:55.
