data_PCOD8082822
_publ_section_title
;
Structure prediction by ZEFSAII (Michael W. Deem and Ramdas Pophale) SiO2 
 PCOD8082822
Probable space group: C 2/M
;
_chemical_formula_sum "Si O2"
_cell_formula_units_Z 56
_cell_length_a 16.577101
_cell_length_b 21.723800
_cell_length_c 8.798033
_cell_angle_alpha 90.000000
_cell_angle_beta 55.441984
_cell_angle_gamma 90.000000
_cell_volume 2609.282604
_symmetry_space_group_name_H-M "C 2/M"
_symmetry_group_IT_number 12
_symmetry_cell_setting 'monoclinic'
loop_
_space_group_symop_operation_xyz
x,y,z
-x,y,-z
-x,-y,-z
x,-y,z
1/2+x,1/2+y,z
1/2-x,1/2+y,-z
1/2-x,1/2-y,-z
1/2+x,1/2-y,z
loop_
_atom_site_type_symbol
_atom_site_label
_atom_site_fract_x
_atom_site_fract_y
_atom_site_fract_z
Si Si1 0.972189 0.209298 0.715690
Si Si2 0.812794 0.375018 0.014861
Si Si3 0.855126 0.861846 0.381284
Si Si4 0.019893 0.333153 0.802801
Si Si5 0.697216 0.724361 0.322226
Si Si6 0.315762 0.068459 0.318311
Si Si7 0.689034 0.335874 0.895541
O O1 0.038692 0.269495 0.690024
O O2 0.917797 0.214378 0.608341
O O3 0.034535 0.145772 0.669961
O O4 0.884221 0.206854 0.931555
O O5 0.772708 0.313503 0.138054
O O6 0.812808 0.429906 0.137331
O O7 0.922779 0.364536 0.836596
O O8 0.741769 0.387350 0.945830
O O9 0.796413 0.801881 0.512540
O O10 0.795537 0.921190 0.503658
O O11 0.864793 0.866794 0.189284
O O12 0.110220 0.380860 0.689868
O O13 0.000000 0.317547 0.000000
O O14 0.725307 0.795001 0.273267
O O15 0.349667 0.000000 0.330141
#
# Coordination Sequence:
#
# PCOD8082822 Si02
#       7
#     8   8   8   8   8   8   8
#     4  11  20  34  57  89 126 151 185 231 288 368
#     4   9  18  35  59  82 112 153 191 233 290 347
#     4  11  24  34  56  87 122 158 194 229 300 350
#     4  10  18  31  57  87 112 149 189 235 294 346
#     4  10  19  34  53  86 127 157 175 222 292 364
#     4  10  24  42  58  78 113 158 213 254 281 330
#     4  11  19  35  56  89 123 151 180 232 296 361
#
# _framework density 21.461838
#
# number of rings (size 3 to 8) (size 9 to 14) (size 15 to 20)
#    0.000    1.714    2.857    3.000    6.000    2.571 
#    0.000    1.429    0.000   18.000    0.000    0.000 
#    0.000    0.000    0.000    0.000    0.000    0.000 
#
# Total GULP energy -346947.670115 kJ/mol
# GULP energy per Si atom -12390.988218 kJ/mol
# Density = 2.141299 g / cm^3
# Si number density = 21.461838 Si / 1000 Ang^3
#
#
#
# Elastic Constant Matrix: (Units=GPa)
#
#
# Indices 1 2 3 4 5 6 
#
# 1 113.6926 36.3150 23.8024 0.0000 -0.4174 0.0000
# 2 36.3150 71.8409 12.8889 0.0000 -3.0798 0.0000
# 3 23.8024 12.8889 36.7968 0.0000 15.0182 0.0000
# 4 0.0000 0.0000 0.0000 15.5435 0.0000 1.1534
# 5 -0.4174 -3.0798 15.0182 0.0000 43.9136 0.0000
# 6 0.0000 0.0000 0.0000 1.1534 0.0000 17.3935
#
#
#
# Elastic Compliance Matrix: (Units=1/GPa)
#
#
# Indices 1 2 3 4 5 6 
#
# 1 0.011701 -0.004600 -0.006824 0.000000 0.002123 0.000000
# 2 -0.004600 0.017079 -0.004042 0.000000 0.002536 0.000000
# 3 -0.006824 -0.004042 0.038526 0.000000 -0.013524 0.000000
# 4 0.000000 0.000000 0.000000 0.064654 0.000000 -0.004287
# 5 0.002123 0.002536 -0.013524 0.000000 0.027595 0.000000
# 6 0.000000 0.000000 0.000000 -0.004287 0.000000 0.057777
#
#
# Mechanical properties :
#
#
# Convention : Reuss Voigt Hill
#
# Bulk Modulus (GPa) = 27.49198 40.92698 34.20948
# Shear Modulus (GPa) = 19.20206 25.32506 22.26356
#
# Velocity S-wave (km/s) = 2.99441 3.43885 3.22429
# Velocity P-wave (km/s) = 4.97924 5.90581 5.46221
#
# Compressibility (1/GPa) = 0.03637424
#
# Stress axis : x y z
#
# Youngs Moduli (GPa) = 85.46033 58.55273 25.95632
#
# Poissons Ratio (x) = 0.26932 0.17713
# Poissons Ratio (y) = 0.39308 0.10492
# Poissons Ratio (z) = 0.58321 0.23667
#
# Static dielectric constant tensor:
#      x y z
#    x 4.217050 0.000000 -0.057110 
#    y 0.000000 3.177910 0.000000 
#    z -0.057110 0.000000 4.062900 
# 
# 
# High freq. dielectric constant tensor:
#      x y z
#    x 1.857890 0.000000 -0.009910 
#    y 0.000000 1.762930 0.000000 
#    z -0.009910 0.000000 1.860190 
# 
# From -- ./inp_files/77339.got.cif
#   From: 2010.06.25/outbox.cif.g09.slc.cpg/sg12_39_cif.got.tgz:77339.got - 2010.06.28 00:19:55.
