data_PCOD8082783
_publ_section_title
;
Structure prediction by ZEFSAII (Michael W. Deem and Ramdas Pophale) SiO2 
 PCOD8082783
Probable space group: C 2/M
;
_chemical_formula_sum "Si O2"
_cell_formula_units_Z 64
_cell_length_a 24.408500
_cell_length_b 10.466180
_cell_length_c 28.198216
_cell_angle_alpha 90.000000
_cell_angle_beta 152.771457
_cell_angle_gamma 90.000000
_cell_volume 3295.952115
_symmetry_space_group_name_H-M "C 2/M"
_symmetry_group_IT_number 12
_symmetry_cell_setting 'monoclinic'
loop_
_space_group_symop_operation_xyz
x,y,z
-x,y,-z
-x,-y,-z
x,-y,z
1/2+x,1/2+y,z
1/2-x,1/2+y,-z
1/2-x,1/2-y,-z
1/2+x,1/2-y,z
loop_
_atom_site_type_symbol
_atom_site_label
_atom_site_fract_x
_atom_site_fract_y
_atom_site_fract_z
Si Si1 0.081674 0.269730 0.274664
Si Si2 0.182313 0.851622 0.069222
Si Si3 0.748902 0.847625 0.775753
Si Si4 0.653895 0.641055 0.419885
Si Si5 0.432597 0.348398 0.838407
Si Si6 0.320112 0.144104 0.083786
Si Si7 0.656775 0.361960 0.524757
Si Si8 0.990096 0.641609 0.547735
O O1 0.069462 0.172354 0.309962
O O2 0.095225 0.195348 0.235920
O O3 0.199337 0.356403 0.371541
O O4 0.961455 0.353411 0.182742
O O5 0.209712 0.789871 0.141699
O O6 0.292338 0.828372 0.117829
O O7 0.159959 0.000000 0.061003
O O8 0.060929 0.792498 0.953802
O O9 0.833304 0.794376 0.798645
O O10 0.613245 0.801958 0.663152
O O11 0.752652 0.000000 0.778164
O O12 0.710616 0.500000 0.454750
O O13 0.750000 0.750000 0.500000
O O14 0.588797 0.640726 0.421214
O O15 0.432559 0.500000 0.838636
O O16 0.274495 0.000000 0.035766
O O17 0.250000 0.250000 0.000000
O O18 0.628314 0.500000 0.527190
O O19 0.615384 0.241283 0.523303
O O20 0.960109 0.500000 0.546047
O O21 0.000000 0.625858 0.500000
#
# Coordination Sequence:
#
# PCOD8082783 Si02
#       8
#     8   8   8   8   8   8   8   8
#     4  11  21  35  58  83 114 154 192 237 287 345
#     4   9  18  33  53  82 115 148 187 229 282 341
#     4   9  18  32  54  83 116 149 185 237 292 336
#     4   9  20  36  55  81 114 150 193 238 285 344
#     4  10  18  31  55  86 116 145 186 238 287 340
#     4  11  23  39  59  87 120 153 193 239 288 349
#     4  10  22  39  55  79 114 152 193 234 284 348
#     4  10  21  37  57  85 115 146 192 244 289 336
#
# _framework density 19.417757999999999
#
# number of rings (size 3 to 8) (size 9 to 14) (size 15 to 20)
#    0.000    2.125    1.250    1.875    1.750    6.250 
#    0.000    0.000    0.000    0.000    0.000    0.875 
#    0.000    0.000    0.000    0.000    0.000    0.000 
#
# Total GULP energy -396508.178039 kJ/mol
# GULP energy per Si atom -12390.880564 kJ/mol
# Density = 1.937356 g / cm^3
# Si number density = 19.417758 Si / 1000 Ang^3
#
#
#
# Elastic Constant Matrix: (Units=GPa)
#
#
# Indices 1 2 3 4 5 6 
#
# 1 103.5833 35.5545 43.0590 0.0016 -1.6568 0.0006
# 2 35.5545 97.5067 28.0362 -0.0002 3.7197 0.0005
# 3 43.0590 28.0362 98.5213 0.0003 -8.7715 0.0033
# 4 0.0016 -0.0002 0.0003 19.3333 -0.0012 -3.9026
# 5 -1.6568 3.7197 -8.7715 -0.0012 40.3145 0.0000
# 6 0.0006 0.0005 0.0033 -3.9026 0.0000 -8.4679
#
#
#
# Elastic Compliance Matrix: (Units=1/GPa)
#
#
# Indices 1 2 3 4 5 6 
#
# 1 0.012708 -0.003295 -0.004633 -0.000001 -0.000182 -0.000001
# 2 -0.003295 0.012147 -0.002171 0.000000 -0.001728 -0.000001
# 3 -0.004633 -0.002171 0.013046 0.000001 0.002848 0.000004
# 4 -0.000001 0.000000 0.000001 0.047322 0.000002 -0.021809
# 5 -0.000182 -0.001728 0.002848 0.000002 0.025577 0.000000
# 6 -0.000001 -0.000001 0.000004 -0.021809 0.000000 -0.108042
#
#
# Mechanical properties :
#
#
# Convention : Reuss Voigt Hill
#
# Bulk Modulus (GPa) = 56.48089 56.99007 56.73548
# Shear Modulus (GPa) = 173.27964 23.10009 98.18987
#
# Velocity S-wave (km/s) = 9.45682 3.45285 7.11877
# Velocity P-wave (km/s) = 12.18164 6.73123 9.84128
#
# Compressibility (1/GPa) = 0.01770510
#
# Stress axis : x y z
#
# Youngs Moduli (GPa) = 78.69177 82.32372 76.65158
#
# Poissons Ratio (x) = 0.27124 0.35509
# Poissons Ratio (y) = 0.25927 0.16638
# Poissons Ratio (z) = 0.36454 0.17869
#
# Static dielectric constant tensor:
#      x y z
#    x 3.695640 0.000000 -0.214840 
#    y 0.000000 3.323740 0.000000 
#    z -0.214840 0.000000 3.825480 
# 
# 
# High freq. dielectric constant tensor:
#      x y z
#    x 1.759480 0.000000 -0.012660 
#    y 0.000000 1.721230 0.000000 
#    z -0.012660 0.000000 1.756450 
# 
# From -- ./inp_files/367825.got.cif
#   From: 2010.06.25/outbox.cif.g09.slc.cpg/sg12_184_cif.got.tgz:367825.got - 2010.06.28 00:19:55.
