data_PCOD8082231
_publ_section_title
;
Structure prediction by ZEFSAII (Michael W. Deem and Ramdas Pophale) SiO2 
 PCOD8082231
Probable space group: C 2/M
;
_chemical_formula_sum "Si O2"
_cell_formula_units_Z 48
_cell_length_a 22.715857
_cell_length_b 8.767951
_cell_length_c 17.316288
_cell_angle_alpha 90.000000
_cell_angle_beta 119.569093
_cell_angle_gamma 90.000000
_cell_volume 2999.729507
_symmetry_space_group_name_H-M "C 2/M"
_symmetry_group_IT_number 12
_symmetry_cell_setting 'monoclinic'
loop_
_space_group_symop_operation_xyz
x,y,z
-x,y,-z
-x,-y,-z
x,-y,z
1/2+x,1/2+y,z
1/2-x,1/2+y,-z
1/2-x,1/2-y,-z
1/2+x,1/2-y,z
loop_
_atom_site_type_symbol
_atom_site_label
_atom_site_fract_x
_atom_site_fract_y
_atom_site_fract_z
Si Si1 0.849995 0.322077 0.034012
Si Si2 0.488970 0.678760 0.081151
Si Si3 0.614603 0.172310 0.240771
Si Si4 0.777798 0.180387 0.595963
Si Si5 0.756206 0.170915 0.278398
Si Si6 0.231027 0.677068 0.868390
O O1 0.842177 0.500000 0.011340
O O2 0.926837 0.270924 0.076319
O O3 0.825803 0.283513 0.105166
O O4 0.804386 0.232156 0.943582
O O5 0.474858 0.500000 0.079269
O O6 0.554319 0.722428 0.172688
O O7 0.500000 0.728435 0.000000
O O8 0.647336 0.248439 0.339146
O O9 0.674112 0.168636 0.214393
O O10 0.589268 0.000000 0.242094
O O11 0.750000 0.250000 0.500000
O O12 0.727511 0.229196 0.634148
O O13 0.782381 0.000000 0.592444
O O14 0.790630 0.241109 0.224856
O O15 0.784261 0.000000 0.308744
O O16 0.236548 0.500000 0.854444
#
# Coordination Sequence:
#
# PCOD8082231 Si02
#       6
#     8   8   8   8   8   8
#     4  10  21  33  47  66  93 129 167 205 245 288
#     4  11  22  33  47  68  96 131 169 205 244 290
#     4   9  19  32  47  70  98 128 162 197 241 292
#     4  10  18  31  50  74 103 129 160 200 246 295
#     4   9  18  30  48  71  96 126 157 195 243 290
#     4  10  19  32  48  68  93 125 165 208 246 285
#
# _framework density 16.001442999999998
#
# number of rings (size 3 to 8) (size 9 to 14) (size 15 to 20)
#    1.000    1.167    0.000    4.500    0.000    6.000 
#    0.000    0.000    0.000    0.000    0.000    1.167 
#    0.000    9.333    0.000    0.000    0.000    0.000 
#
# Total GULP energy -297481.334256 kJ/mol
# GULP energy per Si atom -12395.055594 kJ/mol
# Density = 1.596502 g / cm^3
# Si number density = 16.001443 Si / 1000 Ang^3
#
#
#
# Elastic Constant Matrix: (Units=GPa)
#
#
# Indices 1 2 3 4 5 6 
#
# 1 58.7465 21.1620 34.2335 0.0000 -6.9342 0.0000
# 2 21.1620 82.2361 32.1468 0.0000 -12.3189 0.0000
# 3 34.2335 32.1468 102.9112 0.0000 -12.2602 0.0000
# 4 0.0000 0.0000 0.0000 30.5879 0.0000 -1.5463
# 5 -6.9342 -12.3189 -12.2602 0.0000 22.6349 0.0000
# 6 0.0000 0.0000 0.0000 -1.5463 0.0000 25.3054
#
#
#
# Elastic Compliance Matrix: (Units=1/GPa)
#
#
# Indices 1 2 3 4 5 6 
#
# 1 0.021877 -0.002965 -0.006141 0.000000 0.001762 0.000000
# 2 -0.002965 0.014939 -0.003014 0.000000 0.005589 0.000000
# 3 -0.006141 -0.003014 0.013129 0.000000 0.003590 0.000000
# 4 0.000000 0.000000 0.000000 0.032794 0.000000 0.002004
# 5 0.001762 0.005589 0.003590 0.000000 0.049705 0.000000
# 6 0.000000 0.000000 0.000000 0.002004 0.000000 0.039640
#
#
# Mechanical properties :
#
#
# Convention : Reuss Voigt Hill
#
# Bulk Modulus (GPa) = 38.90484 46.55314 42.72899
# Shear Modulus (GPa) = 24.40294 26.12908 25.26601
#
# Velocity S-wave (km/s) = 3.90942 4.04532 3.97795
# Velocity P-wave (km/s) = 6.68911 7.13973 6.91809
#
# Compressibility (1/GPa) = 0.02570374
#
# Stress axis : x y z
#
# Youngs Moduli (GPa) = 45.70993 66.94029 76.16581
#
# Poissons Ratio (x) = 0.19848 0.46776
# Poissons Ratio (y) = 0.13553 0.22958
# Poissons Ratio (z) = 0.28072 0.20177
#
# Static dielectric constant tensor:
#      x y z
#    x 2.842930 0.000000 -0.149890 
#    y 0.000000 3.148840 0.000000 
#    z -0.149890 0.000000 2.865160 
# 
# 
# High freq. dielectric constant tensor:
#      x y z
#    x 1.586000 0.000000 -0.014230 
#    y 0.000000 1.637470 0.000000 
#    z -0.014230 0.000000 1.596690 
# 
# From -- ./inp_files/287133.got.cif
#   From: 2010.06.25/outbox.cif.g09.slc.cpg/sg12_144_cif.got.tgz:287133.got - 2010.06.28 00:19:55.
