data_PCOD8082790
_publ_section_title
;
Structure prediction by ZEFSAII (Michael W. Deem and Ramdas Pophale) SiO2 
 PCOD8082790
Probable space group: C 2/M
;
_chemical_formula_sum "Si O2"
_cell_formula_units_Z 40
_cell_length_a 9.149395
_cell_length_b 29.804129
_cell_length_c 10.029604
_cell_angle_alpha 90.000000
_cell_angle_beta 136.867984
_cell_angle_gamma 90.000000
_cell_volume 1869.848992
_symmetry_space_group_name_H-M "C 2/M"
_symmetry_group_IT_number 12
_symmetry_cell_setting 'monoclinic'
loop_
_space_group_symop_operation_xyz
x,y,z
-x,y,-z
-x,-y,-z
x,-y,z
1/2+x,1/2+y,z
1/2-x,1/2+y,-z
1/2-x,1/2-y,-z
1/2+x,1/2-y,z
loop_
_atom_site_type_symbol
_atom_site_label
_atom_site_fract_x
_atom_site_fract_y
_atom_site_fract_z
Si Si1 0.500000 0.589294 0.500000
Si Si2 0.970477 0.856541 0.127623
Si Si3 0.611499 0.793314 0.937986
Si Si4 0.541155 0.450604 0.245069
Si Si5 0.000000 0.582127 0.500000
Si Si6 0.664650 0.853571 0.414129
O O1 0.517277 0.557184 0.639104
O O2 0.708419 0.621306 0.620827
O O3 0.931290 0.910326 0.090042
O O4 0.173318 0.844400 0.354890
O O5 0.763708 0.835937 0.059664
O O6 0.000000 0.835734 0.000000
O O7 0.437905 0.807113 0.708309
O O8 0.500000 0.781724 0.000000
O O9 0.750000 0.750000 0.000000
O O10 0.456271 0.500000 0.146110
O O11 0.794420 0.449109 0.383661
O O12 0.979850 0.614214 0.354110
#
# Coordination Sequence:
#
# PCOD8082790 Si02
#       6
#     4   8   8   8   4   8
#     4   8  17  34  58  85 118 164 202 241 299 354
#     4  10  22  41  62  87 121 162 204 246 300 355
#     4  12  25  41  64  92 120 154 196 245 304 367
#     4  10  18  31  55  87 122 159 203 250 296 352
#     4   8  17  32  58  85 118 162 200 241 293 346
#     4  10  20  40  63  86 121 159 196 247 300 354
#
# _framework density 21.392102000000001
#
# number of rings (size 3 to 8) (size 9 to 14) (size 15 to 20)
#    0.000    2.400    0.000    6.000    0.000    1.200 
#    0.000    2.000    0.000   10.200    0.000    0.000 
#    0.000    0.000    0.000    0.000    0.000    0.000 
#
# Total GULP energy -247791.088222 kJ/mol
# GULP energy per Si atom -12389.554411 kJ/mol
# Density = 2.134341 g / cm^3
# Si number density = 21.392102 Si / 1000 Ang^3
#
#
#
# Elastic Constant Matrix: (Units=GPa)
#
#
# Indices 1 2 3 4 5 6 
#
# 1 159.0944 53.2355 37.5646 0.0000 -4.5499 0.0000
# 2 53.2355 149.6458 48.4167 0.0000 9.0183 0.0000
# 3 37.5646 48.4167 93.4341 0.0000 -8.1457 0.0000
# 4 0.0000 0.0000 0.0000 -152.5442 0.0000 -171.3153
# 5 -4.5499 9.0183 -8.1457 0.0000 27.2274 0.0000
# 6 0.0000 0.0000 0.0000 -171.3153 0.0000 -149.8564
#
#
#
# Elastic Compliance Matrix: (Units=1/GPa)
#
#
# Indices 1 2 3 4 5 6 
#
# 1 0.007469 -0.002179 -0.001748 0.000000 0.001447 0.000000
# 2 -0.002179 0.009114 -0.004253 0.000000 -0.004655 0.000000
# 3 -0.001748 -0.004253 0.014073 0.000000 0.005327 0.000000
# 4 0.000000 0.000000 0.000000 0.023093 0.000000 -0.026400
# 5 0.001447 -0.004655 0.005327 0.000000 0.040105 0.000000
# 6 0.000000 0.000000 0.000000 -0.026400 0.000000 0.023507
#
#
# Mechanical properties :
#
#
# Convention : Reuss Voigt Hill
#
# Bulk Modulus (GPa) = 69.93936 75.62309 72.78123
# Shear Modulus (GPa) = 36.10488 -37.50413 -0.69963
#
# Velocity S-wave (km/s) = 4.11270 -4.19164 -0.57250
# Velocity P-wave (km/s) = 7.43757 3.46428 5.80167
#
# Compressibility (1/GPa) = 0.01429810
#
# Stress axis : x y z
#
# Youngs Moduli (GPa) = 133.89371 109.72183 71.05580
#
# Poissons Ratio (x) = 0.23905 0.12418
# Poissons Ratio (y) = 0.29171 0.30218
# Poissons Ratio (z) = 0.23399 0.46661
#
# Static dielectric constant tensor:
#      x y z
#    x 4.200260 0.000000 0.015320 
#    y 0.000000 3.759180 0.000000 
#    z 0.015320 0.000000 3.565540 
# 
# 
# High freq. dielectric constant tensor:
#      x y z
#    x 1.868330 0.000000 -0.003430 
#    y 0.000000 1.824770 0.000000 
#    z -0.003430 0.000000 1.810600 
# 
# From -- ./inp_files/124911.got.cif
#   From: 2010.06.25/outbox.cif.g09.slc.cpg/sg12_63_cif.got.tgz:124911.got - 2010.06.28 00:19:55.
