data_PCOD8082540
_publ_section_title
;
Structure prediction by ZEFSAII (Michael W. Deem and Ramdas Pophale) SiO2 
 PCOD8082540
Probable space group: C 2/M
;
_chemical_formula_sum "Si O2"
_cell_formula_units_Z 64
_cell_length_a 19.636246
_cell_length_b 20.193725
_cell_length_c 18.770765
_cell_angle_alpha 90.000000
_cell_angle_beta 32.203221
_cell_angle_gamma 90.000000
_cell_volume 3966.633065
_symmetry_space_group_name_H-M "C 2/M"
_symmetry_group_IT_number 12
_symmetry_cell_setting 'monoclinic'
loop_
_space_group_symop_operation_xyz
x,y,z
-x,y,-z
-x,-y,-z
x,-y,z
1/2+x,1/2+y,z
1/2-x,1/2+y,-z
1/2-x,1/2-y,-z
1/2+x,1/2-y,z
loop_
_atom_site_type_symbol
_atom_site_label
_atom_site_fract_x
_atom_site_fract_y
_atom_site_fract_z
Si Si1 0.400168 0.762008 0.876002
Si Si2 0.367073 0.701083 0.415480
Si Si3 0.732386 0.072922 0.484682
Si Si4 0.023380 0.809516 0.058807
Si Si5 0.733276 0.379826 0.694622
Si Si6 0.056044 0.273695 0.523179
Si Si7 0.219025 0.926469 0.863703
Si Si8 0.044966 0.370707 0.274190
O O1 0.500129 0.714893 0.744235
O O2 0.429911 0.751348 0.933554
O O3 0.421636 0.837103 0.831326
O O4 0.250000 0.750000 0.000000
O O5 0.250000 0.750000 0.500000
O O6 0.325169 0.625597 0.440504
O O7 0.388899 0.712037 0.480610
O O8 0.757883 0.068873 0.377793
O O9 0.585429 0.091603 0.625219
O O10 0.758480 0.000000 0.494020
O O11 0.895401 0.839447 0.202957
O O12 0.123697 0.869542 0.972453
O O13 0.000000 0.781900 0.000000
O O14 0.841408 0.325420 0.594632
O O15 0.746988 0.420021 0.755194
O O16 0.000000 0.243324 0.500000
O O17 0.959878 0.313727 0.660424
O O18 0.347822 0.922266 0.796064
O O19 0.160804 0.000000 0.928175
#
# Coordination Sequence:
#
# PCOD8082540 Si02
#       8
#     8   8   8   8   8   8   8   8
#     4  11  19  34  54  72 101 137 174 218 262 293
#     4  11  19  34  55  77 103 135 173 221 256 299
#     4  11  21  33  52  77 103 136 175 213 260 313
#     4  10  21  32  48  71 100 135 173 212 250 300
#     4  10  19  32  48  71 101 140 169 202 246 305
#     4  10  18  31  53  73 100 127 165 209 259 299
#     4  11  21  32  44  69 108 143 169 200 250 310
#     4  10  20  32  50  73 101 135 169 213 255 302
#
# _framework density 16.134589999999999
#
# number of rings (size 3 to 8) (size 9 to 14) (size 15 to 20)
#    0.000    1.500    7.500    0.750    0.000    2.750 
#    0.000    1.875    0.000    0.375    0.000    0.000 
#    0.000    2.000    0.000    0.000    0.000    0.000 
#
# Total GULP energy -396540.477786 kJ/mol
# GULP energy per Si atom -12391.889931 kJ/mol
# Density = 1.609787 g / cm^3
# Si number density = 16.134590 Si / 1000 Ang^3
#
#
#
# Elastic Constant Matrix: (Units=GPa)
#
#
# Indices 1 2 3 4 5 6 
#
# 1 107.4404 46.5756 20.1867 0.0009 2.1745 -0.0021
# 2 46.5756 99.9470 43.0950 0.0000 -1.9058 -0.0028
# 3 20.1867 43.0950 119.1650 0.0029 -19.3995 -0.0052
# 4 0.0009 0.0000 0.0029 8.7119 -0.0005 -5.6542
# 5 2.1745 -1.9058 -19.3995 -0.0005 25.6015 0.0030
# 6 -0.0021 -0.0028 -0.0052 -5.6542 0.0030 21.7951
#
#
#
# Elastic Compliance Matrix: (Units=1/GPa)
#
#
# Indices 1 2 3 4 5 6 
#
# 1 0.011722 -0.005359 -0.000314 -0.000001 -0.001632 0.000000
# 2 -0.005359 0.014469 -0.004649 0.000003 -0.001990 0.000001
# 3 -0.000314 -0.004649 0.011492 -0.000003 0.008388 0.000000
# 4 -0.000001 0.000003 -0.000003 0.138024 -0.000004 0.035807
# 5 -0.001632 -0.001990 0.008388 -0.000004 0.045407 -0.000006
# 6 0.000000 0.000001 0.000000 0.035807 -0.000006 0.055171
#
#
# Mechanical properties :
#
#
# Convention : Reuss Voigt Hill
#
# Bulk Modulus (GPa) = 58.68235 60.69634 59.68934
# Shear Modulus (GPa) = 16.52306 25.66803 21.09554
#
# Velocity S-wave (km/s) = 3.20359 3.99290 3.61982
# Velocity P-wave (km/s) = 7.08050 7.67842 7.38551
#
# Compressibility (1/GPa) = 0.01704090
#
# Stress axis : x y z
#
# Youngs Moduli (GPa) = 85.30675 69.11351 87.01965
#
# Poissons Ratio (x) = 0.37035 0.02729
# Poissons Ratio (y) = 0.45712 0.40454
# Poissons Ratio (z) = 0.02675 0.32130
#
# Static dielectric constant tensor:
#      x y z
#    x 3.306130 0.000000 -0.034830 
#    y 0.000000 2.916580 0.000000 
#    z -0.034830 0.000000 3.206950 
# 
# 
# High freq. dielectric constant tensor:
#      x y z
#    x 1.615210 0.000000 -0.009380 
#    y 0.000000 1.589350 0.000000 
#    z -0.009380 0.000000 1.632280 
# 
# From -- ./inp_files/322862.got.cif
#   From: 2010.06.25/outbox.cif.g09.slc.cpg/sg12_162_cif.got.tgz:322862.got - 2010.06.28 00:19:55.
