data_PCOD8082424
_publ_section_title
;
Structure prediction by ZEFSAII (Michael W. Deem and Ramdas Pophale) SiO2 
 PCOD8082424
Probable space group: C 2/M
;
_chemical_formula_sum "Si O2"
_cell_formula_units_Z 56
_cell_length_a 19.464349
_cell_length_b 8.801987
_cell_length_c 31.500729
_cell_angle_alpha 90.000000
_cell_angle_beta 34.675363
_cell_angle_gamma 90.000000
_cell_volume 3070.414122
_symmetry_space_group_name_H-M "C 2/M"
_symmetry_group_IT_number 12
_symmetry_cell_setting 'monoclinic'
loop_
_space_group_symop_operation_xyz
x,y,z
-x,y,-z
-x,-y,-z
x,-y,z
1/2+x,1/2+y,z
1/2-x,1/2+y,-z
1/2-x,1/2-y,-z
1/2+x,1/2-y,z
loop_
_atom_site_type_symbol
_atom_site_label
_atom_site_fract_x
_atom_site_fract_y
_atom_site_fract_z
Si Si1 0.597520 0.677316 0.692628
Si Si2 0.146781 0.680507 0.581009
Si Si3 0.765631 0.324950 0.058600
Si Si4 0.170541 0.821941 0.748769
Si Si5 0.843939 0.322318 0.812115
Si Si6 0.568507 0.823287 0.100652
Si Si7 0.118595 0.321913 0.300632
O O1 0.595134 0.500000 0.682950
O O2 0.663765 0.765641 0.620886
O O3 0.671883 0.710569 0.697911
O O4 0.462606 0.736564 0.768600
O O5 0.154111 0.500000 0.575990
O O6 0.250000 0.750000 0.500000
O O7 0.017825 0.743870 0.628980
O O8 0.750779 0.500000 0.077769
O O9 0.768041 0.231145 0.101615
O O10 0.649693 0.275576 0.090564
O O11 0.887922 0.294315 0.969992
O O12 0.298251 0.762292 0.703080
O O13 0.068659 0.728937 0.825468
O O14 0.150754 0.000000 0.768304
O O15 0.867463 0.500000 0.805223
O O16 0.818232 0.278763 0.776301
O O17 0.582906 0.000000 0.105401
O O18 0.105014 0.500000 0.311455
#
# Coordination Sequence:
#
# PCOD8082424 Si02
#       7
#     8   8   8   8   8   8   8
#     4  10  19  31  53  81 105 134 173 213 256 307
#     4  10  20  37  60  82 107 136 171 212 253 304
#     4  10  19  31  47  71 101 136 178 222 266 313
#     4  10  19  34  54  76 105 138 175 214 257 312
#     4  10  18  31  52  75 102 136 179 225 261 304
#     4  10  20  31  47  72 103 136 174 221 270 310
#     4   8  18  35  54  77 104 138 173 209 256 309
#
# _framework density 18.238582000000001
#
# number of rings (size 3 to 8) (size 9 to 14) (size 15 to 20)
#    0.000    2.286    1.429    3.000    0.000    2.286 
#    0.000    5.714    0.000    8.571    0.000    0.000 
#    0.000    0.000    0.000    0.000    0.000    0.000 
#
# Total GULP energy -347124.037939 kJ/mol
# GULP energy per Si atom -12397.287069 kJ/mol
# Density = 1.819707 g / cm^3
# Si number density = 18.238582 Si / 1000 Ang^3
#
#
#
# Elastic Constant Matrix: (Units=GPa)
#
#
# Indices 1 2 3 4 5 6 
#
# 1 117.6929 33.5706 54.1951 -0.0023 4.2641 0.0260
# 2 33.5706 63.1610 40.8488 0.0070 6.6320 0.0098
# 3 54.1951 40.8488 128.9699 -0.0020 12.2813 0.0013
# 4 -0.0023 0.0070 -0.0020 33.3796 -0.0008 5.1181
# 5 4.2641 6.6320 12.2813 -0.0008 21.4997 0.0019
# 6 0.0260 0.0098 0.0013 5.1181 0.0019 20.9514
#
#
#
# Elastic Compliance Matrix: (Units=1/GPa)
#
#
# Indices 1 2 3 4 5 6 
#
# 1 0.011186 -0.003708 -0.003620 0.000003 0.000994 -0.000013
# 2 -0.003708 0.021288 -0.004895 -0.000005 -0.003035 -0.000004
# 3 -0.003620 -0.004895 0.011224 0.000000 -0.004183 0.000006
# 4 0.000003 -0.000005 0.000000 0.031124 0.000002 -0.007603
# 5 0.000994 -0.003035 -0.004183 0.000002 0.049641 -0.000005
# 6 -0.000013 -0.000004 0.000006 -0.007603 -0.000005 0.049587
#
#
# Mechanical properties :
#
#
# Convention : Reuss Voigt Hill
#
# Bulk Modulus (GPa) = 51.94855 63.00588 57.47721
# Shear Modulus (GPa) = 24.40042 27.24674 25.82358
#
# Velocity S-wave (km/s) = 3.66163 3.86930 3.76690
# Velocity P-wave (km/s) = 6.81332 7.38799 7.10646
#
# Compressibility (1/GPa) = 0.01924981
#
# Stress axis : x y z
#
# Youngs Moduli (GPa) = 89.40121 46.97442 89.09441
#
# Poissons Ratio (x) = 0.17418 0.32257
# Poissons Ratio (y) = 0.33150 0.43616
# Poissons Ratio (z) = 0.32368 0.22996
#
# Static dielectric constant tensor:
#      x y z
#    x 3.469200 -0.000020 0.088260 
#    y -0.000020 3.333470 0.000000 
#    z 0.088260 0.000000 3.454940 
# 
# 
# High freq. dielectric constant tensor:
#      x y z
#    x 1.688600 0.000000 0.018070 
#    y 0.000000 1.706370 0.000000 
#    z 0.018070 0.000000 1.701010 
# 
# From -- ./inp_files/313295.got.cif
#   From: 2010.06.25/outbox.cif.g09.slc.cpg/sg12_157_cif.got.tgz:313295.got - 2010.06.28 00:19:55.
