data_PCOD8082364
_publ_section_title
;
Structure prediction by ZEFSAII (Michael W. Deem and Ramdas Pophale) SiO2 
 PCOD8082364
Probable space group: C 2/M
;
_chemical_formula_sum "Si O2"
_cell_formula_units_Z 48
_cell_length_a 22.575625
_cell_length_b 8.483584
_cell_length_c 23.834219
_cell_angle_alpha 90.000000
_cell_angle_beta 144.610126
_cell_angle_gamma 90.000000
_cell_volume 2643.634814
_symmetry_space_group_name_H-M "C 2/M"
_symmetry_group_IT_number 12
_symmetry_cell_setting 'monoclinic'
loop_
_space_group_symop_operation_xyz
x,y,z
-x,y,-z
-x,-y,-z
x,-y,z
1/2+x,1/2+y,z
1/2-x,1/2+y,-z
1/2-x,1/2-y,-z
1/2+x,1/2-y,z
loop_
_atom_site_type_symbol
_atom_site_label
_atom_site_fract_x
_atom_site_fract_y
_atom_site_fract_z
Si Si1 0.093246 0.316614 0.137055
Si Si2 0.291182 0.686248 0.090098
Si Si3 0.123175 0.815002 0.040969
Si Si4 0.824804 0.814571 0.689484
Si Si5 0.173088 0.683375 0.484745
Si Si6 0.516467 0.813738 0.277552
O O1 0.097211 0.500000 0.124985
O O2 0.132913 0.217925 0.114602
O O3 0.165509 0.280211 0.245351
O O4 0.977371 0.267199 0.062460
O O5 0.292935 0.500000 0.089461
O O6 0.221578 0.744731 0.087016
O O7 0.403172 0.750542 0.187909
O O8 0.250000 0.750000 0.000000
O O9 0.115696 0.000000 0.023999
O O10 0.713132 0.761635 0.577295
O O11 0.916232 0.770600 0.717869
O O12 0.830587 0.000000 0.706726
O O13 0.189155 0.500000 0.496352
O O14 0.250000 0.750000 0.500000
O O15 0.059461 0.726471 0.374238
O O16 0.519083 0.000000 0.267992
#
# Coordination Sequence:
#
# PCOD8082364 Si02
#       6
#     8   8   8   8   8   8
#     4  11  21  35  54  78 105 135 168 210 254 300
#     4  12  24  38  54  76 104 137 171 208 251 304
#     4  11  22  38  56  76 101 134 171 211 254 302
#     4  10  18  31  51  78 106 137 173 211 252 300
#     4   8  16  29  48  72 102 134 169 209 253 298
#     4  10  19  33  51  76 106 138 171 211 257 303
#
# _framework density 18.156818999999999
#
# number of rings (size 3 to 8) (size 9 to 14) (size 15 to 20)
#    0.000    1.667    0.000    7.500    0.000    1.333 
#    0.000    0.000    0.000    1.000    0.000    7.000 
#    0.000    0.000    0.000    0.000    0.000    0.000 
#
# Total GULP energy -297440.782657 kJ/mol
# GULP energy per Si atom -12393.365944 kJ/mol
# Density = 1.811549 g / cm^3
# Si number density = 18.156819 Si / 1000 Ang^3
#
#
#
# Elastic Constant Matrix: (Units=GPa)
#
#
# Indices 1 2 3 4 5 6 
#
# 1 61.6388 16.6125 41.8125 0.0000 -0.6632 0.0000
# 2 16.6125 91.4265 28.7297 0.0000 -3.2789 0.0000
# 3 41.8125 28.7297 158.8091 0.0000 -13.8149 0.0000
# 4 0.0000 0.0000 0.0000 26.1677 0.0000 -0.9767
# 5 -0.6632 -3.2789 -13.8149 0.0000 27.6365 0.0000
# 6 0.0000 0.0000 0.0000 -0.9767 0.0000 28.8173
#
#
#
# Elastic Compliance Matrix: (Units=1/GPa)
#
#
# Indices 1 2 3 4 5 6 
#
# 1 0.020273 -0.002148 -0.005153 0.000000 -0.002344 0.000000
# 2 -0.002148 0.011828 -0.001523 0.000000 0.000591 0.000000
# 3 -0.005153 -0.001523 0.008262 0.000000 0.003826 0.000000
# 4 0.000000 0.000000 0.000000 0.038263 0.000000 0.001297
# 5 -0.002344 0.000591 0.003826 0.000000 0.038110 0.000000
# 6 0.000000 0.000000 0.000000 0.001297 0.000000 0.034745
#
#
# Mechanical properties :
#
#
# Convention : Reuss Voigt Hill
#
# Bulk Modulus (GPa) = 44.02500 54.02044 49.02272
# Shear Modulus (GPa) = 28.29640 31.50560 29.90100
#
# Velocity S-wave (km/s) = 3.95200 4.17008 4.06250
# Velocity P-wave (km/s) = 6.71745 7.28031 7.00453
#
# Compressibility (1/GPa) = 0.02271437
#
# Stress axis : x y z
#
# Youngs Moduli (GPa) = 49.32724 84.54653 121.03893
#
# Poissons Ratio (x) = 0.18165 0.62369
# Poissons Ratio (y) = 0.10598 0.18430
# Poissons Ratio (z) = 0.25417 0.12874
#
# Static dielectric constant tensor:
#      x y z
#    x 3.111830 0.000000 -0.144670 
#    y 0.000000 3.553600 0.000000 
#    z -0.144670 0.000000 4.041360 
# 
# 
# High freq. dielectric constant tensor:
#      x y z
#    x 1.667800 0.000000 -0.016660 
#    y 0.000000 1.722260 0.000000 
#    z -0.016660 0.000000 1.722120 
# 
# From -- ./inp_files/345698.got.cif
#   From: 2010.06.25/outbox.cif.g09.slc.cpg/sg12_173_cif.got.tgz:345698.got - 2010.06.28 00:19:55.
