data_PCOD8082179
_publ_section_title
;
Structure prediction by ZEFSAII (Michael W. Deem and Ramdas Pophale) SiO2 
 PCOD8082179
Probable space group: C 2/M
;
_chemical_formula_sum "Si O2"
_cell_formula_units_Z 64
_cell_length_a 20.380363
_cell_length_b 18.874346
_cell_length_c 12.263028
_cell_angle_alpha 90.000000
_cell_angle_beta 128.773946
_cell_angle_gamma 90.000000
_cell_volume 3677.613535
_symmetry_space_group_name_H-M "C 2/M"
_symmetry_group_IT_number 12
_symmetry_cell_setting 'monoclinic'
loop_
_space_group_symop_operation_xyz
x,y,z
-x,y,-z
-x,-y,-z
x,-y,z
1/2+x,1/2+y,z
1/2-x,1/2+y,-z
1/2-x,1/2-y,-z
1/2+x,1/2-y,z
loop_
_atom_site_type_symbol
_atom_site_label
_atom_site_fract_x
_atom_site_fract_y
_atom_site_fract_z
Si Si1 0.380652 0.583913 0.665293
Si Si2 0.205340 0.833875 0.069551
Si Si3 0.484918 0.681232 0.101997
Si Si4 0.040390 0.578950 0.423953
Si Si5 0.232364 0.418205 0.667287
Si Si6 0.311281 0.295780 0.180580
Si Si7 0.920169 0.843467 0.480279
Si Si8 0.515239 0.225884 0.699219
O O1 0.384565 0.500000 0.664115
O O2 0.458776 0.612340 0.815940
O O3 0.296001 0.610738 0.639735
O O4 0.387266 0.612309 0.548644
O O5 0.257617 0.885502 0.201725
O O6 0.232252 0.753542 0.128488
O O7 0.108691 0.847593 0.991301
O O8 0.217474 0.845857 0.951035
O O9 0.507439 0.744975 0.205770
O O10 0.500000 0.713883 0.000000
O O11 0.026201 0.500000 0.357800
O O12 0.138723 0.597330 0.529391
O O13 0.996159 0.641093 0.309037
O O14 0.000000 0.580420 0.500000
O O15 0.249851 0.500000 0.702931
O O16 0.340431 0.340719 0.315555
O O17 0.388331 0.244716 0.225539
O O18 0.951881 0.764570 0.548106
O O19 0.000000 0.880000 0.500000
#
# Coordination Sequence:
#
# PCOD8082179 Si02
#       8
#     8   8   8   8   8   8   8   8
#     4  10  21  35  51  71 101 138 169 209 254 291
#     4  10  18  31  50  71 100 131 164 202 245 294
#     4  10  19  33  48  71  99 128 169 203 237 292
#     4  10  19  32  53  78  99 125 161 203 253 304
#     4  10  20  33  49  73 104 131 162 206 252 299
#     4   9  18  31  51  74  99 130 160 205 255 289
#     4   9  17  33  52  73 100 132 172 209 247 297
#     4   9  17  31  52  72  99 126 157 208 251 288
#
# _framework density 17.40259
#
# number of rings (size 3 to 8) (size 9 to 14) (size 15 to 20)
#    0.000    2.375    1.250    3.375    0.000    1.000 
#    2.250    2.500    0.000    0.375    0.000    0.875 
#    0.000    0.000    0.000    0.000    0.000    0.000 
#
# Total GULP energy -396559.037325 kJ/mol
# GULP energy per Si atom -12392.469916 kJ/mol
# Density = 1.736298 g / cm^3
# Si number density = 17.402590 Si / 1000 Ang^3
#
#
#
# Elastic Constant Matrix: (Units=GPa)
#
#
# Indices 1 2 3 4 5 6 
#
# 1 87.3568 25.6043 27.1867 0.0000 -4.6448 0.0000
# 2 25.6043 76.6077 27.1117 0.0000 -7.1598 0.0000
# 3 27.1867 27.1117 75.6485 0.0000 -20.7799 0.0000
# 4 0.0000 0.0000 0.0000 21.9516 0.0000 3.6082
# 5 -4.6448 -7.1598 -20.7799 0.0000 30.2312 0.0000
# 6 0.0000 0.0000 0.0000 3.6082 0.0000 20.4962
#
#
#
# Elastic Compliance Matrix: (Units=1/GPa)
#
#
# Indices 1 2 3 4 5 6 
#
# 1 0.013602 -0.003219 -0.004155 0.000000 -0.001528 0.000000
# 2 -0.003219 0.015712 -0.004423 0.000000 0.000186 0.000000
# 3 -0.004155 -0.004423 0.019520 0.000000 0.011731 0.000000
# 4 0.000000 0.000000 0.000000 0.046912 0.000000 -0.008259
# 5 -0.001528 0.000186 0.011731 0.000000 0.040952 0.000000
# 6 0.000000 0.000000 0.000000 -0.008259 0.000000 0.050243
#
#
# Mechanical properties :
#
#
# Convention : Reuss Voigt Hill
#
# Bulk Modulus (GPa) = 39.61762 44.37981 41.99872
# Shear Modulus (GPa) = 22.83642 25.18314 24.00978
#
# Velocity S-wave (km/s) = 3.62642 3.80819 3.71842
# Velocity P-wave (km/s) = 6.35211 6.70027 6.52851
#
# Compressibility (1/GPa) = 0.02524130
#
# Stress axis : x y z
#
# Youngs Moduli (GPa) = 73.51601 63.64525 51.22992
#
# Poissons Ratio (x) = 0.20486 0.21284
# Poissons Ratio (y) = 0.23663 0.22659
# Poissons Ratio (z) = 0.30544 0.28151
#
# Static dielectric constant tensor:
#      x y z
#    x 3.513080 0.000000 -0.040110 
#    y 0.000000 3.072540 0.000000 
#    z -0.040110 0.000000 3.353790 
# 
# 
# High freq. dielectric constant tensor:
#      x y z
#    x 1.675600 0.000000 0.002660 
#    y 0.000000 1.644790 0.000000 
#    z 0.002660 0.000000 1.674460 
# 
# From -- ./inp_files/168452.got.cif
#   From: 2010.06.25/outbox.cif.g09.slc.cpg/sg12_85_cif.got.tgz:168452.got - 2010.06.28 00:19:55.
