data_PCOD8082799
_publ_section_title
;
Structure prediction by ZEFSAII (Michael W. Deem and Ramdas Pophale) SiO2 
 PCOD8082799
Probable space group: C 2/M
;
_chemical_formula_sum "Si O2"
_cell_formula_units_Z 64
_cell_length_a 15.432812
_cell_length_b 9.244973
_cell_length_c 25.149792
_cell_angle_alpha 90.000000
_cell_angle_beta 107.518459
_cell_angle_gamma 90.000000
_cell_volume 3421.846090
_symmetry_space_group_name_H-M "C 2/M"
_symmetry_group_IT_number 12
_symmetry_cell_setting 'monoclinic'
loop_
_space_group_symop_operation_xyz
x,y,z
-x,y,-z
-x,-y,-z
x,-y,z
1/2+x,1/2+y,z
1/2-x,1/2+y,-z
1/2-x,1/2-y,-z
1/2+x,1/2-y,z
loop_
_atom_site_type_symbol
_atom_site_label
_atom_site_fract_x
_atom_site_fract_y
_atom_site_fract_z
Si Si1 0.408740 0.666057 0.625952
Si Si2 0.714772 0.829313 0.751051
Si Si3 0.777921 0.670920 0.365967
Si Si4 0.469944 0.170304 0.936941
Si Si5 0.421079 0.665099 0.131939
Si Si6 0.225653 0.669299 0.138623
Si Si7 0.972528 0.671821 0.436472
Si Si8 0.960267 0.163114 0.256097
O O1 0.416658 0.500000 0.608656
O O2 0.304039 0.717628 0.610421
O O3 0.456379 0.766791 0.592275
O O4 0.449174 0.684022 0.692808
O O5 0.744657 0.777686 0.697957
O O6 0.778216 0.751921 0.805951
O O7 0.610599 0.782213 0.737778
O O8 0.722707 0.000000 0.760611
O O9 0.787545 0.500000 0.367101
O O10 0.872648 0.736131 0.405074
O O11 0.535472 0.237262 0.905103
O O12 0.364508 0.214411 0.910082
O O13 0.482999 0.000000 0.935087
O O14 0.500000 0.228679 0.000000
O O15 0.424205 0.500000 0.112972
O O16 0.316119 0.713501 0.122515
O O17 0.479562 0.685680 0.196922
O O18 0.227949 0.500000 0.151635
O O19 0.975347 0.500000 0.432567
O O20 0.000000 0.725010 0.500000
O O21 0.920528 0.000000 0.256645
#
# Coordination Sequence:
#
# PCOD8082799 Si02
#       8
#     8   8   8   8   8   8   8   8
#     4  10  20  35  56  80 109 144 182 223 270 326
#     4  10  18  31  56  82 109 141 181 223 266 325
#     4   9  19  34  53  80 110 143 179 221 273 322
#     4  10  22  39  57  79 110 147 185 225 271 321
#     4   9  19  35  55  79 109 143 181 222 269 325
#     4   9  20  38  55  77 112 147 177 220 277 325
#     4  10  21  39  58  77 110 150 185 227 274 318
#     4   9  18  33  54  79 112 145 173 217 279 328
#
# _framework density 18.703354999999998
#
# number of rings (size 3 to 8) (size 9 to 14) (size 15 to 20)
#    0.000    2.500    1.250    1.125    1.750    4.000 
#    0.000    1.875    0.000    0.000    0.000    0.000 
#    0.000    0.000    0.000    0.000    0.000    0.000 
#
# Total GULP energy -396729.729990 kJ/mol
# GULP energy per Si atom -12397.804062 kJ/mol
# Density = 1.866079 g / cm^3
# Si number density = 18.703355 Si / 1000 Ang^3
#
#
#
# Elastic Constant Matrix: (Units=GPa)
#
#
# Indices 1 2 3 4 5 6 
#
# 1 122.0816 29.3243 79.1373 0.0000 -1.5846 0.0000
# 2 29.3243 33.2043 40.7245 0.0000 1.2732 0.0000
# 3 79.1373 40.7245 140.1782 0.0000 -5.3378 0.0000
# 4 0.0000 0.0000 0.0000 25.7553 0.0000 -5.2940
# 5 -1.5846 1.2732 -5.3378 0.0000 21.3422 0.0000
# 6 0.0000 0.0000 0.0000 -5.2940 0.0000 29.2357
#
#
#
# Elastic Compliance Matrix: (Units=1/GPa)
#
#
# Indices 1 2 3 4 5 6 
#
# 1 0.013243 -0.003874 -0.006365 0.000000 -0.000378 0.000000
# 2 -0.003874 0.048762 -0.012217 0.000000 -0.006252 0.000000
# 3 -0.006365 -0.012217 0.014424 0.000000 0.003864 0.000000
# 4 0.000000 0.000000 0.000000 0.040328 0.000000 0.007303
# 5 -0.000378 -0.006252 0.003864 0.000000 0.048167 0.000000
# 6 0.000000 0.000000 0.000000 0.007303 0.000000 0.035527
#
#
# Mechanical properties :
#
#
# Convention : Reuss Voigt Hill
#
# Bulk Modulus (GPa) = 31.73047 65.98181 48.85614
# Shear Modulus (GPa) = 19.54124 25.01850 22.27987
#
# Velocity S-wave (km/s) = 3.23584 3.66135 3.45515
# Velocity P-wave (km/s) = 5.56443 7.29580 6.48812
#
# Compressibility (1/GPa) = 0.03151545
#
# Stress axis : x y z
#
# Youngs Moduli (GPa) = 75.51115 20.50778 69.33056
#
# Poissons Ratio (x) = 0.07945 0.44130
# Poissons Ratio (y) = 0.29256 0.84702
# Poissons Ratio (z) = 0.48064 0.25055
#
# Static dielectric constant tensor:
#      x y z
#    x 3.463160 0.000000 0.208120 
#    y 0.000000 3.242410 0.000000 
#    z 0.208120 0.000000 3.681390 
# 
# 
# High freq. dielectric constant tensor:
#      x y z
#    x 1.725890 0.000000 0.005680 
#    y 0.000000 1.707070 0.000000 
#    z 0.005680 0.000000 1.728830 
# 
# From -- ./inp_files/359936.got.cif
#   From: 2010.06.25/outbox.cif.g09.slc.cpg/sg12_180_cif.got.tgz:359936.got - 2010.06.28 00:19:55.
