data_PCOD8082869
_publ_section_title
;
Structure prediction by ZEFSAII (Michael W. Deem and Ramdas Pophale) SiO2 
 PCOD8082869
Probable space group: C 2/M
;
_chemical_formula_sum "Si O2"
_cell_formula_units_Z 64
_cell_length_a 24.502876
_cell_length_b 9.462727
_cell_length_c 15.956312
_cell_angle_alpha 90.000000
_cell_angle_beta 99.295995
_cell_angle_gamma 90.000000
_cell_volume 3651.106692
_symmetry_space_group_name_H-M "C 2/M"
_symmetry_group_IT_number 12
_symmetry_cell_setting 'monoclinic'
loop_
_space_group_symop_operation_xyz
x,y,z
-x,y,-z
-x,-y,-z
x,-y,z
1/2+x,1/2+y,z
1/2-x,1/2+y,-z
1/2-x,1/2-y,-z
1/2+x,1/2-y,z
loop_
_atom_site_type_symbol
_atom_site_label
_atom_site_fract_x
_atom_site_fract_y
_atom_site_fract_z
Si Si1 0.286438 0.154733 0.066864
Si Si2 0.728205 0.337926 0.780420
Si Si3 0.351408 0.164361 0.805503
Si Si4 0.478213 0.164621 0.406232
Si Si5 0.604314 0.842981 0.007672
Si Si6 0.450696 0.334279 0.142943
Si Si7 0.958792 0.336226 0.742915
Si Si8 0.889075 0.840925 0.296774
O O1 0.292261 0.231240 0.155499
O O2 0.345676 0.135866 0.042362
O O3 0.259000 0.000000 0.071873
O O4 0.250000 0.250000 0.000000
O O5 0.731583 0.500000 0.814483
O O6 0.789088 0.286218 0.763880
O O7 0.677260 0.326466 0.701774
O O8 0.393718 0.199205 0.740422
O O9 0.347947 0.000000 0.822422
O O10 0.374312 0.227540 0.899427
O O11 0.500000 0.224300 0.500000
O O12 0.525549 0.196770 0.349181
O O13 0.420794 0.238799 0.368161
O O14 0.464671 0.000000 0.409672
O O15 0.563090 0.735778 0.950391
O O16 0.577356 0.000000 0.015455
O O17 0.459793 0.500000 0.130348
O O18 0.507650 0.263119 0.186194
O O19 0.404398 0.305914 0.203340
O O20 0.971613 0.500000 0.767739
O O21 0.908673 0.000000 0.321166
#
# Coordination Sequence:
#
# PCOD8082869 Si02
#       8
#     8   8   8   8   8   8   8   8
#     4  11  20  29  44  66  94 129 169 213 250 277
#     4  10  18  32  49  69  97 127 164 205 240 282
#     4   9  18  32  49  67  91 130 172 204 232 278
#     4   9  18  33  55  80 100 118 148 194 242 290
#     4  10  19  30  45  65  91 127 171 208 240 277
#     4  10  19  31  47  68  96 127 161 206 252 281
#     4   9  18  34  53  70  92 125 163 197 238 291
#     4   9  18  30  49  75 100 124 152 193 241 287
#
# _framework density 17.528932000000001
#
# number of rings (size 3 to 8) (size 9 to 14) (size 15 to 20)
#    0.000    2.375    2.500    0.750    0.000    2.250 
#    0.000    3.750    0.000    0.750    0.000    0.000 
#    0.000    0.000    0.000    0.000    0.000    0.000 
#
# Total GULP energy -396490.509021 kJ/mol
# GULP energy per Si atom -12390.328407 kJ/mol
# Density = 1.748904 g / cm^3
# Si number density = 17.528932 Si / 1000 Ang^3
#
#
#
# Elastic Constant Matrix: (Units=GPa)
#
#
# Indices 1 2 3 4 5 6 
#
# 1 114.2494 33.9643 53.0191 0.0000 6.2233 0.0000
# 2 33.9643 73.7040 36.2953 0.0000 9.2657 0.0000
# 3 53.0191 36.2953 88.0397 0.0000 10.7790 0.0000
# 4 0.0000 0.0000 0.0000 19.2309 0.0000 5.7804
# 5 6.2233 9.2657 10.7790 0.0000 17.3267 0.0000
# 6 0.0000 0.0000 0.0000 5.7804 0.0000 20.0977
#
#
#
# Elastic Compliance Matrix: (Units=1/GPa)
#
#
# Indices 1 2 3 4 5 6 
#
# 1 0.012543 -0.002668 -0.006578 0.000000 0.001014 0.000000
# 2 -0.002668 0.018023 -0.005153 0.000000 -0.005474 0.000000
# 3 -0.006578 -0.005153 0.018204 0.000000 -0.006207 0.000000
# 4 0.000000 0.000000 0.000000 0.056920 0.000000 -0.016371
# 5 0.001014 -0.005474 -0.006207 0.000000 0.064139 0.000000
# 6 0.000000 0.000000 0.000000 -0.016371 0.000000 0.054465
#
#
# Mechanical properties :
#
#
# Convention : Reuss Voigt Hill
#
# Bulk Modulus (GPa) = 50.07027 58.06117 54.06572
# Shear Modulus (GPa) = 19.24915 21.51202 20.38058
#
# Velocity S-wave (km/s) = 3.31741 3.50698 3.41351
# Velocity P-wave (km/s) = 6.58027 7.04227 6.81519
#
# Compressibility (1/GPa) = 0.01997193
#
# Stress axis : x y z
#
# Youngs Moduli (GPa) = 79.72313 55.48392 54.93254
#
# Poissons Ratio (x) = 0.14806 0.36134
# Poissons Ratio (y) = 0.21274 0.28307
# Poissons Ratio (z) = 0.52441 0.28591
#
# Static dielectric constant tensor:
#      x y z
#    x 3.335690 0.000000 0.148100 
#    y 0.000000 3.270570 0.000000 
#    z 0.148100 0.000000 2.894810 
# 
# 
# High freq. dielectric constant tensor:
#      x y z
#    x 1.676780 0.000000 0.009330 
#    y 0.000000 1.670800 0.000000 
#    z 0.009330 0.000000 1.638150 
# 
# From -- ./inp_files/287706.got.cif
#   From: 2010.06.25/outbox.cif.g09.slc.cpg/sg12_144_cif.got.tgz:287706.got - 2010.06.28 00:19:55.
