data_PCOD8082487
_publ_section_title
;
Structure prediction by ZEFSAII (Michael W. Deem and Ramdas Pophale) SiO2 
 PCOD8082487
Probable space group: C 2/M
;
_chemical_formula_sum "Si O2"
_cell_formula_units_Z 56
_cell_length_a 20.168385
_cell_length_b 9.201217
_cell_length_c 29.203467
_cell_angle_alpha 90.000000
_cell_angle_beta 34.003930
_cell_angle_gamma 90.000000
_cell_volume 3030.795415
_symmetry_space_group_name_H-M "C 2/M"
_symmetry_group_IT_number 12
_symmetry_cell_setting 'monoclinic'
loop_
_space_group_symop_operation_xyz
x,y,z
-x,y,-z
-x,-y,-z
x,-y,z
1/2+x,1/2+y,z
1/2-x,1/2+y,-z
1/2-x,1/2-y,-z
1/2+x,1/2-y,z
loop_
_atom_site_type_symbol
_atom_site_label
_atom_site_fract_x
_atom_site_fract_y
_atom_site_fract_z
Si Si1 0.155158 0.667787 0.330554
Si Si2 0.267612 0.168450 0.091662
Si Si3 0.056479 0.830273 0.071729
Si Si4 0.485959 0.332073 0.800366
Si Si5 0.180282 0.165901 0.846874
Si Si6 0.054485 0.839772 0.519087
Si Si7 0.218704 0.328163 0.659871
O O1 0.155391 0.500000 0.345394
O O2 0.206188 0.688009 0.250569
O O3 0.237727 0.754995 0.318186
O O4 0.019779 0.726936 0.407606
O O5 0.127539 0.194312 0.166513
O O6 0.310376 0.231375 0.115125
O O7 0.300002 0.000000 0.071698
O O8 0.333420 0.244131 0.011931
O O9 0.041552 0.779954 0.132472
O O10 0.937552 0.790133 0.112733
O O11 0.085510 0.000000 0.052225
O O12 0.525561 0.500000 0.777922
O O13 0.591379 0.235530 0.718965
O O14 0.172429 0.000000 0.868534
O O15 0.191663 0.792304 0.433697
O O16 0.000000 0.845207 0.500000
O O17 0.046186 0.000000 0.546488
O O18 0.211811 0.500000 0.672193
#
# Coordination Sequence:
#
# PCOD8082487 Si02
#       7
#     8   8   8   8   8   8   8
#     4  10  18  31  52  78 106 140 179 216 258 311
#     4  11  24  37  53  80 109 138 176 224 268 312
#     4  10  20  38  59  76 102 140 179 221 266 315
#     4  10  21  38  56  77 108 141 177 220 265 314
#     4  10  21  37  56  77 106 144 179 215 263 315
#     4   8  16  29  45  74 111 138 166 213 267 311
#     4  10  19  31  51  79 109 139 173 216 265 313
#
# _framework density 18.476997999999998
#
# number of rings (size 3 to 8) (size 9 to 14) (size 15 to 20)
#    0.000    2.143    1.429    3.000    0.000    8.286 
#    0.000    0.000    0.000    0.857    0.000    0.000 
#    0.000    0.000    0.000    0.000    0.000    0.000 
#
# Total GULP energy -347230.966846 kJ/mol
# GULP energy per Si atom -12401.105959 kJ/mol
# Density = 1.843494 g / cm^3
# Si number density = 18.476998 Si / 1000 Ang^3
#
#
#
# Elastic Constant Matrix: (Units=GPa)
#
#
# Indices 1 2 3 4 5 6 
#
# 1 40.9765 15.0333 -2.2562 0.0002 -6.3339 -0.0123
# 2 15.0333 80.3400 43.5870 0.0020 -10.9895 -0.0109
# 3 -2.2562 43.5870 91.1693 0.0002 -15.9495 0.0027
# 4 0.0002 0.0020 0.0002 35.8324 0.0005 -8.3037
# 5 -6.3339 -10.9895 -15.9495 0.0005 14.9046 0.0078
# 6 -0.0123 -0.0109 0.0027 -8.3037 0.0078 10.4185
#
#
#
# Elastic Compliance Matrix: (Units=1/GPa)
#
#
# Indices 1 2 3 4 5 6 
#
# 1 0.029656 -0.007212 0.006713 0.000004 0.014469 0.000018
# 2 -0.007212 0.018828 -0.008966 0.000002 0.001223 0.000014
# 3 0.006713 -0.008966 0.018164 -0.000005 0.015680 -0.000022
# 4 0.000004 0.000002 -0.000005 0.034230 -0.000017 0.027282
# 5 0.014469 0.001223 0.015680 -0.000017 0.090923 -0.000068
# 6 0.000018 0.000014 -0.000022 0.027282 -0.000068 0.117728
#
#
# Mechanical properties :
#
#
# Convention : Reuss Voigt Hill
#
# Bulk Modulus (GPa) = 20.95614 36.13490 28.54552
# Shear Modulus (GPa) = 14.51943 22.63921 18.57932
#
# Velocity S-wave (km/s) = 2.80627 3.50418 3.17446
# Velocity P-wave (km/s) = 4.67617 5.99762 5.37764
#
# Compressibility (1/GPa) = 0.04771871
#
# Stress axis : x y z
#
# Youngs Moduli (GPa) = 33.71952 53.11126 55.05258
#
# Poissons Ratio (x) = 0.38306 -0.36958
# Poissons Ratio (y) = 0.24320 0.49361
# Poissons Ratio (z) = -0.22637 0.47621
#
# Static dielectric constant tensor:
#      x y z
#    x 3.051550 0.000000 -0.165730 
#    y 0.000000 3.444580 0.000000 
#    z -0.165730 0.000000 3.774220 
# 
# 
# High freq. dielectric constant tensor:
#      x y z
#    x 1.680340 0.000000 -0.011250 
#    y 0.000000 1.721040 0.000000 
#    z -0.011250 0.000000 1.730710 
# 
# From -- ./inp_files/319644.got.cif
#   From: 2010.06.25/outbox.cif.g09.slc.cpg/sg12_160_cif.got.tgz:319644.got - 2010.06.28 00:19:55.
