data_PCOD8082801
_publ_section_title
;
Structure prediction by ZEFSAII (Michael W. Deem and Ramdas Pophale) SiO2 
 PCOD8082801
Probable space group: C 2/M
;
_chemical_formula_sum "Si O2"
_cell_formula_units_Z 56
_cell_length_a 20.158310
_cell_length_b 9.312177
_cell_length_c 30.712846
_cell_angle_alpha 90.000000
_cell_angle_beta 30.210066
_cell_angle_gamma 90.000000
_cell_volume 2900.959589
_symmetry_space_group_name_H-M "C 2/M"
_symmetry_group_IT_number 12
_symmetry_cell_setting 'monoclinic'
loop_
_space_group_symop_operation_xyz
x,y,z
-x,y,-z
-x,-y,-z
x,-y,z
1/2+x,1/2+y,z
1/2-x,1/2+y,-z
1/2-x,1/2-y,-z
1/2+x,1/2-y,z
loop_
_atom_site_type_symbol
_atom_site_label
_atom_site_fract_x
_atom_site_fract_y
_atom_site_fract_z
Si Si1 0.401655 0.832251 0.801514
Si Si2 0.068582 0.839567 0.640680
Si Si3 0.198642 0.337432 0.430577
Si Si4 0.982436 0.165565 0.594061
Si Si5 0.638287 0.668359 0.906058
Si Si6 0.276373 0.667022 0.236169
Si Si7 0.077794 0.835074 0.762027
O O1 0.477150 0.776153 0.716246
O O2 0.246904 0.799848 0.881588
O O3 0.451815 0.756040 0.817254
O O4 0.429170 0.000000 0.790444
O O5 0.218503 0.823984 0.571690
O O6 0.063999 0.812923 0.592102
O O7 0.016125 0.000000 0.681788
O O8 0.149839 0.500000 0.450734
O O9 0.290692 0.285582 0.338428
O O10 0.070146 0.236611 0.506145
O O11 0.843662 0.244122 0.676260
O O12 0.957921 0.000000 0.596482
O O13 0.618584 0.500000 0.910031
O O14 0.681662 0.731569 0.834465
O O15 0.500000 0.738225 0.000000
O O16 0.234534 0.500000 0.256757
O O17 0.399678 0.686437 0.199301
O O18 0.048384 0.000000 0.766905
#
# Coordination Sequence:
#
# PCOD8082801 Si02
#       7
#     8   8   8   8   8   8   8
#     4  10  18  31  56  83 106 137 175 220 265 312
#     4   9  18  32  49  72 106 142 177 220 265 313
#     4   9  18  32  48  69 100 142 187 221 254 309
#     4  11  21  31  48  76 109 140 176 228 273 303
#     4   9  18  34  58  87 110 131 170 220 266 316
#     4  10  20  37  58  77 103 144 184 215 260 323
#     4   9  20  37  55  75 106 147 184 217 257 312
#
# _framework density 19.303957
#
# number of rings (size 3 to 8) (size 9 to 14) (size 15 to 20)
#    0.000    2.429    1.429    2.143    0.000    4.000 
#    0.000    3.571    0.000    3.857    0.000    0.000 
#    0.000    0.000    0.000    0.000    0.000    0.000 
#
# Total GULP energy -347152.613531 kJ/mol
# GULP energy per Si atom -12398.307626 kJ/mol
# Density = 1.926002 g / cm^3
# Si number density = 19.303957 Si / 1000 Ang^3
#
#
#
# Elastic Constant Matrix: (Units=GPa)
#
#
# Indices 1 2 3 4 5 6 
#
# 1 89.9820 38.1175 35.3536 0.0005 -1.6676 -0.0187
# 2 38.1175 78.5189 39.1333 0.0028 -12.8019 -0.0086
# 3 35.3536 39.1333 79.6308 0.0000 -22.9309 0.0066
# 4 0.0005 0.0028 0.0000 14.7086 0.0004 -4.6838
# 5 -1.6676 -12.8019 -22.9309 0.0004 18.5370 -0.0009
# 6 -0.0187 -0.0086 0.0066 -4.6838 -0.0009 27.1900
#
#
#
# Elastic Compliance Matrix: (Units=1/GPa)
#
#
# Indices 1 2 3 4 5 6 
#
# 1 0.016627 -0.006145 -0.008005 0.000005 -0.012650 0.000012
# 2 -0.006145 0.019194 -0.004732 -0.000003 0.006849 0.000003
# 3 -0.008005 -0.004732 0.026856 -0.000004 0.029233 -0.000013
# 4 0.000005 -0.000003 -0.000004 0.071933 -0.000007 0.012391
# 5 -0.012650 0.006849 0.029233 -0.000007 0.093701 -0.000012
# 6 0.000012 0.000003 -0.000013 0.012391 -0.000012 0.038913
#
#
# Mechanical properties :
#
#
# Convention : Reuss Voigt Hill
#
# Bulk Modulus (GPa) = 40.14018 52.59339 46.36678
# Shear Modulus (GPa) = 15.95958 21.12226 18.54092
#
# Velocity S-wave (km/s) = 2.87845 3.31145 3.10251
# Velocity P-wave (km/s) = 5.64679 6.47495 6.07499
#
# Compressibility (1/GPa) = 0.02491270
#
# Stress axis : x y z
#
# Youngs Moduli (GPa) = 60.14327 52.09982 37.23602
#
# Poissons Ratio (x) = 0.32013 0.29808
# Poissons Ratio (y) = 0.36955 0.17621
# Poissons Ratio (z) = 0.48145 0.24655
#
# Static dielectric constant tensor:
#      x y z
#    x 3.655960 0.000010 0.000940 
#    y 0.000010 3.385170 0.000000 
#    z 0.000940 0.000000 3.302990 
# 
# 
# High freq. dielectric constant tensor:
#      x y z
#    x 1.760400 0.000000 -0.002900 
#    y 0.000000 1.734610 0.000000 
#    z -0.002900 0.000000 1.719580 
# 
# From -- ./inp_files/320229.got.cif
#   From: 2010.06.25/outbox.cif.g09.slc.cpg/sg12_161_cif.got.tgz:320229.got - 2010.06.28 00:19:55.
