data_PCOD8082058
_publ_section_title
;
Structure prediction by ZEFSAII (Michael W. Deem and Ramdas Pophale) SiO2 
 PCOD8082058
Probable space group: C 2/M
;
_chemical_formula_sum "Si O2"
_cell_formula_units_Z 40
_cell_length_a 28.288586
_cell_length_b 13.286804
_cell_length_c 9.902899
_cell_angle_alpha 90.000000
_cell_angle_beta 42.777971
_cell_angle_gamma 90.000000
_cell_volume 2527.933672
_symmetry_space_group_name_H-M "C 2/M"
_symmetry_group_IT_number 12
_symmetry_cell_setting 'monoclinic'
loop_
_space_group_symop_operation_xyz
x,y,z
-x,y,-z
-x,-y,-z
x,-y,z
1/2+x,1/2+y,z
1/2-x,1/2+y,-z
1/2-x,1/2-y,-z
1/2+x,1/2-y,z
loop_
_atom_site_type_symbol
_atom_site_label
_atom_site_fract_x
_atom_site_fract_y
_atom_site_fract_z
Si Si1 0.578693 0.236118 0.289567
Si Si2 0.688213 0.614714 0.118142
Si Si3 0.098353 0.383312 0.691733
Si Si4 0.944560 0.616741 0.926062
Si Si5 0.816863 0.696982 0.714320
O O1 0.500000 0.251704 0.500000
O O2 0.616631 0.345254 0.199031
O O3 0.585423 0.182284 0.132062
O O4 0.619840 0.168901 0.314977
O O5 0.678930 0.500000 0.184077
O O6 0.704954 0.685633 0.214136
O O7 0.751361 0.624637 0.879386
O O8 0.111483 0.500000 0.633051
O O9 0.157518 0.318162 0.492606
O O10 0.023216 0.350898 0.793355
O O11 0.102619 0.362387 0.842778
O O12 0.941355 0.500000 0.892197
#
# Coordination Sequence:
#
# PCOD8082058 Si02
#       5
#     8   8   8   8   8
#     4  10  18  31  47  75  95 120 158 199 231 267
#     4   9  19  33  49  69  95 126 157 190 234 280
#     4   9  16  28  46  68  98 129 150 185 240 287
#     4   9  17  27  43  72 101 122 151 191 238 278
#     4   9  18  32  50  70  90 126 158 191 233 278
#
# _framework density 15.8232
#
# number of rings (size 3 to 8) (size 9 to 14) (size 15 to 20)
#    1.200    1.600    2.000    1.800    0.000    2.400 
#    0.000    1.000    0.000    1.200    0.000    4.200 
#    0.000    0.000    0.000    0.000    0.000    0.000 
#
# Total GULP energy -247810.202870 kJ/mol
# GULP energy per Si atom -12390.510144 kJ/mol
# Density = 1.578719 g / cm^3
# Si number density = 15.823200 Si / 1000 Ang^3
#
#
#
# Elastic Constant Matrix: (Units=GPa)
#
#
# Indices 1 2 3 4 5 6 
#
# 1 51.5345 19.5863 30.0526 0.0000 -4.5788 0.0000
# 2 19.5863 78.8095 41.1509 0.0000 5.8678 0.0000
# 3 30.0526 41.1509 128.3812 0.0000 -1.7420 0.0000
# 4 0.0000 0.0000 0.0000 19.0818 0.0000 2.1290
# 5 -4.5788 5.8678 -1.7420 0.0000 25.6265 0.0000
# 6 0.0000 0.0000 0.0000 2.1290 0.0000 19.2818
#
#
#
# Elastic Compliance Matrix: (Units=1/GPa)
#
#
# Indices 1 2 3 4 5 6 
#
# 1 0.023850 -0.004099 -0.004202 0.000000 0.004914 0.000000
# 2 -0.004099 0.016328 -0.004339 0.000000 -0.004766 0.000000
# 3 -0.004202 -0.004339 0.010176 0.000000 0.000934 0.000000
# 4 0.000000 0.000000 0.000000 0.053060 0.000000 -0.005858
# 5 0.004914 -0.004766 0.000934 0.000000 0.041055 0.000000
# 6 0.000000 0.000000 0.000000 -0.005858 0.000000 0.052509
#
#
# Mechanical properties :
#
#
# Convention : Reuss Voigt Hill
#
# Bulk Modulus (GPa) = 39.88234 48.92273 44.40253
# Shear Modulus (GPa) = 21.68106 23.99371 22.83739
#
# Velocity S-wave (km/s) = 3.70565 3.89827 3.80318
# Velocity P-wave (km/s) = 6.60067 7.15874 6.88536
#
# Compressibility (1/GPa) = 0.02507376
#
# Stress axis : x y z
#
# Youngs Moduli (GPa) = 41.92944 61.24474 98.26578
#
# Poissons Ratio (x) = 0.25103 0.41295
# Poissons Ratio (y) = 0.17186 0.42636
# Poissons Ratio (z) = 0.17620 0.26573
#
# Static dielectric constant tensor:
#      x y z
#    x 2.781770 0.000000 -0.048710 
#    y 0.000000 2.701120 0.000000 
#    z -0.048710 0.000000 3.015470 
# 
# 
# High freq. dielectric constant tensor:
#      x y z
#    x 1.582050 0.000000 -0.008200 
#    y 0.000000 1.580180 0.000000 
#    z -0.008200 0.000000 1.617070 
# 
# From -- ./inp_files/103587.got.cif
#   From: 2010.06.25/outbox.cif.g09.slc.cpg/sg12_52_cif.got.tgz:103587.got - 2010.06.28 00:19:55.
