data_PCOD8082709
_publ_section_title
;
Structure prediction by ZEFSAII (Michael W. Deem and Ramdas Pophale) SiO2 
 PCOD8082709
Probable space group: C 2/M
;
_chemical_formula_sum "Si O2"
_cell_formula_units_Z 64
_cell_length_a 15.371532
_cell_length_b 9.517768
_cell_length_c 32.870415
_cell_angle_alpha 90.000000
_cell_angle_beta 134.253147
_cell_angle_gamma 90.000000
_cell_volume 3444.532970
_symmetry_space_group_name_H-M "C 2/M"
_symmetry_group_IT_number 12
_symmetry_cell_setting 'monoclinic'
loop_
_space_group_symop_operation_xyz
x,y,z
-x,y,-z
-x,-y,-z
x,-y,z
1/2+x,1/2+y,z
1/2-x,1/2+y,-z
1/2-x,1/2-y,-z
1/2+x,1/2-y,z
loop_
_atom_site_type_symbol
_atom_site_label
_atom_site_fract_x
_atom_site_fract_y
_atom_site_fract_z
Si Si1 0.489516 0.663128 0.893516
Si Si2 0.669392 0.162601 0.503938
Si Si3 0.712960 0.664624 0.372235
Si Si4 0.343674 0.338462 0.124408
Si Si5 0.285240 0.162587 0.182378
Si Si6 0.400630 0.163449 0.000654
Si Si7 0.077092 0.334622 0.615136
Si Si8 0.478437 0.836173 0.313592
O O1 0.501937 0.500000 0.909115
O O2 0.533630 0.687651 0.861476
O O3 0.351261 0.715997 0.853208
O O4 0.577805 0.749100 0.951640
O O5 0.750000 0.250000 0.500000
O O6 0.707038 0.197030 0.561956
O O7 0.529653 0.206718 0.451106
O O8 0.689046 0.000000 0.499796
O O9 0.680890 0.500000 0.358801
O O10 0.794470 0.718163 0.360865
O O11 0.590218 0.752397 0.330996
O O12 0.331861 0.500000 0.134172
O O13 0.347513 0.246246 0.166093
O O14 0.230221 0.295322 0.059391
O O15 0.360838 0.189355 0.247784
O O16 0.285171 0.000000 0.170019
O O17 0.410045 0.000000 0.014837
O O18 0.500000 0.207746 0.000000
O O19 0.085915 0.500000 0.622338
O O20 0.051480 0.272256 0.651611
O O21 0.514016 0.000000 0.327380
#
# Coordination Sequence:
#
# PCOD8082709 Si02
#       8
#     8   8   8   8   8   8   8   8
#     4  10  21  36  56  82 109 140 181 222 262 315
#     4  10  18  31  54  82 110 140 176 216 265 322
#     4  10  20  34  56  84 108 137 181 223 262 319
#     4  10  21  37  57  82 110 141 177 220 268 320
#     4  10  22  38  55  77 105 140 183 226 264 313
#     4  10  19  33  55  83 114 143 172 212 271 328
#     4   9  18  34  56  79 108 144 175 214 269 321
#     4  10  21  38  56  75 105 143 180 220 272 319
#
# _framework density 18.580166999999999
#
# number of rings (size 3 to 8) (size 9 to 14) (size 15 to 20)
#    0.000    2.125    2.500    0.750    0.000    4.250 
#    0.000    3.750    0.000    1.500    0.000    0.000 
#    0.000    0.000    0.000    0.000    0.000    0.000 
#
# Total GULP energy -396838.947172 kJ/mol
# GULP energy per Si atom -12401.217099 kJ/mol
# Density = 1.853788 g / cm^3
# Si number density = 18.580167 Si / 1000 Ang^3
#
#
#
# Elastic Constant Matrix: (Units=GPa)
#
#
# Indices 1 2 3 4 5 6 
#
# 1 113.0548 29.9304 21.9357 0.0000 0.9292 0.0000
# 2 29.9304 40.5965 27.4612 0.0000 -1.7647 0.0000
# 3 21.9357 27.4612 68.4812 0.0000 1.6596 0.0000
# 4 0.0000 0.0000 0.0000 25.9360 0.0000 -2.4386
# 5 0.9292 -1.7647 1.6596 0.0000 19.0215 0.0000
# 6 0.0000 0.0000 0.0000 -2.4386 0.0000 29.4068
#
#
#
# Elastic Compliance Matrix: (Units=1/GPa)
#
#
# Indices 1 2 3 4 5 6 
#
# 1 0.011027 -0.007980 -0.000302 0.000000 -0.001253 0.000000
# 2 -0.007980 0.039936 -0.013586 0.000000 0.005280 0.000000
# 3 -0.000302 -0.013586 0.020220 0.000000 -0.003010 0.000000
# 4 0.000000 0.000000 0.000000 0.038859 0.000000 0.003223
# 5 -0.001253 0.005280 -0.003010 0.000000 0.053386 0.000000
# 6 0.000000 0.000000 0.000000 0.003223 0.000000 0.034273
#
#
# Mechanical properties :
#
#
# Convention : Reuss Voigt Hill
#
# Bulk Modulus (GPa) = 36.43388 42.30967 39.37177
# Shear Modulus (GPa) = 19.95325 24.39321 22.17323
#
# Velocity S-wave (km/s) = 3.28060 3.62728 3.45828
# Velocity P-wave (km/s) = 5.83107 6.35324 6.09775
#
# Compressibility (1/GPa) = 0.02744698
#
# Stress axis : x y z
#
# Youngs Moduli (GPa) = 90.68854 25.04018 49.45542
#
# Poissons Ratio (x) = 0.19982 0.01492
# Poissons Ratio (y) = 0.72370 0.67191
# Poissons Ratio (z) = 0.02736 0.34020
#
# Static dielectric constant tensor:
#      x y z
#    x 3.636930 0.000000 -0.385730 
#    y 0.000000 3.173070 0.000000 
#    z -0.385730 0.000000 3.873740 
# 
# 
# High freq. dielectric constant tensor:
#      x y z
#    x 1.733910 0.000000 0.001230 
#    y 0.000000 1.699320 0.000000 
#    z 0.001230 0.000000 1.718560 
# 
# From -- ./inp_files/359909.got.cif
#   From: 2010.06.25/outbox.cif.g09.slc.cpg/sg12_180_cif.got.tgz:359909.got - 2010.06.28 00:19:55.
