data_PCOD8082777
_publ_section_title
;
Structure prediction by ZEFSAII (Michael W. Deem and Ramdas Pophale) SiO2 
 PCOD8082777
Probable space group: C 2/M
;
_chemical_formula_sum "Si O2"
_cell_formula_units_Z 56
_cell_length_a 12.612683
_cell_length_b 23.725892
_cell_length_c 11.091314
_cell_angle_alpha 90.000000
_cell_angle_beta 57.218457
_cell_angle_gamma 90.000000
_cell_volume 2790.456713
_symmetry_space_group_name_H-M "C 2/M"
_symmetry_group_IT_number 12
_symmetry_cell_setting 'monoclinic'
loop_
_space_group_symop_operation_xyz
x,y,z
-x,y,-z
-x,-y,-z
x,-y,z
1/2+x,1/2+y,z
1/2-x,1/2+y,-z
1/2-x,1/2-y,-z
1/2+x,1/2-y,z
loop_
_atom_site_type_symbol
_atom_site_label
_atom_site_fract_x
_atom_site_fract_y
_atom_site_fract_z
Si Si1 0.892650 0.063695 0.156906
Si Si2 0.843295 0.563229 0.864669
Si Si3 0.002050 0.346709 0.358051
Si Si4 0.741161 0.847507 0.639136
Si Si5 0.406145 0.731850 0.667177
Si Si6 0.227560 0.065452 0.192056
Si Si7 0.029658 0.874959 0.665920
O O1 0.758475 0.066619 0.177878
O O2 0.888998 0.107376 0.268826
O O3 0.922396 0.000000 0.183359
O O4 0.000000 0.084069 0.000000
O O5 0.896577 0.500000 0.844305
O O6 0.957143 0.602548 0.753418
O O7 0.781350 0.582381 0.028189
O O8 0.097645 0.294153 0.270775
O O9 0.000000 0.364626 0.500000
O O10 0.859821 0.332226 0.401262
O O11 0.772194 0.790592 0.697456
O O12 0.695941 0.897164 0.757266
O O13 0.874378 0.870107 0.504587
O O14 0.500000 0.743308 0.500000
O O15 0.462186 0.685792 0.725947
O O16 0.078181 0.078348 0.289677
O O17 0.249674 0.000000 0.207272
#
# Coordination Sequence:
#
# PCOD8082777 Si02
#       7
#     8   8   8   8   8   8   8
#     4  10  18  31  55  84 114 151 190 228 277 333
#     4  10  22  38  57  83 116 155 195 233 280 344
#     4  11  23  40  61  84 114 152 186 234 291 342
#     4  10  22  37  58  89 116 144 193 235 279 345
#     4   8  19  37  59  85 111 146 189 238 282 336
#     4  10  20  37  59  82 115 154 193 238 284 329
#     4  10  18  34  59  88 117 146 188 244 281 328
#
# _framework density 20.068398999999999
#
# number of rings (size 3 to 8) (size 9 to 14) (size 15 to 20)
#    0.000    2.143    1.429    2.571    0.000    9.429 
#    0.000    4.286    3.143    0.000    0.000    0.000 
#    0.000    0.000    0.000    0.000    0.000    0.000 
#
# Total GULP energy -347082.419457 kJ/mol
# GULP energy per Si atom -12395.800695 kJ/mol
# Density = 2.002272 g / cm^3
# Si number density = 20.068399 Si / 1000 Ang^3
#
#
#
# Elastic Constant Matrix: (Units=GPa)
#
#
# Indices 1 2 3 4 5 6 
#
# 1 97.9766 34.8385 30.0700 0.0000 9.9883 0.0000
# 2 34.8385 98.6329 44.1626 0.0000 6.1133 0.0000
# 3 30.0700 44.1626 64.4975 0.0000 6.8562 0.0000
# 4 0.0000 0.0000 0.0000 14.8954 0.0000 1.6834
# 5 9.9883 6.1133 6.8562 0.0000 27.8216 0.0000
# 6 0.0000 0.0000 0.0000 1.6834 0.0000 22.7383
#
#
#
# Elastic Compliance Matrix: (Units=1/GPa)
#
#
# Indices 1 2 3 4 5 6 
#
# 1 0.012590 -0.002560 -0.003795 0.000000 -0.003022 0.000000
# 2 -0.002560 0.015158 -0.009169 0.000000 -0.000152 0.000000
# 3 -0.003795 -0.009169 0.023817 0.000000 -0.002492 0.000000
# 4 0.000000 0.000000 0.000000 0.067701 0.000000 -0.005012
# 5 -0.003022 -0.000152 -0.002492 0.000000 0.037676 0.000000
# 6 0.000000 0.000000 0.000000 -0.005012 0.000000 0.044350
#
#
# Mechanical properties :
#
#
# Convention : Reuss Voigt Hill
#
# Bulk Modulus (GPa) = 48.74375 53.24991 50.99683
# Shear Modulus (GPa) = 20.90486 23.22678 22.06582
#
# Velocity S-wave (km/s) = 3.23101 3.40572 3.31951
# Velocity P-wave (km/s) = 6.18553 6.48514 6.33711
#
# Compressibility (1/GPa) = 0.02051545
#
# Stress axis : x y z
#
# Youngs Moduli (GPa) = 79.42941 65.97290 41.98678
#
# Poissons Ratio (x) = 0.16891 0.15935
# Poissons Ratio (y) = 0.20336 0.38498
# Poissons Ratio (z) = 0.30146 0.60491
#
# Static dielectric constant tensor:
#      x y z
#    x 3.568350 0.000000 0.172700 
#    y 0.000000 3.842660 0.000000 
#    z 0.172700 0.000000 3.459120 
# 
# 
# High freq. dielectric constant tensor:
#      x y z
#    x 1.783900 0.000000 0.011680 
#    y 0.000000 1.783580 0.000000 
#    z 0.011680 0.000000 1.757860 
# 
# From -- ./inp_files/135261.got.cif
#   From: 2010.06.25/outbox.cif.g09.slc.cpg/sg12_68_cif.got.tgz:135261.got - 2010.06.28 00:19:55.
