data_PCOD8082074
_publ_section_title
;
Structure prediction by ZEFSAII (Michael W. Deem and Ramdas Pophale) SiO2 
 PCOD8082074
Probable space group: C 2/M
;
_chemical_formula_sum "Si O2"
_cell_formula_units_Z 64
_cell_length_a 24.954715
_cell_length_b 8.957035
_cell_length_c 30.184536
_cell_angle_alpha 90.000000
_cell_angle_beta 34.193409
_cell_angle_gamma 90.000000
_cell_volume 3791.653222
_symmetry_space_group_name_H-M "C 2/M"
_symmetry_group_IT_number 12
_symmetry_cell_setting 'monoclinic'
loop_
_space_group_symop_operation_xyz
x,y,z
-x,y,-z
-x,-y,-z
x,-y,z
1/2+x,1/2+y,z
1/2-x,1/2+y,-z
1/2-x,1/2-y,-z
1/2+x,1/2-y,z
loop_
_atom_site_type_symbol
_atom_site_label
_atom_site_fract_x
_atom_site_fract_y
_atom_site_fract_z
Si Si1 0.277746 0.824644 0.658606
Si Si2 0.085716 0.323860 0.813362
Si Si3 0.894786 0.173621 0.918802
Si Si4 0.729635 0.673357 0.081095
Si Si5 0.934831 0.168512 0.501438
Si Si6 0.779720 0.325160 0.822561
Si Si7 0.903089 0.673146 0.092037
Si Si8 0.406476 0.827230 0.653447
O O1 0.177373 0.741757 0.726159
O O2 0.340129 0.765806 0.574551
O O3 0.328930 0.782029 0.669589
O O4 0.261637 0.000000 0.664522
O O5 0.084081 0.500000 0.808391
O O6 0.084069 0.277830 0.865965
O O7 0.995485 0.254690 0.850413
O O8 0.850495 0.201981 0.900823
O O9 0.907503 0.000000 0.920577
O O10 0.827378 0.243185 0.002418
O O11 0.754248 0.500000 0.069536
O O12 0.690159 0.738698 0.153821
O O13 0.000000 0.176387 0.500000
O O14 0.995564 0.235453 0.419161
O O15 0.904894 0.000000 0.510397
O O16 0.773423 0.500000 0.836477
O O17 0.678114 0.272354 0.874266
O O18 0.862420 0.287772 0.730960
O O19 0.873985 0.500000 0.108088
O O20 0.000000 0.707022 0.000000
O O21 0.432585 0.000000 0.630566
#
# Coordination Sequence:
#
# PCOD8082074 Si02
#       8
#     8   8   8   8   8   8   8   8
#     4  10  18  31  48  68 101 137 169 205 246 296
#     4  11  21  32  50  75 104 134 168 209 252 299
#     4  10  21  37  56  75  97 129 170 214 258 302
#     4  10  21  37  55  75  99 129 168 214 260 300
#     4   9  17  28  45  69  96 129 169 206 246 293
#     4  11  21  33  51  75 101 133 170 207 247 298
#     4  10  21  34  47  67  99 136 168 202 248 300
#     4   9  18  31  46  69 100 134 168 202 245 295
#
# _framework density 16.879180999999999
#
# number of rings (size 3 to 8) (size 9 to 14) (size 15 to 20)
#    0.000    2.000    1.250    3.000    0.000    6.250 
#    0.000    0.000    0.000    0.000    0.000    0.875 
#    0.000    0.000    0.000    0.000    0.000    0.000 
#
# Total GULP energy -396930.818911 kJ/mol
# GULP energy per Si atom -12404.088091 kJ/mol
# Density = 1.684076 g / cm^3
# Si number density = 16.879181 Si / 1000 Ang^3
#
#
#
# Elastic Constant Matrix: (Units=GPa)
#
#
# Indices 1 2 3 4 5 6 
#
# 1 60.9122 43.1219 49.7249 -0.0027 1.0862 0.0014
# 2 43.1219 97.2093 61.9207 -0.0063 0.0734 0.0109
# 3 49.7249 61.9207 130.8632 0.0002 -1.7187 -0.0005
# 4 -0.0027 -0.0063 0.0002 35.6444 -0.0011 -1.1015
# 5 1.0862 0.0734 -1.7187 -0.0011 14.6559 -0.0010
# 6 0.0014 0.0109 -0.0005 -1.1015 -0.0010 25.7377
#
#
#
# Elastic Compliance Matrix: (Units=1/GPa)
#
#
# Indices 1 2 3 4 5 6 
#
# 1 0.027613 -0.007930 -0.006777 0.000001 -0.002801 0.000002
# 2 -0.007930 0.017015 -0.005039 0.000002 -0.000088 -0.000007
# 3 -0.006777 -0.005039 0.012627 -0.000001 0.002008 0.000003
# 4 0.000001 0.000002 -0.000001 0.028092 0.000002 0.001202
# 5 -0.002801 -0.000088 0.002008 0.000002 0.068675 0.000003
# 6 0.000002 -0.000007 0.000003 0.001202 0.000003 0.038905
#
#
# Mechanical properties :
#
#
# Convention : Reuss Voigt Hill
#
# Bulk Modulus (GPa) = 56.29543 66.50216 61.39880
# Shear Modulus (GPa) = 20.97843 24.15542 22.56692
#
# Velocity S-wave (km/s) = 3.52924 3.78706 3.66042
# Velocity P-wave (km/s) = 7.07332 7.65552 7.37017
#
# Compressibility (1/GPa) = 0.01776343
#
# Stress axis : x y z
#
# Youngs Moduli (GPa) = 36.21436 58.77317 79.19504
#
# Poissons Ratio (x) = 0.46610 0.53668
# Poissons Ratio (y) = 0.28720 0.39903
# Poissons Ratio (z) = 0.24542 0.29613
#
# Static dielectric constant tensor:
#      x y z
#    x 2.924800 -0.000010 0.101380 
#    y -0.000010 3.274960 0.000000 
#    z 0.101380 0.000000 3.273220 
# 
# 
# High freq. dielectric constant tensor:
#      x y z
#    x 1.613450 0.000000 0.003640 
#    y 0.000000 1.666650 0.000000 
#    z 0.003640 0.000000 1.657300 
# 
# From -- ./inp_files/382285.got.cif
#   From: 2010.06.25/outbox.cif.g09.slc.cpg/sg12_192_cif.got.tgz:382285.got - 2010.06.28 00:19:55.
