data_PCOD8082334
_publ_section_title
;
Structure prediction by ZEFSAII (Michael W. Deem and Ramdas Pophale) SiO2 
 PCOD8082334
Probable space group: C 2/M
;
_chemical_formula_sum "Si O2"
_cell_formula_units_Z 48
_cell_length_a 19.288166
_cell_length_b 8.876040
_cell_length_c 29.874206
_cell_angle_alpha 90.000000
_cell_angle_beta 149.236474
_cell_angle_gamma 90.000000
_cell_volume 2616.066385
_symmetry_space_group_name_H-M "C 2/M"
_symmetry_group_IT_number 12
_symmetry_cell_setting 'monoclinic'
loop_
_space_group_symop_operation_xyz
x,y,z
-x,y,-z
-x,-y,-z
x,-y,z
1/2+x,1/2+y,z
1/2-x,1/2+y,-z
1/2-x,1/2-y,-z
1/2+x,1/2-y,z
loop_
_atom_site_type_symbol
_atom_site_label
_atom_site_fract_x
_atom_site_fract_y
_atom_site_fract_z
Si Si1 0.372601 0.172454 0.461750
Si Si2 0.157292 0.821178 0.211949
Si Si3 0.959096 0.676672 0.364617
Si Si4 0.600799 0.823132 0.766019
Si Si5 0.111815 0.677013 0.277649
Si Si6 0.120809 0.323680 0.100273
O O1 0.500000 0.183881 0.500000
O O2 0.420414 0.238475 0.536824
O O3 0.252929 0.276055 0.377914
O O4 0.320474 0.000000 0.435417
O O5 0.312428 0.761868 0.298825
O O6 0.083188 0.758498 0.214780
O O7 0.086854 0.757761 0.128268
O O8 0.146974 0.000000 0.205617
O O9 0.955912 0.500000 0.371052
O O10 0.982420 0.718772 0.325588
O O11 0.510322 0.774103 0.757635
O O12 0.741229 0.734463 0.845818
O O13 0.634570 0.000000 0.784470
O O14 0.113446 0.500000 0.270722
O O15 0.133598 0.500000 0.116321
O O16 0.000000 0.283238 0.000000
#
# Coordination Sequence:
#
# PCOD8082334 Si02
#       6
#     8   8   8   8   8   8
#     4  10  18  31  51  75 104 144 194 233 268 318
#     4  10  19  35  58  80 106 144 185 219 266 328
#     4   8  15  31  52  72  99 139 187 229 262 308
#     4   9  20  37  55  77 110 149 183 221 270 325
#     4  11  22  34  50  79 115 145 183 233 275 309
#     4  10  21  38  61  88 112 133 168 221 272 324
#
# _framework density 18.348157
#
# number of rings (size 3 to 8) (size 9 to 14) (size 15 to 20)
#    0.000    2.333    1.667    2.500    0.000    3.667 
#    0.000    1.667    0.000    0.000    0.000    0.000 
#    0.000    0.000    0.000    0.000    0.000    0.000 
#
# Total GULP energy -297561.325142 kJ/mol
# GULP energy per Si atom -12398.388548 kJ/mol
# Density = 1.830640 g / cm^3
# Si number density = 18.348157 Si / 1000 Ang^3
#
#
#
# Elastic Constant Matrix: (Units=GPa)
#
#
# Indices 1 2 3 4 5 6 
#
# 1 155.9147 54.9648 65.8297 0.0000 -19.0173 0.0000
# 2 54.9648 66.2867 44.2852 0.0000 -9.5688 0.0002
# 3 65.8297 44.2852 105.6810 0.0002 -20.7503 0.0000
# 4 0.0000 0.0000 0.0002 29.1135 0.0000 -2.4856
# 5 -19.0173 -9.5688 -20.7503 0.0000 22.4376 0.0000
# 6 0.0000 0.0002 0.0000 -2.4856 0.0000 28.8939
#
#
#
# Elastic Compliance Matrix: (Units=1/GPa)
#
#
# Indices 1 2 3 4 5 6 
#
# 1 0.010256 -0.005826 -0.003334 0.000000 0.003125 0.000000
# 2 -0.005826 0.024280 -0.006698 0.000000 -0.000778 0.000000
# 3 -0.003334 -0.006698 0.016165 0.000000 0.009268 0.000000
# 4 0.000000 0.000000 0.000000 0.034602 0.000000 0.002977
# 5 0.003125 -0.000778 0.009268 0.000000 0.055456 0.000000
# 6 0.000000 0.000000 0.000000 0.002977 0.000000 0.034865
#
#
# Mechanical properties :
#
#
# Convention : Reuss Voigt Hill
#
# Bulk Modulus (GPa) = 52.67057 73.11577 62.89317
# Shear Modulus (GPa) = 23.40063 26.94252 25.17158
#
# Velocity S-wave (km/s) = 3.57510 3.83613 3.70792
# Velocity P-wave (km/s) = 6.76833 7.71731 7.25835
#
# Compressibility (1/GPa) = 0.01898593
#
# Stress axis : x y z
#
# Youngs Moduli (GPa) = 97.49951 41.18701 61.86034
#
# Poissons Ratio (x) = 0.23997 0.20623
# Poissons Ratio (y) = 0.56806 0.41432
# Poissons Ratio (z) = 0.32504 0.27586
#
# Static dielectric constant tensor:
#      x y z
#    x 3.546850 0.000000 -0.216190 
#    y 0.000000 3.253280 0.000000 
#    z -0.216190 0.000000 3.377170 
# 
# 
# High freq. dielectric constant tensor:
#      x y z
#    x 1.716190 0.000000 -0.018130 
#    y 0.000000 1.700790 0.000000 
#    z -0.018130 0.000000 1.698090 
# 
# From -- ./inp_files/274134.got.cif
#   From: 2010.06.25/outbox.cif.g09.slc.cpg/sg12_138_cif.got.tgz:274134.got - 2010.06.28 00:19:55.
