data_PCOD8082044
_publ_section_title
;
Structure prediction by ZEFSAII (Michael W. Deem and Ramdas Pophale) SiO2 
 PCOD8082044
Probable space group: C 2/M
;
_chemical_formula_sum "Si O2"
_cell_formula_units_Z 64
_cell_length_a 24.350065
_cell_length_b 21.951581
_cell_length_c 9.162212
_cell_angle_alpha 90.000000
_cell_angle_beta 129.480571
_cell_angle_gamma 90.000000
_cell_volume 3780.016355
_symmetry_space_group_name_H-M "C 2/M"
_symmetry_group_IT_number 12
_symmetry_cell_setting 'monoclinic'
loop_
_space_group_symop_operation_xyz
x,y,z
-x,y,-z
-x,-y,-z
x,-y,z
1/2+x,1/2+y,z
1/2-x,1/2+y,-z
1/2-x,1/2-y,-z
1/2+x,1/2-y,z
loop_
_atom_site_type_symbol
_atom_site_label
_atom_site_fract_x
_atom_site_fract_y
_atom_site_fract_z
Si Si1 0.197229 0.271038 0.209339
Si Si2 0.564082 0.229421 0.778824
Si Si3 0.940185 0.932131 0.001089
Si Si4 0.091147 0.289024 0.501625
Si Si5 0.712677 0.165514 0.536316
Si Si6 0.936262 0.865192 0.295470
Si Si7 0.666008 0.663764 0.634070
Si Si8 0.307805 0.431143 0.572093
O O1 0.224375 0.201177 0.269677
O O2 0.187901 0.295971 0.355257
O O3 0.253480 0.311512 0.211733
O O4 0.121003 0.274890 0.003600
O O5 0.488843 0.197729 0.692795
O O6 0.596080 0.201514 0.684417
O O7 0.540251 0.297981 0.708098
O O8 0.866203 0.933008 0.794552
O O9 0.968264 0.000000 0.081553
O O10 0.926227 0.901998 0.131965
O O11 0.000000 0.899187 0.000000
O O12 0.143163 0.339878 0.520640
O O13 0.117403 0.220834 0.500478
O O14 0.738164 0.098994 0.528416
O O15 0.862141 0.863863 0.260840
O O16 0.000000 0.893997 0.500000
O O17 0.663233 0.609731 0.511535
O O18 0.289512 0.500000 0.487940
#
# Coordination Sequence:
#
# PCOD8082044 Si02
#       8
#     8   8   8   8   8   8   8   8
#     4   9  18  30  49  71 101 125 158 192 244 287
#     4  10  18  31  46  76  98 128 153 195 234 296
#     4  10  22  34  45  65  92 128 173 208 235 269
#     4   9  18  31  49  70 106 123 158 190 237 292
#     4   9  18  33  47  72  95 127 158 201 237 295
#     4  11  19  31  48  68  96 132 163 196 234 285
#     4   9  18  33  50  70  98 128 160 199 239 295
#     4  10  20  35  51  68  93 125 166 208 242 278
#
# _framework density 16.931142000000001
#
# number of rings (size 3 to 8) (size 9 to 14) (size 15 to 20)
#    0.000    2.375    2.500    2.250    0.000    6.750 
#    0.000    0.000    0.000    0.000    0.000    8.750 
#    0.000    0.000    0.000    0.000    0.000    0.000 
#
# Total GULP energy -396625.869554 kJ/mol
# GULP energy per Si atom -12394.558424 kJ/mol
# Density = 1.689261 g / cm^3
# Si number density = 16.931142 Si / 1000 Ang^3
#
#
#
# Elastic Constant Matrix: (Units=GPa)
#
#
# Indices 1 2 3 4 5 6 
#
# 1 111.2110 28.9166 27.4800 0.0000 -4.7367 0.0000
# 2 28.9166 48.6891 10.4399 0.0000 -7.4044 0.0000
# 3 27.4800 10.4399 85.7909 0.0000 8.7403 0.0000
# 4 0.0000 0.0000 0.0000 20.3886 0.0000 -4.6073
# 5 -4.7367 -7.4044 8.7403 0.0000 25.6564 0.0000
# 6 0.0000 0.0000 0.0000 -4.6073 0.0000 23.9939
#
#
#
# Elastic Compliance Matrix: (Units=1/GPa)
#
#
# Indices 1 2 3 4 5 6 
#
# 1 0.011333 -0.005853 -0.003065 0.000000 0.001447 0.000000
# 2 -0.005853 0.025483 -0.001932 0.000000 0.006932 0.000000
# 3 -0.003065 -0.001932 0.013455 0.000000 -0.005707 0.000000
# 4 0.000000 0.000000 0.000000 0.051272 0.000000 0.009845
# 5 0.001447 0.006932 -0.005707 0.000000 0.043189 0.000000
# 6 0.000000 0.000000 0.000000 0.009845 0.000000 0.043568
#
#
# Mechanical properties :
#
#
# Convention : Reuss Voigt Hill
#
# Bulk Modulus (GPa) = 35.00298 42.15155 38.57727
# Shear Modulus (GPa) = 22.77655 25.93141 24.35398
#
# Velocity S-wave (km/s) = 3.67174 3.91779 3.79676
# Velocity P-wave (km/s) = 6.22046 6.73909 6.48496
#
# Compressibility (1/GPa) = 0.02856900
#
# Stress axis : x y z
#
# Youngs Moduli (GPa) = 88.23848 39.24137 74.32358
#
# Poissons Ratio (x) = 0.22969 0.22782
# Poissons Ratio (y) = 0.51649 0.14362
# Poissons Ratio (z) = 0.27047 0.07583
#
# Static dielectric constant tensor:
#      x y z
#    x 3.391200 0.000000 -0.075210 
#    y 0.000000 3.003810 0.000000 
#    z -0.075210 0.000000 3.110920 
# 
# 
# High freq. dielectric constant tensor:
#      x y z
#    x 1.667160 0.000000 -0.005220 
#    y 0.000000 1.608740 0.000000 
#    z -0.005220 0.000000 1.643740 
# 
# From -- ./inp_files/106419.got.cif
#   From: 2010.06.25/outbox.cif.g09.slc.cpg/sg12_54_cif.got.tgz:106419.got - 2010.06.28 00:19:55.
