data_PCOD8082522
_publ_section_title
;
Structure prediction by ZEFSAII (Michael W. Deem and Ramdas Pophale) SiO2 
 PCOD8082522
Probable space group: C 2/M
;
_chemical_formula_sum "Si O2"
_cell_formula_units_Z 64
_cell_length_a 19.900172
_cell_length_b 9.037025
_cell_length_c 30.791082
_cell_angle_alpha 90.000000
_cell_angle_beta 38.243827
_cell_angle_gamma 90.000000
_cell_volume 3427.713094
_symmetry_space_group_name_H-M "C 2/M"
_symmetry_group_IT_number 12
_symmetry_cell_setting 'monoclinic'
loop_
_space_group_symop_operation_xyz
x,y,z
-x,y,-z
-x,-y,-z
x,-y,z
1/2+x,1/2+y,z
1/2-x,1/2+y,-z
1/2-x,1/2-y,-z
1/2+x,1/2-y,z
loop_
_atom_site_type_symbol
_atom_site_label
_atom_site_fract_x
_atom_site_fract_y
_atom_site_fract_z
Si Si1 0.270105 0.674683 0.291480
Si Si2 0.936550 0.170719 0.637311
Si Si3 0.046000 0.171531 0.271070
Si Si4 0.663762 0.828360 0.654952
Si Si5 0.321991 0.329876 0.498823
Si Si6 0.574894 0.832961 0.004096
Si Si7 0.898109 0.170825 0.141044
Si Si8 0.249074 0.327477 0.134482
O O1 0.264921 0.500000 0.300197
O O2 0.148874 0.733307 0.346106
O O3 0.323679 0.747792 0.305928
O O4 0.345633 0.720657 0.212833
O O5 0.916375 0.192345 0.698589
O O6 0.055312 0.231470 0.563745
O O7 0.922189 0.000000 0.630995
O O8 0.134518 0.243882 0.194384
O O9 0.932825 0.254432 0.322853
O O10 0.032162 0.000000 0.265900
O O11 0.773444 0.808117 0.571446
O O12 0.637234 0.000000 0.676141
O O13 0.324637 0.500000 0.483149
O O14 0.250000 0.250000 0.500000
O O15 0.683064 0.737861 0.940391
O O16 0.608396 0.000000 0.998790
O O17 0.500000 0.827124 0.000000
O O18 0.508028 0.764044 0.078130
O O19 0.811397 0.203490 0.147568
O O20 0.931621 0.000000 0.123986
O O21 0.228875 0.500000 0.136713
#
# Coordination Sequence:
#
# PCOD8082522 Si02
#       8
#     8   8   8   8   8   8   8   8
#     4  11  23  39  58  83 116 152 193 235 280 337
#     4  10  21  37  59  85 113 147 187 234 287 337
#     4  11  21  35  58  85 114 147 189 237 283 335
#     4  11  24  40  59  83 114 151 190 233 286 344
#     4  10  21  38  60  85 113 147 187 234 286 340
#     4   9  17  28  46  77 112 145 184 229 278 329
#     4   9  18  32  51  76 109 149 186 227 279 331
#     4  10  18  31  52  80 114 147 186 233 280 331
#
# _framework density 18.671341000000002
#
# number of rings (size 3 to 8) (size 9 to 14) (size 15 to 20)
#    0.000    1.875    2.500    1.875    0.000    5.000 
#    0.000    2.500    0.000    0.750    0.000    0.000 
#    0.000    0.000    0.000    0.000    0.000    0.000 
#
# Total GULP energy -396913.289593 kJ/mol
# GULP energy per Si atom -12403.540300 kJ/mol
# Density = 1.862884 g / cm^3
# Si number density = 18.671341 Si / 1000 Ang^3
#
#
#
# Elastic Constant Matrix: (Units=GPa)
#
#
# Indices 1 2 3 4 5 6 
#
# 1 37.0110 20.7505 6.1478 0.0004 5.8523 0.0020
# 2 20.7505 93.8657 47.0163 0.0004 -0.6761 0.0009
# 3 6.1478 47.0163 113.3890 0.0003 -5.4702 0.0001
# 4 0.0004 0.0004 0.0003 34.3439 0.0000 -4.0892
# 5 5.8523 -0.6761 -5.4702 0.0000 21.9692 0.0003
# 6 0.0020 0.0009 0.0001 -4.0892 0.0003 30.5417
#
#
#
# Elastic Compliance Matrix: (Units=1/GPa)
#
#
# Indices 1 2 3 4 5 6 
#
# 1 0.032581 -0.007789 0.001045 -0.000001 -0.008659 -0.000002
# 2 -0.007789 0.015329 -0.005882 0.000000 0.001082 0.000000
# 3 0.001045 -0.005882 0.011315 0.000000 0.002358 0.000000
# 4 -0.000001 0.000000 0.000000 0.029589 0.000000 0.003962
# 5 -0.008659 0.001082 0.002358 0.000000 0.048445 0.000000
# 6 -0.000002 0.000000 0.000000 0.003962 0.000000 0.033273
#
#
# Mechanical properties :
#
#
# Convention : Reuss Voigt Hill
#
# Bulk Modulus (GPa) = 29.43293 43.56610 36.49952
# Shear Modulus (GPa) = 24.14209 28.72770 26.43489
#
# Velocity S-wave (km/s) = 3.59974 3.92675 3.76679
# Velocity P-wave (km/s) = 5.75112 6.62895 6.20558
#
# Compressibility (1/GPa) = 0.03397555
#
# Stress axis : x y z
#
# Youngs Moduli (GPa) = 30.69254 65.23503 88.37742
#
# Poissons Ratio (x) = 0.50809 -0.09238
# Poissons Ratio (y) = 0.23905 0.51981
# Poissons Ratio (z) = -0.03208 0.38369
#
# Static dielectric constant tensor:
#      x y z
#    x 3.062340 0.000000 -0.027110 
#    y 0.000000 3.512370 0.000000 
#    z -0.027110 0.000000 3.652820 
# 
# 
# High freq. dielectric constant tensor:
#      x y z
#    x 1.687510 0.000000 -0.004690 
#    y 0.000000 1.733900 0.000000 
#    z -0.004690 0.000000 1.741260 
# 
# From -- ./inp_files/378019.got.cif
#   From: 2010.06.25/outbox.cif.g09.slc.cpg/sg12_190_cif.got.tgz:378019.got - 2010.06.28 00:19:55.
