data_PCOD8082034
_publ_section_title
;
Structure prediction by ZEFSAII (Michael W. Deem and Ramdas Pophale) SiO2 
 PCOD8082034
Probable space group: C 2/M
;
_chemical_formula_sum "Si O2"
_cell_formula_units_Z 64
_cell_length_a 20.257097
_cell_length_b 12.966031
_cell_length_c 15.992770
_cell_angle_alpha 90.000000
_cell_angle_beta 58.499910
_cell_angle_gamma 90.000000
_cell_volume 3581.569008
_symmetry_space_group_name_H-M "C 2/M"
_symmetry_group_IT_number 12
_symmetry_cell_setting 'monoclinic'
loop_
_space_group_symop_operation_xyz
x,y,z
-x,y,-z
-x,-y,-z
x,-y,z
1/2+x,1/2+y,z
1/2-x,1/2+y,-z
1/2-x,1/2-y,-z
1/2+x,1/2-y,z
loop_
_atom_site_type_symbol
_atom_site_label
_atom_site_fract_x
_atom_site_fract_y
_atom_site_fract_z
Si Si1 0.996073 0.886107 0.601034
Si Si2 0.286173 0.764334 0.385203
Si Si3 0.822692 0.382832 0.612278
Si Si4 0.351671 0.741026 0.744221
Si Si5 0.559213 0.118863 0.205007
Si Si6 0.422831 0.808054 0.395095
Si Si7 0.216322 0.379735 0.768008
Si Si8 0.038950 0.377728 0.889081
O O1 0.913242 0.849821 0.690227
O O2 0.000000 0.891443 0.500000
O O3 0.062601 0.807927 0.584426
O O4 0.012170 0.000000 0.627882
O O5 0.250000 0.750000 0.500000
O O6 0.264227 0.659409 0.350168
O O7 0.375634 0.792157 0.339720
O O8 0.252579 0.856454 0.347554
O O9 0.814728 0.500000 0.644770
O O10 0.861270 0.322102 0.662681
O O11 0.876898 0.371992 0.495063
O O12 0.368553 0.805320 0.819315
O O13 0.267183 0.686248 0.801081
O O14 0.499716 0.128135 0.322409
O O15 0.515740 0.160745 0.150801
O O16 0.586767 0.000000 0.177163
O O17 0.224036 0.500000 0.784128
O O18 0.127804 0.338010 0.829728
O O19 0.042273 0.500000 0.881671
O O20 0.000000 0.338017 0.000000
#
# Coordination Sequence:
#
# PCOD8082034 Si02
#       8
#     8   8   8   8   8   8   8   8
#     4  10  19  31  44  61  92 135 177 215 252 286
#     4   9  19  30  43  69  99 129 170 211 243 301
#     4  10  19  30  43  63  97 136 170 208 249 293
#     4  10  20  33  46  71 102 135 177 209 244 312
#     4  10  19  31  52  76 103 133 163 213 265 301
#     4  10  18  31  45  68  95 129 177 214 247 303
#     4  10  19  34  55  75 102 140 172 213 266 307
#     4   9  18  34  57  83 103 125 165 216 271 319
#
# _framework density 17.869263
#
# number of rings (size 3 to 8) (size 9 to 14) (size 15 to 20)
#    0.000    2.250    2.500    1.125    0.000    2.500 
#    0.000    2.500    0.000    0.000    0.000    0.000 
#    0.000   34.000    0.000    0.000    0.000    0.000 
#
# Total GULP energy -396442.718013 kJ/mol
# GULP energy per Si atom -12388.834938 kJ/mol
# Density = 1.782859 g / cm^3
# Si number density = 17.869263 Si / 1000 Ang^3
#
#
#
# Elastic Constant Matrix: (Units=GPa)
#
#
# Indices 1 2 3 4 5 6 
#
# 1 114.2770 36.9871 23.0957 0.0000 7.6911 0.0000
# 2 36.9871 90.2173 11.1560 0.0000 4.1015 0.0000
# 3 23.0957 11.1560 47.1813 0.0000 5.3930 0.0000
# 4 0.0000 0.0000 0.0000 12.6172 0.0000 4.0187
# 5 7.6911 4.1015 5.3930 0.0000 17.7442 0.0000
# 6 0.0000 0.0000 0.0000 4.0187 0.0000 31.9391
#
#
#
# Elastic Compliance Matrix: (Units=1/GPa)
#
#
# Indices 1 2 3 4 5 6 
#
# 1 0.011029 -0.003886 -0.004182 0.000000 -0.002611 0.000000
# 2 -0.003886 0.012848 -0.001024 0.000000 -0.000974 0.000000
# 3 -0.004182 -0.001024 0.024087 0.000000 -0.005271 0.000000
# 4 0.000000 0.000000 0.000000 0.082566 0.000000 -0.010389
# 5 -0.002611 -0.000974 -0.005271 0.000000 0.059316 0.000000
# 6 0.000000 0.000000 0.000000 -0.010389 0.000000 0.032617
#
#
# Mechanical properties :
#
#
# Convention : Reuss Voigt Hill
#
# Bulk Modulus (GPa) = 33.57931 43.79480 38.68705
# Shear Modulus (GPa) = 19.95426 24.48922 22.22174
#
# Velocity S-wave (km/s) = 3.34530 3.70600 3.53026
# Velocity P-wave (km/s) = 5.80981 6.54784 6.18983
#
# Compressibility (1/GPa) = 0.02978025
#
# Stress axis : x y z
#
# Youngs Moduli (GPa) = 90.66787 77.83022 41.51695
#
# Poissons Ratio (x) = 0.30244 0.17361
# Poissons Ratio (y) = 0.35233 0.04253
# Poissons Ratio (z) = 0.37914 0.07973
#
# Static dielectric constant tensor:
#      x y z
#    x 3.775170 0.000000 0.053050 
#    y 0.000000 3.311590 0.000000 
#    z 0.053050 0.000000 3.113680 
# 
# 
# High freq. dielectric constant tensor:
#      x y z
#    x 1.708460 0.000000 0.008510 
#    y 0.000000 1.677910 0.000000 
#    z 0.008510 0.000000 1.644870 
# 
# From -- ./inp_files/282884.got.cif
#   From: 2010.06.25/outbox.cif.g09.slc.cpg/sg12_142_cif.got.tgz:282884.got - 2010.06.28 00:19:55.
