data_PCOD8082180
_publ_section_title
;
Structure prediction by ZEFSAII (Michael W. Deem and Ramdas Pophale) SiO2 
 PCOD8082180
Probable space group: C 2/M
;
_chemical_formula_sum "Si O2"
_cell_formula_units_Z 56
_cell_length_a 30.611276
_cell_length_b 13.527079
_cell_length_c 9.967524
_cell_angle_alpha 90.000000
_cell_angle_beta 127.008091
_cell_angle_gamma 90.000000
_cell_volume 3295.908487
_symmetry_space_group_name_H-M "C 2/M"
_symmetry_group_IT_number 12
_symmetry_cell_setting 'monoclinic'
loop_
_space_group_symop_operation_xyz
x,y,z
-x,y,-z
-x,-y,-z
x,-y,z
1/2+x,1/2+y,z
1/2-x,1/2+y,-z
1/2-x,1/2-y,-z
1/2+x,1/2-y,z
loop_
_atom_site_type_symbol
_atom_site_label
_atom_site_fract_x
_atom_site_fract_y
_atom_site_fract_z
Si Si1 0.718201 0.616404 0.354575
Si Si2 0.057553 0.613152 0.938455
Si Si3 0.762565 0.116018 0.302784
Si Si4 0.829142 0.617137 0.409781
Si Si5 0.690630 0.266111 0.836325
Si Si6 0.842531 0.744287 0.944410
Si Si7 0.062077 0.611260 0.261953
O O1 0.709460 0.500000 0.319353
O O2 0.719659 0.645802 0.513624
O O3 0.775134 0.652211 0.391301
O O4 0.667653 0.671613 0.187288
O O5 0.065598 0.500000 0.899798
O O6 0.996119 0.654977 0.794509
O O7 0.099289 0.690982 0.954391
O O8 0.066970 0.613094 0.113054
O O9 0.809042 0.152360 0.282769
O O10 0.704137 0.161819 0.158005
O O11 0.755819 0.000000 0.277566
O O12 0.829994 0.500000 0.403497
O O13 0.828871 0.661329 0.260187
O O14 0.883584 0.663217 0.579571
O O15 0.750000 0.250000 0.000000
O O16 0.655738 0.294760 0.903686
O O17 0.062619 0.500000 0.316061
#
# Coordination Sequence:
#
# PCOD8082180 Si02
#       7
#     8   8   8   8   8   8   8
#     4  10  20  32  50  75 100 129 167 209 251 294
#     4   9  17  30  50  76 106 133 167 206 245 296
#     4  10  20  32  47  70  99 132 166 205 251 299
#     4  10  18  31  50  71 103 137 166 203 245 295
#     4  10  21  32  43  70 101 137 169 198 242 301
#     4  11  20  32  48  74 102 135 166 203 249 300
#     4   8  16  30  49  76 101 133 170 203 249 295
#
# _framework density 16.990763999999999
#
# number of rings (size 3 to 8) (size 9 to 14) (size 15 to 20)
#    0.000    2.286    2.857    2.571    2.000    5.714 
#    0.000    0.714    0.000    2.571    0.000    3.000 
#    0.000    2.286    0.000    0.000    0.000    0.000 
#
# Total GULP energy -346914.290537 kJ/mol
# GULP energy per Si atom -12389.796091 kJ/mol
# Density = 1.695209 g / cm^3
# Si number density = 16.990764 Si / 1000 Ang^3
#
#
#
# Elastic Constant Matrix: (Units=GPa)
#
#
# Indices 1 2 3 4 5 6 
#
# 1 73.2381 23.3931 33.9748 0.0000 -4.6770 0.0000
# 2 23.3931 44.0480 25.0421 0.0000 -5.0937 0.0000
# 3 33.9748 25.0421 82.8341 0.0000 -10.3782 0.0000
# 4 0.0000 0.0000 0.0000 23.3346 0.0000 -1.2364
# 5 -4.6770 -5.0937 -10.3782 0.0000 31.6082 0.0000
# 6 0.0000 0.0000 0.0000 -1.2364 0.0000 26.7739
#
#
#
# Elastic Compliance Matrix: (Units=1/GPa)
#
#
# Indices 1 2 3 4 5 6 
#
# 1 0.018322 -0.006600 -0.005541 0.000000 -0.000172 0.000000
# 2 -0.006600 0.029887 -0.006098 0.000000 0.001837 0.000000
# 3 -0.005541 -0.006098 0.016647 0.000000 0.003663 0.000000
# 4 0.000000 0.000000 0.000000 0.042960 0.000000 0.001984
# 5 -0.000172 0.001837 0.003663 0.000000 0.033111 0.000000
# 6 0.000000 0.000000 0.000000 0.001984 0.000000 0.037441
#
#
# Mechanical properties :
#
#
# Convention : Reuss Voigt Hill
#
# Bulk Modulus (GPa) = 35.23849 40.54890 37.89369
# Shear Modulus (GPa) = 22.29100 24.19070 23.24085
#
# Velocity S-wave (km/s) = 3.62601 3.77736 3.70246
# Velocity P-wave (km/s) = 6.18995 6.55299 6.37405
#
# Compressibility (1/GPa) = 0.02837806
#
# Stress axis : x y z
#
# Youngs Moduli (GPa) = 54.58023 33.45937 60.06909
#
# Poissons Ratio (x) = 0.22083 0.33284
# Poissons Ratio (y) = 0.36023 0.36630
# Poissons Ratio (z) = 0.30243 0.20404
#
# Static dielectric constant tensor:
#      x y z
#    x 3.690970 0.000000 -0.191850 
#    y 0.000000 3.113750 0.000000 
#    z -0.191850 0.000000 3.395730 
# 
# 
# High freq. dielectric constant tensor:
#      x y z
#    x 1.636260 0.000000 -0.010040 
#    y 0.000000 1.634870 0.000000 
#    z -0.010040 0.000000 1.655490 
# 
# From -- ./inp_files/111300.got.cif
#   From: 2010.06.25/outbox.cif.g09.slc.cpg/sg12_56_cif.got.tgz:111300.got - 2010.06.28 00:19:55.
