data_PCOD8082950
_publ_section_title
;
Structure prediction by ZEFSAII (Michael W. Deem and Ramdas Pophale) SiO2 
 PCOD8082950
Probable space group: C 2/M
;
_chemical_formula_sum "Si O2"
_cell_formula_units_Z 64
_cell_length_a 24.312047
_cell_length_b 11.077026
_cell_length_c 13.566162
_cell_angle_alpha 90.000000
_cell_angle_beta 68.175755
_cell_angle_gamma 90.000000
_cell_volume 3391.590655
_symmetry_space_group_name_H-M "C 2/M"
_symmetry_group_IT_number 12
_symmetry_cell_setting 'monoclinic'
loop_
_space_group_symop_operation_xyz
x,y,z
-x,y,-z
-x,-y,-z
x,-y,z
1/2+x,1/2+y,z
1/2-x,1/2+y,-z
1/2-x,1/2-y,-z
1/2+x,1/2-y,z
loop_
_atom_site_type_symbol
_atom_site_label
_atom_site_fract_x
_atom_site_fract_y
_atom_site_fract_z
Si Si1 0.722733 0.705353 0.815571
Si Si2 0.431088 0.856757 0.538390
Si Si3 0.835314 0.361549 0.994437
Si Si4 0.351694 0.135166 0.767839
Si Si5 0.063876 0.365065 0.913231
Si Si6 0.742070 0.134284 0.618869
Si Si7 0.652061 0.731782 0.554508
Si Si8 0.387020 0.367452 0.216572
O O1 0.784222 0.633958 0.773845
O O2 0.721320 0.800950 0.730057
O O3 0.667486 0.619709 0.824830
O O4 0.714946 0.775256 0.924944
O O5 0.500000 0.821986 0.500000
O O6 0.396164 0.804911 0.658339
O O7 0.404736 0.792480 0.459150
O O8 0.421955 0.000000 0.533542
O O9 0.811610 0.500000 0.998302
O O10 0.853790 0.305606 0.875392
O O11 0.892038 0.356498 0.025338
O O12 0.374721 0.000000 0.764634
O O13 0.069833 0.500000 0.858982
O O14 0.073898 0.252413 0.832433
O O15 0.000000 0.347978 0.000000
O O16 0.699029 0.166560 0.556696
O O17 0.811381 0.151930 0.548180
O O18 0.729867 0.000000 0.656441
O O19 0.633191 0.646432 0.657011
O O20 0.419555 0.500000 0.187147
#
# Coordination Sequence:
#
# PCOD8082950 Si02
#       8
#     8   8   8   8   8   8   8   8
#     4  10  18  32  51  76 107 141 177 220 275 342
#     4  10  21  36  54  78 107 144 191 240 285 335
#     4   9  18  31  50  78 107 136 174 223 278 332
#     4  10  19  32  50  73 104 139 178 226 280 331
#     4   9  19  36  57  81 109 143 183 230 280 331
#     4  10  19  31  52  78 106 139 178 227 282 335
#     4  10  20  34  51  79 108 141 180 228 278 338
#     4  10  21  34  54  83 113 145 182 227 284 345
#
# _framework density 18.870201999999999
#
# number of rings (size 3 to 8) (size 9 to 14) (size 15 to 20)
#    0.000    2.250    1.250    1.875    0.000    4.750 
#    0.000    2.500    0.000    2.250    0.000    0.000 
#    0.000    0.000    0.000    0.000    0.000    0.000 
#
# Total GULP energy -396511.939013 kJ/mol
# GULP energy per Si atom -12390.998094 kJ/mol
# Density = 1.882725 g / cm^3
# Si number density = 18.870202 Si / 1000 Ang^3
#
#
#
# Elastic Constant Matrix: (Units=GPa)
#
#
# Indices 1 2 3 4 5 6 
#
# 1 77.5204 19.6700 27.6908 0.0000 -10.2370 0.0000
# 2 19.6700 98.5221 28.5199 0.0000 -4.5756 0.0000
# 3 27.6908 28.5199 98.9774 0.0000 -1.5604 0.0000
# 4 0.0000 0.0000 0.0000 15.5400 0.0000 -0.4937
# 5 -10.2370 -4.5756 -1.5604 0.0000 26.4735 0.0000
# 6 0.0000 0.0000 0.0000 -0.4937 0.0000 12.6095
#
#
#
# Elastic Compliance Matrix: (Units=1/GPa)
#
#
# Indices 1 2 3 4 5 6 
#
# 1 0.015387 -0.001744 -0.003717 0.000000 0.005429 0.000000
# 2 -0.001744 0.011351 -0.002765 0.000000 0.001124 0.000000
# 3 -0.003717 -0.002765 0.011921 0.000000 -0.001212 0.000000
# 4 0.000000 0.000000 0.000000 0.064430 0.000000 0.002523
# 5 0.005429 0.001124 -0.001212 0.000000 0.039996 0.000000
# 6 0.000000 0.000000 0.000000 0.002523 0.000000 0.079404
#
#
# Mechanical properties :
#
#
# Convention : Reuss Voigt Hill
#
# Bulk Modulus (GPa) = 45.03057 47.42014 46.22536
# Shear Modulus (GPa) = 20.29692 24.20054 22.24873
#
# Velocity S-wave (km/s) = 3.28320 3.58505 3.43744
# Velocity P-wave (km/s) = 6.18770 6.50546 6.34857
#
# Compressibility (1/GPa) = 0.02220714
#
# Stress axis : x y z
#
# Youngs Moduli (GPa) = 64.99015 88.09921 83.88733
#
# Poissons Ratio (x) = 0.15364 0.31178
# Poissons Ratio (y) = 0.11334 0.23195
# Poissons Ratio (z) = 0.24155 0.24360
#
# Static dielectric constant tensor:
#      x y z
#    x 3.357910 0.000000 -0.035560 
#    y 0.000000 3.441130 0.000000 
#    z -0.035560 0.000000 3.607300 
# 
# 
# High freq. dielectric constant tensor:
#      x y z
#    x 1.715000 0.000000 -0.002410 
#    y 0.000000 1.716380 0.000000 
#    z -0.002410 0.000000 1.739930 
# 
# From -- ./inp_files/174622.got.cif
#   From: 2010.06.25/outbox.cif.g09.slc.cpg/sg12_88_cif.got.tgz:174622.got - 2010.06.28 00:19:55.
