data_PCOD8082148
_publ_section_title
;
Structure prediction by ZEFSAII (Michael W. Deem and Ramdas Pophale) SiO2 
 PCOD8082148
Probable space group: C 2/M
;
_chemical_formula_sum "Si O2"
_cell_formula_units_Z 56
_cell_length_a 15.189278
_cell_length_b 24.009973
_cell_length_c 9.501897
_cell_angle_alpha 90.000000
_cell_angle_beta 57.884146
_cell_angle_gamma 90.000000
_cell_volume 2935.010334
_symmetry_space_group_name_H-M "C 2/M"
_symmetry_group_IT_number 12
_symmetry_cell_setting 'monoclinic'
loop_
_space_group_symop_operation_xyz
x,y,z
-x,y,-z
-x,-y,-z
x,-y,z
1/2+x,1/2+y,z
1/2-x,1/2+y,-z
1/2-x,1/2-y,-z
1/2+x,1/2-y,z
loop_
_atom_site_type_symbol
_atom_site_label
_atom_site_fract_x
_atom_site_fract_y
_atom_site_fract_z
Si Si1 0.933263 0.833990 0.437284
Si Si2 0.714574 0.145933 0.120662
Si Si3 0.427752 0.698389 0.938078
Si Si4 0.712308 0.856156 0.558659
Si Si5 0.615025 0.175892 0.933382
Si Si6 0.878452 0.564246 0.575963
Si Si7 0.616844 0.780135 0.411105
O O1 0.837784 0.868316 0.450235
O O2 0.880283 0.785661 0.575935
O O3 0.000000 0.868406 0.500000
O O4 0.004880 0.802434 0.262069
O O5 0.687669 0.095062 0.246988
O O6 0.672208 0.204426 0.218237
O O7 0.837551 0.152788 0.997052
O O8 0.661951 0.136435 0.014458
O O9 0.500000 0.675139 0.000000
O O10 0.385411 0.759560 0.016924
O O11 0.681250 0.836330 0.739143
O O12 0.653617 0.911187 0.550117
O O13 0.683229 0.805729 0.481352
O O14 0.500000 0.154786 0.000000
O O15 0.847472 0.500000 0.605570
O O16 0.000000 0.573346 0.500000
O O17 0.500000 0.805073 0.500000
#
# Coordination Sequence:
#
# PCOD8082148 Si02
#       7
#     8   8   8   8   8   8   8
#     4  11  21  33  49  76 114 152 183 209 247 311
#     4  11  20  34  54  76 108 144 177 216 262 307
#     4  11  21  32  48  77 114 147 179 212 247 301
#     4  11  20  34  55  76 106 144 181 218 265 313
#     4  11  20  31  49  82 115 140 172 212 262 315
#     4  10  22  41  62  81  99 128 175 226 274 324
#     4  10  18  31  49  74 106 147 184 210 248 307
#
# _framework density 19.080000999999999
#
# number of rings (size 3 to 8) (size 9 to 14) (size 15 to 20)
#    0.000    1.286    0.000   11.143    0.000    0.000 
#    0.000    0.714    0.000    6.857    0.000    0.000 
#    0.000    0.000    0.000    0.000    0.000    0.000 
#
# Total GULP energy -347041.316977 kJ/mol
# GULP energy per Si atom -12394.332749 kJ/mol
# Density = 1.903657 g / cm^3
# Si number density = 19.080001 Si / 1000 Ang^3
#
#
#
# Elastic Constant Matrix: (Units=GPa)
#
#
# Indices 1 2 3 4 5 6 
#
# 1 139.2019 41.3377 66.7292 0.0000 7.8806 0.0000
# 2 41.3377 67.4521 22.9527 0.0000 -5.1151 0.0000
# 3 66.7292 22.9527 91.1831 0.0000 10.0125 0.0000
# 4 0.0000 0.0000 0.0000 10.8526 0.0000 -7.0191
# 5 7.8806 -5.1151 10.0125 0.0000 37.4543 0.0000
# 6 0.0000 0.0000 0.0000 -7.0191 0.0000 5.7134
#
#
#
# Elastic Compliance Matrix: (Units=1/GPa)
#
#
# Indices 1 2 3 4 5 6 
#
# 1 0.012463 -0.005115 -0.007694 0.000000 -0.001264 0.000000
# 2 -0.005115 0.018747 -0.001416 0.000000 0.004015 0.000000
# 3 -0.007694 -0.001416 0.017305 0.000000 -0.003201 0.000000
# 4 0.000000 0.000000 0.000000 0.448579 0.000000 0.551097
# 5 -0.001264 0.004015 -0.003201 0.000000 0.028369 0.000000
# 6 0.000000 0.000000 0.000000 0.551097 0.000000 0.852072
#
#
# Mechanical properties :
#
#
# Convention : Reuss Voigt Hill
#
# Bulk Modulus (GPa) = 49.84156 62.20849 56.02503
# Shear Modulus (GPa) = 3.53939 21.92522 12.73230
#
# Velocity S-wave (km/s) = 1.36347 3.39355 2.58604
# Velocity P-wave (km/s) = 5.35330 6.93034 6.19223
#
# Compressibility (1/GPa) = 0.02006358
#
# Stress axis : x y z
#
# Youngs Moduli (GPa) = 80.23929 53.34266 57.78527
#
# Poissons Ratio (x) = 0.27287 0.44460
# Poissons Ratio (y) = 0.41046 0.08184
# Poissons Ratio (z) = 0.61736 0.07555
#
# Static dielectric constant tensor:
#      x y z
#    x 4.321620 0.000000 0.125420 
#    y 0.000000 2.986730 0.000000 
#    z 0.125420 0.000000 3.556880 
# 
# 
# High freq. dielectric constant tensor:
#      x y z
#    x 1.774390 0.000000 0.006410 
#    y 0.000000 1.666680 0.000000 
#    z 0.006410 0.000000 1.752300 
# 
# From -- ./inp_files/66847.got.cif
#   From: 2010.06.25/outbox.cif.g09.slc.cpg/sg12_34_cif.got.tgz:66847.got - 2010.06.28 00:19:55.
