data_PCOD8082923
_publ_section_title
;
Structure prediction by ZEFSAII (Michael W. Deem and Ramdas Pophale) SiO2 
 PCOD8082923
Probable space group: C 2/M
;
_chemical_formula_sum "Si O2"
_cell_formula_units_Z 48
_cell_length_a 25.164813
_cell_length_b 8.926838
_cell_length_c 19.444530
_cell_angle_alpha 90.000000
_cell_angle_beta 135.716475
_cell_angle_gamma 90.000000
_cell_volume 3049.822348
_symmetry_space_group_name_H-M "C 2/M"
_symmetry_group_IT_number 12
_symmetry_cell_setting 'monoclinic'
loop_
_space_group_symop_operation_xyz
x,y,z
-x,y,-z
-x,-y,-z
x,-y,z
1/2+x,1/2+y,z
1/2-x,1/2+y,-z
1/2-x,1/2-y,-z
1/2+x,1/2-y,z
loop_
_atom_site_type_symbol
_atom_site_label
_atom_site_fract_x
_atom_site_fract_y
_atom_site_fract_z
Si Si1 0.771731 0.828909 0.356495
Si Si2 0.931459 0.330033 0.287270
Si Si3 0.788199 0.331254 0.231753
Si Si4 0.086739 0.176140 0.416857
Si Si5 0.179900 0.673168 0.398745
Si Si6 0.295077 0.677794 0.103830
O O1 0.761939 0.727888 0.280817
O O2 0.845903 0.779227 0.468494
O O3 0.694565 0.809164 0.330432
O O4 0.781808 0.000000 0.342369
O O5 0.947582 0.500000 0.277654
O O6 0.880900 0.329372 0.310744
O O7 0.881817 0.242728 0.182951
O O8 0.009341 0.244390 0.374663
O O9 0.757076 0.500000 0.194367
O O10 0.754745 0.229309 0.138380
O O11 0.103876 0.245800 0.356728
O O12 0.078446 0.000000 0.401023
O O13 0.177046 0.500000 0.417054
O O14 0.250000 0.750000 0.500000
O O15 0.295611 0.500000 0.097869
O O16 0.250000 0.750000 0.000000
#
# Coordination Sequence:
#
# PCOD8082923 Si02
#       6
#     8   8   8   8   8   8
#     4   9  18  30  44  64  92 125 158 191 229 267
#     4   9  19  32  45  68  94 119 154 188 226 273
#     4   9  19  31  45  68  93 119 154 187 226 273
#     4  10  19  30  45  66  92 126 160 192 230 268
#     4   9  17  29  44  63  87 120 160 196 228 265
#     4  10  18  32  51  69  92 117 146 185 227 274
#
# _framework density 15.738621999999999
#
# number of rings (size 3 to 8) (size 9 to 14) (size 15 to 20)
#    1.000    1.667    0.000    4.000    0.000    4.667 
#    0.000    3.333    0.000    0.000    0.000    1.167 
#    0.000    9.333    0.000    0.000    0.000    0.000 
#
# Total GULP energy -297331.338915 kJ/mol
# GULP energy per Si atom -12388.805788 kJ/mol
# Density = 1.570280 g / cm^3
# Si number density = 15.738622 Si / 1000 Ang^3
#
#
#
# Elastic Constant Matrix: (Units=GPa)
#
#
# Indices 1 2 3 4 5 6 
#
# 1 46.8717 24.9224 15.5563 0.0000 -21.5131 0.0000
# 2 24.9224 116.5615 33.0705 0.0000 -18.3626 0.0000
# 3 15.5563 33.0705 51.1734 0.0000 -18.0134 0.0000
# 4 0.0000 0.0000 0.0000 26.9308 0.0000 -2.4445
# 5 -21.5131 -18.3626 -18.0134 0.0000 16.0008 0.0000
# 6 0.0000 0.0000 0.0000 -2.4445 0.0000 30.2827
#
#
#
# Elastic Compliance Matrix: (Units=1/GPa)
#
#
# Indices 1 2 3 4 5 6 
#
# 1 0.065077 -0.002668 0.019318 0.000000 0.106182 0.000000
# 2 -0.002668 0.011158 -0.005226 0.000000 0.003335 0.000000
# 3 0.019318 -0.005226 0.039882 0.000000 0.064875 0.000000
# 4 0.000000 0.000000 0.000000 0.037406 0.000000 0.003019
# 5 0.106182 0.003335 0.064875 0.000000 0.282120 0.000000
# 6 0.000000 0.000000 0.000000 0.003019 0.000000 0.033266
#
#
# Mechanical properties :
#
#
# Convention : Reuss Voigt Hill
#
# Bulk Modulus (GPa) = 7.19598 40.18946 23.69272
# Shear Modulus (GPa) = 10.15471 24.04668 17.10070
#
# Velocity S-wave (km/s) = 2.54285 3.91305 3.29985
# Velocity P-wave (km/s) = 3.63367 6.78284 5.44107
#
# Compressibility (1/GPa) = 0.13896650
#
# Stress axis : x y z
#
# Youngs Moduli (GPa) = 15.36637 89.62578 25.07368
#
# Poissons Ratio (x) = 0.23910 -0.48438
# Poissons Ratio (y) = 0.04099 0.13103
# Poissons Ratio (z) = -0.29685 0.46836
#
# Static dielectric constant tensor:
#      x y z
#    x 3.112460 0.000000 -0.108230 
#    y 0.000000 3.185990 0.000000 
#    z -0.108230 0.000000 2.625640 
# 
# 
# High freq. dielectric constant tensor:
#      x y z
#    x 1.593170 0.000000 -0.013980 
#    y 0.000000 1.625960 0.000000 
#    z -0.013980 0.000000 1.557920 
# 
# From -- ./inp_files/291696.got.cif
#   From: 2010.06.25/outbox.cif.g09.slc.cpg/sg12_146_cif.got.tgz:291696.got - 2010.06.28 00:19:55.
