data_PCOD8082558
_publ_section_title
;
Structure prediction by ZEFSAII (Michael W. Deem and Ramdas Pophale) SiO2 
 PCOD8082558
Probable space group: C 2/M
;
_chemical_formula_sum "Si O2"
_cell_formula_units_Z 56
_cell_length_a 20.546781
_cell_length_b 16.634396
_cell_length_c 9.442027
_cell_angle_alpha 90.000000
_cell_angle_beta 91.345790
_cell_angle_gamma 90.000000
_cell_volume 3226.236893
_symmetry_space_group_name_H-M "C 2/M"
_symmetry_group_IT_number 12
_symmetry_cell_setting 'monoclinic'
loop_
_space_group_symop_operation_xyz
x,y,z
-x,y,-z
-x,-y,-z
x,-y,z
1/2+x,1/2+y,z
1/2-x,1/2+y,-z
1/2-x,1/2-y,-z
1/2+x,1/2-y,z
loop_
_atom_site_type_symbol
_atom_site_label
_atom_site_fract_x
_atom_site_fract_y
_atom_site_fract_z
Si Si1 0.364001 0.692732 0.221651
Si Si2 0.755246 0.906225 0.133774
Si Si3 0.842393 0.283883 0.754079
Si Si4 0.424458 0.224563 0.475277
Si Si5 0.237047 0.332490 0.823609
Si Si6 0.618817 0.908282 0.729039
Si Si7 0.572440 0.799689 0.968203
O O1 0.330111 0.606363 0.195318
O O2 0.386635 0.705622 0.385004
O O3 0.309030 0.754870 0.160495
O O4 0.425110 0.716287 0.124058
O O5 0.706140 0.860356 0.238275
O O6 0.738533 0.000000 0.135708
O O7 0.750943 0.872745 0.974916
O O8 0.886237 0.288006 0.617791
O O9 0.803284 0.198857 0.753692
O O10 0.890230 0.286424 0.886431
O O11 0.500000 0.248577 0.500000
O O12 0.421484 0.140973 0.389655
O O13 0.197566 0.394822 0.719403
O O14 0.600981 0.876308 0.884737
O O15 0.599186 0.000000 0.709481
O O16 0.500000 0.822629 0.000000
#
# Coordination Sequence:
#
# PCOD8082558 Si02
#       7
#     8   8   8   8   8   8   8
#     4   9  18  35  52  77 104 136 174 224 257 298
#     4  11  19  31  55  84 110 131 164 221 280 313
#     4  11  18  33  55  80 101 136 183 221 249 309
#     4  10  22  37  54  74 104 145 184 212 252 299
#     4   9  17  32  54  77 105 133 171 220 265 300
#     4  10  21  35  49  74 115 143 163 211 268 314
#     4  10  18  31  53  75  98 137 189 215 244 301
#
# _framework density 17.357683999999999
#
# number of rings (size 3 to 8) (size 9 to 14) (size 15 to 20)
#    0.000    2.286    4.286    3.000    0.000    6.286 
#    0.000    1.429    0.000    1.714    0.000    0.000 
#    0.000    0.000    0.000    0.000    0.000    0.000 
#
# Total GULP energy -346904.152608 kJ/mol
# GULP energy per Si atom -12389.434022 kJ/mol
# Density = 1.731818 g / cm^3
# Si number density = 17.357684 Si / 1000 Ang^3
#
#
#
# Elastic Constant Matrix: (Units=GPa)
#
#
# Indices 1 2 3 4 5 6 
#
# 1 86.3115 38.3405 30.4793 0.0000 5.2759 0.0000
# 2 38.3405 45.7824 21.2934 0.0000 -3.0583 0.0000
# 3 30.4793 21.2934 92.1870 0.0000 -0.2456 0.0000
# 4 0.0000 0.0000 0.0000 23.3120 0.0000 0.1892
# 5 5.2759 -3.0583 -0.2456 0.0000 15.4404 0.0000
# 6 0.0000 0.0000 0.0000 0.1892 0.0000 11.6474
#
#
#
# Elastic Compliance Matrix: (Units=1/GPa)
#
#
# Indices 1 2 3 4 5 6 
#
# 1 0.020658 -0.016586 -0.003027 0.000000 -0.010392 0.000000
# 2 -0.016586 0.038143 -0.003291 0.000000 0.013170 0.000000
# 3 -0.003027 -0.003291 0.012610 0.000000 0.000583 0.000000
# 4 0.000000 0.000000 0.000000 0.042902 0.000000 -0.000697
# 5 -0.010392 0.013170 0.000583 0.000000 0.070934 0.000000
# 6 0.000000 0.000000 0.000000 -0.000697 0.000000 0.085868
#
#
# Mechanical properties :
#
#
# Convention : Reuss Voigt Hill
#
# Bulk Modulus (GPa) = 39.05883 44.94527 42.00205
# Shear Modulus (GPa) = 15.36296 19.02445 17.19371
#
# Velocity S-wave (km/s) = 2.97826 3.31422 3.15072
# Velocity P-wave (km/s) = 5.86327 6.37143 6.12262
#
# Compressibility (1/GPa) = 0.02560240
#
# Stress axis : x y z
#
# Youngs Moduli (GPa) = 48.40780 26.21685 79.30234
#
# Poissons Ratio (x) = 0.43484 0.24001
# Poissons Ratio (y) = 0.80291 0.26102
# Poissons Ratio (z) = 0.14651 0.08629
#
# Static dielectric constant tensor:
#      x y z
#    x 3.451600 0.000000 0.180080 
#    y 0.000000 3.161140 0.000000 
#    z 0.180080 0.000000 3.081730 
# 
# 
# High freq. dielectric constant tensor:
#      x y z
#    x 1.670660 0.000000 0.012400 
#    y 0.000000 1.632210 0.000000 
#    z 0.012400 0.000000 1.672740 
# 
# From -- ./inp_files/87340.got.cif
#   From: 2010.06.25/outbox.cif.g09.slc.cpg/sg12_44_cif.got.tgz:87340.got - 2010.06.28 00:19:55.
