data_PCOD8082109
_publ_section_title
;
Structure prediction by ZEFSAII (Michael W. Deem and Ramdas Pophale) SiO2 
 PCOD8082109
Probable space group: C 2/M
;
_chemical_formula_sum "Si O2"
_cell_formula_units_Z 64
_cell_length_a 28.512110
_cell_length_b 9.171746
_cell_length_c 21.268596
_cell_angle_alpha 90.000000
_cell_angle_beta 133.501084
_cell_angle_gamma 90.000000
_cell_volume 4034.359620
_symmetry_space_group_name_H-M "C 2/M"
_symmetry_group_IT_number 12
_symmetry_cell_setting 'monoclinic'
loop_
_space_group_symop_operation_xyz
x,y,z
-x,y,-z
-x,-y,-z
x,-y,z
1/2+x,1/2+y,z
1/2-x,1/2+y,-z
1/2-x,1/2-y,-z
1/2+x,1/2-y,z
loop_
_atom_site_type_symbol
_atom_site_label
_atom_site_fract_x
_atom_site_fract_y
_atom_site_fract_z
Si Si1 0.895370 0.827523 0.398588
Si Si2 0.806067 0.326879 0.513307
Si Si3 0.502213 0.671139 0.406490
Si Si4 0.637459 0.670380 0.176967
Si Si5 0.779927 0.329095 0.346101
Si Si6 0.560205 0.835372 0.008997
Si Si7 0.437098 0.670882 0.664978
Si Si8 0.020423 0.831378 0.158099
O O1 0.932437 0.776706 0.368686
O O2 0.826296 0.749678 0.338790
O O3 0.938716 0.769002 0.496853
O O4 0.883841 0.000000 0.390091
O O5 0.801885 0.500000 0.518979
O O6 0.750000 0.250000 0.500000
O O7 0.798327 0.282333 0.433545
O O8 0.873538 0.267907 0.601555
O O9 0.503886 0.500000 0.417296
O O10 0.512862 0.716303 0.344026
O O11 0.635797 0.500000 0.160409
O O12 0.707190 0.722601 0.265001
O O13 0.620385 0.753379 0.096627
O O14 0.587396 0.711257 0.185944
O O15 0.787317 0.500000 0.343333
O O16 0.581053 0.000000 0.013639
O O17 0.500000 0.826550 0.000000
O O18 0.539872 0.759006 0.925044
O O19 0.417811 0.500000 0.643237
O O20 0.473235 0.707153 0.762897
O O21 0.004644 0.000000 0.132477
#
# Coordination Sequence:
#
# PCOD8082109 Si02
#       8
#     8   8   8   8   8   8   8   8
#     4   9  16  29  48  67  88 119 155 191 231 271
#     4  11  22  33  44  62  92 127 160 189 222 265
#     4   8  15  28  47  68  90 117 153 193 229 269
#     4   9  17  30  45  62  89 121 152 184 222 270
#     4  10  20  32  45  66  93 121 154 193 230 268
#     4   9  17  29  45  66  90 114 146 188 227 264
#     4  10  18  31  49  68  91 122 158 190 223 267
#     4   9  17  29  47  67  89 121 153 182 222 270
#
# _framework density 15.863732000000001
#
# number of rings (size 3 to 8) (size 9 to 14) (size 15 to 20)
#    0.000    2.625    1.250    2.250    0.000    5.000 
#    0.000    4.375    0.000    0.000    0.000    0.875 
#    0.000    0.000    0.000    0.000    0.000    0.000 
#
# Total GULP energy -396733.803462 kJ/mol
# GULP energy per Si atom -12397.931358 kJ/mol
# Density = 1.582763 g / cm^3
# Si number density = 15.863732 Si / 1000 Ang^3
#
#
#
# Elastic Constant Matrix: (Units=GPa)
#
#
# Indices 1 2 3 4 5 6 
#
# 1 95.6112 32.4012 39.1387 0.0000 -12.5038 0.0000
# 2 32.4012 48.7454 35.8824 0.0000 -5.0871 0.0000
# 3 39.1387 35.8824 88.9035 0.0000 -17.2771 0.0000
# 4 0.0000 0.0000 0.0000 23.4903 0.0000 4.6251
# 5 -12.5038 -5.0871 -17.2771 0.0000 15.0446 0.0000
# 6 0.0000 0.0000 0.0000 4.6251 0.0000 20.3743
#
#
#
# Elastic Compliance Matrix: (Units=1/GPa)
#
#
# Indices 1 2 3 4 5 6 
#
# 1 0.014833 -0.007598 -0.002017 0.000000 0.007442 0.000000
# 2 -0.007598 0.033340 -0.011776 0.000000 -0.008565 0.000000
# 3 -0.002017 -0.011776 0.020326 0.000000 0.017684 0.000000
# 4 0.000000 0.000000 0.000000 0.044563 0.000000 -0.010116
# 5 0.007442 -0.008565 0.017684 0.000000 0.090066 0.000000
# 6 0.000000 0.000000 0.000000 -0.010116 0.000000 0.051378
#
#
# Mechanical properties :
#
#
# Convention : Reuss Voigt Hill
#
# Bulk Modulus (GPa) = 38.88565 49.78941 44.33753
# Shear Modulus (GPa) = 16.34743 20.17102 18.25922
#
# Velocity S-wave (km/s) = 3.21361 3.56970 3.39633
# Velocity P-wave (km/s) = 6.19154 6.96019 6.58709
#
# Compressibility (1/GPa) = 0.02571643
#
# Stress axis : x y z
#
# Youngs Moduli (GPa) = 67.41803 29.99428 49.19923
#
# Poissons Ratio (x) = 0.22789 0.09924
# Poissons Ratio (y) = 0.51224 0.57936
# Poissons Ratio (z) = 0.13599 0.35321
#
# Static dielectric constant tensor:
#      x y z
#    x 3.144570 0.000000 -0.076910 
#    y 0.000000 2.914010 0.000000 
#    z -0.076910 0.000000 2.996480 
# 
# 
# High freq. dielectric constant tensor:
#      x y z
#    x 1.592040 0.000000 -0.003790 
#    y 0.000000 1.600530 0.000000 
#    z -0.003790 0.000000 1.597780 
# 
# From -- ./inp_files/326792.got.cif
#   From: 2010.06.25/outbox.cif.g09.slc.cpg/sg12_164_cif.got.tgz:326792.got - 2010.06.28 00:19:55.
