data_PCOD8082846
_publ_section_title
;
Structure prediction by ZEFSAII (Michael W. Deem and Ramdas Pophale) SiO2 
 PCOD8082846
Probable space group: C 2/M
;
_chemical_formula_sum "Si O2"
_cell_formula_units_Z 60
_cell_length_a 15.761985
_cell_length_b 26.953398
_cell_length_c 9.096125
_cell_angle_alpha 90.000000
_cell_angle_beta 109.239638
_cell_angle_gamma 90.000000
_cell_volume 3648.557720
_symmetry_space_group_name_H-M "C 2/M"
_symmetry_group_IT_number 12
_symmetry_cell_setting 'monoclinic'
loop_
_space_group_symop_operation_xyz
x,y,z
-x,y,-z
-x,-y,-z
x,-y,z
1/2+x,1/2+y,z
1/2-x,1/2+y,-z
1/2-x,1/2-y,-z
1/2+x,1/2-y,z
loop_
_atom_site_type_symbol
_atom_site_label
_atom_site_fract_x
_atom_site_fract_y
_atom_site_fract_z
Si Si1 0.874156 0.057831 0.067749
Si Si2 0.000000 0.206084 0.500000
Si Si3 0.287447 0.270937 0.672979
Si Si4 0.396627 0.796529 0.931320
Si Si5 0.769152 0.861549 0.182758
Si Si6 0.155686 0.140027 0.462135
Si Si7 0.363945 0.261331 0.205552
Si Si8 0.578633 0.442736 0.234304
O O1 0.797895 0.089266 0.109741
O O2 0.973429 0.071203 0.182807
O O3 0.852207 0.000000 0.081504
O O4 0.875677 0.070238 0.895556
O O5 0.071056 0.171119 0.464424
O O6 0.045348 0.241692 0.646843
O O7 0.250000 0.250000 0.500000
O O8 0.372650 0.236994 0.773480
O O9 0.306379 0.328854 0.654966
O O10 0.213807 0.269027 0.757885
O O11 0.334443 0.845877 0.905974
O O12 0.500000 0.813829 0.000000
O O13 0.378100 0.760934 0.056056
O O14 0.776531 0.868288 0.363541
O O15 0.835949 0.818439 0.167798
O O16 0.129232 0.086037 0.391379
O O17 0.591416 0.500000 0.276660
#
# Coordination Sequence:
#
# PCOD8082846 Si02
#       8
#     8   4   8   8   8   8   8   8
#     4   9  19  35  53  74 104 134 166 212 258 306
#     4  10  18  32  45  74 104 132 175 206 252 304
#     4  11  19  36  50  71 107 141 172 217 254 297
#     4  11  23  35  52  75 103 139 181 219 256 304
#     4  10  20  35  49  73 104 132 174 209 252 308
#     4  11  20  30  51  70 104 140 166 206 256 300
#     4  10  21  32  51  73 103 138 175 211 253 306
#     4   9  19  33  50  78 105 130 168 209 252 313
#
# _framework density 16.444853999999999
#
# number of rings (size 3 to 8) (size 9 to 14) (size 15 to 20)
#    0.000    1.867    4.000    4.800    3.733    0.533 
#    0.000    1.667    0.000    0.400    0.000    0.000 
#    0.000    2.133    0.000    0.000    0.000    0.000 
#
# Total GULP energy -371862.084214 kJ/mol
# GULP energy per Si atom -12395.402807 kJ/mol
# Density = 1.640742 g / cm^3
# Si number density = 16.444854 Si / 1000 Ang^3
#
#
#
# Elastic Constant Matrix: (Units=GPa)
#
#
# Indices 1 2 3 4 5 6 
#
# 1 75.6497 33.2729 44.8199 0.0000 12.8688 0.0000
# 2 33.2729 74.7482 52.3725 0.0000 1.2127 0.0000
# 3 44.8199 52.3725 91.0950 0.0000 13.5246 0.0000
# 4 0.0000 0.0000 0.0000 34.5553 0.0000 -4.5488
# 5 12.8688 1.2127 13.5246 0.0000 28.0228 0.0000
# 6 0.0000 0.0000 0.0000 -4.5488 0.0000 26.2051
#
#
#
# Elastic Compliance Matrix: (Units=1/GPa)
#
#
# Indices 1 2 3 4 5 6 
#
# 1 0.019921 -0.004205 -0.006520 0.000000 -0.005820 0.000000
# 2 -0.004205 0.024153 -0.012871 0.000000 0.007098 0.000000
# 3 -0.006520 -0.012871 0.022683 0.000000 -0.007397 0.000000
# 4 0.000000 0.000000 0.000000 0.029616 0.000000 0.005141
# 5 -0.005820 0.007098 -0.007397 0.000000 0.041620 0.000000
# 6 0.000000 0.000000 0.000000 0.005141 0.000000 0.039053
#
#
# Mechanical properties :
#
#
# Convention : Reuss Voigt Hill
#
# Bulk Modulus (GPa) = 51.10959 55.82486 53.46723
# Shear Modulus (GPa) = 21.66756 25.15849 23.41302
#
# Velocity S-wave (km/s) = 3.63380 3.91560 3.77733
# Velocity P-wave (km/s) = 6.98232 7.37990 7.18386
#
# Compressibility (1/GPa) = 0.01956580
#
# Stress axis : x y z
#
# Youngs Moduli (GPa) = 50.19812 41.40293 44.08521
#
# Poissons Ratio (x) = 0.17410 0.28743
# Poissons Ratio (y) = 0.21108 0.56742
# Poissons Ratio (z) = 0.32729 0.53289
#
# Static dielectric constant tensor:
#      x y z
#    x 3.339470 0.000000 0.029480 
#    y 0.000000 3.243730 0.000000 
#    z 0.029480 0.000000 3.367720 
# 
# 
# High freq. dielectric constant tensor:
#      x y z
#    x 1.614700 0.000000 -0.002960 
#    y 0.000000 1.611300 0.000000 
#    z -0.002960 0.000000 1.649300 
# 
# From -- ./inp_files/66550.got.cif
#   From: 2010.06.25/outbox.cif.g09.slc.cpg/sg12_34_cif.got.tgz:66550.got - 2010.06.28 00:19:55.
