data_PCOD8082514
_publ_section_title
;
Structure prediction by ZEFSAII (Michael W. Deem and Ramdas Pophale) SiO2 
 PCOD8082514
Probable space group: C 2/M
;
_chemical_formula_sum "Si O2"
_cell_formula_units_Z 64
_cell_length_a 15.313947
_cell_length_b 8.633904
_cell_length_c 25.389665
_cell_angle_alpha 90.000000
_cell_angle_beta 73.123044
_cell_angle_gamma 90.000000
_cell_volume 3212.415324
_symmetry_space_group_name_H-M "C 2/M"
_symmetry_group_IT_number 12
_symmetry_cell_setting 'monoclinic'
loop_
_space_group_symop_operation_xyz
x,y,z
-x,y,-z
-x,-y,-z
x,-y,z
1/2+x,1/2+y,z
1/2-x,1/2+y,-z
1/2-x,1/2-y,-z
1/2+x,1/2-y,z
loop_
_atom_site_type_symbol
_atom_site_label
_atom_site_fract_x
_atom_site_fract_y
_atom_site_fract_z
Si Si1 0.847143 0.684208 0.998821
Si Si2 0.897035 0.816296 0.886598
Si Si3 0.910712 0.183540 0.190921
Si Si4 0.641745 0.182822 0.381069
Si Si5 0.845016 0.682254 0.501320
Si Si6 0.796642 0.816003 0.111319
Si Si7 0.541382 0.317858 0.609474
Si Si8 0.340767 0.684110 0.313765
O O1 0.850042 0.500000 0.998289
O O2 0.864839 0.748191 0.054409
O O3 0.750000 0.750000 0.000000
O O4 0.915244 0.750549 0.942523
O O5 0.806467 0.747313 0.875341
O O6 0.985341 0.763380 0.837890
O O7 0.886462 0.000000 0.891390
O O8 0.840101 0.241091 0.158629
O O9 0.879002 0.253894 0.252407
O O10 0.907116 0.000000 0.193086
O O11 0.635820 0.235688 0.442677
O O12 0.563412 0.271636 0.362561
O O13 0.737009 0.238617 0.339590
O O14 0.628444 0.000000 0.377341
O O15 0.838325 0.500000 0.499280
O O16 0.750000 0.750000 0.500000
O O17 0.926369 0.740428 0.450357
O O18 0.793808 0.000000 0.106647
O O19 0.554085 0.500000 0.602317
O O20 0.599361 0.251571 0.648292
O O21 0.346753 0.500000 0.312178
#
# Coordination Sequence:
#
# PCOD8082514 Si02
#       8
#     8   8   8   8   8   8   8   8
#     4  10  18  31  52  79 110 144 175 216 274 329
#     4  10  19  34  55  81 109 141 180 224 274 325
#     4   9  20  36  57  79 105 147 189 224 269 333
#     4  10  21  38  59  83 113 150 186 227 279 333
#     4  11  21  36  59  87 118 152 185 226 281 335
#     4  10  19  34  55  81 108 140 181 224 271 324
#     4  11  22  37  59  87 115 149 188 231 278 330
#     4   9  19  39  58  77 110 148 188 228 277 329
#
# _framework density 19.922705000000001
#
# number of rings (size 3 to 8) (size 9 to 14) (size 15 to 20)
#    0.000    2.000    1.250    4.500    0.000    4.000 
#    0.000    5.000    0.000    7.500    0.000    0.000 
#    0.000    0.000    0.000    0.000    0.000    0.000 
#
# Total GULP energy -396761.977995 kJ/mol
# GULP energy per Si atom -12398.811812 kJ/mol
# Density = 1.987736 g / cm^3
# Si number density = 19.922705 Si / 1000 Ang^3
#
#
#
# Elastic Constant Matrix: (Units=GPa)
#
#
# Indices 1 2 3 4 5 6 
#
# 1 107.5784 15.9734 48.1966 0.0000 -12.1534 0.0000
# 2 15.9734 63.2988 23.6517 0.0000 -1.5411 0.0000
# 3 48.1966 23.6517 152.7685 0.0000 -12.5157 0.0000
# 4 0.0000 0.0000 0.0000 21.1118 0.0000 -2.3625
# 5 -12.1534 -1.5411 -12.5157 0.0000 25.2993 0.0000
# 6 0.0000 0.0000 0.0000 -2.3625 0.0000 29.6954
#
#
#
# Elastic Compliance Matrix: (Units=1/GPa)
#
#
# Indices 1 2 3 4 5 6 
#
# 1 0.011319 -0.001641 -0.003001 0.000000 0.003853 0.000000
# 2 -0.001641 0.017008 -0.002184 0.000000 -0.000833 0.000000
# 3 -0.003001 -0.002184 0.008027 0.000000 0.002396 0.000000
# 4 0.000000 0.000000 0.000000 0.047792 0.000000 0.003802
# 5 0.003853 -0.000833 0.002396 0.000000 0.042512 0.000000
# 6 0.000000 0.000000 0.000000 0.003802 0.000000 0.033978
#
#
# Mechanical properties :
#
#
# Convention : Reuss Voigt Hill
#
# Bulk Modulus (GPa) = 44.04902 55.47655 49.76279
# Shear Modulus (GPa) = 27.49429 30.94291 29.21860
#
# Velocity S-wave (km/s) = 3.71893 3.94528 3.83377
# Velocity P-wave (km/s) = 6.37170 6.97567 6.68051
#
# Compressibility (1/GPa) = 0.02270198
#
# Stress axis : x y z
#
# Youngs Moduli (GPa) = 88.34618 58.79635 124.57770
#
# Poissons Ratio (x) = 0.09649 0.37390
# Poissons Ratio (y) = 0.14499 0.27203
# Poissons Ratio (z) = 0.26516 0.12839
#
# Static dielectric constant tensor:
#      x y z
#    x 3.672110 0.000000 0.025230 
#    y 0.000000 3.429650 0.000000 
#    z 0.025230 0.000000 4.214130 
# 
# 
# High freq. dielectric constant tensor:
#      x y z
#    x 1.780960 0.000000 -0.001890 
#    y 0.000000 1.758690 0.000000 
#    z -0.001890 0.000000 1.781530 
# 
# From -- ./inp_files/359732.got.cif
#   From: 2010.06.25/outbox.cif.g09.slc.cpg/sg12_180_cif.got.tgz:359732.got - 2010.06.28 00:19:55.
