data_PCOD8082333
_publ_section_title
;
Structure prediction by ZEFSAII (Michael W. Deem and Ramdas Pophale) SiO2 
 PCOD8082333
Probable space group: C 2/M
;
_chemical_formula_sum "Si O2"
_cell_formula_units_Z 40
_cell_length_a 25.106177
_cell_length_b 8.685999
_cell_length_c 12.247075
_cell_angle_alpha 90.000000
_cell_angle_beta 120.911700
_cell_angle_gamma 90.000000
_cell_volume 2291.394097
_symmetry_space_group_name_H-M "C 2/M"
_symmetry_group_IT_number 12
_symmetry_cell_setting 'monoclinic'
loop_
_space_group_symop_operation_xyz
x,y,z
-x,y,-z
-x,-y,-z
x,-y,z
1/2+x,1/2+y,z
1/2-x,1/2+y,-z
1/2-x,1/2-y,-z
1/2+x,1/2-y,z
loop_
_atom_site_type_symbol
_atom_site_label
_atom_site_fract_x
_atom_site_fract_y
_atom_site_fract_z
Si Si1 0.651926 0.820903 0.393975
Si Si2 0.076801 0.318045 0.672050
Si Si3 0.285232 0.181804 0.139046
Si Si4 0.047428 0.819291 0.410444
Si Si5 0.259992 0.680529 0.675372
O O1 0.588600 0.727259 0.349342
O O2 0.679857 0.769201 0.307121
O O3 0.700096 0.777986 0.540145
O O4 0.636170 0.000000 0.374261
O O5 0.067289 0.500000 0.671652
O O6 0.143145 0.265109 0.789057
O O7 0.073356 0.272569 0.541739
O O8 0.023824 0.230805 0.685767
O O9 0.252651 0.240636 0.215756
O O10 0.281469 0.000000 0.131588
O O11 0.250000 0.250000 0.000000
O O12 0.050817 0.000000 0.436405
O O13 0.273662 0.500000 0.685264
#
# Coordination Sequence:
#
# PCOD8082333 Si02
#       5
#     8   8   8   8   8
#     4  10  18  31  51  75 104 136 167 207 260 311
#     4  10  19  34  51  72 103 138 172 210 256 305
#     4  10  21  36  54  75 104 139 174 211 251 300
#     4  11  20  30  49  78 106 134 167 212 260 307
#     4   9  18  33  49  73 104 134 171 210 253 302
#
# _framework density 17.456621999999999
#
# number of rings (size 3 to 8) (size 9 to 14) (size 15 to 20)
#    0.000    2.000    2.000    4.200    0.000    3.200 
#    0.000    0.000    0.000    1.200    0.000    8.400 
#    0.000    0.000    0.000    0.000    0.000    0.000 
#
# Total GULP energy -248025.347146 kJ/mol
# GULP energy per Si atom -12401.267357 kJ/mol
# Density = 1.741689 g / cm^3
# Si number density = 17.456622 Si / 1000 Ang^3
#
#
#
# Elastic Constant Matrix: (Units=GPa)
#
#
# Indices 1 2 3 4 5 6 
#
# 1 162.8043 40.3031 55.6851 0.0000 2.3223 0.0000
# 2 40.3031 47.3387 15.7249 0.0000 1.9846 0.0000
# 3 55.6851 15.7249 86.7206 0.0000 1.5436 0.0000
# 4 0.0000 0.0000 0.0000 23.6448 0.0000 -0.6076
# 5 2.3223 1.9846 1.5436 0.0000 24.5853 0.0000
# 6 0.0000 0.0000 0.0000 -0.6076 0.0000 33.8281
#
#
#
# Elastic Compliance Matrix: (Units=1/GPa)
#
#
# Indices 1 2 3 4 5 6 
#
# 1 0.009386 -0.006371 -0.004871 0.000000 -0.000067 0.000000
# 2 -0.006371 0.026862 -0.000753 0.000000 -0.001519 0.000000
# 3 -0.004871 -0.000753 0.014803 0.000000 -0.000409 0.000000
# 4 0.000000 0.000000 0.000000 0.042312 0.000000 0.000760
# 5 -0.000067 -0.001519 -0.000409 0.000000 0.040829 0.000000
# 6 0.000000 0.000000 0.000000 0.000760 0.000000 0.029575
#
#
# Mechanical properties :
#
#
# Convention : Reuss Voigt Hill
#
# Bulk Modulus (GPa) = 36.95207 57.80999 47.38103
# Shear Modulus (GPa) = 25.40946 28.75502 27.08224
#
# Velocity S-wave (km/s) = 3.81934 4.06301 3.94306
# Velocity P-wave (km/s) = 6.37681 7.42960 6.92325
#
# Compressibility (1/GPa) = 0.02706209
#
# Stress axis : x y z
#
# Youngs Moduli (GPa) = 106.53742 37.22734 67.55490
#
# Poissons Ratio (x) = 0.23716 0.32905
# Poissons Ratio (y) = 0.67870 0.05088
# Poissons Ratio (z) = 0.51893 0.02804
#
# Static dielectric constant tensor:
#      x y z
#    x 3.591000 0.000000 0.054000 
#    y 0.000000 3.205250 0.000000 
#    z 0.054000 0.000000 2.632530 
# 
# 
# High freq. dielectric constant tensor:
#      x y z
#    x 1.693920 0.000000 0.004170 
#    y 0.000000 1.680590 0.000000 
#    z 0.004170 0.000000 1.622650 
# 
# From -- ./inp_files/171391.got.cif
#   From: 2010.06.25/outbox.cif.g09.slc.cpg/sg12_86_cif.got.tgz:171391.got - 2010.06.28 00:19:55.
