data_PCOD8082200
_publ_section_title
;
Structure prediction by ZEFSAII (Michael W. Deem and Ramdas Pophale) SiO2 
 PCOD8082200
Probable space group: C 2/M
;
_chemical_formula_sum "Si O2"
_cell_formula_units_Z 64
_cell_length_a 24.551509
_cell_length_b 8.824880
_cell_length_c 33.318113
_cell_angle_alpha 90.000000
_cell_angle_beta 149.224847
_cell_angle_gamma 90.000000
_cell_volume 3693.665987
_symmetry_space_group_name_H-M "C 2/M"
_symmetry_group_IT_number 12
_symmetry_cell_setting 'monoclinic'
loop_
_space_group_symop_operation_xyz
x,y,z
-x,y,-z
-x,-y,-z
x,-y,z
1/2+x,1/2+y,z
1/2-x,1/2+y,-z
1/2-x,1/2-y,-z
1/2+x,1/2-y,z
loop_
_atom_site_type_symbol
_atom_site_label
_atom_site_fract_x
_atom_site_fract_y
_atom_site_fract_z
Si Si1 0.184451 0.822695 0.422666
Si Si2 0.763080 0.177726 0.312876
Si Si3 0.517518 0.677657 0.590845
Si Si4 0.318168 0.177282 0.429118
Si Si5 0.619566 0.677440 0.158669
Si Si6 0.063588 0.329085 0.999005
Si Si7 0.980470 0.678895 0.321741
Si Si8 0.241982 0.823249 0.155570
O O1 0.250000 0.750000 0.500000
O O2 0.239916 0.783175 0.416007
O O3 0.065989 0.753700 0.346254
O O4 0.177463 0.000000 0.426083
O O5 0.868806 0.221332 0.355354
O O6 0.759751 0.268799 0.352103
O O7 0.660814 0.230216 0.222997
O O8 0.756822 0.000000 0.317714
O O9 0.507364 0.500000 0.592550
O O10 0.428004 0.730686 0.502845
O O11 0.499485 0.765927 0.620561
O O12 0.344312 0.000000 0.443568
O O13 0.622174 0.500000 0.169649
O O14 0.498447 0.728918 0.073189
O O15 0.694577 0.721054 0.168759
O O16 0.073007 0.500000 0.988987
O O17 0.181504 0.263476 0.081401
O O18 0.000000 0.320377 0.000000
O O19 0.994786 0.500000 0.330715
O O20 0.864560 0.727506 0.232480
O O21 0.227091 0.000000 0.138235
#
# Coordination Sequence:
#
# PCOD8082200 Si02
#       8
#     8   8   8   8   8   8   8   8
#     4  11  23  38  56  77 101 134 176 222 268 312
#     4  11  23  36  52  77 107 138 176 217 261 311
#     4  11  22  35  53  76 105 138 173 216 263 311
#     4  11  24  39  55  74 100 137 180 220 262 313
#     4  10  18  31  50  72 104 141 173 208 254 308
#     4   9  17  28  45  71 103 137 172 209 252 304
#     4  11  21  34  54  79 105 138 177 216 261 312
#     4   9  18  31  48  73 104 137 173 210 254 309
#
# _framework density 17.32696
#
# number of rings (size 3 to 8) (size 9 to 14) (size 15 to 20)
#    0.000    1.625    2.500    3.000    0.000    7.500 
#    0.000    0.000    0.000    0.000    0.000    0.875 
#    0.000    0.000    0.000    0.000    0.000    0.000 
#
# Total GULP energy -396949.412813 kJ/mol
# GULP energy per Si atom -12404.669150 kJ/mol
# Density = 1.728752 g / cm^3
# Si number density = 17.326960 Si / 1000 Ang^3
#
#
#
# Elastic Constant Matrix: (Units=GPa)
#
#
# Indices 1 2 3 4 5 6 
#
# 1 52.2147 31.0166 35.8337 -0.0002 -2.2247 0.0000
# 2 31.0166 66.0588 36.1696 0.0000 2.4777 -0.0010
# 3 35.8337 36.1696 125.7732 0.0010 4.3593 0.0002
# 4 -0.0002 0.0000 0.0010 35.8177 0.0003 0.3535
# 5 -2.2247 2.4777 4.3593 0.0003 18.0590 0.0001
# 6 0.0000 -0.0010 0.0002 0.3535 0.0001 23.3075
#
#
#
# Elastic Compliance Matrix: (Units=1/GPa)
#
#
# Indices 1 2 3 4 5 6 
#
# 1 0.029906 -0.011273 -0.005506 0.000000 0.006560 0.000000
# 2 -0.011273 0.022244 -0.003057 0.000000 -0.003703 0.000001
# 3 -0.005506 -0.003057 0.010495 0.000000 -0.002792 0.000000
# 4 0.000000 0.000000 0.000000 0.027923 0.000000 -0.000424
# 5 0.006560 -0.003703 -0.002792 0.000000 0.057364 0.000000
# 6 0.000000 0.000001 0.000000 -0.000424 0.000000 0.042911
#
#
# Mechanical properties :
#
#
# Convention : Reuss Voigt Hill
#
# Bulk Modulus (GPa) = 43.52817 50.00963 46.76890
# Shear Modulus (GPa) = 20.99308 24.83862 22.91585
#
# Velocity S-wave (km/s) = 3.48456 3.79030 3.64064
# Velocity P-wave (km/s) = 6.43162 6.93398 6.68752
#
# Compressibility (1/GPa) = 0.02297363
#
# Stress axis : x y z
#
# Youngs Moduli (GPa) = 33.43763 44.95662 95.28060
#
# Poissons Ratio (x) = 0.50681 0.52461
# Poissons Ratio (y) = 0.37695 0.29124
# Poissons Ratio (z) = 0.18411 0.13741
#
# Static dielectric constant tensor:
#      x y z
#    x 3.067910 0.000000 0.099840 
#    y 0.000000 3.316660 0.000000 
#    z 0.099840 0.000000 3.346290 
# 
# 
# High freq. dielectric constant tensor:
#      x y z
#    x 1.628940 0.000000 0.004670 
#    y 0.000000 1.685400 0.000000 
#    z 0.004670 0.000000 1.677030 
# 
# From -- ./inp_files/287585.got.cif
#   From: 2010.06.25/outbox.cif.g09.slc.cpg/sg12_144_cif.got.tgz:287585.got - 2010.06.28 00:19:55.
