data_PCOD8082307
_publ_section_title
;
Structure prediction by ZEFSAII (Michael W. Deem and Ramdas Pophale) SiO2 
 PCOD8082307
Probable space group: C 2/M
;
_chemical_formula_sum "Si O2"
_cell_formula_units_Z 48
_cell_length_a 29.887560
_cell_length_b 8.682937
_cell_length_c 10.360122
_cell_angle_alpha 90.000000
_cell_angle_beta 71.526656
_cell_angle_gamma 90.000000
_cell_volume 2550.034856
_symmetry_space_group_name_H-M "C 2/M"
_symmetry_group_IT_number 12
_symmetry_cell_setting 'monoclinic'
loop_
_space_group_symop_operation_xyz
x,y,z
-x,y,-z
-x,-y,-z
x,-y,z
1/2+x,1/2+y,z
1/2-x,1/2+y,-z
1/2-x,1/2-y,-z
1/2+x,1/2-y,z
loop_
_atom_site_type_symbol
_atom_site_label
_atom_site_fract_x
_atom_site_fract_y
_atom_site_fract_z
Si Si1 0.355039 0.816782 0.636273
Si Si2 0.839235 0.682773 0.172164
Si Si3 0.393939 0.816639 0.869690
Si Si4 0.592778 0.183202 0.662347
Si Si5 0.495279 0.816407 0.858951
Si Si6 0.746586 0.182068 0.361197
O O1 0.373261 0.748620 0.755406
O O2 0.388755 0.753105 0.491417
O O3 0.301834 0.760731 0.660188
O O4 0.357271 0.000000 0.636609
O O5 0.833526 0.500000 0.182878
O O6 0.872905 0.742882 0.255937
O O7 0.788330 0.759621 0.231921
O O8 0.861094 0.739125 0.017072
O O9 0.447064 0.753052 0.840186
O O10 0.394939 0.000000 0.865669
O O11 0.539700 0.244290 0.734920
O O12 0.593240 0.000000 0.663736
O O13 0.494664 0.000000 0.862616
O O14 0.500000 0.753071 0.000000
O O15 0.750000 0.250000 0.500000
O O16 0.747745 0.000000 0.372209
#
# Coordination Sequence:
#
# PCOD8082307 Si02
#       6
#     8   8   8   8   8   8
#     4   9  18  30  43  66 100 130 159 206 255 288
#     4  10  18  31  51  74 100 131 164 200 244 293
#     4   9  17  28  44  69 102 134 161 197 249 298
#     4   9  15  25  43  67  97 129 160 200 245 287
#     4   9  14  22  40  67  97 130 166 198 237 294
#     4  11  21  34  53  74  99 130 168 207 245 290
#
# _framework density 18.823273
#
# number of rings (size 3 to 8) (size 9 to 14) (size 15 to 20)
#    0.000    2.500    3.333    0.500    0.000    1.333 
#    0.000    3.333    0.000    1.000    0.000    2.333 
#    0.000    1.333    0.000    0.000    0.000    0.000 
#
# Total GULP energy -297551.379173 kJ/mol
# GULP energy per Si atom -12397.974132 kJ/mol
# Density = 1.878043 g / cm^3
# Si number density = 18.823273 Si / 1000 Ang^3
#
#
#
# Elastic Constant Matrix: (Units=GPa)
#
#
# Indices 1 2 3 4 5 6 
#
# 1 199.9851 17.4999 116.5783 0.0000 -9.0285 0.0000
# 2 17.4999 15.6007 12.4005 0.0000 -1.5549 0.0000
# 3 116.5783 12.4005 189.0342 0.0000 -2.2189 0.0000
# 4 0.0000 0.0000 0.0000 11.5043 0.0000 -4.7298
# 5 -9.0285 -1.5549 -2.2189 0.0000 45.3698 0.0000
# 6 0.0000 0.0000 0.0000 -4.7298 0.0000 18.5543
#
#
#
# Elastic Compliance Matrix: (Units=1/GPa)
#
#
# Indices 1 2 3 4 5 6 
#
# 1 0.008297 -0.005410 -0.004747 0.000000 0.001233 0.000000
# 2 -0.005410 0.071355 -0.001329 0.000000 0.001304 0.000000
# 3 -0.004747 -0.001329 0.008298 0.000000 -0.000584 0.000000
# 4 0.000000 0.000000 0.000000 0.097101 0.000000 0.024753
# 5 0.001233 0.001304 -0.000584 0.000000 0.022303 0.000000
# 6 0.000000 0.000000 0.000000 0.024753 0.000000 0.060206
#
#
# Mechanical properties :
#
#
# Convention : Reuss Voigt Hill
#
# Bulk Modulus (GPa) = 15.39016 77.50859 46.44938
# Shear Modulus (GPa) = 16.01579 32.29508 24.15544
#
# Velocity S-wave (km/s) = 2.92010 4.14659 3.58617
# Velocity P-wave (km/s) = 4.42303 8.01199 6.47129
#
# Compressibility (1/GPa) = 0.06497658
#
# Stress axis : x y z
#
# Youngs Moduli (GPa) = 120.52702 14.01444 120.51004
#
# Poissons Ratio (x) = 0.07582 0.57210
# Poissons Ratio (y) = 0.65211 0.16014
# Poissons Ratio (z) = 0.57218 0.01862
#
# Static dielectric constant tensor:
#      x y z
#    x 3.785140 0.000000 -0.041560 
#    y 0.000000 2.753560 0.000000 
#    z -0.041560 0.000000 3.755870 
# 
# 
# High freq. dielectric constant tensor:
#      x y z
#    x 1.745770 0.000000 -0.008860 
#    y 0.000000 1.657570 0.000000 
#    z -0.008860 0.000000 1.740190 
# 
# From -- ./inp_files/101959.got.cif
#   From: 2010.06.25/outbox.cif.g09.slc.cpg/sg12_51_cif.got.tgz:101959.got - 2010.06.28 00:19:55.
