data_PCOD8082620
_publ_section_title
;
Structure prediction by ZEFSAII (Michael W. Deem and Ramdas Pophale) SiO2 
 PCOD8082620
Probable space group: C 2/M
;
_chemical_formula_sum "Si O2"
_cell_formula_units_Z 64
_cell_length_a 24.276763
_cell_length_b 9.141951
_cell_length_c 16.141630
_cell_angle_alpha 90.000000
_cell_angle_beta 92.304687
_cell_angle_gamma 90.000000
_cell_volume 3579.526787
_symmetry_space_group_name_H-M "C 2/M"
_symmetry_group_IT_number 12
_symmetry_cell_setting 'monoclinic'
loop_
_space_group_symop_operation_xyz
x,y,z
-x,y,-z
-x,-y,-z
x,-y,z
1/2+x,1/2+y,z
1/2-x,1/2+y,-z
1/2-x,1/2-y,-z
1/2+x,1/2-y,z
loop_
_atom_site_type_symbol
_atom_site_label
_atom_site_fract_x
_atom_site_fract_y
_atom_site_fract_z
Si Si1 0.693328 0.168487 0.776464
Si Si2 0.705982 0.328582 0.608552
Si Si3 0.175744 0.667972 0.451093
Si Si4 0.517750 0.330120 0.191399
Si Si5 0.412975 0.171321 0.127182
Si Si6 0.107184 0.330562 0.291872
Si Si7 0.815552 0.167293 0.824082
Si Si8 0.096060 0.165581 0.041418
O O1 0.686507 0.262862 0.693874
O O2 0.645856 0.212340 0.837672
O O3 0.750808 0.200780 0.826830
O O4 0.689041 0.000000 0.749719
O O5 0.696904 0.500000 0.611944
O O6 0.769310 0.284038 0.595416
O O7 0.667945 0.264869 0.532590
O O8 0.181420 0.500000 0.478935
O O9 0.122882 0.692007 0.389086
O O10 0.509542 0.500000 0.210140
O O11 0.458914 0.252908 0.183818
O O12 0.552045 0.259698 0.268984
O O13 0.549925 0.304224 0.107725
O O14 0.413959 0.222313 0.032599
O O15 0.425168 0.000000 0.130341
O O16 0.097189 0.500000 0.270505
O O17 0.158597 0.275912 0.240967
O O18 0.827355 0.000000 0.796276
O O19 0.843538 0.192657 0.915428
O O20 0.090542 0.000000 0.007102
#
# Coordination Sequence:
#
# PCOD8082620 Si02
#       8
#     8   8   8   8   8   8   8   8
#     4  10  21  36  52  72 107 145 175 211 257 311
#     4  10  19  31  50  78 107 139 176 209 247 303
#     4   9  18  31  49  78 111 138 166 206 257 305
#     4  10  21  37  56  77 102 135 174 217 266 311
#     4  11  23  36  52  76 102 137 180 218 261 307
#     4  10  18  31  53  81 109 133 167 215 260 304
#     4   9  18  33  52  74 104 141 173 206 258 313
#     4   9  19  35  54  76 101 131 171 219 267 311
#
# _framework density 17.879459000000001
#
# number of rings (size 3 to 8) (size 9 to 14) (size 15 to 20)
#    0.000    2.250    1.250    2.625    0.000    7.000 
#    0.000    0.000    0.000    0.750    0.000    5.250 
#    0.000    0.000    0.000    0.000    0.000    0.000 
#
# Total GULP energy -396874.646718 kJ/mol
# GULP energy per Si atom -12402.332710 kJ/mol
# Density = 1.783876 g / cm^3
# Si number density = 17.879459 Si / 1000 Ang^3
#
#
#
# Elastic Constant Matrix: (Units=GPa)
#
#
# Indices 1 2 3 4 5 6 
#
# 1 100.2896 42.3998 23.2723 0.0000 21.1643 0.0000
# 2 42.3998 88.8451 33.6620 0.0000 13.6986 0.0000
# 3 23.2723 33.6620 50.7350 0.0000 20.5916 0.0000
# 4 0.0000 0.0000 0.0000 33.4971 0.0000 4.2316
# 5 21.1643 13.6986 20.5916 0.0000 21.9909 0.0000
# 6 0.0000 0.0000 0.0000 4.2316 0.0000 26.8783
#
#
#
# Elastic Compliance Matrix: (Units=1/GPa)
#
#
# Indices 1 2 3 4 5 6 
#
# 1 0.014569 -0.005898 0.002307 0.000000 -0.012507 0.000000
# 2 -0.005898 0.017423 -0.010893 0.000000 0.005024 0.000000
# 3 0.002307 -0.010893 0.038755 0.000000 -0.031724 0.000000
# 4 0.000000 0.000000 0.000000 0.030459 0.000000 -0.004795
# 5 -0.012507 0.005024 -0.031724 0.000000 0.084086 0.000000
# 6 0.000000 0.000000 0.000000 -0.004795 0.000000 0.037960
#
#
# Mechanical properties :
#
#
# Convention : Reuss Voigt Hill
#
# Bulk Modulus (GPa) = 23.93615 48.72641 36.33128
# Shear Modulus (GPa) = 18.78654 25.84231 22.31442
#
# Velocity S-wave (km/s) = 3.24502 3.80592 3.53660
# Velocity P-wave (km/s) = 5.23992 6.82827 6.08613
#
# Compressibility (1/GPa) = 0.04177782
#
# Stress axis : x y z
#
# Youngs Moduli (GPa) = 68.63943 57.39467 25.80289
#
# Poissons Ratio (x) = 0.33854 -0.05953
# Poissons Ratio (y) = 0.40486 0.28108
# Poissons Ratio (z) = -0.15835 0.62522
#
# Static dielectric constant tensor:
#      x y z
#    x 3.317930 0.000000 0.238570 
#    y 0.000000 3.350010 0.000000 
#    z 0.238570 0.000000 3.161320 
# 
# 
# High freq. dielectric constant tensor:
#      x y z
#    x 1.678560 0.000000 0.025340 
#    y 0.000000 1.701050 0.000000 
#    z 0.025340 0.000000 1.678380 
# 
# From -- ./inp_files/238811.got.cif
#   From: 2010.06.25/outbox.cif.g09.slc.cpg/sg12_120_cif.got.tgz:238811.got - 2010.06.28 00:19:55.
