data_PCOD8082216
_publ_section_title
;
Structure prediction by ZEFSAII (Michael W. Deem and Ramdas Pophale) SiO2 
 PCOD8082216
Probable space group: C 2/M
;
_chemical_formula_sum "Si O2"
_cell_formula_units_Z 40
_cell_length_a 28.106816
_cell_length_b 9.188632
_cell_length_c 12.553761
_cell_angle_alpha 90.000000
_cell_angle_beta 45.344047
_cell_angle_gamma 90.000000
_cell_volume 2306.288331
_symmetry_space_group_name_H-M "C 2/M"
_symmetry_group_IT_number 12
_symmetry_cell_setting 'monoclinic'
loop_
_space_group_symop_operation_xyz
x,y,z
-x,y,-z
-x,-y,-z
x,-y,z
1/2+x,1/2+y,z
1/2-x,1/2+y,-z
1/2-x,1/2-y,-z
1/2+x,1/2-y,z
loop_
_atom_site_type_symbol
_atom_site_label
_atom_site_fract_x
_atom_site_fract_y
_atom_site_fract_z
Si Si1 0.090187 0.830998 0.043533
Si Si2 0.818542 0.832355 0.905447
Si Si3 0.928599 0.170865 0.563347
Si Si4 0.079016 0.660426 0.860251
Si Si5 0.955183 0.672177 0.313364
O O1 0.153220 0.805159 0.020743
O O2 0.027752 0.744772 0.189599
O O3 0.070394 0.000000 0.068406
O O4 0.111029 0.774140 0.893054
O O5 0.872157 0.777526 0.734556
O O6 0.803551 0.000000 0.909490
O O7 0.750000 0.750000 0.000000
O O8 0.916468 0.260602 0.474446
O O9 0.000000 0.212467 0.500000
O O10 0.924915 0.000000 0.543913
O O11 0.109395 0.500000 0.834676
O O12 0.090589 0.706702 0.718948
O O13 0.000000 0.655414 0.000000
O O14 0.965363 0.500000 0.310749
#
# Coordination Sequence:
#
# PCOD8082216 Si02
#       5
#     8   8   8   8   8
#     4  10  18  31  50  73 102 136 173 210 253 303
#     4  10  22  37  53  75 104 138 171 211 256 304
#     4  10  19  35  54  74 105 136 168 214 260 302
#     4   8  16  29  44  70 105 133 163 209 258 300
#     4  10  19  30  48  77 107 133 167 211 257 303
#
# _framework density 17.343886000000001
#
# number of rings (size 3 to 8) (size 9 to 14) (size 15 to 20)
#    0.000    2.400    2.000    2.400    0.000    7.200 
#    0.000    0.000    0.000    1.200    0.000    0.000 
#    0.000    0.000    0.000    0.000    0.000    0.000 
#
# Total GULP energy -247955.269582 kJ/mol
# GULP energy per Si atom -12397.763479 kJ/mol
# Density = 1.730441 g / cm^3
# Si number density = 17.343886 Si / 1000 Ang^3
#
#
#
# Elastic Constant Matrix: (Units=GPa)
#
#
# Indices 1 2 3 4 5 6 
#
# 1 99.2283 61.5892 71.8722 0.0000 18.2119 0.0000
# 2 61.5892 88.2703 54.6588 0.0000 14.7772 0.0000
# 3 71.8722 54.6588 104.8162 0.0000 17.1080 0.0000
# 4 0.0000 0.0000 0.0000 29.8386 0.0000 4.9569
# 5 18.2119 14.7772 17.1080 0.0000 35.1267 0.0000
# 6 0.0000 0.0000 0.0000 4.9569 0.0000 30.7819
#
#
#
# Elastic Compliance Matrix: (Units=1/GPa)
#
#
# Indices 1 2 3 4 5 6 
#
# 1 0.025198 -0.009845 -0.011611 0.000000 -0.003268 0.000000
# 2 -0.009845 0.020880 -0.003843 0.000000 -0.001808 0.000000
# 3 -0.011611 -0.003843 0.019837 0.000000 -0.002025 0.000000
# 4 0.000000 0.000000 0.000000 0.034435 0.000000 -0.005545
# 5 -0.003268 -0.001808 -0.002025 0.000000 0.031909 0.000000
# 6 0.000000 0.000000 0.000000 -0.005545 0.000000 0.033380
#
#
# Mechanical properties :
#
#
# Convention : Reuss Voigt Hill
#
# Bulk Modulus (GPa) = 65.28480 74.28393 69.78437
# Shear Modulus (GPa) = 22.58957 26.09575 24.34266
#
# Velocity S-wave (km/s) = 3.61286 3.88314 3.75044
# Velocity P-wave (km/s) = 7.42474 7.93902 7.68618
#
# Compressibility (1/GPa) = 0.01531750
#
# Stress axis : x y z
#
# Youngs Moduli (GPa) = 39.68575 47.89274 50.41177
#
# Poissons Ratio (x) = 0.47148 0.58534
# Poissons Ratio (y) = 0.39069 0.19372
# Poissons Ratio (z) = 0.46080 0.18404
#
# Static dielectric constant tensor:
#      x y z
#    x 3.262430 0.000000 0.520350 
#    y 0.000000 3.286620 0.000000 
#    z 0.520350 0.000000 3.298290 
# 
# 
# High freq. dielectric constant tensor:
#      x y z
#    x 1.655500 0.000000 0.037610 
#    y 0.000000 1.675200 0.000000 
#    z 0.037610 0.000000 1.649850 
# 
# From -- ./inp_files/162387.got.cif
#   From: 2010.06.25/outbox.cif.g09.slc.cpg/sg12_82_cif.got.tgz:162387.got - 2010.06.28 00:19:55.
