data_PCOD8082240
_publ_section_title
;
Structure prediction by ZEFSAII (Michael W. Deem and Ramdas Pophale) SiO2 
 PCOD8082240
Probable space group: C 2/M
;
_chemical_formula_sum "Si O2"
_cell_formula_units_Z 64
_cell_length_a 20.874476
_cell_length_b 9.063921
_cell_length_c 20.069915
_cell_angle_alpha 90.000000
_cell_angle_beta 105.908301
_cell_angle_gamma 90.000000
_cell_volume 3651.889008
_symmetry_space_group_name_H-M "C 2/M"
_symmetry_group_IT_number 12
_symmetry_cell_setting 'monoclinic'
loop_
_space_group_symop_operation_xyz
x,y,z
-x,y,-z
-x,-y,-z
x,-y,z
1/2+x,1/2+y,z
1/2-x,1/2+y,-z
1/2-x,1/2-y,-z
1/2+x,1/2-y,z
loop_
_atom_site_type_symbol
_atom_site_label
_atom_site_fract_x
_atom_site_fract_y
_atom_site_fract_z
Si Si1 0.340103 0.829589 0.068902
Si Si2 0.926777 0.674954 0.215951
Si Si3 0.702875 0.830582 0.572288
Si Si4 0.817086 0.671696 0.286152
Si Si5 0.182685 0.675201 0.203444
Si Si6 0.426539 0.174961 0.721505
Si Si7 0.808704 0.829271 0.929584
Si Si8 0.336711 0.826960 0.580246
O O1 0.397773 0.778129 0.135919
O O2 0.270143 0.803119 0.085948
O O3 0.347374 0.000000 0.050094
O O4 0.346911 0.730222 0.005431
O O5 0.929650 0.500000 0.221596
O O6 0.878974 0.733742 0.261265
O O7 0.000295 0.744683 0.245726
O O8 0.664129 0.805452 0.630578
O O9 0.656093 0.783736 0.496019
O O10 0.769896 0.737749 0.592424
O O11 0.724154 0.000000 0.569846
O O12 0.803090 0.500000 0.265595
O O13 0.751726 0.762097 0.249920
O O14 0.187928 0.500000 0.200819
O O15 0.123726 0.728163 0.235421
O O16 0.165138 0.739199 0.126132
O O17 0.399556 0.230061 0.641475
O O18 0.432443 0.000000 0.724912
O O19 0.826217 0.000000 0.925330
O O20 0.330647 0.000000 0.588650
#
# Coordination Sequence:
#
# PCOD8082240 Si02
#       8
#     8   8   8   8   8   8   8   8
#     4   9  17  31  51  74  97 127 164 201 243 292
#     4   9  17  32  51  71  99 132 165 201 246 295
#     4   9  17  27  46  73 100 127 161 205 248 289
#     4  10  18  31  50  74  99 128 166 207 249 289
#     4  11  20  31  50  76 100 127 166 206 243 288
#     4   9  18  31  49  72 100 133 166 203 244 291
#     4  10  19  32  51  76 101 127 159 204 251 288
#     4   9  16  29  46  70 100 130 164 200 243 290
#
# _framework density 17.525176999999999
#
# number of rings (size 3 to 8) (size 9 to 14) (size 15 to 20)
#    0.000    2.500    2.500    0.750    0.000    0.500 
#    0.000    1.250    0.000   12.000    0.000    0.000 
#    0.000    5.000    0.000    0.000    0.000    0.000 
#
# Total GULP energy -396697.737398 kJ/mol
# GULP energy per Si atom -12396.804294 kJ/mol
# Density = 1.748529 g / cm^3
# Si number density = 17.525177 Si / 1000 Ang^3
#
#
#
# Elastic Constant Matrix: (Units=GPa)
#
#
# Indices 1 2 3 4 5 6 
#
# 1 121.8207 28.6838 83.2657 0.0000 8.3460 0.0000
# 2 28.6838 42.4583 36.7787 0.0000 -2.2643 0.0000
# 3 83.2657 36.7787 152.5734 0.0000 7.3247 0.0000
# 4 0.0000 0.0000 0.0000 23.4093 0.0000 -0.6305
# 5 8.3460 -2.2643 7.3247 0.0000 29.1076 0.0000
# 6 0.0000 0.0000 0.0000 -0.6305 0.0000 16.2416
#
#
#
# Elastic Compliance Matrix: (Units=1/GPa)
#
#
# Indices 1 2 3 4 5 6 
#
# 1 0.013671 -0.003817 -0.006416 0.000000 -0.002602 0.000000
# 2 -0.003817 0.031343 -0.005711 0.000000 0.004970 0.000000
# 3 -0.006416 -0.005711 0.011504 0.000000 -0.001500 0.000000
# 4 0.000000 0.000000 0.000000 0.042763 0.000000 0.001660
# 5 -0.002602 0.004970 -0.001500 0.000000 0.035865 0.000000
# 6 0.000000 0.000000 0.000000 0.001660 0.000000 0.061635
#
#
# Mechanical properties :
#
#
# Convention : Reuss Voigt Hill
#
# Bulk Modulus (GPa) = 40.59933 68.25655 54.42794
# Shear Modulus (GPa) = 21.10776 24.95998 23.03387
#
# Velocity S-wave (km/s) = 3.47425 3.77800 3.62930
# Velocity P-wave (km/s) = 6.26980 7.61993 6.97760
#
# Compressibility (1/GPa) = 0.02463095
#
# Stress axis : x y z
#
# Youngs Moduli (GPa) = 73.14672 31.90481 86.92421
#
# Poissons Ratio (x) = 0.12178 0.55769
# Poissons Ratio (y) = 0.27921 0.49642
# Poissons Ratio (z) = 0.46930 0.18221
#
# Static dielectric constant tensor:
#      x y z
#    x 3.250090 0.000000 0.033180 
#    y 0.000000 3.056930 0.000000 
#    z 0.033180 0.000000 3.640130 
# 
# 
# High freq. dielectric constant tensor:
#      x y z
#    x 1.646470 0.000000 -0.002270 
#    y 0.000000 1.653010 0.000000 
#    z -0.002270 0.000000 1.699350 
# 
# From -- ./inp_files/319256.got.cif
#   From: 2010.06.25/outbox.cif.g09.slc.cpg/sg12_160_cif.got.tgz:319256.got - 2010.06.28 00:19:55.
