data_PCOD8082551
_publ_section_title
;
Structure prediction by ZEFSAII (Michael W. Deem and Ramdas Pophale) SiO2 
 PCOD8082551
Probable space group: C 2/M
;
_chemical_formula_sum "Si O2"
_cell_formula_units_Z 64
_cell_length_a 14.649585
_cell_length_b 8.740436
_cell_length_c 26.212399
_cell_angle_alpha 90.000000
_cell_angle_beta 91.588732
_cell_angle_gamma 90.000000
_cell_volume 3355.043911
_symmetry_space_group_name_H-M "C 2/M"
_symmetry_group_IT_number 12
_symmetry_cell_setting 'monoclinic'
loop_
_space_group_symop_operation_xyz
x,y,z
-x,y,-z
-x,-y,-z
x,-y,z
1/2+x,1/2+y,z
1/2-x,1/2+y,-z
1/2-x,1/2-y,-z
1/2+x,1/2-y,z
loop_
_atom_site_type_symbol
_atom_site_label
_atom_site_fract_x
_atom_site_fract_y
_atom_site_fract_z
Si Si1 0.606502 0.822697 0.101223
Si Si2 0.651787 0.181611 0.993052
Si Si3 0.759780 0.317706 0.707586
Si Si4 0.892690 0.681588 0.364170
Si Si5 0.907526 0.676837 0.117268
Si Si6 0.757795 0.819507 0.177505
Si Si7 0.904521 0.818022 0.636316
Si Si8 0.252348 0.321504 0.555163
O O1 0.597951 0.759870 0.042882
O O2 0.513662 0.797836 0.130573
O O3 0.685916 0.744369 0.136287
O O4 0.630878 0.000000 0.096316
O O5 0.652619 0.000000 0.990391
O O6 0.750000 0.250000 0.000000
O O7 0.609733 0.244322 0.939771
O O8 0.759801 0.500000 0.701718
O O9 0.666158 0.251701 0.682725
O O10 0.761302 0.260628 0.765954
O O11 0.851812 0.249707 0.684302
O O12 0.898577 0.500000 0.356994
O O13 0.839023 0.725810 0.415325
O O14 0.994203 0.750173 0.367174
O O15 0.878741 0.500000 0.120176
O O16 0.857461 0.770285 0.160529
O O17 0.749910 0.000000 0.177488
O O18 0.844234 0.769219 0.586157
O O19 0.910516 0.000000 0.642037
O O20 0.254774 0.500000 0.547710
O O21 0.250000 0.250000 0.500000
#
# Coordination Sequence:
#
# PCOD8082551 Si02
#       8
#     8   8   8   8   8   8   8   8
#     4   9  18  34  53  73 103 138 169 209 260 320
#     4  10  18  31  53  75 100 135 173 212 260 315
#     4  10  21  37  57  81 109 145 189 234 283 337
#     4  10  21  38  59  84 113 150 193 235 282 332
#     4  10  20  33  53  79 102 134 178 215 258 320
#     4  10  21  37  55  77 106 138 171 216 275 325
#     4  10  21  38  59  85 115 150 191 234 282 332
#     4   9  20  36  55  83 119 155 191 231 276 325
#
# _framework density 19.075755999999998
#
# number of rings (size 3 to 8) (size 9 to 14) (size 15 to 20)
#    0.000    2.250    1.250    2.250    0.000    7.000 
#    0.000    5.000    0.000    1.500    0.000    0.000 
#    0.000    0.000    0.000    0.000    0.000    0.000 
#
# Total GULP energy -396639.564034 kJ/mol
# GULP energy per Si atom -12394.986376 kJ/mol
# Density = 1.903234 g / cm^3
# Si number density = 19.075756 Si / 1000 Ang^3
#
#
#
# Elastic Constant Matrix: (Units=GPa)
#
#
# Indices 1 2 3 4 5 6 
#
# 1 126.5400 31.7740 58.8131 0.0000 -15.7543 0.0000
# 2 31.7740 42.2584 41.7319 0.0000 -1.2707 0.0000
# 3 58.8131 41.7319 151.1081 0.0000 -14.5017 0.0000
# 4 0.0000 0.0000 0.0000 26.0258 0.0000 -3.9611
# 5 -15.7543 -1.2707 -14.5017 0.0000 18.7159 0.0000
# 6 0.0000 0.0000 0.0000 -3.9611 0.0000 32.7940
#
#
#
# Elastic Compliance Matrix: (Units=1/GPa)
#
#
# Indices 1 2 3 4 5 6 
#
# 1 0.011355 -0.006418 -0.001914 0.000000 0.007639 0.000000
# 2 -0.006418 0.036629 -0.008532 0.000000 -0.009526 0.000000
# 3 -0.001914 -0.008532 0.010273 0.000000 0.005769 0.000000
# 4 0.000000 0.000000 0.000000 0.039143 0.000000 0.004728
# 5 0.007639 -0.009526 0.005769 0.000000 0.063685 0.000000
# 6 0.000000 0.000000 0.000000 0.004728 0.000000 0.031064
#
#
# Mechanical properties :
#
#
# Convention : Reuss Voigt Hill
#
# Bulk Modulus (GPa) = 40.76887 64.94939 52.85913
# Shear Modulus (GPa) = 21.36271 28.01298 24.68784
#
# Velocity S-wave (km/s) = 3.35010 3.83627 3.60140
# Velocity P-wave (km/s) = 6.03181 7.33108 6.71295
#
# Compressibility (1/GPa) = 0.02452852
#
# Stress axis : x y z
#
# Youngs Moduli (GPa) = 88.06865 27.30077 97.34524
#
# Poissons Ratio (x) = 0.17521 0.18630
# Poissons Ratio (y) = 0.56522 0.83057
# Poissons Ratio (z) = 0.16855 0.23294
#
# Static dielectric constant tensor:
#      x y z
#    x 3.561410 0.000000 0.001080 
#    y 0.000000 3.369350 0.000000 
#    z 0.001080 0.000000 3.471520 
# 
# 
# High freq. dielectric constant tensor:
#      x y z
#    x 1.748620 0.000000 -0.003500 
#    y 0.000000 1.724620 0.000000 
#    z -0.003500 0.000000 1.746710 
# 
# From -- ./inp_files/359838.got.cif
#   From: 2010.06.25/outbox.cif.g09.slc.cpg/sg12_180_cif.got.tgz:359838.got - 2010.06.28 00:19:55.
