data_PCOD8082645
_publ_section_title
;
Structure prediction by ZEFSAII (Michael W. Deem and Ramdas Pophale) SiO2 
 PCOD8082645
Probable space group: C 2/M
;
_chemical_formula_sum "Si O2"
_cell_formula_units_Z 40
_cell_length_a 15.607844
_cell_length_b 8.553660
_cell_length_c 21.247941
_cell_angle_alpha 90.000000
_cell_angle_beta 43.626500
_cell_angle_gamma 90.000000
_cell_volume 1957.186199
_symmetry_space_group_name_H-M "C 2/M"
_symmetry_group_IT_number 12
_symmetry_cell_setting 'monoclinic'
loop_
_space_group_symop_operation_xyz
x,y,z
-x,y,-z
-x,-y,-z
x,-y,z
1/2+x,1/2+y,z
1/2-x,1/2+y,-z
1/2-x,1/2-y,-z
1/2+x,1/2-y,z
loop_
_atom_site_type_symbol
_atom_site_label
_atom_site_fract_x
_atom_site_fract_y
_atom_site_fract_z
Si Si1 0.814499 0.682205 0.584880
Si Si2 0.566230 0.314355 0.777494
Si Si3 0.101694 0.183906 0.898274
Si Si4 0.015126 0.820231 0.402466
Si Si5 0.361700 0.319411 0.792666
O O1 0.811603 0.500000 0.569677
O O2 0.677409 0.747742 0.673821
O O3 0.872146 0.775630 0.494649
O O4 0.897299 0.708961 0.602968
O O5 0.578465 0.500000 0.774463
O O6 0.579088 0.242282 0.840866
O O7 0.433964 0.266324 0.817559
O O8 0.238471 0.218539 0.851185
O O9 0.083717 0.000000 0.903760
O O10 0.000000 0.256299 0.000000
O O11 0.042389 0.789238 0.315102
O O12 0.040191 0.000000 0.407183
O O13 0.322334 0.500000 0.816727
#
# Coordination Sequence:
#
# PCOD8082645 Si02
#       5
#     8   8   8   8   8
#     4  10  18  31  54  77 105 148 185 214 260 320
#     4   9  19  36  56  80 111 145 180 219 271 327
#     4  10  21  39  61  82 107 140 180 228 275 321
#     4  10  19  31  50  78 111 142 178 224 266 307
#     4  10  21  37  57  80 111 147 179 219 274 326
#
# _framework density 20.437505000000002
#
# number of rings (size 3 to 8) (size 9 to 14) (size 15 to 20)
#    0.000    2.200    2.000    2.400    0.000    2.800 
#    0.000    3.000    0.000    0.000    0.000    0.000 
#    0.000    0.000    0.000    0.000    0.000    0.000 
#
# Total GULP energy -247951.776718 kJ/mol
# GULP energy per Si atom -12397.588836 kJ/mol
# Density = 2.039099 g / cm^3
# Si number density = 20.437505 Si / 1000 Ang^3
#
#
#
# Elastic Constant Matrix: (Units=GPa)
#
#
# Indices 1 2 3 4 5 6 
#
# 1 115.5112 2.1523 61.1966 0.0000 -6.5375 0.0000
# 2 2.1523 25.7496 19.4762 0.0000 0.1166 0.0002
# 3 61.1966 19.4762 146.7752 0.0000 -9.8154 0.0000
# 4 0.0000 0.0000 0.0000 22.3772 0.0000 -3.4788
# 5 -6.5375 0.1166 -9.8154 0.0000 13.6956 0.0000
# 6 0.0000 0.0002 0.0000 -3.4788 0.0000 23.1364
#
#
#
# Elastic Compliance Matrix: (Units=1/GPa)
#
#
# Indices 1 2 3 4 5 6 
#
# 1 0.011348 0.002812 -0.004983 0.000000 0.001822 0.000000
# 2 0.002812 0.044155 -0.007318 0.000000 -0.004278 0.000000
# 3 -0.004983 -0.007318 0.010195 0.000000 0.004991 0.000000
# 4 0.000000 0.000000 0.000000 0.045758 0.000000 0.006880
# 5 0.001822 -0.004278 0.004991 0.000000 0.077499 0.000000
# 6 0.000000 0.000000 0.000000 0.006880 0.000000 0.044256
#
#
# Mechanical properties :
#
#
# Convention : Reuss Voigt Hill
#
# Bulk Modulus (GPa) = 21.40358 50.40959 35.90658
# Shear Modulus (GPa) = 18.67336 25.52256 22.09796
#
# Velocity S-wave (km/s) = 3.02599 3.53768 3.29180
# Velocity P-wave (km/s) = 4.76490 6.43473 5.66171
#
# Compressibility (1/GPa) = 0.04672117
#
# Stress axis : x y z
#
# Youngs Moduli (GPa) = 88.12443 22.64765 98.08421
#
# Poissons Ratio (x) = -0.06368 0.48871
# Poissons Ratio (y) = -0.24780 0.71774
# Poissons Ratio (z) = 0.43909 0.16573
#
# Static dielectric constant tensor:
#      x y z
#    x 3.590780 0.000000 0.086360 
#    y 0.000000 3.361240 0.000000 
#    z 0.086360 0.000000 4.085700 
# 
# 
# High freq. dielectric constant tensor:
#      x y z
#    x 1.789940 0.000000 -0.000590 
#    y 0.000000 1.767650 0.000000 
#    z -0.000590 0.000000 1.806310 
# 
# From -- ./inp_files/220230.got.cif
#   From: 2010.06.25/outbox.cif.g09.slc.cpg/sg12_111_cif.got.tgz:220230.got - 2010.06.28 00:19:55.
