data_PCOD8082106
_publ_section_title
;
Structure prediction by ZEFSAII (Michael W. Deem and Ramdas Pophale) SiO2 
 PCOD8082106
Probable space group: C 2/M
;
_chemical_formula_sum "Si O2"
_cell_formula_units_Z 48
_cell_length_a 27.430754
_cell_length_b 8.904292
_cell_length_c 21.009103
_cell_angle_alpha 90.000000
_cell_angle_beta 146.559517
_cell_angle_gamma 90.000000
_cell_volume 2827.820195
_symmetry_space_group_name_H-M "C 2/M"
_symmetry_group_IT_number 12
_symmetry_cell_setting 'monoclinic'
loop_
_space_group_symop_operation_xyz
x,y,z
-x,y,-z
-x,-y,-z
x,-y,z
1/2+x,1/2+y,z
1/2-x,1/2+y,-z
1/2-x,1/2-y,-z
1/2+x,1/2-y,z
loop_
_atom_site_type_symbol
_atom_site_label
_atom_site_fract_x
_atom_site_fract_y
_atom_site_fract_z
Si Si1 0.362644 0.171356 0.961064
Si Si2 0.228561 0.677779 0.909658
Si Si3 0.029945 0.168697 0.105278
Si Si4 0.576766 0.322286 0.670640
Si Si5 0.385887 0.322901 0.430025
Si Si6 0.303953 0.171234 0.752029
O O1 0.463214 0.231635 0.074573
O O2 0.360642 0.000000 0.983031
O O3 0.301610 0.272695 0.938587
O O4 0.327040 0.184175 0.851156
O O5 0.228571 0.500000 0.915722
O O6 0.131472 0.733798 0.783201
O O7 0.250000 0.750000 0.000000
O O8 0.129362 0.233015 0.218777
O O9 0.029391 0.000000 0.131477
O O10 0.000000 0.173736 0.000000
O O11 0.593802 0.500000 0.696546
O O12 0.472508 0.282176 0.565950
O O13 0.606016 0.261552 0.633121
O O14 0.378126 0.500000 0.414104
O O15 0.295984 0.263558 0.365655
O O16 0.311435 0.000000 0.737057
#
# Coordination Sequence:
#
# PCOD8082106 Si02
#       6
#     8   8   8   8   8   8
#     4  10  18  31  49  67  92 125 162 201 239 284
#     4  12  24  36  50  69  95 128 166 205 243 285
#     4   9  17  27  40  64  97 128 157 193 238 284
#     4   9  16  31  50  70  95 127 163 198 237 284
#     4   8  14  26  49  73  97 128 160 193 235 288
#     4   9  15  26  45  70  96 128 162 190 230 286
#
# _framework density 16.974205000000001
#
# number of rings (size 3 to 8) (size 9 to 14) (size 15 to 20)
#    0.000    2.500    1.667    3.500    0.000    2.667 
#    0.000    2.500    0.000    0.000    0.000    1.167 
#    0.000    0.000    0.000    0.000    0.000    0.000 
#
# Total GULP energy -297496.667462 kJ/mol
# GULP energy per Si atom -12395.694478 kJ/mol
# Density = 1.693557 g / cm^3
# Si number density = 16.974205 Si / 1000 Ang^3
#
#
#
# Elastic Constant Matrix: (Units=GPa)
#
#
# Indices 1 2 3 4 5 6 
#
# 1 47.0296 31.9813 48.9241 0.0000 29.8235 0.0000
# 2 31.9813 100.8901 49.1752 0.0000 11.5397 0.0000
# 3 48.9241 49.1752 114.0674 0.0000 30.0406 0.0000
# 4 0.0000 0.0000 0.0000 21.3547 0.0000 4.3812
# 5 29.8235 11.5397 30.0406 0.0000 36.9993 0.0000
# 6 0.0000 0.0000 0.0000 4.3812 0.0000 25.1164
#
#
#
# Elastic Compliance Matrix: (Units=1/GPa)
#
#
# Indices 1 2 3 4 5 6 
#
# 1 0.069161 -0.010173 -0.014541 0.000000 -0.040768 0.000000
# 2 -0.010173 0.014056 -0.003436 0.000000 0.006606 0.000000
# 3 -0.014541 -0.003436 0.016683 0.000000 -0.000753 0.000000
# 4 0.000000 0.000000 0.000000 0.048566 0.000000 -0.008472
# 5 -0.040768 0.006606 -0.000753 0.000000 0.058440 0.000000
# 6 0.000000 0.000000 0.000000 -0.008472 0.000000 0.041292
#
#
# Mechanical properties :
#
#
# Convention : Reuss Voigt Hill
#
# Bulk Modulus (GPa) = 22.93607 58.01647 40.47627
# Shear Modulus (GPa) = 15.67248 25.48786 20.58017
#
# Velocity S-wave (km/s) = 3.04190 3.87921 3.48579
# Velocity P-wave (km/s) = 5.08716 7.37006 6.33233
#
# Compressibility (1/GPa) = 0.04359944
#
# Stress axis : x y z
#
# Youngs Moduli (GPa) = 14.45909 71.14583 59.94100
#
# Poissons Ratio (x) = 0.72374 0.87162
# Poissons Ratio (y) = 0.14709 0.20596
# Poissons Ratio (z) = 0.21025 0.24446
#
# Static dielectric constant tensor:
#      x y z
#    x 3.512090 0.000000 0.541670 
#    y 0.000000 3.121640 0.000000 
#    z 0.541670 0.000000 3.251920 
# 
# 
# High freq. dielectric constant tensor:
#      x y z
#    x 1.631230 0.000000 0.043030 
#    y 0.000000 1.645170 0.000000 
#    z 0.043030 0.000000 1.634990 
# 
# From -- ./inp_files/329126.got.cif
#   From: 2010.06.25/outbox.cif.g09.slc.cpg/sg12_165_cif.got.tgz:329126.got - 2010.06.28 00:19:55.
