data_PCOD8082697
_publ_section_title
;
Structure prediction by ZEFSAII (Michael W. Deem and Ramdas Pophale) SiO2 
 PCOD8082697
Probable space group: C 2/M
;
_chemical_formula_sum "Si O2"
_cell_formula_units_Z 48
_cell_length_a 21.770111
_cell_length_b 20.952490
_cell_length_c 15.971143
_cell_angle_alpha 90.000000
_cell_angle_beta 19.572466
_cell_angle_gamma 90.000000
_cell_volume 2440.481708
_symmetry_space_group_name_H-M "C 2/M"
_symmetry_group_IT_number 12
_symmetry_cell_setting 'monoclinic'
loop_
_space_group_symop_operation_xyz
x,y,z
-x,y,-z
-x,-y,-z
x,-y,z
1/2+x,1/2+y,z
1/2-x,1/2+y,-z
1/2-x,1/2-y,-z
1/2+x,1/2-y,z
loop_
_atom_site_type_symbol
_atom_site_label
_atom_site_fract_x
_atom_site_fract_y
_atom_site_fract_z
Si Si1 0.275089 0.662404 0.547032
Si Si2 0.709882 0.930389 0.761426
Si Si3 0.641639 0.279968 0.019325
Si Si4 0.192623 0.780784 0.765231
Si Si5 0.071651 0.334502 0.233131
Si Si6 0.518806 0.925818 0.166059
O O1 0.337065 0.618588 0.546713
O O2 0.446963 0.683488 0.270466
O O3 0.181113 0.723288 0.712107
O O4 0.141333 0.622956 0.657788
O O5 0.791324 0.000000 0.638031
O O6 0.500000 0.924887 0.000000
O O7 0.697891 0.917817 0.876340
O O8 0.630845 0.216770 0.087986
O O9 0.702295 0.257750 0.849261
O O10 0.793211 0.328839 0.861640
O O11 0.363447 0.825882 0.529802
O O12 0.000000 0.818649 0.000000
O O13 0.082539 0.404587 0.176859
O O14 0.451864 0.000000 0.251637
#
# Coordination Sequence:
#
# PCOD8082697 Si02
#       6
#     8   8   8   8   8   8
#     4  10  18  31  54  81 109 137 175 221 266 317
#     4   8  14  26  47  75 105 135 167 208 256 305
#     4  10  21  35  53  79 110 145 176 217 271 322
#     4  11  20  32  55  81 106 135 175 226 272 315
#     4  10  21  36  53  77 111 145 179 216 267 324
#     4  10  19  34  56  80 109 143 180 222 264 313
#
# _framework density 19.668248999999999
#
# number of rings (size 3 to 8) (size 9 to 14) (size 15 to 20)
#    0.000    2.167    0.000    6.500    0.000    2.667 
#    0.000    4.167    0.000    9.500    0.000    0.000 
#    0.000    0.000    0.000    0.000    0.000    0.000 
#
# Total GULP energy -297375.195603 kJ/mol
# GULP energy per Si atom -12390.633150 kJ/mol
# Density = 1.962348 g / cm^3
# Si number density = 19.668249 Si / 1000 Ang^3
#
#
#
# Elastic Constant Matrix: (Units=GPa)
#
#
# Indices 1 2 3 4 5 6 
#
# 1 75.7133 15.4913 28.7233 0.0339 1.9586 -0.0033
# 2 15.4913 68.6478 20.3540 0.0974 4.1263 -0.0121
# 3 28.7233 20.3540 65.1114 0.1303 11.4545 -0.0428
# 4 0.0339 0.0974 0.1303 14.8719 -0.0677 5.1019
# 5 1.9586 4.1263 11.4545 -0.0677 24.6263 0.0031
# 6 -0.0033 -0.0121 -0.0428 5.1019 0.0031 32.1495
#
#
#
# Elastic Compliance Matrix: (Units=1/GPa)
#
#
# Indices 1 2 3 4 5 6 
#
# 1 0.016149 -0.001708 -0.006986 0.000052 0.002252 -0.000017
# 2 -0.001708 0.016239 -0.004213 -0.000073 -0.000626 0.000012
# 3 -0.006986 -0.004213 0.021277 -0.000202 -0.008636 0.000059
# 4 0.000052 -0.000073 -0.000202 0.071116 0.000299 -0.011286
# 5 0.002252 -0.000626 -0.008636 0.000299 0.044550 -0.000063
# 6 -0.000017 0.000012 0.000059 -0.011286 -0.000063 0.032896
#
#
# Mechanical properties :
#
#
# Convention : Reuss Voigt Hill
#
# Bulk Modulus (GPa) = 35.90535 37.62330 36.76432
# Shear Modulus (GPa) = 21.06809 23.98980 22.52895
#
# Velocity S-wave (km/s) = 3.27643 3.49624 3.38812
# Velocity P-wave (km/s) = 5.71038 5.95556 5.83426
#
# Compressibility (1/GPa) = 0.02785101
#
# Stress axis : x y z
#
# Youngs Moduli (GPa) = 61.92193 61.57873 46.99972
#
# Poissons Ratio (x) = 0.10519 0.32836
# Poissons Ratio (y) = 0.10578 0.19799
# Poissons Ratio (z) = 0.43261 0.25941
#
# Static dielectric constant tensor:
#      x y z
#    x 3.830260 -0.000070 0.229400 
#    y -0.000070 3.486710 0.000100 
#    z 0.229400 0.000100 3.544890 
# 
# 
# High freq. dielectric constant tensor:
#      x y z
#    x 1.766540 -0.000010 0.016530 
#    y -0.000010 1.738420 0.000010 
#    z 0.016530 0.000010 1.751250 
# 
# From -- ./inp_files/235512.got.cif
#   From: 2010.06.25/outbox.cif.g09.slc.cpg/sg12_118_cif.got.tgz:235512.got - 2010.06.28 00:19:55.
