data_PCOD8082193
_publ_section_title
;
Structure prediction by ZEFSAII (Michael W. Deem and Ramdas Pophale) SiO2 
 PCOD8082193
Probable space group: C 2/M
;
_chemical_formula_sum "Si O2"
_cell_formula_units_Z 60
_cell_length_a 10.046962
_cell_length_b 18.420183
_cell_length_c 25.605023
_cell_angle_alpha 90.000000
_cell_angle_beta 132.786465
_cell_angle_gamma 90.000000
_cell_volume 3477.643398
_symmetry_space_group_name_H-M "C 2/M"
_symmetry_group_IT_number 12
_symmetry_cell_setting 'monoclinic'
loop_
_space_group_symop_operation_xyz
x,y,z
-x,y,-z
-x,-y,-z
x,-y,z
1/2+x,1/2+y,z
1/2-x,1/2+y,-z
1/2-x,1/2-y,-z
1/2+x,1/2-y,z
loop_
_atom_site_type_symbol
_atom_site_label
_atom_site_fract_x
_atom_site_fract_y
_atom_site_fract_z
Si Si1 0.311509 0.775865 0.859611
Si Si2 0.900785 0.578260 0.921708
Si Si3 0.472721 0.811740 0.792899
Si Si4 0.350167 0.699378 0.370240
Si Si5 0.500000 0.311898 0.000000
Si Si6 0.661969 0.796271 0.430959
Si Si7 0.388033 0.419719 0.522120
Si Si8 0.813612 0.421028 0.091165
O O1 0.267749 0.857920 0.867383
O O2 0.410513 0.774909 0.830353
O O3 0.448964 0.736577 0.936340
O O4 0.115673 0.740048 0.802105
O O5 0.798687 0.500000 0.902079
O O6 0.054975 0.566155 0.921066
O O7 0.000000 0.604211 0.000000
O O8 0.305720 0.825674 0.710454
O O9 0.574034 0.888073 0.830102
O O10 0.450696 0.771753 0.373633
O O11 0.265522 0.718870 0.403996
O O12 0.492982 0.632568 0.408812
O O13 0.666058 0.364450 0.030690
O O14 0.750000 0.750000 0.500000
O O15 0.695314 0.880759 0.456098
O O16 0.500000 0.431441 0.500000
O O17 0.351710 0.500000 0.537524
O O18 0.732208 0.500000 0.086409
#
# Coordination Sequence:
#
# PCOD8082193 Si02
#       8
#     8   8   8   8   4   8   8   8
#     4  10  20  32  49  69  95 121 163 205 240 290
#     4   9  17  29  47  67  86 114 154 199 244 284
#     4  10  21  32  48  71  98 130 158 191 238 292
#     4  10  18  31  50  72 100 132 156 190 236 282
#     4  10  19  30  51  68  92 120 156 208 259 278
#     4   9  17  30  52  75  98 122 160 197 228 270
#     4   8  15  28  48  75  97 120 157 197 229 264
#     4   9  19  32  46  67  94 122 159 199 242 292
#
# _framework density 17.253063999999998
#
# number of rings (size 3 to 8) (size 9 to 14) (size 15 to 20)
#    0.000    2.667    0.667    2.200    1.867    2.133 
#    0.000    0.000    0.000    7.200    0.000    0.000 
#    0.000    0.000    0.000    0.000    0.000    0.000 
#
# Total GULP energy -371650.596264 kJ/mol
# GULP energy per Si atom -12388.353209 kJ/mol
# Density = 1.721379 g / cm^3
# Si number density = 17.253064 Si / 1000 Ang^3
#
#
#
# Elastic Constant Matrix: (Units=GPa)
#
#
# Indices 1 2 3 4 5 6 
#
# 1 41.8229 34.7793 14.3427 0.0000 -0.7809 0.0000
# 2 34.7793 121.8693 39.1550 0.0000 8.3647 0.0000
# 3 14.3427 39.1550 85.1311 0.0000 7.8593 0.0000
# 4 0.0000 0.0000 0.0000 12.4337 0.0000 -0.4443
# 5 -0.7809 8.3647 7.8593 0.0000 24.6007 0.0000
# 6 0.0000 0.0000 0.0000 -0.4443 0.0000 20.0758
#
#
#
# Elastic Compliance Matrix: (Units=1/GPa)
#
#
# Indices 1 2 3 4 5 6 
#
# 1 0.031977 -0.008887 -0.001724 0.000000 0.004587 0.000000
# 2 -0.008887 0.012186 -0.003812 0.000000 -0.003208 0.000000
# 3 -0.001724 -0.003812 0.014091 0.000000 -0.003260 0.000000
# 4 0.000000 0.000000 0.000000 0.080490 0.000000 0.001781
# 5 0.004587 -0.003208 -0.003260 0.000000 0.042927 0.000000
# 6 0.000000 0.000000 0.000000 0.001781 0.000000 0.049851
#
#
# Mechanical properties :
#
#
# Convention : Reuss Voigt Hill
#
# Bulk Modulus (GPa) = 34.00116 47.26414 40.63265
# Shear Modulus (GPa) = 18.50684 22.12514 20.31599
#
# Velocity S-wave (km/s) = 3.27872 3.58493 3.43524
# Velocity P-wave (km/s) = 5.83810 6.67756 6.27189
#
# Compressibility (1/GPa) = 0.02941076
#
# Stress axis : x y z
#
# Youngs Moduli (GPa) = 31.27220 82.05825 70.96687
#
# Poissons Ratio (x) = 0.72924 0.12232
# Poissons Ratio (y) = 0.27791 0.27050
# Poissons Ratio (z) = 0.05390 0.31277
#
# Static dielectric constant tensor:
#      x y z
#    x 3.330040 0.000000 0.081620 
#    y 0.000000 4.043310 0.000000 
#    z 0.081620 0.000000 3.155910 
# 
# 
# High freq. dielectric constant tensor:
#      x y z
#    x 1.648440 0.000000 -0.005600 
#    y 0.000000 1.673510 0.000000 
#    z -0.005600 0.000000 1.652760 
# 
# From -- ./inp_files/358622.got.cif
#   From: 2010.06.25/outbox.cif.g09.slc.cpg/sg12_180_cif.got.tgz:358622.got - 2010.06.28 00:19:55.
