data_PCOD8082967
_publ_section_title
;
Structure prediction by ZEFSAII (Michael W. Deem and Ramdas Pophale) SiO2 
 PCOD8082967
Probable space group: C 2/M
;
_chemical_formula_sum "Si O2"
_cell_formula_units_Z 64
_cell_length_a 21.652899
_cell_length_b 19.188180
_cell_length_c 17.410746
_cell_angle_alpha 90.000000
_cell_angle_beta 148.126730
_cell_angle_gamma 90.000000
_cell_volume 3819.758037
_symmetry_space_group_name_H-M "C 2/M"
_symmetry_group_IT_number 12
_symmetry_cell_setting 'monoclinic'
loop_
_space_group_symop_operation_xyz
x,y,z
-x,y,-z
-x,-y,-z
x,-y,z
1/2+x,1/2+y,z
1/2-x,1/2+y,-z
1/2-x,1/2-y,-z
1/2+x,1/2-y,z
loop_
_atom_site_type_symbol
_atom_site_label
_atom_site_fract_x
_atom_site_fract_y
_atom_site_fract_z
Si Si1 0.792352 0.281315 0.275172
Si Si2 0.576740 0.195702 0.008032
Si Si3 0.838986 0.780524 0.487226
Si Si4 0.949967 0.420957 0.223343
Si Si5 0.889728 0.421214 0.328912
Si Si6 0.725146 0.919663 0.093239
Si Si7 0.053725 0.162485 0.633936
Si Si8 0.605729 0.185893 0.310990
O O1 0.810735 0.269270 0.385286
O O2 0.800310 0.363974 0.267466
O O3 0.886952 0.236827 0.325912
O O4 0.662448 0.260337 0.112880
O O5 0.496193 0.216493 0.850966
O O6 0.500000 0.179356 0.000000
O O7 0.649595 0.124639 0.073603
O O8 0.723772 0.826395 0.385879
O O9 0.873087 0.738720 0.598325
O O10 0.948993 0.829057 0.583961
O O11 0.989036 0.500000 0.268486
O O12 0.927922 0.393189 0.285648
O O13 0.061032 0.385743 0.300212
O O14 0.829584 0.410122 0.049220
O O15 0.834722 0.500000 0.266603
O O16 0.000000 0.422851 0.500000
O O17 0.856701 0.890551 0.231680
O O18 0.724009 0.000000 0.118035
O O19 0.000000 0.128366 0.500000
#
# Coordination Sequence:
#
# PCOD8082967 Si02
#       8
#     8   8   8   8   8   8   8   8
#     4  10  18  32  52  73 100 126 161 206 248 283
#     4  10  19  33  50  71  96 128 165 204 242 286
#     4  10  19  31  48  73  99 128 158 202 243 293
#     4   9  18  33  50  71 100 127 160 203 241 286
#     4  10  19  31  51  78 102 128 161 200 249 297
#     4   9  19  33  50  70  96 130 162 202 245 286
#     4   9  18  31  50  71  99 129 159 201 247 288
#     4  10  19  31  50  72  97 127 166 198 243 288
#
# _framework density 16.754987
#
# number of rings (size 3 to 8) (size 9 to 14) (size 15 to 20)
#    0.000    2.375    1.250    2.625    0.000    1.500 
#    0.000    4.375    0.000    0.375    0.000    0.875 
#    0.000    0.000    0.000    0.000    0.000    0.000 
#
# Total GULP energy -396694.050276 kJ/mol
# GULP energy per Si atom -12396.689071 kJ/mol
# Density = 1.671685 g / cm^3
# Si number density = 16.754987 Si / 1000 Ang^3
#
#
#
# Elastic Constant Matrix: (Units=GPa)
#
#
# Indices 1 2 3 4 5 6 
#
# 1 116.9980 49.1744 57.8209 -0.0001 7.2983 0.0000
# 2 49.1744 91.5215 47.7120 0.0000 4.7811 0.0000
# 3 57.8209 47.7120 108.7167 -0.0001 9.4059 -0.0001
# 4 -0.0001 0.0000 -0.0001 22.9112 -0.0001 -0.8579
# 5 7.2983 4.7811 9.4059 -0.0001 28.4811 0.0000
# 6 0.0000 0.0000 -0.0001 -0.8579 0.0000 20.4491
#
#
#
# Elastic Compliance Matrix: (Units=1/GPa)
#
#
# Indices 1 2 3 4 5 6 
#
# 1 0.012810 -0.004310 -0.004838 0.000000 -0.000961 0.000000
# 2 -0.004310 0.015621 -0.004562 0.000000 -0.000011 0.000000
# 3 -0.004838 -0.004562 0.014000 0.000000 -0.002618 0.000000
# 4 0.000000 0.000000 0.000000 0.043715 0.000000 0.001834
# 5 -0.000961 -0.000011 -0.002618 0.000000 0.036224 0.000000
# 6 0.000000 0.000000 0.000000 0.001834 0.000000 0.048979
#
#
# Mechanical properties :
#
#
# Convention : Reuss Voigt Hill
#
# Bulk Modulus (GPa) = 66.62279 69.62787 68.12533
# Shear Modulus (GPa) = 24.53703 25.20353 24.87028
#
# Velocity S-wave (km/s) = 3.83098 3.88266 3.85691
# Velocity P-wave (km/s) = 7.70830 7.85791 7.78346
#
# Compressibility (1/GPa) = 0.01500988
#
# Stress axis : x y z
#
# Youngs Moduli (GPa) = 78.06583 64.01523 71.42830
#
# Poissons Ratio (x) = 0.27592 0.34557
# Poissons Ratio (y) = 0.33648 0.32588
# Poissons Ratio (z) = 0.37769 0.29205
#
# Static dielectric constant tensor:
#      x y z
#    x 3.307600 0.000000 -0.057510 
#    y 0.000000 3.074010 0.000000 
#    z -0.057510 0.000000 3.384070 
# 
# 
# High freq. dielectric constant tensor:
#      x y z
#    x 1.647120 0.000000 -0.011740 
#    y 0.000000 1.623860 0.000000 
#    z -0.011740 0.000000 1.656510 
# 
# From -- ./inp_files/177118.got.cif
#   From: 2010.06.25/outbox.cif.g09.slc.cpg/sg12_89_cif.got.tgz:177118.got - 2010.06.28 00:19:55.
