data_PCOD8082435
_publ_section_title
;
Structure prediction by ZEFSAII (Michael W. Deem and Ramdas Pophale) SiO2 
 PCOD8082435
Probable space group: C 2/M
;
_chemical_formula_sum "Si O2"
_cell_formula_units_Z 56
_cell_length_a 25.489217
_cell_length_b 9.026593
_cell_length_c 18.697669
_cell_angle_alpha 90.000000
_cell_angle_beta 137.185023
_cell_angle_gamma 90.000000
_cell_volume 2923.764105
_symmetry_space_group_name_H-M "C 2/M"
_symmetry_group_IT_number 12
_symmetry_cell_setting 'monoclinic'
loop_
_space_group_symop_operation_xyz
x,y,z
-x,y,-z
-x,-y,-z
x,-y,z
1/2+x,1/2+y,z
1/2-x,1/2+y,-z
1/2-x,1/2-y,-z
1/2+x,1/2-y,z
loop_
_atom_site_type_symbol
_atom_site_label
_atom_site_fract_x
_atom_site_fract_y
_atom_site_fract_z
Si Si1 0.204262 0.674286 0.124490
Si Si2 0.352071 0.323892 0.186460
Si Si3 0.647929 0.676108 0.482317
Si Si4 0.587870 0.825918 0.285800
Si Si5 0.204261 0.325714 0.284033
Si Si6 0.000000 0.175856 0.420638
Si Si7 0.587871 0.174082 0.889941
O O1 0.216016 0.500000 0.143619
O O2 0.276097 0.737164 0.150513
O O3 0.201968 0.745074 0.201968
O O4 0.124433 0.711285 0.003973
O O5 0.350742 0.500000 0.176677
O O6 0.424752 0.266757 0.304622
O O7 0.358577 0.253528 0.114732
O O8 0.649258 0.500000 0.475193
O O9 0.641422 0.746472 0.397577
O O10 0.723904 0.737164 0.598319
O O11 0.575249 0.733242 0.455119
O O12 0.624432 0.788717 0.244892
O O13 0.500000 0.765737 0.199222
O O14 0.590191 0.000000 0.303289
O O15 0.216017 0.500000 0.288413
O O16 0.000000 0.244014 0.500000
O O17 1.000000 0.000000 0.424561
O O18 0.590191 0.000000 0.877094
#
# Coordination Sequence:
#
# PCOD8082435 Si02
#       7
#     8   8   8   8   8   8   8
#     4   9  18  32  51  75  99 126 166 211 247 282
#     4  10  18  31  52  75  98 126 163 207 248 288
#     4  10  18  31  52  75  98 126 163 207 248 288
#     4  10  20  33  50  73 102 134 164 198 243 296
#     4   9  18  32  51  75  99 126 166 211 247 282
#     4   9  16  26  45  73  98 121 154 198 243 283
#     4  10  20  33  50  73 102 134 164 198 243 296
#
# _framework density 19.153393999999999
#
# number of rings (size 3 to 8) (size 9 to 14) (size 15 to 20)
#    0.000    2.429    1.429    1.714    0.000    4.000 
#    0.000    2.857    0.000    6.857    0.000    2.000 
#    0.000    0.000    0.000    0.000    0.000    0.000 
#
# Total GULP energy -347163.904734 kJ/mol
# GULP energy per Si atom -12398.710883 kJ/mol
# Density = 1.910980 g / cm^3
# Si number density = 19.153394 Si / 1000 Ang^3
#
#
#
# Elastic Constant Matrix: (Units=GPa)
#
#
# Indices 1 2 3 4 5 6 
#
# 1 137.2845 20.1330 72.4102 0.0000 -12.9798 0.0000
# 2 20.1330 16.6790 19.9775 0.0000 -4.5405 0.0000
# 3 72.4102 19.9775 136.3922 0.0000 -12.9571 0.0000
# 4 0.0000 0.0000 0.0000 18.8589 0.0000 -3.7714
# 5 -12.9798 -4.5405 -12.9571 0.0000 32.8664 0.0000
# 6 0.0000 0.0000 0.0000 -3.7714 0.0000 18.9886
#
#
#
# Elastic Compliance Matrix: (Units=1/GPa)
#
#
# Indices 1 2 3 4 5 6 
#
# 1 0.010910 -0.007270 -0.004585 0.000000 0.001497 0.000000
# 2 -0.007270 0.078743 -0.007182 0.000000 0.005176 0.000000
# 3 -0.004585 -0.007182 0.010962 0.000000 0.001519 0.000000
# 4 0.000000 0.000000 0.000000 0.055218 0.000000 0.010967
# 5 0.001497 0.005176 0.001519 0.000000 0.032331 0.000000
# 6 0.000000 0.000000 0.000000 0.010967 0.000000 0.054841
#
#
# Mechanical properties :
#
#
# Convention : Reuss Voigt Hill
#
# Bulk Modulus (GPa) = 15.98971 57.26633 36.62802
# Shear Modulus (GPa) = 16.56025 25.99846 21.27935
#
# Velocity S-wave (km/s) = 2.94362 3.68826 3.33678
# Velocity P-wave (km/s) = 4.46313 6.93552 5.83185
#
# Compressibility (1/GPa) = 0.06254023
#
# Stress axis : x y z
#
# Youngs Moduli (GPa) = 91.65663 12.69960 91.22182
#
# Poissons Ratio (x) = 0.09233 0.41827
# Poissons Ratio (y) = 0.66637 0.65516
# Poissons Ratio (z) = 0.42026 0.09121
#
# Static dielectric constant tensor:
#      x y z
#    x 3.707250 0.000000 -0.009570 
#    y 0.000000 2.931390 0.000000 
#    z -0.009570 0.000000 3.706920 
# 
# 
# High freq. dielectric constant tensor:
#      x y z
#    x 1.757810 0.000000 0.000550 
#    y 0.000000 1.683420 0.000000 
#    z 0.000550 0.000000 1.757830 
# 
# From -- ./inp_files/282936.got.cif
#   From: 2010.06.25/outbox.cif.g09.slc.cpg/sg12_142_cif.got.tgz:282936.got - 2010.06.28 00:19:55.
