data_PCOD8082778
_publ_section_title
;
Structure prediction by ZEFSAII (Michael W. Deem and Ramdas Pophale) SiO2 
 PCOD8082778
Probable space group: C 2/M
;
_chemical_formula_sum "Si O2"
_cell_formula_units_Z 64
_cell_length_a 19.515394
_cell_length_b 12.050985
_cell_length_c 20.171923
_cell_angle_alpha 90.000000
_cell_angle_beta 137.391950
_cell_angle_gamma 90.000000
_cell_volume 3211.608618
_symmetry_space_group_name_H-M "C 2/M"
_symmetry_group_IT_number 12
_symmetry_cell_setting 'monoclinic'
loop_
_space_group_symop_operation_xyz
x,y,z
-x,y,-z
-x,-y,-z
x,-y,z
1/2+x,1/2+y,z
1/2-x,1/2+y,-z
1/2-x,1/2-y,-z
1/2+x,1/2-y,z
loop_
_atom_site_type_symbol
_atom_site_label
_atom_site_fract_x
_atom_site_fract_y
_atom_site_fract_z
Si Si1 0.379137 0.131017 0.582260
Si Si2 0.580344 0.372144 0.199549
Si Si3 0.285668 0.622327 0.920298
Si Si4 0.893588 0.281357 0.905398
Si Si5 0.742620 0.764274 0.389238
Si Si6 0.102473 0.273915 0.742418
Si Si7 0.798688 0.873291 0.293056
Si Si8 0.134141 0.123874 0.888263
O O1 0.308518 0.149204 0.596065
O O2 0.331819 0.193077 0.485738
O O3 0.488696 0.186307 0.670500
O O4 0.389870 0.000000 0.576187
O O5 0.607087 0.500000 0.208910
O O6 0.591252 0.314110 0.137320
O O7 0.658582 0.322862 0.307808
O O8 0.469491 0.351114 0.147725
O O9 0.334323 0.500000 0.943747
O O10 0.357023 0.719761 0.945115
O O11 0.178604 0.622013 0.804042
O O12 0.276094 0.640695 0.993469
O O13 0.811418 0.369506 0.820768
O O14 0.000000 0.341457 0.000000
O O15 0.790179 0.833312 0.362701
O O16 0.120220 0.206067 0.686693
O O17 0.145004 0.200346 0.832841
O O18 0.837560 0.000000 0.319527
O O19 0.135383 0.000000 0.860102
#
# Coordination Sequence:
#
# PCOD8082778 Si02
#       8
#     8   8   8   8   8   8   8   8
#     4  11  23  41  66  91 117 148 191 244 296 349
#     4  10  18  31  55  84 116 150 190 240 292 340
#     4  10  20  33  52  80 117 158 197 237 289 343
#     4  10  19  32  55  84 117 152 195 245 288 342
#     4  10  22  42  62  89 118 149 194 243 295 348
#     4  11  22  39  57  85 119 156 198 240 289 346
#     4  10  23  42  61  84 120 158 194 238 290 353
#     4  10  19  32  53  80 113 154 196 237 281 336
#
# _framework density 19.927707999999999
#
# number of rings (size 3 to 8) (size 9 to 14) (size 15 to 20)
#    0.000    1.750    2.500    2.250    0.000    1.250 
#    0.000    5.000    0.000    0.750    0.000    0.000 
#    0.000    0.000    0.000    0.000    0.000    0.000 
#
# Total GULP energy -396682.496203 kJ/mol
# GULP energy per Si atom -12396.328006 kJ/mol
# Density = 1.988235 g / cm^3
# Si number density = 19.927708 Si / 1000 Ang^3
#
#
#
# Elastic Constant Matrix: (Units=GPa)
#
#
# Indices 1 2 3 4 5 6 
#
# 1 68.3613 49.7894 27.1483 0.0000 -15.7722 0.0000
# 2 49.7894 63.5629 25.5500 0.0000 -1.2628 0.0000
# 3 27.1483 25.5500 99.9042 0.0000 -0.8406 0.0000
# 4 0.0000 0.0000 0.0000 20.8536 0.0000 -2.6879
# 5 -15.7722 -1.2628 -0.8406 0.0000 28.9046 0.0000
# 6 0.0000 0.0000 0.0000 -2.6879 0.0000 11.2130
#
#
#
# Elastic Compliance Matrix: (Units=1/GPa)
#
#
# Indices 1 2 3 4 5 6 
#
# 1 0.047053 -0.034910 -0.003656 0.000000 0.024044 0.000000
# 2 -0.034910 0.043447 -0.001770 0.000000 -0.017203 0.000000
# 3 -0.003656 -0.001770 0.011441 0.000000 -0.001740 0.000000
# 4 0.000000 0.000000 0.000000 0.049482 0.000000 0.011862
# 5 0.024044 -0.017203 -0.001740 0.000000 0.046914 0.000000
# 6 0.000000 0.000000 0.000000 0.011862 0.000000 0.092026
#
#
# Mechanical properties :
#
#
# Convention : Reuss Voigt Hill
#
# Bulk Modulus (GPa) = 47.01385 48.53373 47.77379
# Shear Modulus (GPa) = 13.22311 20.81696 17.02003
#
# Velocity S-wave (km/s) = 2.57875 3.23557 2.92565
# Velocity P-wave (km/s) = 5.70175 6.19406 5.95300
#
# Compressibility (1/GPa) = 0.02127033
#
# Stress axis : x y z
#
# Youngs Moduli (GPa) = 21.25241 23.01631 87.40471
#
# Poissons Ratio (x) = 0.80350 0.31956
# Poissons Ratio (y) = 0.74192 0.15467
# Poissons Ratio (z) = 0.07770 0.04073
#
# Static dielectric constant tensor:
#      x y z
#    x 3.612370 0.000000 0.004220 
#    y 0.000000 3.502360 0.000000 
#    z 0.004220 0.000000 3.843820 
# 
# 
# High freq. dielectric constant tensor:
#      x y z
#    x 1.775610 0.000000 -0.006680 
#    y 0.000000 1.772470 0.000000 
#    z -0.006680 0.000000 1.781970 
# 
# From -- ./inp_files/321299.got.cif
#   From: 2010.06.25/outbox.cif.g09.slc.cpg/sg12_161_cif.got.tgz:321299.got - 2010.06.28 00:19:55.
