data_PCOD8082197
_publ_section_title
;
Structure prediction by ZEFSAII (Michael W. Deem and Ramdas Pophale) SiO2 
 PCOD8082197
Probable space group: C 2/M
;
_chemical_formula_sum "Si O2"
_cell_formula_units_Z 40
_cell_length_a 15.972732
_cell_length_b 13.259569
_cell_length_c 10.252225
_cell_angle_alpha 90.000000
_cell_angle_beta 80.021823
_cell_angle_gamma 90.000000
_cell_volume 2138.490548
_symmetry_space_group_name_H-M "C 2/M"
_symmetry_group_IT_number 12
_symmetry_cell_setting 'monoclinic'
loop_
_space_group_symop_operation_xyz
x,y,z
-x,y,-z
-x,-y,-z
x,-y,z
1/2+x,1/2+y,z
1/2-x,1/2+y,-z
1/2-x,1/2-y,-z
1/2+x,1/2-y,z
loop_
_atom_site_type_symbol
_atom_site_label
_atom_site_fract_x
_atom_site_fract_y
_atom_site_fract_z
Si Si1 0.415785 0.885289 0.581061
Si Si2 0.185882 0.383857 0.152182
Si Si3 0.089370 0.384524 0.917654
Si Si4 0.802883 0.752200 0.275223
Si Si5 0.736687 0.385557 0.490363
O O1 0.500000 0.828739 0.500000
O O2 0.390882 0.845782 0.732616
O O3 0.334704 0.874774 0.508867
O O4 0.442458 0.000000 0.593360
O O5 0.209351 0.500000 0.181673
O O6 0.266523 0.312722 0.160337
O O7 0.161398 0.374949 0.008464
O O8 0.083534 0.500000 0.867706
O O9 0.114184 0.310382 0.792588
O O10 0.000000 0.349379 0.000000
O O11 0.732858 0.672898 0.352928
O O12 0.824195 0.832134 0.385605
O O13 0.706803 0.500000 0.479847
#
# Coordination Sequence:
#
# PCOD8082197 Si02
#       5
#     8   8   8   8   8
#     4   8  14  24  42  66  96 127 152 188 240 291
#     4   9  18  32  48  71 101 133 166 199 241 291
#     4  10  21  33  49  75 105 130 157 203 254 297
#     4  10  18  31  50  72 102 134 164 199 242 298
#     4   9  18  30  48  74  99 128 166 205 244 286
#
# _framework density 18.704782999999999
#
# number of rings (size 3 to 8) (size 9 to 14) (size 15 to 20)
#    0.000    2.800    0.000    3.000    2.800    0.000 
#    0.000    0.000    0.000    2.400    0.000    1.400 
#    0.000    0.000    0.000    0.000    0.000    0.000 
#
# Total GULP energy -247789.744658 kJ/mol
# GULP energy per Si atom -12389.487233 kJ/mol
# Density = 1.866221 g / cm^3
# Si number density = 18.704783 Si / 1000 Ang^3
#
#
#
# Elastic Constant Matrix: (Units=GPa)
#
#
# Indices 1 2 3 4 5 6 
#
# 1 32.2612 19.1180 17.4451 0.0000 -12.6877 0.0000
# 2 19.1180 118.0579 42.9865 0.0000 -10.8613 0.0000
# 3 17.4451 42.9865 68.6360 0.0000 -15.5575 0.0000
# 4 0.0000 0.0000 0.0000 34.7701 0.0000 -6.7981
# 5 -12.6877 -10.8613 -15.5575 0.0000 27.5993 0.0000
# 6 0.0000 0.0000 0.0000 -6.7981 0.0000 18.8825
#
#
#
# Elastic Compliance Matrix: (Units=1/GPa)
#
#
# Indices 1 2 3 4 5 6 
#
# 1 0.041679 -0.003563 -0.004972 0.000000 0.014955 0.000000
# 2 -0.003563 0.011284 -0.006335 0.000000 -0.000769 0.000000
# 3 -0.004972 -0.006335 0.021460 0.000000 0.007318 0.000000
# 4 0.000000 0.000000 0.000000 0.030938 0.000000 0.011138
# 5 0.014955 -0.000769 0.007318 0.000000 0.046931 0.000000
# 6 0.000000 0.000000 0.000000 0.011138 0.000000 0.056969
#
#
# Mechanical properties :
#
#
# Convention : Reuss Voigt Hill
#
# Bulk Modulus (GPa) = 22.38081 42.00603 32.19342
# Shear Modulus (GPa) = 19.69321 25.54407 22.61864
#
# Velocity S-wave (km/s) = 3.24828 3.69947 3.48119
# Velocity P-wave (km/s) = 5.10487 6.38390 5.77987
#
# Compressibility (1/GPa) = 0.04468114
#
# Stress axis : x y z
#
# Youngs Moduli (GPa) = 23.99307 88.62476 46.59838
#
# Poissons Ratio (x) = 0.31578 0.23169
# Poissons Ratio (y) = 0.08549 0.29522
# Poissons Ratio (z) = 0.11929 0.56148
#
# Static dielectric constant tensor:
#      x y z
#    x 3.109930 0.000000 -0.035760 
#    y 0.000000 3.508070 0.000000 
#    z -0.035760 0.000000 3.550250 
# 
# 
# High freq. dielectric constant tensor:
#      x y z
#    x 1.673420 0.000000 0.002470 
#    y 0.000000 1.714200 0.000000 
#    z 0.002470 0.000000 1.737770 
# 
# From -- ./inp_files/141900.got.cif
#   From: 2010.06.25/outbox.cif.g09.slc.cpg/sg12_71_cif.got.tgz:141900.got - 2010.06.28 00:19:55.
