data_PCOD8082122
_publ_section_title
;
Structure prediction by ZEFSAII (Michael W. Deem and Ramdas Pophale) SiO2 
 PCOD8082122
Probable space group: C 2/M
;
_chemical_formula_sum "Si O2"
_cell_formula_units_Z 48
_cell_length_a 25.171873
_cell_length_b 8.549939
_cell_length_c 18.356784
_cell_angle_alpha 90.000000
_cell_angle_beta 136.678841
_cell_angle_gamma 90.000000
_cell_volume 2710.531006
_symmetry_space_group_name_H-M "C 2/M"
_symmetry_group_IT_number 12
_symmetry_cell_setting 'monoclinic'
loop_
_space_group_symop_operation_xyz
x,y,z
-x,y,-z
-x,-y,-z
x,-y,z
1/2+x,1/2+y,z
1/2-x,1/2+y,-z
1/2-x,1/2-y,-z
1/2+x,1/2-y,z
loop_
_atom_site_type_symbol
_atom_site_label
_atom_site_fract_x
_atom_site_fract_y
_atom_site_fract_z
Si Si1 0.722904 0.314615 0.305360
Si Si2 0.283032 0.683679 0.863356
Si Si3 0.321080 0.183645 0.115258
Si Si4 0.922665 0.815784 0.103806
Si Si5 0.318893 0.685117 0.519938
Si Si6 0.587449 0.816490 0.268042
O O1 0.730603 0.500000 0.313455
O O2 0.719289 0.244850 0.219910
O O3 0.800708 0.243153 0.419960
O O4 0.644956 0.266512 0.268964
O O5 0.295150 0.500000 0.870356
O O6 0.201030 0.720556 0.822369
O O7 0.356962 0.747632 0.982488
O O8 0.398028 0.270218 0.162421
O O9 0.330689 0.000000 0.111679
O O10 0.250000 0.250000 0.000000
O O11 0.000716 0.727532 0.159520
O O12 0.936116 0.000000 0.112297
O O13 0.323188 0.500000 0.526916
O O14 0.250000 0.750000 0.500000
O O15 0.396911 0.756541 0.633276
O O16 0.601277 0.000000 0.277065
#
# Coordination Sequence:
#
# PCOD8082122 Si02
#       6
#     8   8   8   8   8   8
#     4  10  18  32  51  72  97 129 161 195 234 283
#     4   8  17  31  50  72  98 129 161 191 234 288
#     4   9  16  30  49  71  95 126 164 200 233 278
#     4  10  19  33  50  72  98 129 163 199 239 285
#     4  10  18  31  49  70  93 123 160 200 237 280
#     4  11  21  33  48  71  98 128 161 199 241 286
#
# _framework density 17.708708000000001
#
# number of rings (size 3 to 8) (size 9 to 14) (size 15 to 20)
#    0.000    2.333    0.000    7.500    0.000    0.667 
#    0.000   13.333    0.000    1.000    0.000    7.000 
#    0.000    0.000    0.000    0.000    0.000    0.000 
#
# Total GULP energy -297410.001904 kJ/mol
# GULP energy per Si atom -12392.083413 kJ/mol
# Density = 1.766840 g / cm^3
# Si number density = 17.708708 Si / 1000 Ang^3
#
#
#
# Elastic Constant Matrix: (Units=GPa)
#
#
# Indices 1 2 3 4 5 6 
#
# 1 67.8932 4.7163 34.5802 0.0000 -21.6755 0.0000
# 2 4.7163 68.3026 16.0312 0.0000 -4.6685 0.0000
# 3 34.5802 16.0312 84.6629 0.0000 -25.2114 0.0000
# 4 0.0000 0.0000 0.0000 25.6321 0.0000 3.0176
# 5 -21.6755 -4.6685 -25.2114 0.0000 16.9141 0.0000
# 6 0.0000 0.0000 0.0000 3.0176 0.0000 25.6798
#
#
#
# Elastic Compliance Matrix: (Units=1/GPa)
#
#
# Indices 1 2 3 4 5 6 
#
# 1 0.025024 0.000653 -0.001333 0.000000 0.030261 0.000000
# 2 0.000653 0.015339 -0.002987 0.000000 0.000619 0.000000
# 3 -0.001333 -0.002987 0.021878 0.000000 0.030078 0.000000
# 4 0.000000 0.000000 0.000000 0.039561 0.000000 -0.004649
# 5 0.030261 0.000619 0.030078 0.000000 0.142905 0.000000
# 6 0.000000 0.000000 0.000000 -0.004649 0.000000 0.039487
#
#
# Mechanical properties :
#
#
# Convention : Reuss Voigt Hill
#
# Bulk Modulus (GPa) = 18.21256 36.83491 27.52374
# Shear Modulus (GPa) = 16.13784 24.68060 20.40922
#
# Velocity S-wave (km/s) = 3.02204 3.73728 3.39853
# Velocity P-wave (km/s) = 4.74171 6.28240 5.56563
#
# Compressibility (1/GPa) = 0.05490716
#
# Stress axis : x y z
#
# Youngs Moduli (GPa) = 39.96195 65.19328 45.70703
#
# Poissons Ratio (x) = -0.04260 0.06094
# Poissons Ratio (y) = -0.02611 0.13653
# Poissons Ratio (z) = 0.05328 0.19474
#
# Static dielectric constant tensor:
#      x y z
#    x 3.551830 0.000000 -0.239050 
#    y 0.000000 3.321650 0.000000 
#    z -0.239050 0.000000 3.765060 
# 
# 
# High freq. dielectric constant tensor:
#      x y z
#    x 1.667810 0.000000 -0.007040 
#    y 0.000000 1.689420 0.000000 
#    z -0.007040 0.000000 1.670750 
# 
# From -- ./inp_files/287948.got.cif
#   From: 2010.06.25/outbox.cif.g09.slc.cpg/sg12_144_cif.got.tgz:287948.got - 2010.06.28 00:19:55.
