data_PCOD8082919
_publ_section_title
;
Structure prediction by ZEFSAII (Michael W. Deem and Ramdas Pophale) SiO2 
 PCOD8082919
Probable space group: C 2/M
;
_chemical_formula_sum "Si O2"
_cell_formula_units_Z 44
_cell_length_a 25.694224
_cell_length_b 9.531261
_cell_length_c 29.608360
_cell_angle_alpha 90.000000
_cell_angle_beta 160.728928
_cell_angle_gamma 90.000000
_cell_volume 2393.117109
_symmetry_space_group_name_H-M "C 2/M"
_symmetry_group_IT_number 12
_symmetry_cell_setting 'monoclinic'
loop_
_space_group_symop_operation_xyz
x,y,z
-x,y,-z
-x,-y,-z
x,-y,z
1/2+x,1/2+y,z
1/2-x,1/2+y,-z
1/2-x,1/2-y,-z
1/2+x,1/2-y,z
loop_
_atom_site_type_symbol
_atom_site_label
_atom_site_fract_x
_atom_site_fract_y
_atom_site_fract_z
Si Si1 0.021617 0.162843 0.605327
Si Si2 0.000000 0.764100 0.000000
Si Si3 0.161917 0.336587 0.965597
Si Si4 0.759835 0.659422 0.872475
Si Si5 0.733353 0.843182 0.718915
Si Si6 0.813471 0.340661 0.700636
O O1 0.833284 0.182253 0.453880
O O2 0.104395 0.219224 0.719235
O O3 0.084914 0.252929 0.614895
O O4 0.069018 0.000000 0.636109
O O5 0.086241 0.669361 0.033097
O O6 0.131272 0.857929 0.132129
O O7 0.206557 0.500000 0.997397
O O8 0.974362 0.315010 0.805127
O O9 0.250000 0.250000 0.000000
O O10 0.211946 0.270384 0.055441
O O11 0.729067 0.500000 0.858916
O O12 0.805797 0.768246 0.734946
O O13 0.676231 0.000000 0.659881
O O14 0.810612 0.500000 0.717762
#
# Coordination Sequence:
#
# PCOD8082919 Si02
#       6
#     8   4   8   8   8   8
#     4   9  19  34  54  78 106 141 176 217 263 314
#     4  10  18  32  50  78 111 144 175 214 269 314
#     4  10  21  38  57  79 104 138 182 226 265 310
#     4   9  17  32  56  81 105 136 180 222 260 312
#     4  11  21  31  48  78 115 146 174 212 265 322
#     4  10  20  36  55  76 104 139 182 221 261 313
#
# _framework density 18.386063
#
# number of rings (size 3 to 8) (size 9 to 14) (size 15 to 20)
#    0.000    2.182    1.818    1.636    0.000    5.091 
#    0.000    1.818    0.000    0.000    0.000    0.000 
#    0.000    0.000    0.000    0.000    0.000    0.000 
#
# Total GULP energy -272675.660150 kJ/mol
# GULP energy per Si atom -12394.348189 kJ/mol
# Density = 1.834422 g / cm^3
# Si number density = 18.386063 Si / 1000 Ang^3
#
#
#
# Elastic Constant Matrix: (Units=GPa)
#
#
# Indices 1 2 3 4 5 6 
#
# 1 127.4486 41.9918 63.3522 -0.0020 5.9680 -0.0003
# 2 41.9918 75.6571 44.5407 0.0014 7.3565 0.0015
# 3 63.3522 44.5407 129.8406 0.0220 3.5881 0.0029
# 4 -0.0020 0.0014 0.0220 16.3703 0.0066 5.9657
# 5 5.9680 7.3565 3.5881 0.0066 21.0771 0.0004
# 6 -0.0003 0.0015 0.0029 5.9657 0.0004 23.1376
#
#
#
# Elastic Compliance Matrix: (Units=1/GPa)
#
#
# Indices 1 2 3 4 5 6 
#
# 1 0.011172 -0.003628 -0.004174 0.000008 -0.001186 -0.000001
# 2 -0.003628 0.018246 -0.004362 0.000007 -0.004599 -0.000002
# 3 -0.004174 -0.004362 0.011212 -0.000017 0.000795 0.000003
# 4 0.000008 0.000007 -0.000017 0.067421 -0.000023 -0.017384
# 5 -0.001186 -0.004599 0.000795 -0.000023 0.049250 0.000005
# 6 -0.000001 -0.000002 0.000003 -0.017384 0.000005 0.047702
#
#
# Mechanical properties :
#
#
# Convention : Reuss Voigt Hill
#
# Bulk Modulus (GPa) = 61.33735 70.30175 65.81955
# Shear Modulus (GPa) = 21.29778 24.32110 22.80944
#
# Velocity S-wave (km/s) = 3.40717 3.64098 3.52601
# Velocity P-wave (km/s) = 6.99368 7.48299 7.24247
#
# Compressibility (1/GPa) = 0.01630328
#
# Stress axis : x y z
#
# Youngs Moduli (GPa) = 89.51009 54.80535 89.18642
#
# Poissons Ratio (x) = 0.19885 0.37223
# Poissons Ratio (y) = 0.32477 0.38902
# Poissons Ratio (z) = 0.37358 0.23905
#
# Static dielectric constant tensor:
#      x y z
#    x 3.243610 0.000000 -0.312500 
#    y 0.000000 3.147880 -0.000020 
#    z -0.312500 -0.000020 3.733480 
# 
# 
# High freq. dielectric constant tensor:
#      x y z
#    x 1.681910 0.000000 -0.017070 
#    y 0.000000 1.692340 0.000000 
#    z -0.017070 0.000000 1.729380 
# 
# From -- ./inp_files/382579.got.cif
#   From: 2010.06.25/outbox.cif.g09.slc.cpg/sg12_192_cif.got.tgz:382579.got - 2010.06.28 00:19:55.
