data_PCOD8082021
_publ_section_title
;
Structure prediction by ZEFSAII (Michael W. Deem and Ramdas Pophale) SiO2 
 PCOD8082021
Probable space group: C 2/M
;
_chemical_formula_sum "Si O2"
_cell_formula_units_Z 40
_cell_length_a 7.545488
_cell_length_b 18.836785
_cell_length_c 17.303026
_cell_angle_alpha 90.000000
_cell_angle_beta 53.691653
_cell_angle_gamma 90.000000
_cell_volume 1981.828583
_symmetry_space_group_name_H-M "C 2/M"
_symmetry_group_IT_number 12
_symmetry_cell_setting 'monoclinic'
loop_
_space_group_symop_operation_xyz
x,y,z
-x,y,-z
-x,-y,-z
x,-y,z
1/2+x,1/2+y,z
1/2-x,1/2+y,-z
1/2-x,1/2-y,-z
1/2+x,1/2-y,z
loop_
_atom_site_type_symbol
_atom_site_label
_atom_site_fract_x
_atom_site_fract_y
_atom_site_fract_z
Si Si1 0.157912 0.681048 0.888881
Si Si2 0.009407 0.418469 0.198235
Si Si3 0.462412 0.786766 0.597699
Si Si4 0.147425 0.173338 0.801940
Si Si5 0.330275 0.360291 0.601005
O O1 0.045780 0.619493 0.867785
O O2 0.192383 0.750924 0.829472
O O3 0.390778 0.654300 0.862690
O O4 0.000000 0.700731 0.000000
O O5 0.057150 0.500000 0.168005
O O6 0.798244 0.413439 0.309830
O O7 0.228542 0.386046 0.179598
O O8 0.500000 0.810441 0.500000
O O9 0.244882 0.823728 0.689965
O O10 0.461603 0.701464 0.612658
O O11 0.668183 0.812612 0.592691
O O12 0.500000 0.402414 0.500000
#
# Coordination Sequence:
#
# PCOD8082021 Si02
#       5
#     8   8   8   8   8
#     4  12  24  41  72  98 120 164 220 266 316 373
#     4  11  26  43  61  94 134 168 210 261 319 380
#     4  10  18  30  57  96 119 152 204 257 305 363
#     4  11  22  41  68  95 129 164 209 266 314 369
#     4  10  19  32  58  86 124 163 203 252 314 365
#
# _framework density 20.18338
#
# number of rings (size 3 to 8) (size 9 to 14) (size 15 to 20)
#    0.000    1.200    4.000    4.200    2.800    1.600 
#    0.000    1.000    0.000    2.400    0.000    0.000 
#    0.000    0.000    0.000    0.000    0.000    0.000 
#
# Total GULP energy -247960.474474 kJ/mol
# GULP energy per Si atom -12398.023724 kJ/mol
# Density = 2.013744 g / cm^3
# Si number density = 20.183380 Si / 1000 Ang^3
#
#
#
# Elastic Constant Matrix: (Units=GPa)
#
#
# Indices 1 2 3 4 5 6 
#
# 1 67.6644 13.7569 51.9532 0.0000 -5.0229 0.0000
# 2 13.7569 95.2338 22.0296 0.0000 13.0447 0.0000
# 3 51.9532 22.0296 104.1675 0.0000 -8.2129 0.0000
# 4 0.0000 0.0000 0.0000 10.1618 0.0000 4.2167
# 5 -5.0229 13.0447 -8.2129 0.0000 33.0087 0.0000
# 6 0.0000 0.0000 0.0000 4.2167 0.0000 22.6752
#
#
#
# Elastic Compliance Matrix: (Units=1/GPa)
#
#
# Indices 1 2 3 4 5 6 
#
# 1 0.024036 -0.000916 -0.011707 0.000000 0.001107 0.000000
# 2 -0.000916 0.011965 -0.002507 0.000000 -0.005491 0.000000
# 3 -0.011707 -0.002507 0.016225 0.000000 0.003246 0.000000
# 4 0.000000 0.000000 0.000000 0.106637 0.000000 -0.019830
# 5 0.001107 -0.005491 0.003246 0.000000 0.033441 0.000000
# 6 0.000000 0.000000 0.000000 -0.019830 0.000000 0.047789
#
#
# Mechanical properties :
#
#
# Convention : Reuss Voigt Hill
#
# Bulk Modulus (GPa) = 45.52279 49.17168 47.34724
# Shear Modulus (GPa) = 18.00682 25.12420 21.56551
#
# Velocity S-wave (km/s) = 2.99015 3.53199 3.27231
# Velocity P-wave (km/s) = 5.87579 6.40692 6.14709
#
# Compressibility (1/GPa) = 0.02196702
#
# Stress axis : x y z
#
# Youngs Moduli (GPa) = 41.60471 83.57883 61.63424
#
# Poissons Ratio (x) = 0.07652 0.72155
# Poissons Ratio (y) = 0.03809 0.15450
# Poissons Ratio (z) = 0.48706 0.20950
#
# Static dielectric constant tensor:
#      x y z
#    x 3.906190 0.000000 -0.071400 
#    y 0.000000 3.200420 0.000000 
#    z -0.071400 0.000000 4.016480 
# 
# 
# High freq. dielectric constant tensor:
#      x y z
#    x 1.802230 0.000000 -0.006350 
#    y 0.000000 1.737780 0.000000 
#    z -0.006350 0.000000 1.807330 
# 
# From -- ./inp_files/194452.got.cif
#   From: 2010.06.25/outbox.cif.g09.slc.cpg/sg12_98_cif.got.tgz:194452.got - 2010.06.28 00:19:55.
