data_PCOD8082346
_publ_section_title
;
Structure prediction by ZEFSAII (Michael W. Deem and Ramdas Pophale) SiO2 
 PCOD8082346
Probable space group: C 2/M
;
_chemical_formula_sum "Si O2"
_cell_formula_units_Z 56
_cell_length_a 20.238372
_cell_length_b 8.951361
_cell_length_c 20.752429
_cell_angle_alpha 90.000000
_cell_angle_beta 49.418706
_cell_angle_gamma 90.000000
_cell_volume 2855.302064
_symmetry_space_group_name_H-M "C 2/M"
_symmetry_group_IT_number 12
_symmetry_cell_setting 'monoclinic'
loop_
_space_group_symop_operation_xyz
x,y,z
-x,y,-z
-x,-y,-z
x,-y,z
1/2+x,1/2+y,z
1/2-x,1/2+y,-z
1/2-x,1/2-y,-z
1/2+x,1/2-y,z
loop_
_atom_site_type_symbol
_atom_site_label
_atom_site_fract_x
_atom_site_fract_y
_atom_site_fract_z
Si Si1 0.447812 0.172262 0.402749
Si Si2 0.796154 0.821698 0.910189
Si Si3 0.741712 0.832216 0.809668
Si Si4 0.403696 0.668642 0.621996
Si Si5 0.351104 0.825210 0.254934
Si Si6 0.796975 0.671447 0.583774
Si Si7 0.479894 0.826931 0.781181
O O1 0.501811 0.276793 0.416654
O O2 0.344933 0.197836 0.484122
O O3 0.468340 0.216298 0.316424
O O4 0.473165 0.000000 0.399417
O O5 0.744437 0.759553 0.879465
O O6 0.896683 0.775024 0.844661
O O7 0.791947 0.000000 0.916518
O O8 0.750000 0.750000 0.000000
O O9 0.841198 0.826797 0.723591
O O10 0.678274 0.754854 0.796162
O O11 0.707676 0.000000 0.839731
O O12 0.410213 0.500000 0.590620
O O13 0.367172 0.779780 0.592078
O O14 0.292670 0.761552 0.350642
O O15 0.452595 0.794316 0.203216
O O16 0.329416 0.000000 0.267705
O O17 0.773019 0.500000 0.609390
O O18 0.451287 0.000000 0.798993
#
# Coordination Sequence:
#
# PCOD8082346 Si02
#       7
#     8   8   8   8   8   8   8
#     4  10  20  32  48  75 113 149 185 230 282 327
#     4  11  22  39  62  88 113 138 176 226 280 339
#     4   8  16  33  56  80 106 139 180 224 269 320
#     4  10  18  31  51  76 105 143 192 236 273 320
#     4   9  19  37  58  80 110 149 192 230 268 322
#     4  10  20  32  47  74 112 152 189 230 277 324
#     4  10  21  38  59  83 112 147 185 229 279 329
#
# _framework density 19.612635999999998
#
# number of rings (size 3 to 8) (size 9 to 14) (size 15 to 20)
#    0.000    2.286    1.429    2.571    0.000    4.000 
#    0.000    1.429    0.000    4.286    0.000    0.000 
#    0.000    0.000    0.000    0.000    0.000    0.000 
#
# Total GULP energy -346992.774211 kJ/mol
# GULP energy per Si atom -12392.599079 kJ/mol
# Density = 1.956800 g / cm^3
# Si number density = 19.612636 Si / 1000 Ang^3
#
#
#
# Elastic Constant Matrix: (Units=GPa)
#
#
# Indices 1 2 3 4 5 6 
#
# 1 85.0669 26.4161 44.6977 0.0000 -6.3211 0.0001
# 2 26.4161 53.9146 35.1746 -0.0001 -4.1130 0.0003
# 3 44.6977 35.1746 114.4010 0.0000 11.2348 0.0001
# 4 0.0000 -0.0001 0.0000 29.7918 0.0000 -4.5832
# 5 -6.3211 -4.1130 11.2348 0.0000 13.1015 0.0000
# 6 0.0001 0.0003 0.0001 -4.5832 0.0000 22.9593
#
#
#
# Elastic Compliance Matrix: (Units=1/GPa)
#
#
# Indices 1 2 3 4 5 6 
#
# 1 0.017505 -0.002703 -0.007375 0.000000 0.013921 0.000000
# 2 -0.002703 0.026509 -0.008500 0.000000 0.014307 0.000000
# 3 -0.007375 -0.008500 0.016213 0.000000 -0.020130 0.000000
# 4 0.000000 0.000000 0.000000 0.034630 0.000000 0.006913
# 5 0.013921 0.014307 -0.020130 0.000000 0.104797 0.000000
# 6 0.000000 0.000000 0.000000 0.006913 0.000000 0.044935
#
#
# Mechanical properties :
#
#
# Convention : Reuss Voigt Hill
#
# Bulk Modulus (GPa) = 43.34461 51.77326 47.55893
# Shear Modulus (GPa) = 17.27512 22.97680 20.12596
#
# Velocity S-wave (km/s) = 2.97107 3.42648 3.20687
# Velocity P-wave (km/s) = 5.82392 6.48919 6.16553
#
# Compressibility (1/GPa) = 0.02307092
#
# Stress axis : x y z
#
# Youngs Moduli (GPa) = 57.12810 37.72344 61.67886
#
# Poissons Ratio (x) = 0.10196 0.45490
# Poissons Ratio (y) = 0.15440 0.52424
# Poissons Ratio (z) = 0.42134 0.32063
#
# Static dielectric constant tensor:
#      x y z
#    x 3.627540 0.000000 0.169770 
#    y 0.000000 3.420040 0.000000 
#    z 0.169770 0.000000 3.596870 
# 
# 
# High freq. dielectric constant tensor:
#      x y z
#    x 1.759430 0.000000 0.006460 
#    y 0.000000 1.747020 0.000000 
#    z 0.006460 0.000000 1.752940 
# 
# From -- ./inp_files/319655.got.cif
#   From: 2010.06.25/outbox.cif.g09.slc.cpg/sg12_160_cif.got.tgz:319655.got - 2010.06.28 00:19:55.
