data_PCOD8082225
_publ_section_title
;
Structure prediction by ZEFSAII (Michael W. Deem and Ramdas Pophale) SiO2 
 PCOD8082225
Probable space group: C 2/M
;
_chemical_formula_sum "Si O2"
_cell_formula_units_Z 64
_cell_length_a 23.280610
_cell_length_b 9.078129
_cell_length_c 16.798206
_cell_angle_alpha 90.000000
_cell_angle_beta 84.542323
_cell_angle_gamma 90.000000
_cell_volume 3534.112386
_symmetry_space_group_name_H-M "C 2/M"
_symmetry_group_IT_number 12
_symmetry_cell_setting 'monoclinic'
loop_
_space_group_symop_operation_xyz
x,y,z
-x,y,-z
-x,-y,-z
x,-y,z
1/2+x,1/2+y,z
1/2-x,1/2+y,-z
1/2-x,1/2-y,-z
1/2+x,1/2-y,z
loop_
_atom_site_type_symbol
_atom_site_label
_atom_site_fract_x
_atom_site_fract_y
_atom_site_fract_z
Si Si1 0.439244 0.327854 0.238865
Si Si2 0.809316 0.327869 0.470707
Si Si3 0.111977 0.334758 0.164464
Si Si4 0.971475 0.332902 0.674204
Si Si5 0.325744 0.169630 0.283301
Si Si6 0.380755 0.326738 0.589611
Si Si7 0.300919 0.329471 0.749053
Si Si8 0.021269 0.828152 0.082381
O O1 0.440668 0.500000 0.257718
O O2 0.468518 0.243263 0.309205
O O3 0.374120 0.272075 0.237638
O O4 0.471872 0.291005 0.152714
O O5 0.804324 0.500000 0.492498
O O6 0.750000 0.250000 0.500000
O O7 0.822548 0.301901 0.377179
O O8 0.861613 0.253765 0.511699
O O9 0.125165 0.500000 0.135205
O O10 0.070545 0.328961 0.245413
O O11 0.172273 0.259088 0.180393
O O12 0.081292 0.251393 0.095720
O O13 0.983569 0.500000 0.644657
O O14 0.942429 0.240686 0.606795
O O15 0.265598 0.215388 0.250562
O O16 0.340340 0.000000 0.263418
O O17 0.387710 0.500000 0.573654
O O18 0.332589 0.291932 0.662227
O O19 0.308949 0.500000 0.767661
O O20 0.035094 0.000000 0.077712
O O21 0.000000 0.769143 0.000000
#
# Coordination Sequence:
#
# PCOD8082225 Si02
#       8
#     8   8   8   8   8   8   8   8
#     4  10  20  34  53  78 103 132 169 209 250 301
#     4  11  21  34  50  72 101 134 174 217 261 305
#     4   9  17  28  47  78 106 128 163 209 250 289
#     4   9  17  31  50  72  99 134 168 207 257 307
#     4  10  21  36  51  71 102 140 173 207 256 308
#     4  10  18  31  50  74 100 129 170 220 262 302
#     4   9  17  31  49  70  99 136 172 205 250 302
#     4   9  18  34  56  80 106 135 164 198 247 304
#
# _framework density 18.109214000000001
#
# number of rings (size 3 to 8) (size 9 to 14) (size 15 to 20)
#    0.000    2.375    1.250    1.875    0.000    5.750 
#    0.000    0.625    0.000    4.500    0.000    0.000 
#    0.000    0.000    0.000    0.000    0.000    0.000 
#
# Total GULP energy -396864.415623 kJ/mol
# GULP energy per Si atom -12402.012988 kJ/mol
# Density = 1.806800 g / cm^3
# Si number density = 18.109214 Si / 1000 Ang^3
#
#
#
# Elastic Constant Matrix: (Units=GPa)
#
#
# Indices 1 2 3 4 5 6 
#
# 1 120.1352 61.6369 49.0393 0.0000 27.6248 0.0000
# 2 61.6369 110.0641 50.9429 0.0000 19.3829 0.0000
# 3 49.0393 50.9429 72.2604 0.0000 31.5509 0.0000
# 4 0.0000 0.0000 0.0000 22.2542 0.0000 7.1251
# 5 27.6248 19.3829 31.5509 0.0000 31.6150 0.0000
# 6 0.0000 0.0000 0.0000 7.1251 0.0000 37.3671
#
#
#
# Elastic Compliance Matrix: (Units=1/GPa)
#
#
# Indices 1 2 3 4 5 6 
#
# 1 0.013512 -0.005145 -0.003128 0.000000 -0.005531 0.000000
# 2 -0.005145 0.015529 -0.009326 0.000000 0.004282 0.000000
# 3 -0.003128 -0.009326 0.033400 0.000000 -0.024882 0.000000
# 4 0.000000 0.000000 0.000000 0.047857 0.000000 -0.009125
# 5 -0.005531 0.004282 -0.024882 0.000000 0.058670 0.000000
# 6 0.000000 0.000000 0.000000 -0.009125 0.000000 0.028501
#
#
# Mechanical properties :
#
#
# Convention : Reuss Voigt Hill
#
# Bulk Modulus (GPa) = 36.70499 69.52201 53.11350
# Shear Modulus (GPa) = 20.68256 27.63665 24.15961
#
# Velocity S-wave (km/s) = 3.38317 3.91078 3.65650
# Velocity P-wave (km/s) = 5.96437 7.67242 6.87167
#
# Compressibility (1/GPa) = 0.02724425
#
# Stress axis : x y z
#
# Youngs Moduli (GPa) = 74.00579 64.39384 29.93990
#
# Poissons Ratio (x) = 0.33133 0.09364
# Poissons Ratio (y) = 0.38079 0.27921
# Poissons Ratio (z) = 0.23147 0.60052
#
# Static dielectric constant tensor:
#      x y z
#    x 3.278480 0.000000 0.421630 
#    y 0.000000 3.437740 0.000000 
#    z 0.421630 0.000000 2.959420 
# 
# 
# High freq. dielectric constant tensor:
#      x y z
#    x 1.699770 0.000000 0.027960 
#    y 0.000000 1.710900 0.000000 
#    z 0.027960 0.000000 1.668200 
# 
# From -- ./inp_files/281299.got.cif
#   From: 2010.06.25/outbox.cif.g09.slc.cpg/sg12_141_cif.got.tgz:281299.got - 2010.06.28 00:19:55.
