data_PCOD8082644
_publ_section_title
;
Structure prediction by ZEFSAII (Michael W. Deem and Ramdas Pophale) SiO2 
 PCOD8082644
Probable space group: C 2/M
;
_chemical_formula_sum "Si O2"
_cell_formula_units_Z 48
_cell_length_a 16.204489
_cell_length_b 8.828399
_cell_length_c 33.328315
_cell_angle_alpha 90.000000
_cell_angle_beta 149.266550
_cell_angle_gamma 90.000000
_cell_volume 2436.630321
_symmetry_space_group_name_H-M "C 2/M"
_symmetry_group_IT_number 12
_symmetry_cell_setting 'monoclinic'
loop_
_space_group_symop_operation_xyz
x,y,z
-x,y,-z
-x,-y,-z
x,-y,z
1/2+x,1/2+y,z
1/2-x,1/2+y,-z
1/2-x,1/2-y,-z
1/2+x,1/2-y,z
loop_
_atom_site_type_symbol
_atom_site_label
_atom_site_fract_x
_atom_site_fract_y
_atom_site_fract_z
Si Si1 0.209721 0.177505 0.836541
Si Si2 0.943119 0.175984 0.661198
Si Si3 0.617095 0.336947 0.514560
Si Si4 0.930772 0.322129 0.577573
Si Si5 0.501127 0.675386 0.908722
Si Si6 0.332014 0.824650 0.093888
O O1 0.358237 0.247226 0.873959
O O2 0.180611 0.248790 0.867878
O O3 0.047499 0.210912 0.743966
O O4 0.243437 0.000000 0.855835
O O5 0.762413 0.235286 0.592207
O O6 0.020392 0.263235 0.655001
O O7 0.939439 0.000000 0.649484
O O8 0.500000 0.382313 0.500000
O O9 0.686221 0.500000 0.526524
O O10 0.499012 0.249677 0.433676
O O11 0.939446 0.500000 0.578384
O O12 0.750000 0.250000 0.500000
O O13 0.458722 0.500000 0.884452
O O14 0.529840 0.749542 0.876683
O O15 0.659855 0.697532 0.001438
O O16 0.376759 0.000000 0.117970
#
# Coordination Sequence:
#
# PCOD8082644 Si02
#       6
#     8   8   8   8   8   8
#     4  11  23  38  58  86 120 158 195 240 295 347
#     4  10  21  37  55  78 110 144 183 228 276 334
#     4  10  20  35  56  81 107 140 182 227 276 331
#     4  10  18  31  54  77 101 136 175 218 266 320
#     4  10  21  38  61  88 117 153 198 242 289 348
#     4  10  21  38  61  88 118 154 196 243 290 344
#
# _framework density 19.699335999999999
#
# number of rings (size 3 to 8) (size 9 to 14) (size 15 to 20)
#    0.000    1.833    0.000    6.500    0.000    8.000 
#    3.000    0.000    0.000    0.000    0.000    0.000 
#    0.000    0.000    0.000    0.000    0.000    0.000 
#
# Total GULP energy -297370.204858 kJ/mol
# GULP energy per Si atom -12390.425202 kJ/mol
# Density = 1.965450 g / cm^3
# Si number density = 19.699336 Si / 1000 Ang^3
#
#
#
# Elastic Constant Matrix: (Units=GPa)
#
#
# Indices 1 2 3 4 5 6 
#
# 1 149.3561 74.5347 49.6227 0.0002 -29.9839 0.0000
# 2 74.5347 172.0593 60.7314 0.0004 -28.7855 0.0000
# 3 49.6227 60.7314 67.3196 0.0000 -20.0266 0.0000
# 4 0.0002 0.0004 0.0000 52.0738 -0.0002 -17.8166
# 5 -29.9839 -28.7855 -20.0266 -0.0002 22.4817 0.0001
# 6 0.0000 0.0000 0.0000 -17.8166 0.0001 40.8969
#
#
#
# Elastic Compliance Matrix: (Units=1/GPa)
#
#
# Indices 1 2 3 4 5 6 
#
# 1 0.010508 -0.001895 -0.003522 0.000000 0.008450 0.000000
# 2 -0.001895 0.009406 -0.005793 0.000000 0.004356 0.000000
# 3 -0.003522 -0.005793 0.025950 0.000000 0.011001 0.000000
# 4 0.000000 0.000000 0.000000 0.022567 0.000000 0.009831
# 5 0.008450 0.004356 0.011001 0.000000 0.071128 0.000000
# 6 0.000000 0.000000 0.000000 0.009831 0.000000 0.028735
#
#
# Mechanical properties :
#
#
# Convention : Reuss Voigt Hill
#
# Bulk Modulus (GPa) = 42.65623 84.27917 63.46770
# Shear Modulus (GPa) = 25.18532 36.68021 30.93277
#
# Velocity S-wave (km/s) = 3.57947 4.31977 3.96693
# Velocity P-wave (km/s) = 6.22769 8.23142 7.29864
#
# Compressibility (1/GPa) = 0.02344324
#
# Stress axis : x y z
#
# Youngs Moduli (GPa) = 95.16827 106.31070 38.53632
#
# Poissons Ratio (x) = 0.20145 0.13573
# Poissons Ratio (y) = 0.18034 0.22325
# Poissons Ratio (z) = 0.33519 0.61588
#
# Static dielectric constant tensor:
#      x y z
#    x 4.393460 0.000000 -0.735820 
#    y 0.000000 4.052340 0.000000 
#    z -0.735820 0.000000 3.883490 
# 
# 
# High freq. dielectric constant tensor:
#      x y z
#    x 1.774610 0.000000 -0.023860 
#    y 0.000000 1.794570 0.000000 
#    z -0.023860 0.000000 1.748440 
# 
# From -- ./inp_files/375155.got.cif
#   From: 2010.06.25/outbox.cif.g09.slc.cpg/sg12_188_cif.got.tgz:375155.got - 2010.06.28 00:19:55.
