data_PCOD8082546
_publ_section_title
;
Structure prediction by ZEFSAII (Michael W. Deem and Ramdas Pophale) SiO2 
 PCOD8082546
Probable space group: C 2/M
;
_chemical_formula_sum "Si O2"
_cell_formula_units_Z 64
_cell_length_a 20.624868
_cell_length_b 9.320649
_cell_length_c 22.447872
_cell_angle_alpha 90.000000
_cell_angle_beta 124.198230
_cell_angle_gamma 90.000000
_cell_volume 3569.188184
_symmetry_space_group_name_H-M "C 2/M"
_symmetry_group_IT_number 12
_symmetry_cell_setting 'monoclinic'
loop_
_space_group_symop_operation_xyz
x,y,z
-x,y,-z
-x,-y,-z
x,-y,z
1/2+x,1/2+y,z
1/2-x,1/2+y,-z
1/2-x,1/2-y,-z
1/2+x,1/2-y,z
loop_
_atom_site_type_symbol
_atom_site_label
_atom_site_fract_x
_atom_site_fract_y
_atom_site_fract_z
Si Si1 0.130804 0.333008 0.804305
Si Si2 0.547448 0.330175 0.969217
Si Si3 0.086055 0.330535 0.428223
Si Si4 0.362098 0.666956 0.661920
Si Si5 0.277839 0.333346 0.956896
Si Si6 0.407911 0.830483 0.345769
Si Si7 0.813539 0.329706 0.408705
Si Si8 0.505758 0.666477 0.817370
O O1 0.108109 0.500000 0.794491
O O2 0.219179 0.305908 0.871791
O O3 0.123993 0.271581 0.733797
O O4 0.070430 0.252819 0.815084
O O5 0.545855 0.500000 0.974370
O O6 0.506764 0.282001 0.886445
O O7 0.500000 0.260744 0.000000
O O8 0.636980 0.275256 0.018288
O O9 0.093189 0.500000 0.421877
O O10 0.108463 0.254877 0.378941
O O11 0.143428 0.274141 0.509597
O O12 0.998200 0.286311 0.401261
O O13 0.360204 0.500000 0.643275
O O14 0.276302 0.721866 0.636887
O O15 0.419399 0.695925 0.747043
O O16 0.281534 0.500000 0.976231
O O17 0.250000 0.250000 0.000000
O O18 0.356507 0.763141 0.372849
O O19 0.398588 0.000000 0.342389
O O20 0.819603 0.500000 0.409487
O O21 0.528659 0.500000 0.824272
#
# Coordination Sequence:
#
# PCOD8082546 Si02
#       8
#     8   8   8   8   8   8   8   8
#     4  10  19  31  51  77  99 125 164 207 243 282
#     4   9  18  32  50  74 101 129 162 198 239 288
#     4  10  18  31  53  74  95 130 168 202 243 292
#     4  10  20  32  49  74 101 130 163 201 247 295
#     4  10  19  31  51  76 100 128 161 199 240 284
#     4   9  17  30  49  74  99 126 164 207 247 285
#     4   9  18  31  48  73 102 128 162 207 248 289
#     4  10  19  32  51  72  98 132 162 197 246 295
#
# _framework density 17.931249000000001
#
# number of rings (size 3 to 8) (size 9 to 14) (size 15 to 20)
#    0.000    2.375    2.500    0.750    0.000    2.500 
#    0.000    5.000    0.000    5.250    0.000    3.500 
#    0.000    0.000    0.000    0.000    0.000    0.000 
#
# Total GULP energy -396782.077771 kJ/mol
# GULP energy per Si atom -12399.439930 kJ/mol
# Density = 1.789044 g / cm^3
# Si number density = 17.931249 Si / 1000 Ang^3
#
#
#
# Elastic Constant Matrix: (Units=GPa)
#
#
# Indices 1 2 3 4 5 6 
#
# 1 139.2671 30.5870 65.8949 0.0000 4.8519 0.0000
# 2 30.5870 25.1062 28.4643 0.0000 0.1789 0.0000
# 3 65.8949 28.4643 144.1866 0.0000 8.3522 0.0000
# 4 0.0000 0.0000 0.0000 19.7646 0.0000 -2.1302
# 5 4.8519 0.1789 8.3522 0.0000 33.3005 0.0000
# 6 0.0000 0.0000 0.0000 -2.1302 0.0000 18.8624
#
#
#
# Elastic Compliance Matrix: (Units=1/GPa)
#
#
# Indices 1 2 3 4 5 6 
#
# 1 0.010738 -0.009745 -0.002939 0.000000 -0.000775 0.000000
# 2 -0.009745 0.060334 -0.007631 0.000000 0.003010 0.000000
# 3 -0.002939 -0.007631 0.009902 0.000000 -0.002014 0.000000
# 4 0.000000 0.000000 0.000000 0.051219 0.000000 0.005784
# 5 -0.000775 0.003010 -0.002014 0.000000 0.030632 0.000000
# 6 0.000000 0.000000 0.000000 0.005784 0.000000 0.053669
#
#
# Mechanical properties :
#
#
# Convention : Reuss Voigt Hill
#
# Bulk Modulus (GPa) = 24.78725 62.05029 43.41877
# Shear Modulus (GPa) = 18.47939 26.62641 22.55290
#
# Velocity S-wave (km/s) = 3.21373 3.85764 3.55031
# Velocity P-wave (km/s) = 5.25588 7.38387 6.40881
#
# Compressibility (1/GPa) = 0.04034332
#
# Stress axis : x y z
#
# Youngs Moduli (GPa) = 93.12504 16.57442 100.99224
#
# Poissons Ratio (x) = 0.16152 0.29680
# Poissons Ratio (y) = 0.90751 0.77072
# Poissons Ratio (z) = 0.27368 0.12649
#
# Static dielectric constant tensor:
#      x y z
#    x 3.624730 0.000000 0.064500 
#    y 0.000000 2.944710 0.000000 
#    z 0.064500 0.000000 3.796200 
# 
# 
# High freq. dielectric constant tensor:
#      x y z
#    x 1.699860 0.000000 0.005840 
#    y 0.000000 1.646260 0.000000 
#    z 0.005840 0.000000 1.713350 
# 
# From -- ./inp_files/320177.got.cif
#   From: 2010.06.25/outbox.cif.g09.slc.cpg/sg12_161_cif.got.tgz:320177.got - 2010.06.28 00:19:55.
