data_PCOD8082469
_publ_section_title
;
Structure prediction by ZEFSAII (Michael W. Deem and Ramdas Pophale) SiO2 
 PCOD8082469
Probable space group: C 2/M
;
_chemical_formula_sum "Si O2"
_cell_formula_units_Z 64
_cell_length_a 20.782417
_cell_length_b 8.800305
_cell_length_c 26.192726
_cell_angle_alpha 90.000000
_cell_angle_beta 134.794078
_cell_angle_gamma 90.000000
_cell_volume 3399.497657
_symmetry_space_group_name_H-M "C 2/M"
_symmetry_group_IT_number 12
_symmetry_cell_setting 'monoclinic'
loop_
_space_group_symop_operation_xyz
x,y,z
-x,y,-z
-x,-y,-z
x,-y,z
1/2+x,1/2+y,z
1/2-x,1/2+y,-z
1/2-x,1/2-y,-z
1/2+x,1/2-y,z
loop_
_atom_site_type_symbol
_atom_site_label
_atom_site_fract_x
_atom_site_fract_y
_atom_site_fract_z
Si Si1 0.932263 0.679903 0.783859
Si Si2 0.631683 0.322598 0.078084
Si Si3 0.820362 0.322494 0.230874
Si Si4 0.899563 0.322432 0.460474
Si Si5 0.346925 0.821572 0.544950
Si Si6 0.731839 0.679387 0.692813
Si Si7 0.516962 0.178914 0.934733
Si Si8 0.491094 0.181135 0.707489
O O1 0.924187 0.500000 0.775084
O O2 0.832956 0.746564 0.741326
O O3 0.003223 0.724970 0.867977
O O4 0.967932 0.748231 0.750422
O O5 0.609503 0.500000 0.072281
O O6 0.736849 0.287142 0.146461
O O7 0.573274 0.226571 0.085471
O O8 0.604514 0.267696 0.005862
O O9 0.829187 0.500000 0.247287
O O10 0.810640 0.242476 0.279410
O O11 0.910133 0.258565 0.253685
O O12 0.882854 0.500000 0.441131
O O13 0.886491 0.277805 0.512030
O O14 0.827789 0.227186 0.388485
O O15 0.000000 0.274174 0.500000
O O16 0.250000 0.750000 0.500000
O O17 0.416628 0.757357 0.626035
O O18 0.336208 0.000000 0.544886
O O19 0.734450 0.500000 0.698171
O O20 0.531685 0.000000 0.949531
O O21 0.491218 0.000000 0.708608
#
# Coordination Sequence:
#
# PCOD8082469 Si02
#       8
#     8   8   8   8   8   8   8   8
#     4   9  18  32  52  79 105 135 176 219 258 306
#     4  10  19  31  50  79 108 136 172 217 263 308
#     4  10  20  35  56  79 106 142 178 216 263 317
#     4  10  21  37  55  77 105 139 179 219 263 318
#     4  10  20  35  57  79 104 138 177 221 264 315
#     4  11  21  34  55  81 107 134 173 224 270 313
#     4  10  18  31  52  77 106 140 176 215 258 308
#     4   9  18  35  56  76 102 140 181 213 254 317
#
# _framework density 18.826308999999998
#
# number of rings (size 3 to 8) (size 9 to 14) (size 15 to 20)
#    0.000    2.125    1.250    3.375    0.000    4.250 
#    0.000    2.500    0.000    3.750    0.000    0.000 
#    0.000    0.000    0.000    0.000    0.000    0.000 
#
# Total GULP energy -396826.196667 kJ/mol
# GULP energy per Si atom -12400.818646 kJ/mol
# Density = 1.878346 g / cm^3
# Si number density = 18.826309 Si / 1000 Ang^3
#
#
#
# Elastic Constant Matrix: (Units=GPa)
#
#
# Indices 1 2 3 4 5 6 
#
# 1 134.8318 18.5301 75.1873 0.0000 -10.8899 0.0000
# 2 18.5301 31.1723 28.5127 0.0000 -2.2822 0.0001
# 3 75.1873 28.5127 164.2199 0.0000 -8.2560 0.0000
# 4 0.0000 0.0000 0.0000 28.8260 0.0000 1.1953
# 5 -10.8899 -2.2822 -8.2560 0.0000 33.5018 0.0000
# 6 0.0000 0.0001 0.0000 1.1953 0.0000 19.9297
#
#
#
# Elastic Compliance Matrix: (Units=1/GPa)
#
#
# Indices 1 2 3 4 5 6 
#
# 1 0.010224 -0.002066 -0.004215 0.000000 0.002144 0.000000
# 2 -0.002066 0.038585 -0.005726 0.000000 0.000546 0.000000
# 3 -0.004215 -0.005726 0.009037 0.000000 0.000467 0.000000
# 4 0.000000 0.000000 0.000000 0.034777 0.000000 -0.002086
# 5 0.002144 0.000546 0.000467 0.000000 0.030698 0.000000
# 6 0.000000 0.000000 0.000000 -0.002086 0.000000 0.050301
#
#
# Mechanical properties :
#
#
# Convention : Reuss Voigt Hill
#
# Bulk Modulus (GPa) = 29.55675 63.85380 46.70528
# Shear Modulus (GPa) = 23.93337 30.31777 27.12557
#
# Velocity S-wave (km/s) = 3.56936 4.01732 3.79995
# Velocity P-wave (km/s) = 5.72022 7.45047 6.64193
#
# Compressibility (1/GPa) = 0.03383321
#
# Stress axis : x y z
#
# Youngs Moduli (GPa) = 97.81035 25.91661 110.66001
#
# Poissons Ratio (x) = 0.05353 0.46638
# Poissons Ratio (y) = 0.20203 0.63366
# Poissons Ratio (z) = 0.41222 0.14840
#
# Static dielectric constant tensor:
#      x y z
#    x 3.523430 0.000000 -0.020660 
#    y 0.000000 3.207410 0.000000 
#    z -0.020660 0.000000 3.828350 
# 
# 
# High freq. dielectric constant tensor:
#      x y z
#    x 1.723940 0.000000 -0.000520 
#    y 0.000000 1.706370 0.000000 
#    z -0.000520 0.000000 1.751080 
# 
# From -- ./inp_files/346274.got.cif
#   From: 2010.06.25/outbox.cif.g09.slc.cpg/sg12_174_cif.got.tgz:346274.got - 2010.06.28 00:19:55.
