data_PCOD8082677
_publ_section_title
;
Structure prediction by ZEFSAII (Michael W. Deem and Ramdas Pophale) SiO2 
 PCOD8082677
Probable space group: C 2/M
;
_chemical_formula_sum "Si O2"
_cell_formula_units_Z 64
_cell_length_a 17.056639
_cell_length_b 13.711749
_cell_length_c 14.837074
_cell_angle_alpha 90.000000
_cell_angle_beta 96.192007
_cell_angle_gamma 90.000000
_cell_volume 3449.796607
_symmetry_space_group_name_H-M "C 2/M"
_symmetry_group_IT_number 12
_symmetry_cell_setting 'monoclinic'
loop_
_space_group_symop_operation_xyz
x,y,z
-x,y,-z
-x,-y,-z
x,-y,z
1/2+x,1/2+y,z
1/2-x,1/2+y,-z
1/2-x,1/2-y,-z
1/2+x,1/2-y,z
loop_
_atom_site_type_symbol
_atom_site_label
_atom_site_fract_x
_atom_site_fract_y
_atom_site_fract_z
Si Si1 0.951955 0.613193 0.796952
Si Si2 0.330290 0.107085 0.438197
Si Si3 0.308610 0.701266 0.345149
Si Si4 0.350192 0.606954 0.528667
Si Si5 0.669429 0.889943 0.063128
Si Si6 0.937199 0.735400 0.068891
Si Si7 0.628113 0.798371 0.378376
Si Si8 0.159626 0.113210 0.843696
O O1 0.970926 0.500000 0.784055
O O2 0.874635 0.628383 0.848122
O O3 0.936892 0.664340 0.699410
O O4 0.026750 0.662949 0.852737
O O5 0.337289 0.186080 0.358875
O O6 0.240770 0.104342 0.458069
O O7 0.380707 0.138131 0.531880
O O8 0.357949 0.000000 0.407666
O O9 0.355801 0.637939 0.424923
O O10 0.215011 0.691095 0.347043
O O11 0.332470 0.664316 0.251060
O O12 0.389195 0.500000 0.546989
O O13 0.392000 0.685734 0.599049
O O14 0.761452 0.871973 0.088878
O O15 0.652545 0.000000 0.028202
O O16 0.638896 0.817607 0.982483
O O17 0.911404 0.836532 0.111022
O O18 0.000000 0.761618 0.000000
O O19 0.139454 0.000000 0.827824
#
# Coordination Sequence:
#
# PCOD8082677 Si02
#       8
#     8   8   8   8   8   8   8   8
#     4  10  18  31  54  80 105 132 170 214 256 308
#     4   8  14  24  41  69 109 143 164 201 256 305
#     4   9  16  27  46  76 106 132 170 216 256 293
#     4   8  14  24  41  68 107 143 169 204 251 297
#     4   9  18  34  58  82 100 124 164 217 267 307
#     4  10  22  38  53  74 105 137 166 207 265 320
#     4   9  15  25  46  77 106 136 172 209 250 298
#     4  11  21  34  56  79 101 133 175 218 254 302
#
# _framework density 18.551818999999998
#
# number of rings (size 3 to 8) (size 9 to 14) (size 15 to 20)
#    0.000    2.750    1.250    3.000    0.000    2.750 
#    0.000    1.875    0.000    4.500    0.000    8.750 
#    0.000    0.000    0.000    0.000    0.000    0.000 
#
# Total GULP energy -396700.012223 kJ/mol
# GULP energy per Si atom -12396.875382 kJ/mol
# Density = 1.850959 g / cm^3
# Si number density = 18.551819 Si / 1000 Ang^3
#
#
#
# Elastic Constant Matrix: (Units=GPa)
#
#
# Indices 1 2 3 4 5 6 
#
# 1 37.3164 38.6093 32.6484 0.0000 2.1823 0.0000
# 2 38.6093 175.3098 76.5185 0.0000 3.6263 0.0000
# 3 32.6484 76.5185 113.4111 0.0000 11.3228 0.0000
# 4 0.0000 0.0000 0.0000 27.7301 0.0000 0.1032
# 5 2.1823 3.6263 11.3228 0.0000 17.1692 0.0000
# 6 0.0000 0.0000 0.0000 0.1032 0.0000 21.3253
#
#
#
# Elastic Compliance Matrix: (Units=1/GPa)
#
#
# Indices 1 2 3 4 5 6 
#
# 1 0.038946 -0.005178 -0.007850 0.000000 0.001320 0.000000
# 2 -0.005178 0.008840 -0.004660 0.000000 0.001864 0.000000
# 3 -0.007850 -0.004660 0.015012 0.000000 -0.007918 0.000000
# 4 0.000000 0.000000 0.000000 0.036062 0.000000 -0.000175
# 5 0.001320 0.001864 -0.007918 0.000000 0.062904 0.000000
# 6 0.000000 0.000000 0.000000 -0.000175 0.000000 0.046894
#
#
# Mechanical properties :
#
#
# Convention : Reuss Voigt Hill
#
# Bulk Modulus (GPa) = 36.46662 69.06550 52.76606
# Shear Modulus (GPa) = 19.74926 25.12900 22.43913
#
# Velocity S-wave (km/s) = 3.26628 3.68439 3.48161
# Velocity P-wave (km/s) = 5.82444 7.44371 6.68330
#
# Compressibility (1/GPa) = 0.02742234
#
# Stress axis : x y z
#
# Youngs Moduli (GPa) = 25.67643 113.12309 66.61522
#
# Poissons Ratio (x) = 0.58580 0.52290
# Poissons Ratio (y) = 0.13296 0.31040
# Poissons Ratio (z) = 0.20155 0.52711
#
# Static dielectric constant tensor:
#      x y z
#    x 2.999740 0.000000 0.096480 
#    y 0.000000 3.830310 0.000000 
#    z 0.096480 0.000000 3.295100 
# 
# 
# High freq. dielectric constant tensor:
#      x y z
#    x 1.681490 0.000000 0.008920 
#    y 0.000000 1.728710 0.000000 
#    z 0.008920 0.000000 1.714450 
# 
# From -- ./inp_files/224820.got.cif
#   From: 2010.06.25/outbox.cif.g09.slc.cpg/sg12_113_cif.got.tgz:224820.got - 2010.06.28 00:19:55.
