data_PCOD8082900
_publ_section_title
;
Structure prediction by ZEFSAII (Michael W. Deem and Ramdas Pophale) SiO2 
 PCOD8082900
Probable space group: C 2/M
;
_chemical_formula_sum "Si O2"
_cell_formula_units_Z 64
_cell_length_a 29.619320
_cell_length_b 17.227714
_cell_length_c 22.158816
_cell_angle_alpha 90.000000
_cell_angle_beta 162.883943
_cell_angle_gamma 90.000000
_cell_volume 3327.757034
_symmetry_space_group_name_H-M "C 2/M"
_symmetry_group_IT_number 12
_symmetry_cell_setting 'monoclinic'
loop_
_space_group_symop_operation_xyz
x,y,z
-x,y,-z
-x,-y,-z
x,-y,z
1/2+x,1/2+y,z
1/2-x,1/2+y,-z
1/2-x,1/2-y,-z
1/2+x,1/2-y,z
loop_
_atom_site_type_symbol
_atom_site_label
_atom_site_fract_x
_atom_site_fract_y
_atom_site_fract_z
Si Si1 0.666997 0.644753 0.201070
Si Si2 0.884735 0.914323 0.989734
Si Si3 0.505338 0.413249 0.435902
Si Si4 0.506990 0.188082 0.263662
Si Si5 0.756188 0.802628 0.916699
Si Si6 0.226900 0.910782 0.408594
Si Si7 0.759451 0.587196 0.994634
Si Si8 0.426097 0.259340 0.529839
O O1 0.730202 0.600521 0.340407
O O2 0.781895 0.710070 0.322593
O O3 0.500000 0.683056 0.000000
O O4 0.650112 0.582550 0.125909
O O5 0.062376 0.888661 0.226950
O O6 0.860117 0.000000 0.984704
O O7 0.767456 0.857729 0.873420
O O8 0.500000 0.393885 0.500000
O O9 0.575053 0.500000 0.515261
O O10 0.337677 0.408992 0.191160
O O11 0.607635 0.348354 0.532737
O O12 0.646618 0.150322 0.402917
O O13 0.569434 0.250074 0.392203
O O14 0.375809 0.232108 0.058189
O O15 0.432475 0.113067 0.201387
O O16 0.584840 0.769519 0.702085
O O17 0.805952 0.851134 0.040099
O O18 0.268111 0.000000 0.476483
O O19 0.760226 0.500000 0.022471
#
# Coordination Sequence:
#
# PCOD8082900 Si02
#       8
#     8   8   8   8   8   8   8   8
#     4   9  19  34  55  77 100 134 172 209 247 297
#     4  10  21  35  50  74 105 137 170 203 250 307
#     4  10  20  32  50  75  98 130 169 204 250 300
#     4  10  18  32  51  77 100 130 174 206 246 300
#     4  11  20  32  48  77 105 137 160 207 254 307
#     4   9  18  34  54  73 100 136 173 212 246 289
#     4  10  18  32  50  71 102 132 159 203 253 298
#     4  10  19  34  53  75 104 132 166 208 258 300
#
# _framework density 19.232173
#
# number of rings (size 3 to 8) (size 9 to 14) (size 15 to 20)
#    0.000    2.125    2.500    1.875    1.750    2.000 
#    0.000    2.500    0.000    0.375    0.000    0.000 
#    0.000    0.000    0.000    0.000    0.000    0.000 
#
# Total GULP energy -396541.036191 kJ/mol
# GULP energy per Si atom -12391.907381 kJ/mol
# Density = 1.918840 g / cm^3
# Si number density = 19.232173 Si / 1000 Ang^3
#
#
#
# Elastic Constant Matrix: (Units=GPa)
#
#
# Indices 1 2 3 4 5 6 
#
# 1 43.5887 17.6060 10.5351 -0.0008 -0.5984 -0.0017
# 2 17.6060 111.9627 33.0036 -0.0007 11.6369 -0.0007
# 3 10.5351 33.0036 73.8149 -0.0016 7.3964 -0.0021
# 4 -0.0008 -0.0007 -0.0016 20.8948 -0.0010 1.1509
# 5 -0.5984 11.6369 7.3964 -0.0010 20.4658 -0.0008
# 6 -0.0017 -0.0007 -0.0021 1.1509 -0.0008 25.0658
#
#
#
# Elastic Compliance Matrix: (Units=1/GPa)
#
#
# Indices 1 2 3 4 5 6 
#
# 1 0.025016 -0.003630 -0.002311 0.000001 0.003631 0.000002
# 2 -0.003630 0.011200 -0.003985 0.000000 -0.005034 0.000000
# 3 -0.002311 -0.003985 0.016019 0.000001 -0.003591 0.000001
# 4 0.000001 0.000000 0.000001 0.047980 0.000002 -0.002203
# 5 0.003631 -0.005034 -0.003591 0.000002 0.053128 0.000001
# 6 0.000002 0.000000 0.000001 -0.002203 0.000001 0.039996
#
#
# Mechanical properties :
#
#
# Convention : Reuss Voigt Hill
#
# Bulk Modulus (GPa) = 30.88060 39.07285 34.97672
# Shear Modulus (GPa) = 22.32268 24.50006 23.41137
#
# Velocity S-wave (km/s) = 3.41059 3.57306 3.49277
# Velocity P-wave (km/s) = 5.62149 6.11415 5.87299
#
# Compressibility (1/GPa) = 0.03238279
#
# Stress axis : x y z
#
# Youngs Moduli (GPa) = 39.97393 89.28295 62.42607
#
# Poissons Ratio (x) = 0.32408 0.14428
# Poissons Ratio (y) = 0.14510 0.24879
# Poissons Ratio (z) = 0.09239 0.35582
#
# Static dielectric constant tensor:
#      x y z
#    x 3.207020 -0.000010 0.071090 
#    y -0.000010 3.715300 0.000000 
#    z 0.071090 0.000000 3.525340 
# 
# 
# High freq. dielectric constant tensor:
#      x y z
#    x 1.712420 0.000000 0.000650 
#    y 0.000000 1.754230 0.000000 
#    z 0.000650 0.000000 1.739080 
# 
# From -- ./inp_files/317373.got.cif
#   From: 2010.06.25/outbox.cif.g09.slc.cpg/sg12_159_cif.got.tgz:317373.got - 2010.06.28 00:19:55.
