data_PCOD8082648
_publ_section_title
;
Structure prediction by ZEFSAII (Michael W. Deem and Ramdas Pophale) SiO2 
 PCOD8082648
Probable space group: C 2/M
;
_chemical_formula_sum "Si O2"
_cell_formula_units_Z 64
_cell_length_a 16.733782
_cell_length_b 14.786768
_cell_length_c 18.744465
_cell_angle_alpha 90.000000
_cell_angle_beta 52.999770
_cell_angle_gamma 90.000000
_cell_volume 3704.142775
_symmetry_space_group_name_H-M "C 2/M"
_symmetry_group_IT_number 12
_symmetry_cell_setting 'monoclinic'
loop_
_space_group_symop_operation_xyz
x,y,z
-x,y,-z
-x,-y,-z
x,-y,z
1/2+x,1/2+y,z
1/2-x,1/2+y,-z
1/2-x,1/2-y,-z
1/2+x,1/2-y,z
loop_
_atom_site_type_symbol
_atom_site_label
_atom_site_fract_x
_atom_site_fract_y
_atom_site_fract_z
Si Si1 0.566807 0.103888 0.148665
Si Si2 0.699840 0.350972 0.634486
Si Si3 0.412399 0.219855 0.493205
Si Si4 0.616189 0.598293 0.821790
Si Si5 0.045636 0.765705 0.052996
Si Si6 0.286136 0.603869 0.084214
Si Si7 0.182145 0.097515 0.487384
Si Si8 0.896526 0.331993 0.344669
O O1 0.559946 0.169978 0.084343
O O2 0.670392 0.124758 0.132748
O O3 0.478046 0.118320 0.252687
O O4 0.562405 0.000000 0.123737
O O5 0.818329 0.338827 0.567353
O O6 0.676339 0.410218 0.715954
O O7 0.663680 0.399364 0.582121
O O8 0.641505 0.256944 0.674973
O O9 0.500000 0.196407 0.500000
O O10 0.383277 0.325532 0.515153
O O11 0.444399 0.193786 0.395644
O O12 0.566708 0.500000 0.863763
O O13 0.530823 0.673177 0.861219
O O14 0.694075 0.620915 0.842859
O O15 0.147881 0.823684 0.995127
O O16 0.000000 0.745641 0.000000
O O17 0.312609 0.500000 0.048023
O O18 0.299993 0.105245 0.407775
O O19 0.145428 0.000000 0.478747
#
# Coordination Sequence:
#
# PCOD8082648 Si02
#       8
#     8   8   8   8   8   8   8   8
#     4  11  21  34  54  76 103 135 170 204 246 307
#     4   9  17  31  49  72 100 131 171 201 242 296
#     4   9  19  31  49  74 101 135 164 204 252 294
#     4  10  18  31  54  78 101 128 166 211 249 300
#     4  10  20  36  55  75 100 132 168 210 257 294
#     4   9  20  34  51  78 104 131 164 205 258 307
#     4   9  17  31  50  70  99 134 170 207 241 289
#     4   9  18  33  49  71 101 136 170 199 243 295
#
# _framework density 17.277951000000002
#
# number of rings (size 3 to 8) (size 9 to 14) (size 15 to 20)
#    0.000    2.500    1.250    3.000    1.750    2.000 
#    0.000    0.000    0.000    2.250    0.000    0.000 
#    0.000    0.000    0.000    0.000    0.000    0.000 
#
# Total GULP energy -396648.600833 kJ/mol
# GULP energy per Si atom -12395.268776 kJ/mol
# Density = 1.723863 g / cm^3
# Si number density = 17.277951 Si / 1000 Ang^3
#
#
#
# Elastic Constant Matrix: (Units=GPa)
#
#
# Indices 1 2 3 4 5 6 
#
# 1 67.0523 13.4289 20.7860 0.0000 -3.9869 0.0000
# 2 13.4289 82.1439 25.2694 0.0000 -3.9407 0.0000
# 3 20.7860 25.2694 92.3997 0.0000 -2.7459 0.0000
# 4 0.0000 0.0000 0.0000 21.1675 0.0000 1.7062
# 5 -3.9869 -3.9407 -2.7459 0.0000 17.8246 0.0000
# 6 0.0000 0.0000 0.0000 1.7062 0.0000 19.0744
#
#
#
# Elastic Compliance Matrix: (Units=1/GPa)
#
#
# Indices 1 2 3 4 5 6 
#
# 1 0.016379 -0.001566 -0.003172 0.000000 0.002829 0.000000
# 2 -0.001566 0.013544 -0.003288 0.000000 0.002137 0.000000
# 3 -0.003172 -0.003288 0.012450 0.000000 0.000481 0.000000
# 4 0.000000 0.000000 0.000000 0.047585 0.000000 -0.004256
# 5 0.002829 0.002137 0.000481 0.000000 0.057282 0.000000
# 6 0.000000 0.000000 0.000000 -0.004256 0.000000 0.052807
#
#
# Mechanical properties :
#
#
# Convention : Reuss Voigt Hill
#
# Bulk Modulus (GPa) = 37.99450 40.06274 39.02862
# Shear Modulus (GPa) = 22.23481 23.75406 22.99444
#
# Velocity S-wave (km/s) = 3.59122 3.71188 3.65205
# Velocity P-wave (km/s) = 6.26368 6.45045 6.35775
#
# Compressibility (1/GPa) = 0.02631960
#
# Stress axis : x y z
#
# Youngs Moduli (GPa) = 61.05401 73.83433 80.32322
#
# Poissons Ratio (x) = 0.11563 0.25480
# Poissons Ratio (y) = 0.09562 0.26411
# Poissons Ratio (z) = 0.19368 0.24278
#
# Static dielectric constant tensor:
#      x y z
#    x 3.008350 0.000000 -0.029270 
#    y 0.000000 3.243760 0.000000 
#    z -0.029270 0.000000 3.129950 
# 
# 
# High freq. dielectric constant tensor:
#      x y z
#    x 1.650600 0.000000 -0.002840 
#    y 0.000000 1.672650 0.000000 
#    z -0.002840 0.000000 1.665150 
# 
# From -- ./inp_files/270253.got.cif
#   From: 2010.06.25/outbox.cif.g09.slc.cpg/sg12_136_cif.got.tgz:270253.got - 2010.06.28 00:19:55.
