data_PCOD8082570
_publ_section_title
;
Structure prediction by ZEFSAII (Michael W. Deem and Ramdas Pophale) SiO2 
 PCOD8082570
Probable space group: C 2/M
;
_chemical_formula_sum "Si O2"
_cell_formula_units_Z 56
_cell_length_a 16.133744
_cell_length_b 8.853610
_cell_length_c 23.685594
_cell_angle_alpha 90.000000
_cell_angle_beta 121.447454
_cell_angle_gamma 90.000000
_cell_volume 2886.352964
_symmetry_space_group_name_H-M "C 2/M"
_symmetry_group_IT_number 12
_symmetry_cell_setting 'monoclinic'
loop_
_space_group_symop_operation_xyz
x,y,z
-x,y,-z
-x,-y,-z
x,-y,z
1/2+x,1/2+y,z
1/2-x,1/2+y,-z
1/2-x,1/2-y,-z
1/2+x,1/2-y,z
loop_
_atom_site_type_symbol
_atom_site_label
_atom_site_fract_x
_atom_site_fract_y
_atom_site_fract_z
Si Si1 0.230122 0.820562 0.860231
Si Si2 0.593892 0.178886 0.000715
Si Si3 0.443851 0.179247 0.138462
Si Si4 0.665623 0.178163 0.216092
Si Si5 0.101224 0.337137 0.512728
Si Si6 0.737191 0.178135 0.362558
Si Si7 0.843863 0.177992 0.565457
O O1 0.124584 0.750405 0.837117
O O2 0.272723 0.759471 0.815402
O O3 0.218337 0.000000 0.854703
O O4 0.307075 0.765629 0.934755
O O5 0.595743 0.232708 0.936590
O O6 0.586423 0.000000 0.001308
O O7 0.500000 0.247095 0.000000
O O8 0.555048 0.240279 0.181685
O O9 0.440601 0.000000 0.144732
O O10 0.723603 0.225695 0.292895
O O11 0.657483 0.000000 0.205992
O O12 0.156859 0.500000 0.522161
O O13 0.159659 0.236417 0.578466
O O14 0.073321 0.247347 0.444981
O O15 0.000000 0.383549 0.500000
O O16 0.652399 0.258267 0.369619
O O17 0.729324 0.000000 0.367778
O O18 0.750000 0.250000 0.500000
O O19 0.850370 0.000000 0.567296
#
# Coordination Sequence:
#
# PCOD8082570 Si02
#       7
#     8   8   8   8   8   8   8
#     4  10  19  34  55  80 108 141 183 230 274 319
#     4   9  15  28  55  80 101 139 186 226 268 324
#     4  10  19  34  55  80 106 140 185 227 273 325
#     4   9  19  36  56  75 107 150 186 218 263 331
#     4  10  20  35  55  80 108 135 169 216 264 311
#     4  10  19  34  55  76 103 140 177 214 260 316
#     4  10  18  31  53  77 101 130 166 208 253 305
#
# _framework density 19.401648000000002
#
# number of rings (size 3 to 8) (size 9 to 14) (size 15 to 20)
#    0.000    2.286    1.429    4.286    0.000    1.143 
#    2.571    3.571    0.000    0.857    0.000    0.000 
#    0.000    0.000    0.000    0.000    0.000    0.000 
#
# Total GULP energy -346881.571131 kJ/mol
# GULP energy per Si atom -12388.627540 kJ/mol
# Density = 1.935749 g / cm^3
# Si number density = 19.401648 Si / 1000 Ang^3
#
#
#
# Elastic Constant Matrix: (Units=GPa)
#
#
# Indices 1 2 3 4 5 6 
#
# 1 150.6882 34.8602 52.5630 0.0000 -16.6326 0.0000
# 2 34.8602 81.5813 32.9403 0.0000 -13.9786 0.0000
# 3 52.5630 32.9403 101.5373 0.0000 -26.1386 0.0000
# 4 0.0000 0.0000 0.0000 9.2049 0.0000 -1.6713
# 5 -16.6326 -13.9786 -26.1386 0.0000 27.0474 0.0000
# 6 0.0000 0.0000 0.0000 -1.6713 0.0000 25.6316
#
#
#
# Elastic Compliance Matrix: (Units=1/GPa)
#
#
# Indices 1 2 3 4 5 6 
#
# 1 0.008414 -0.002057 -0.003501 0.000000 0.000728 0.000000
# 2 -0.002057 0.014911 -0.002814 0.000000 0.003721 0.000000
# 3 -0.003501 -0.002814 0.015502 0.000000 0.011374 0.000000
# 4 0.000000 0.000000 0.000000 0.109939 0.000000 0.007168
# 5 0.000728 0.003721 0.011374 0.000000 0.050334 0.000000
# 6 0.000000 0.000000 0.000000 0.007168 0.000000 0.039482
#
#
# Mechanical properties :
#
#
# Convention : Reuss Voigt Hill
#
# Bulk Modulus (GPa) = 45.28673 63.83708 54.56191
# Shear Modulus (GPa) = 19.03410 26.60633 22.82021
#
# Velocity S-wave (km/s) = 3.13558 3.70718 3.43330
# Velocity P-wave (km/s) = 6.04165 7.16231 6.62571
#
# Compressibility (1/GPa) = 0.02208152
#
# Stress axis : x y z
#
# Youngs Moduli (GPa) = 118.85588 67.06597 64.50856
#
# Poissons Ratio (x) = 0.13795 0.22584
# Poissons Ratio (y) = 0.24448 0.18156
# Poissons Ratio (z) = 0.41610 0.18875
#
# Static dielectric constant tensor:
#      x y z
#    x 4.515820 0.000000 -0.657390 
#    y 0.000000 3.464090 0.000000 
#    z -0.657390 0.000000 3.760530 
# 
# 
# High freq. dielectric constant tensor:
#      x y z
#    x 1.766850 0.000000 -0.017430 
#    y 0.000000 1.731590 0.000000 
#    z -0.017430 0.000000 1.739290 
# 
# From -- ./inp_files/342528.got.cif
#   From: 2010.06.25/outbox.cif.g09.slc.cpg/sg12_172_cif.got.tgz:342528.got - 2010.06.28 00:19:55.
