data_PCOD8082722
_publ_section_title
;
Structure prediction by ZEFSAII (Michael W. Deem and Ramdas Pophale) SiO2 
 PCOD8082722
Probable space group: C 2/M
;
_chemical_formula_sum "Si O2"
_cell_formula_units_Z 48
_cell_length_a 17.766455
_cell_length_b 8.655006
_cell_length_c 15.220070
_cell_angle_alpha 90.000000
_cell_angle_beta 92.828142
_cell_angle_gamma 90.000000
_cell_volume 2337.520996
_symmetry_space_group_name_H-M "C 2/M"
_symmetry_group_IT_number 12
_symmetry_cell_setting 'monoclinic'
loop_
_space_group_symop_operation_xyz
x,y,z
-x,y,-z
-x,-y,-z
x,-y,z
1/2+x,1/2+y,z
1/2-x,1/2+y,-z
1/2-x,1/2-y,-z
1/2+x,1/2-y,z
loop_
_atom_site_type_symbol
_atom_site_label
_atom_site_fract_x
_atom_site_fract_y
_atom_site_fract_z
Si Si1 0.932969 0.178023 0.672710
Si Si2 0.166858 0.682613 0.984695
Si Si3 0.153711 0.821543 0.158317
Si Si4 0.091295 0.322999 0.653057
Si Si5 0.315605 0.680451 0.190102
Si Si6 0.330572 0.820186 0.524362
O O1 0.910211 0.202242 0.772610
O O2 0.863231 0.229061 0.609057
O O3 0.003685 0.284814 0.655984
O O4 0.953030 0.000000 0.655039
O O5 0.165412 0.500000 0.988285
O O6 0.138007 0.740704 0.888057
O O7 0.250000 0.750000 0.000000
O O8 0.120593 0.749484 0.065467
O O9 0.230462 0.739857 0.193401
O O10 0.173275 0.000000 0.144693
O O11 0.105385 0.500000 0.680925
O O12 0.140882 0.214538 0.717843
O O13 0.114447 0.293076 0.554411
O O14 0.313766 0.500000 0.172358
O O15 0.250000 0.750000 0.500000
O O16 0.322684 0.000000 0.547371
#
# Coordination Sequence:
#
# PCOD8082722 Si02
#       6
#     8   8   8   8   8   8
#     4  11  24  40  60  86 117 153 190 233 285 340
#     4  10  18  31  54  83 114 149 190 236 285 334
#     4  10  20  36  57  84 117 150 190 238 285 335
#     4  11  24  41  59  83 117 153 190 234 285 339
#     4  11  21  35  58  86 115 150 193 238 285 337
#     4  11  24  41  63  89 116 149 189 236 284 334
#
# _framework density 20.534575
#
# number of rings (size 3 to 8) (size 9 to 14) (size 15 to 20)
#    0.000    1.333    0.000    8.500    0.000   11.333 
#    0.000    0.833    0.000    5.000    0.000    0.000 
#    0.000    0.000    0.000    0.000    0.000    0.000 
#
# Total GULP energy -297681.943633 kJ/mol
# GULP energy per Si atom -12403.414318 kJ/mol
# Density = 2.048784 g / cm^3
# Si number density = 20.534575 Si / 1000 Ang^3
#
#
#
# Elastic Constant Matrix: (Units=GPa)
#
#
# Indices 1 2 3 4 5 6 
#
# 1 60.1656 21.4912 3.6034 0.0000 -16.4825 0.0000
# 2 21.4912 138.6628 50.6691 0.0000 -17.6447 0.0000
# 3 3.6034 50.6691 79.1618 0.0000 -19.6791 0.0000
# 4 0.0000 0.0000 0.0000 38.7171 0.0000 2.3675
# 5 -16.4825 -17.6447 -19.6791 0.0000 26.4142 0.0000
# 6 0.0000 0.0000 0.0000 2.3675 0.0000 30.1763
#
#
#
# Elastic Compliance Matrix: (Units=1/GPa)
#
#
# Indices 1 2 3 4 5 6 
#
# 1 0.021543 -0.003185 0.004751 0.000000 0.014855 0.000000
# 2 -0.003185 0.009990 -0.006240 0.000000 0.000037 0.000000
# 3 0.004751 -0.006240 0.019773 0.000000 0.013527 0.000000
# 4 0.000000 0.000000 0.000000 0.025953 0.000000 -0.002036
# 5 0.014855 0.000037 0.013527 0.000000 0.057231 0.000000
# 6 0.000000 0.000000 0.000000 -0.002036 0.000000 0.033298
#
#
# Mechanical properties :
#
#
# Convention : Reuss Voigt Hill
#
# Bulk Modulus (GPa) = 23.83325 47.72416 35.77871
# Shear Modulus (GPa) = 26.16109 32.54329 29.35219
#
# Velocity S-wave (km/s) = 3.57319 3.98528 3.78485
# Velocity P-wave (km/s) = 5.35305 6.66843 6.04661
#
# Compressibility (1/GPa) = 0.04195818
#
# Stress axis : x y z
#
# Youngs Moduli (GPa) = 46.41796 100.09679 50.57373
#
# Poissons Ratio (x) = 0.31877 -0.24026
# Poissons Ratio (y) = 0.14782 0.31560
# Poissons Ratio (z) = -0.22051 0.62463
#
# Static dielectric constant tensor:
#      x y z
#    x 3.373850 0.000000 -0.180890 
#    y 0.000000 3.916930 0.000000 
#    z -0.180890 0.000000 4.272180 
# 
# 
# High freq. dielectric constant tensor:
#      x y z
#    x 1.775050 0.000000 -0.008610 
#    y 0.000000 1.821530 0.000000 
#    z -0.008610 0.000000 1.824770 
# 
# From -- ./inp_files/273653.got.cif
#   From: 2010.06.25/outbox.cif.g09.slc.cpg/sg12_137_cif.got.tgz:273653.got - 2010.06.28 00:19:55.
