data_PCOD8082556
_publ_section_title
;
Structure prediction by ZEFSAII (Michael W. Deem and Ramdas Pophale) SiO2 
 PCOD8082556
Probable space group: C 2/M
;
_chemical_formula_sum "Si O2"
_cell_formula_units_Z 64
_cell_length_a 20.659151
_cell_length_b 9.237934
_cell_length_c 26.114536
_cell_angle_alpha 90.000000
_cell_angle_beta 45.340527
_cell_angle_gamma 90.000000
_cell_volume 3545.034865
_symmetry_space_group_name_H-M "C 2/M"
_symmetry_group_IT_number 12
_symmetry_cell_setting 'monoclinic'
loop_
_space_group_symop_operation_xyz
x,y,z
-x,y,-z
-x,-y,-z
x,-y,z
1/2+x,1/2+y,z
1/2-x,1/2+y,-z
1/2-x,1/2-y,-z
1/2+x,1/2-y,z
loop_
_atom_site_type_symbol
_atom_site_label
_atom_site_fract_x
_atom_site_fract_y
_atom_site_fract_z
Si Si1 0.136696 0.328153 0.335440
Si Si2 0.722298 0.171383 0.183531
Si Si3 0.579300 0.666198 0.194313
Si Si4 0.906271 0.828128 0.030657
Si Si5 0.343072 0.332343 0.956530
Si Si6 0.297669 0.828503 0.592934
Si Si7 0.390578 0.329963 0.349356
Si Si8 0.932586 0.328108 0.429232
O O1 0.134650 0.500000 0.340103
O O2 0.200654 0.276073 0.253167
O O3 0.176258 0.261952 0.366135
O O4 0.034592 0.271427 0.382637
O O5 0.650160 0.235337 0.184456
O O6 0.823038 0.225432 0.112598
O O7 0.713723 0.000000 0.183574
O O8 0.600218 0.500000 0.196580
O O9 0.588405 0.693841 0.128623
O O10 0.477453 0.709406 0.266556
O O11 0.912381 0.000000 0.028610
O O12 0.891789 0.773438 0.980654
O O13 0.000000 0.760099 0.000000
O O14 0.317938 0.500000 0.976972
O O15 0.250000 0.250000 0.000000
O O16 0.197540 0.775162 0.632730
O O17 0.371569 0.775835 0.510650
O O18 0.299623 0.000000 0.595590
O O19 0.384730 0.500000 0.364628
O O20 0.392801 0.245262 0.401069
O O21 0.929218 0.500000 0.423621
#
# Coordination Sequence:
#
# PCOD8082556 Si02
#       8
#     8   8   8   8   8   8   8   8
#     4   9  17  29  49  76  99 125 165 207 247 289
#     4  10  18  31  53  76  97 128 165 204 246 291
#     4  10  20  32  49  73 101 133 165 201 244 295
#     4   9  18  31  49  76 104 126 156 202 248 287
#     4  10  19  32  52  75 100 131 165 201 243 289
#     4   9  18  31  48  73 103 131 163 208 253 295
#     4  10  20  33  49  72 102 134 166 202 250 299
#     4  10  18  31  53  75  97 129 169 209 248 293
#
# _framework density 18.053419000000002
#
# number of rings (size 3 to 8) (size 9 to 14) (size 15 to 20)
#    0.000    2.375    2.500    0.750    0.000    2.500 
#    0.000    5.000    0.000    5.250    0.000    1.750 
#    0.000    0.000    0.000    0.000    0.000    0.000 
#
# Total GULP energy -396790.820352 kJ/mol
# GULP energy per Si atom -12399.713136 kJ/mol
# Density = 1.801233 g / cm^3
# Si number density = 18.053419 Si / 1000 Ang^3
#
#
#
# Elastic Constant Matrix: (Units=GPa)
#
#
# Indices 1 2 3 4 5 6 
#
# 1 168.4768 24.2465 91.5159 0.0001 0.8733 0.0001
# 2 24.2465 19.4192 23.8037 0.0003 0.6636 -0.0001
# 3 91.5159 23.8037 168.2440 0.0000 2.7898 -0.0001
# 4 0.0001 0.0003 0.0000 15.3204 0.0000 2.3732
# 5 0.8733 0.6636 2.7898 0.0000 33.1972 0.0000
# 6 0.0001 -0.0001 -0.0001 2.3732 0.0000 22.7281
#
#
#
# Elastic Compliance Matrix: (Units=1/GPa)
#
#
# Indices 1 2 3 4 5 6 
#
# 1 0.009032 -0.006361 -0.004016 0.000000 0.000227 0.000000
# 2 -0.006361 0.066789 -0.005978 -0.000001 -0.000665 0.000000
# 3 -0.004016 -0.005978 0.008983 0.000000 -0.000530 0.000000
# 4 0.000000 -0.000001 0.000000 0.066346 0.000000 -0.006928
# 5 0.000227 -0.000665 -0.000530 0.000000 0.030175 0.000000
# 6 0.000000 0.000000 0.000000 -0.006928 0.000000 0.044722
#
#
# Mechanical properties :
#
#
# Convention : Reuss Voigt Hill
#
# Bulk Modulus (GPa) = 19.19697 70.58579 44.89138
# Shear Modulus (GPa) = 18.10800 28.68741 23.39770
#
# Velocity S-wave (km/s) = 3.17049 3.99059 3.60394
# Velocity P-wave (km/s) = 4.90502 7.77279 6.49905
#
# Compressibility (1/GPa) = 0.05209156
#
# Stress axis : x y z
#
# Youngs Moduli (GPa) = 110.72296 14.97259 111.31990
#
# Poissons Ratio (x) = 0.09524 0.44711
# Poissons Ratio (y) = 0.70432 0.66551
# Poissons Ratio (z) = 0.44472 0.08951
#
# Static dielectric constant tensor:
#      x y z
#    x 3.572390 0.000000 0.046300 
#    y 0.000000 2.930490 0.000000 
#    z 0.046300 0.000000 3.739510 
# 
# 
# High freq. dielectric constant tensor:
#      x y z
#    x 1.704550 0.000000 0.002730 
#    y 0.000000 1.650500 0.000000 
#    z 0.002730 0.000000 1.718650 
# 
# From -- ./inp_files/276536.got.cif
#   From: 2010.06.25/outbox.cif.g09.slc.cpg/sg12_139_cif.got.tgz:276536.got - 2010.06.28 00:19:55.
