data_PCOD8082804
_publ_section_title
;
Structure prediction by ZEFSAII (Michael W. Deem and Ramdas Pophale) SiO2 
 PCOD8082804
Probable space group: C 2/M
;
_chemical_formula_sum "Si O2"
_cell_formula_units_Z 64
_cell_length_a 30.645039
_cell_length_b 9.318098
_cell_length_c 19.424780
_cell_angle_alpha 90.000000
_cell_angle_beta 37.551157
_cell_angle_gamma 90.000000
_cell_volume 3380.613839
_symmetry_space_group_name_H-M "C 2/M"
_symmetry_group_IT_number 12
_symmetry_cell_setting 'monoclinic'
loop_
_space_group_symop_operation_xyz
x,y,z
-x,y,-z
-x,-y,-z
x,-y,z
1/2+x,1/2+y,z
1/2-x,1/2+y,-z
1/2-x,1/2-y,-z
1/2+x,1/2-y,z
loop_
_atom_site_type_symbol
_atom_site_label
_atom_site_fract_x
_atom_site_fract_y
_atom_site_fract_z
Si Si1 0.574447 0.166019 0.259297
Si Si2 0.944130 0.166338 0.856258
Si Si3 0.415420 0.165727 0.497118
Si Si4 0.905965 0.834999 0.268365
Si Si5 0.828935 0.329902 0.251649
Si Si6 0.833929 0.330676 0.731349
Si Si7 0.326168 0.663894 0.503166
Si Si8 0.322268 0.666884 0.118691
O O1 0.578194 0.251047 0.184009
O O2 0.500246 0.188431 0.392813
O O3 0.636004 0.227416 0.233397
O O4 0.586428 0.000000 0.225998
O O5 0.020626 0.219418 0.788670
O O6 0.947866 0.000000 0.832135
O O7 0.885649 0.198450 0.987089
O O8 0.380267 0.232603 0.609950
O O9 0.384712 0.243865 0.469154
O O10 0.394231 0.000000 0.516385
O O11 0.891332 0.736696 0.220574
O O12 0.840729 0.817454 0.403795
O O13 0.913716 0.000000 0.234508
O O14 0.838852 0.500000 0.235703
O O15 0.753367 0.283622 0.379365
O O16 0.835646 0.264427 0.167884
O O17 0.844742 0.500000 0.718386
O O18 0.751508 0.285926 0.825689
O O19 0.336702 0.500000 0.512914
O O20 0.319246 0.500000 0.144635
#
# Coordination Sequence:
#
# PCOD8082804 Si02
#       8
#     8   8   8   8   8   8   8   8
#     4  10  20  34  56  85 114 144 182 228 275 321
#     4  10  22  39  58  80 108 146 191 229 266 322
#     4  10  18  31  56  84 110 145 183 220 268 328
#     4  10  21  38  58  79 110 148 181 220 271 331
#     4  11  23  37  57  86 113 138 178 231 279 326
#     4   9  18  34  56  83 113 145 183 225 269 323
#     4  10  20  35  56  82 113 143 175 221 276 328
#     4  10  21  39  60  79 106 149 192 225 266 325
#
# _framework density 18.931471999999999
#
# number of rings (size 3 to 8) (size 9 to 14) (size 15 to 20)
#    0.000    2.000    2.500    1.125    0.000    4.500 
#    0.000    3.750    0.000    1.500    0.000    0.000 
#    0.000    0.000    0.000    0.000    0.000    0.000 
#
# Total GULP energy -396876.248107 kJ/mol
# GULP energy per Si atom -12402.382753 kJ/mol
# Density = 1.888838 g / cm^3
# Si number density = 18.931472 Si / 1000 Ang^3
#
#
#
# Elastic Constant Matrix: (Units=GPa)
#
#
# Indices 1 2 3 4 5 6 
#
# 1 143.0871 53.9911 45.2592 0.0027 15.7936 0.0013
# 2 53.9911 55.9798 33.5609 0.0137 10.3559 -0.0032
# 3 45.2592 33.5609 97.5144 0.0062 3.9748 -0.0044
# 4 0.0027 0.0137 0.0062 20.0273 -0.0012 3.0383
# 5 15.7936 10.3559 3.9748 -0.0012 15.1063 -0.0053
# 6 0.0013 -0.0032 -0.0044 3.0383 -0.0053 28.8513
#
#
#
# Elastic Compliance Matrix: (Units=1/GPa)
#
#
# Indices 1 2 3 4 5 6 
#
# 1 0.011633 -0.008951 -0.002096 0.000005 -0.005475 -0.000003
# 2 -0.008951 0.032512 -0.006579 -0.000020 -0.011199 0.000003
# 3 -0.002096 -0.006579 0.013362 0.000001 0.003185 0.000002
# 4 0.000005 -0.000020 0.000001 0.050743 0.000010 -0.005344
# 5 -0.005475 -0.011199 0.003185 0.000010 0.078761 0.000013
# 6 -0.000003 0.000003 0.000002 -0.005344 0.000013 0.035223
#
#
# Mechanical properties :
#
#
# Convention : Reuss Voigt Hill
#
# Bulk Modulus (GPa) = 44.92945 62.46708 53.69827
# Shear Modulus (GPa) = 18.87476 23.71498 21.29487
#
# Velocity S-wave (km/s) = 3.16096 3.54315 3.35750
# Velocity P-wave (km/s) = 6.09151 7.05738 6.59216
#
# Compressibility (1/GPa) = 0.02225711
#
# Stress axis : x y z
#
# Youngs Moduli (GPa) = 85.95949 30.75759 74.83983
#
# Poissons Ratio (x) = 0.27531 0.15684
# Poissons Ratio (y) = 0.76941 0.49235
# Poissons Ratio (z) = 0.18014 0.20235
#
# Static dielectric constant tensor:
#      x y z
#    x 3.539810 -0.000010 -0.068370 
#    y -0.000010 3.280020 0.000020 
#    z -0.068370 0.000020 3.475840 
# 
# 
# High freq. dielectric constant tensor:
#      x y z
#    x 1.743820 0.000000 -0.000840 
#    y 0.000000 1.714590 0.000000 
#    z -0.000840 0.000000 1.737890 
# 
# From -- ./inp_files/295475.got.cif
#   From: 2010.06.25/outbox.cif.g09.slc.cpg/sg12_148_cif.got.tgz:295475.got - 2010.06.28 00:19:55.
