data_PCOD8082006
_publ_section_title
;
Structure prediction by ZEFSAII (Michael W. Deem and Ramdas Pophale) SiO2 
 PCOD8082006
Probable space group: C 2/M
;
_chemical_formula_sum "Si O2"
_cell_formula_units_Z 56
_cell_length_a 11.641408
_cell_length_b 14.999995
_cell_length_c 17.412417
_cell_angle_alpha 90.000000
_cell_angle_beta 65.509110
_cell_angle_gamma 90.000000
_cell_volume 2767.005707
_symmetry_space_group_name_H-M "C 2/M"
_symmetry_group_IT_number 12
_symmetry_cell_setting 'monoclinic'
loop_
_space_group_symop_operation_xyz
x,y,z
-x,y,-z
-x,-y,-z
x,-y,z
1/2+x,1/2+y,z
1/2-x,1/2+y,-z
1/2-x,1/2-y,-z
1/2+x,1/2-y,z
loop_
_atom_site_type_symbol
_atom_site_label
_atom_site_fract_x
_atom_site_fract_y
_atom_site_fract_z
Si Si1 0.195551 0.899266 0.148403
Si Si2 0.773752 0.401670 0.288265
Si Si3 0.952754 0.164204 0.277540
Si Si4 0.928962 0.215262 0.597953
Si Si5 0.884390 0.603782 0.976091
Si Si6 0.673105 0.896586 0.322072
Si Si7 0.039419 0.353935 0.210131
O O1 0.251334 0.855418 0.210767
O O2 0.044711 0.893149 0.196230
O O3 0.244501 0.000000 0.134243
O O4 0.257683 0.858071 0.053781
O O5 0.708906 0.500000 0.312504
O O6 0.709011 0.333307 0.367025
O O7 0.923088 0.421069 0.256237
O O8 0.816509 0.121002 0.305947
O O9 0.992939 0.165903 0.356044
O O10 0.963734 0.263241 0.244289
O O11 0.914809 0.322918 0.610929
O O12 0.000000 0.195314 0.500000
O O13 0.875627 0.500000 0.958184
O O14 0.900083 0.652412 0.890644
O O15 0.000000 0.625070 0.000000
O O16 0.652238 0.878788 0.237075
O O17 0.638332 0.000000 0.352862
#
# Coordination Sequence:
#
# PCOD8082006 Si02
#       7
#     8   8   8   8   8   8   8
#     4   9  18  33  56  84 114 153 199 246 296 343
#     4  10  18  35  61  88 119 154 196 249 302 350
#     4  10  22  40  61  82 121 160 196 242 301 360
#     4  10  23  42  66  92 118 149 200 254 301 356
#     4  10  18  30  54  87 119 151 199 256 294 334
#     4  11  23  41  63  87 121 166 199 237 302 369
#     4  11  21  36  59  88 120 158 207 244 292 353
#
# _framework density 20.238482999999999
#
# number of rings (size 3 to 8) (size 9 to 14) (size 15 to 20)
#    0.000    1.857    2.857    1.714    0.000    2.286 
#    0.000    0.714    0.000    2.571    0.000    0.000 
#    0.000    0.000    0.000    0.000    0.000    0.000 
#
# Total GULP energy -346872.662122 kJ/mol
# GULP energy per Si atom -12388.309361 kJ/mol
# Density = 2.019242 g / cm^3
# Si number density = 20.238483 Si / 1000 Ang^3
#
#
#
# Elastic Constant Matrix: (Units=GPa)
#
#
# Indices 1 2 3 4 5 6 
#
# 1 100.8548 8.1954 43.6489 0.0000 -3.5791 0.0000
# 2 8.1954 80.2537 28.4996 0.0000 -2.6854 0.0000
# 3 43.6489 28.4996 162.4146 0.0000 -15.6151 0.0000
# 4 0.0000 0.0000 0.0000 -6.1758 0.0000 -13.7510
# 5 -3.5791 -2.6854 -15.6151 0.0000 21.4508 0.0000
# 6 0.0000 0.0000 0.0000 -13.7510 0.0000 21.9312
#
#
#
# Elastic Compliance Matrix: (Units=1/GPa)
#
#
# Indices 1 2 3 4 5 6 
#
# 1 0.011223 -0.000080 -0.003036 0.000000 -0.000347 0.000000
# 2 -0.000080 0.013289 -0.002314 0.000000 -0.000034 0.000000
# 3 -0.003036 -0.002314 0.007852 0.000000 0.004920 0.000000
# 4 0.000000 0.000000 0.000000 -0.067578 0.000000 -0.042372
# 5 -0.000347 -0.000034 0.004920 0.000000 0.050137 0.000000
# 6 0.000000 0.000000 0.000000 -0.042372 0.000000 0.019030
#
#
# Mechanical properties :
#
#
# Convention : Reuss Voigt Hill
#
# Bulk Modulus (GPa) = 46.49847 56.02342 51.26094
# Shear Modulus (GPa) = 96.19036 24.98653 60.58845
#
# Velocity S-wave (km/s) = 6.90157 3.51751 5.47743
# Velocity P-wave (km/s) = 9.30236 6.65123 8.08619
#
# Compressibility (1/GPa) = 0.02150609
#
# Stress axis : x y z
#
# Youngs Moduli (GPa) = 89.10131 75.24936 127.35777
#
# Poissons Ratio (x) = 0.00600 0.38661
# Poissons Ratio (y) = 0.00710 0.29467
# Poissons Ratio (z) = 0.27048 0.17411
#
# Static dielectric constant tensor:
#      x y z
#    x 3.614820 0.000000 -0.095720 
#    y 0.000000 3.704710 0.000000 
#    z -0.095720 0.000000 3.617670 
# 
# 
# High freq. dielectric constant tensor:
#      x y z
#    x 1.780900 0.000000 -0.008000 
#    y 0.000000 1.790320 0.000000 
#    z -0.008000 0.000000 1.776800 
# 
# From -- ./inp_files/262836.got.cif
#   From: 2010.06.25/outbox.cif.g09.slc.cpg/sg12_132_cif.got.tgz:262836.got - 2010.06.28 00:19:55.
