data_PCOD8082052
_publ_section_title
;
Structure prediction by ZEFSAII (Michael W. Deem and Ramdas Pophale) SiO2 
 PCOD8082052
Probable space group: C 2/M
;
_chemical_formula_sum "Si O2"
_cell_formula_units_Z 64
_cell_length_a 28.323409
_cell_length_b 8.975040
_cell_length_c 15.599324
_cell_angle_alpha 90.000000
_cell_angle_beta 90.503670
_cell_angle_gamma 90.000000
_cell_volume 3965.253111
_symmetry_space_group_name_H-M "C 2/M"
_symmetry_group_IT_number 12
_symmetry_cell_setting 'monoclinic'
loop_
_space_group_symop_operation_xyz
x,y,z
-x,y,-z
-x,-y,-z
x,-y,z
1/2+x,1/2+y,z
1/2-x,1/2+y,-z
1/2-x,1/2-y,-z
1/2+x,1/2-y,z
loop_
_atom_site_type_symbol
_atom_site_label
_atom_site_fract_x
_atom_site_fract_y
_atom_site_fract_z
Si Si1 0.190676 0.677153 0.671003
Si Si2 0.359185 0.675422 0.172271
Si Si3 0.297802 0.326557 0.683468
Si Si4 0.946901 0.327637 0.901204
Si Si5 0.800345 0.825516 0.495769
Si Si6 0.946345 0.673405 0.098139
Si Si7 0.142130 0.176498 0.159260
Si Si8 0.199579 0.175255 0.995094
O O1 0.187831 0.500000 0.665986
O O2 0.157785 0.736649 0.745190
O O3 0.244262 0.736933 0.686570
O O4 0.171036 0.745285 0.580529
O O5 0.357368 0.500000 0.189196
O O6 0.412709 0.724459 0.155036
O O7 0.326349 0.723321 0.092338
O O8 0.293067 0.500000 0.702479
O O9 0.322707 0.299229 0.591012
O O10 0.330198 0.254963 0.758225
O O11 0.934519 0.500000 0.892373
O O12 0.911208 0.236456 0.840838
O O13 0.000117 0.296502 0.870360
O O14 0.941076 0.277075 0.999480
O O15 0.750000 0.750000 0.500000
O O16 0.795459 0.000000 0.475745
O O17 0.933229 0.500000 0.109052
O O18 0.168591 0.232645 0.074331
O O19 0.139718 0.000000 0.163565
O O20 0.206816 0.000000 0.000481
O O21 0.250000 0.250000 0.000000
#
# Coordination Sequence:
#
# PCOD8082052 Si02
#       8
#     8   8   8   8   8   8   8   8
#     4  10  19  32  49  68  93 130 164 196 239 282
#     4  11  21  32  46  70  96 122 160 200 235 276
#     4   8  16  29  47  68  94 127 159 189 231 279
#     4   9  18  32  49  69  90 118 157 198 238 279
#     4   9  16  29  47  69  95 124 159 200 238 278
#     4   9  18  33  50  66  90 122 156 195 240 285
#     4  10  18  31  47  67  94 125 158 192 230 277
#     4  10  21  32  43  63  94 130 163 192 224 268
#
# _framework density 16.140205999999999
#
# number of rings (size 3 to 8) (size 9 to 14) (size 15 to 20)
#    0.000    2.500    1.250    3.375    0.000    3.000 
#    0.000    5.000    0.000    0.000    0.000    0.875 
#    0.000    7.000    0.000    0.000    0.000    0.000 
#
# Total GULP energy -396691.782825 kJ/mol
# GULP energy per Si atom -12396.618213 kJ/mol
# Density = 1.610347 g / cm^3
# Si number density = 16.140206 Si / 1000 Ang^3
#
#
#
# Elastic Constant Matrix: (Units=GPa)
#
#
# Indices 1 2 3 4 5 6 
#
# 1 83.5139 29.2756 40.7066 0.0000 -6.8852 0.0000
# 2 29.2756 53.6192 40.8641 0.0000 -4.8840 0.0000
# 3 40.7066 40.8641 114.1909 0.0000 -9.1736 0.0000
# 4 0.0000 0.0000 0.0000 22.3258 0.0000 -2.8176
# 5 -6.8852 -4.8840 -9.1736 0.0000 13.5134 0.0000
# 6 0.0000 0.0000 0.0000 -2.8176 0.0000 27.5290
#
#
#
# Elastic Compliance Matrix: (Units=1/GPa)
#
#
# Indices 1 2 3 4 5 6 
#
# 1 0.015938 -0.005857 -0.003283 0.000000 0.003776 0.000000
# 2 -0.005857 0.027929 -0.007759 0.000000 0.001843 0.000000
# 3 -0.003283 -0.007759 0.013056 0.000000 0.004387 0.000000
# 4 0.000000 0.000000 0.000000 0.045377 0.000000 0.004644
# 5 0.003776 0.001843 0.004387 0.000000 0.079568 0.000000
# 6 0.000000 0.000000 0.000000 0.004644 0.000000 0.036801
#
#
# Mechanical properties :
#
#
# Convention : Reuss Voigt Hill
#
# Bulk Modulus (GPa) = 43.23827 52.55740 47.89784
# Shear Modulus (GPa) = 19.21788 22.03882 20.62835
#
# Velocity S-wave (km/s) = 3.45437 3.69922 3.57889
# Velocity P-wave (km/s) = 6.53893 7.13298 6.84240
#
# Compressibility (1/GPa) = 0.02312766
#
# Stress axis : x y z
#
# Youngs Moduli (GPa) = 62.74186 35.80559 76.59139
#
# Poissons Ratio (x) = 0.20970 0.25141
# Poissons Ratio (y) = 0.36746 0.59425
# Poissons Ratio (z) = 0.20595 0.27780
#
# Static dielectric constant tensor:
#      x y z
#    x 2.945930 0.000000 0.097190 
#    y 0.000000 2.998920 0.000000 
#    z 0.097190 0.000000 3.339210 
# 
# 
# High freq. dielectric constant tensor:
#      x y z
#    x 1.597460 0.000000 -0.000800 
#    y 0.000000 1.616520 0.000000 
#    z -0.000800 0.000000 1.615980 
# 
# From -- ./inp_files/243979.got.cif
#   From: 2010.06.25/outbox.cif.g09.slc.cpg/sg12_122_cif.got.tgz:243979.got - 2010.06.28 00:19:55.
