data_PCOD8082833
_publ_section_title
;
Structure prediction by ZEFSAII (Michael W. Deem and Ramdas Pophale) SiO2 
 PCOD8082833
Probable space group: C 2/M
;
_chemical_formula_sum "Si O2"
_cell_formula_units_Z 40
_cell_length_a 18.231817
_cell_length_b 12.059593
_cell_length_c 18.377683
_cell_angle_alpha 90.000000
_cell_angle_beta 32.668749
_cell_angle_gamma 90.000000
_cell_volume 2181.077797
_symmetry_space_group_name_H-M "C 2/M"
_symmetry_group_IT_number 12
_symmetry_cell_setting 'monoclinic'
loop_
_space_group_symop_operation_xyz
x,y,z
-x,y,-z
-x,-y,-z
x,-y,z
1/2+x,1/2+y,z
1/2-x,1/2+y,-z
1/2-x,1/2-y,-z
1/2+x,1/2-y,z
loop_
_atom_site_type_symbol
_atom_site_label
_atom_site_fract_x
_atom_site_fract_y
_atom_site_fract_z
Si Si1 0.997186 0.500000 0.163360
Si Si2 0.411201 0.368853 0.003320
Si Si3 0.204390 0.500000 0.871088
Si Si4 0.000000 0.179280 0.500000
Si Si5 0.354113 0.270562 0.761500
Si Si6 0.089523 0.265832 0.133767
Si Si7 0.712915 0.500000 0.354819
O O1 0.055092 0.393431 0.154368
O O2 0.833627 0.500000 0.312667
O O3 0.055721 0.500000 0.031644
O O4 0.409569 0.500000 0.991311
O O5 0.259319 0.325244 0.143003
O O6 0.500000 0.337075 0.000000
O O7 0.474651 0.309186 0.877860
O O8 0.288339 0.391471 0.823208
O O9 0.191335 0.500000 0.795932
O O10 0.937644 0.251201 0.617385
O O11 0.882320 0.106722 0.560611
O O12 0.456729 0.265030 0.745277
O O13 0.250000 0.250000 0.000000
#
# Coordination Sequence:
#
# PCOD8082833 Si02
#       7
#     4   8   4   4   8   8   4
#     4  12  20  33  58  90 117 135 184 237 297 332
#     4  10  22  36  56  85 118 145 181 230 283 337
#     4  10  18  31  58  89 108 138 181 233 298 341
#     4   9  20  40  55  78 112 154 191 229 284 324
#     4  10  21  35  60  79 113 152 190 228 279 337
#     4  10  22  33  57  86 114 146 176 233 287 341
#     4   9  21  34  56  84 114 138 182 247 281 332
#
# _framework density 18.339556999999999
#
# number of rings (size 3 to 8) (size 9 to 14) (size 15 to 20)
#    0.000    2.000    4.000    0.900   12.600    0.000 
#    0.000    1.500    0.000    0.000    0.000    0.000 
#    0.000    0.000    0.000    0.000    0.000    0.000 
#
# Total GULP energy -247793.703772 kJ/mol
# GULP energy per Si atom -12389.685189 kJ/mol
# Density = 1.829782 g / cm^3
# Si number density = 18.339557 Si / 1000 Ang^3
#
#
#
# Elastic Constant Matrix: (Units=GPa)
#
#
# Indices 1 2 3 4 5 6 
#
# 1 118.1634 51.3866 39.0833 0.0000 11.6086 0.0000
# 2 51.3866 111.7235 21.6496 0.0000 4.3639 0.0000
# 3 39.0833 21.6496 88.4446 0.0001 13.9599 0.0000
# 4 0.0000 0.0000 0.0001 17.3197 0.0000 2.7675
# 5 11.6086 4.3639 13.9599 0.0000 35.9634 0.0000
# 6 0.0000 0.0000 0.0000 2.7675 0.0000 5.0837
#
#
#
# Elastic Compliance Matrix: (Units=1/GPa)
#
#
# Indices 1 2 3 4 5 6 
#
# 1 0.011948 -0.004679 -0.003851 0.000000 -0.001794 0.000000
# 2 -0.004679 0.011231 -0.000751 0.000000 0.000439 0.000000
# 3 -0.003851 -0.000751 0.013829 0.000000 -0.004034 0.000000
# 4 0.000000 0.000000 0.000000 0.063238 0.000000 -0.034426
# 5 -0.001794 0.000439 -0.004034 0.000000 0.029898 0.000000
# 6 0.000000 0.000000 0.000000 -0.034426 0.000000 0.215446
#
#
# Mechanical properties :
#
#
# Convention : Reuss Voigt Hill
#
# Bulk Modulus (GPa) = 54.21330 60.28561 57.24945
# Shear Modulus (GPa) = 13.50255 25.42083 19.46169
#
# Velocity S-wave (km/s) = 2.71634 3.72710 3.26112
# Velocity P-wave (km/s) = 6.28196 7.17391 6.74270
#
# Compressibility (1/GPa) = 0.01844566
#
# Stress axis : x y z
#
# Youngs Moduli (GPa) = 83.69855 89.03876 72.31289
#
# Poissons Ratio (x) = 0.41660 0.27849
# Poissons Ratio (y) = 0.39162 0.05430
# Poissons Ratio (z) = 0.32234 0.06685
#
# Static dielectric constant tensor:
#      x y z
#    x 3.827750 0.000000 0.453320 
#    y 0.000000 3.370210 0.000000 
#    z 0.453320 0.000000 3.486840 
# 
# 
# High freq. dielectric constant tensor:
#      x y z
#    x 1.715850 0.000000 0.014770 
#    y 0.000000 1.706720 0.000000 
#    z 0.014770 0.000000 1.686270 
# 
# From -- ./inp_files/152786.got.cif
#   From: 2010.06.25/outbox.cif.g09.slc.cpg/sg12_77_cif.got.tgz:152786.got - 2010.06.28 00:19:55.
