data_PCOD8082282
_publ_section_title
;
Structure prediction by ZEFSAII (Michael W. Deem and Ramdas Pophale) SiO2 
 PCOD8082282
Probable space group: C 2/M
;
_chemical_formula_sum "Si O2"
_cell_formula_units_Z 48
_cell_length_a 28.054435
_cell_length_b 8.747779
_cell_length_c 11.442662
_cell_angle_alpha 90.000000
_cell_angle_beta 77.745004
_cell_angle_gamma 90.000000
_cell_volume 2744.198091
_symmetry_space_group_name_H-M "C 2/M"
_symmetry_group_IT_number 12
_symmetry_cell_setting 'monoclinic'
loop_
_space_group_symop_operation_xyz
x,y,z
-x,y,-z
-x,-y,-z
x,-y,z
1/2+x,1/2+y,z
1/2-x,1/2+y,-z
1/2-x,1/2-y,-z
1/2+x,1/2-y,z
loop_
_atom_site_type_symbol
_atom_site_label
_atom_site_fract_x
_atom_site_fract_y
_atom_site_fract_z
Si Si1 0.843483 0.820900 0.788458
Si Si2 0.522655 0.820973 0.650532
Si Si3 0.952898 0.677834 0.097255
Si Si4 0.142349 0.820120 0.957499
Si Si5 0.570203 0.318571 0.413928
Si Si6 0.261476 0.821138 0.117947
O O1 0.880143 0.755593 0.671616
O O2 0.787243 0.786022 0.779392
O O3 0.852722 0.000000 0.792719
O O4 0.855987 0.753201 0.910776
O O5 0.539007 0.782467 0.772186
O O6 0.474227 0.725277 0.647959
O O7 0.565351 0.766919 0.540534
O O8 0.511926 0.000000 0.639000
O O9 0.942079 0.500000 0.082647
O O10 0.907243 0.773685 0.078088
O O11 0.000000 0.730323 0.000000
O O12 0.188601 0.753387 0.859511
O O13 0.147608 0.000000 0.954181
O O14 0.570503 0.500000 0.434028
O O15 0.269825 0.000000 0.101088
O O16 0.250000 0.750000 0.000000
#
# Coordination Sequence:
#
# PCOD8082282 Si02
#       6
#     8   8   8   8   8   8
#     4   8  16  29  47  72  97 122 154 193 233 275
#     4  10  20  33  47  68  97 124 155 194 236 277
#     4  10  21  35  50  69  95 128 161 192 233 285
#     4  10  19  31  48  72 100 127 157 194 238 283
#     4  10  18  31  51  71  93 123 159 193 230 277
#     4   9  16  29  47  69  98 127 157 194 237 280
#
# _framework density 17.49145
#
# number of rings (size 3 to 8) (size 9 to 14) (size 15 to 20)
#    0.000    2.500    0.000    5.000    0.000    1.667 
#    0.000    9.167    0.000    1.000    0.000    0.000 
#    0.000    0.000    0.000    0.000    0.000    0.000 
#
# Total GULP energy -297467.737837 kJ/mol
# GULP energy per Si atom -12394.489077 kJ/mol
# Density = 1.745164 g / cm^3
# Si number density = 17.491450 Si / 1000 Ang^3
#
#
#
# Elastic Constant Matrix: (Units=GPa)
#
#
# Indices 1 2 3 4 5 6 
#
# 1 126.7480 37.1900 67.6469 0.0000 -24.7838 0.0000
# 2 37.1900 57.6885 29.7656 0.0000 -4.9470 0.0000
# 3 67.6469 29.7656 106.2802 0.0000 -17.8072 0.0000
# 4 0.0000 0.0000 0.0000 19.8788 0.0000 2.6343
# 5 -24.7838 -4.9470 -17.8072 0.0000 31.0277 0.0000
# 6 0.0000 0.0000 0.0000 2.6343 0.0000 28.3436
#
#
#
# Elastic Compliance Matrix: (Units=1/GPa)
#
#
# Indices 1 2 3 4 5 6 
#
# 1 0.014188 -0.005251 -0.006419 0.000000 0.006812 0.000000
# 2 -0.005251 0.022206 -0.003304 0.000000 -0.002550 0.000000
# 3 -0.006419 -0.003304 0.014906 0.000000 0.002901 0.000000
# 4 0.000000 0.000000 0.000000 0.050932 0.000000 -0.004734
# 5 0.006812 -0.002550 0.002901 0.000000 0.038929 0.000000
# 6 0.000000 0.000000 0.000000 -0.004734 0.000000 0.035721
#
#
# Mechanical properties :
#
#
# Convention : Reuss Voigt Hill
#
# Bulk Modulus (GPa) = 46.83317 62.21353 54.52335
# Shear Modulus (GPa) = 23.37031 26.25763 24.81397
#
# Velocity S-wave (km/s) = 3.65923 3.87870 3.77056
# Velocity P-wave (km/s) = 6.68478 7.46353 7.08486
#
# Compressibility (1/GPa) = 0.02135239
#
# Stress axis : x y z
#
# Youngs Moduli (GPa) = 70.48206 45.03369 67.08662
#
# Poissons Ratio (x) = 0.23645 0.43061
# Poissons Ratio (y) = 0.37007 0.22168
# Poissons Ratio (z) = 0.45241 0.14881
#
# Static dielectric constant tensor:
#      x y z
#    x 3.560230 0.000000 -0.399050 
#    y 0.000000 3.254150 0.000000 
#    z -0.399050 0.000000 3.330570 
# 
# 
# High freq. dielectric constant tensor:
#      x y z
#    x 1.678720 0.000000 -0.023400 
#    y 0.000000 1.675090 0.000000 
#    z -0.023400 0.000000 1.652660 
# 
# From -- ./inp_files/179218.got.cif
#   From: 2010.06.25/outbox.cif.g09.slc.cpg/sg12_90_cif.got.tgz:179218.got - 2010.06.28 00:19:55.
