data_PCOD8082432
_publ_section_title
;
Structure prediction by ZEFSAII (Michael W. Deem and Ramdas Pophale) SiO2 
 PCOD8082432
Probable space group: C 2/M
;
_chemical_formula_sum "Si O2"
_cell_formula_units_Z 40
_cell_length_a 12.487037
_cell_length_b 14.292659
_cell_length_c 14.101479
_cell_angle_alpha 90.000000
_cell_angle_beta 124.186148
_cell_angle_gamma 90.000000
_cell_volume 2081.882686
_symmetry_space_group_name_H-M "C 2/M"
_symmetry_group_IT_number 12
_symmetry_cell_setting 'monoclinic'
loop_
_space_group_symop_operation_xyz
x,y,z
-x,y,-z
-x,-y,-z
x,-y,z
1/2+x,1/2+y,z
1/2-x,1/2+y,-z
1/2-x,1/2-y,-z
1/2+x,1/2-y,z
loop_
_atom_site_type_symbol
_atom_site_label
_atom_site_fract_x
_atom_site_fract_y
_atom_site_fract_z
Si Si1 0.405658 0.605079 0.225590
Si Si2 0.869726 0.107388 0.985575
Si Si3 0.186537 0.707286 0.761563
Si Si4 0.298870 0.608374 0.637700
Si Si5 0.050671 0.397043 0.418557
O O1 0.364706 0.500000 0.235692
O O2 0.318328 0.679441 0.239353
O O3 0.555806 0.623150 0.325447
O O4 0.384158 0.620488 0.104080
O O5 0.750588 0.169579 0.889799
O O6 0.843193 0.000000 0.944423
O O7 0.000000 0.143093 0.000000
O O8 0.269800 0.673301 0.713734
O O9 0.036937 0.672645 0.686524
O O10 0.276584 0.500000 0.657923
O O11 0.201968 0.634107 0.501995
O O12 0.040035 0.500000 0.367031
O O13 0.000000 0.398955 0.500000
#
# Coordination Sequence:
#
# PCOD8082432 Si02
#       5
#     8   8   8   8   8
#     4  10  21  33  48  73 101 130 161 198 240 286
#     4  10  18  31  52  75  97 122 159 205 245 283
#     4  11  18  29  52  75  98 126 163 199 242 286
#     4   9  17  33  53  75 100 125 159 203 245 282
#     4   8  15  27  48  76 100 121 155 204 246 278
#
# _framework density 19.213379
#
# number of rings (size 3 to 8) (size 9 to 14) (size 15 to 20)
#    0.000    2.400    2.000    3.600    0.000    0.800 
#    0.000    0.000    0.000    9.600    0.000    0.000 
#    0.000    0.000    0.000    0.000    0.000    0.000 
#
# Total GULP energy -247919.048296 kJ/mol
# GULP energy per Si atom -12395.952415 kJ/mol
# Density = 1.916965 g / cm^3
# Si number density = 19.213379 Si / 1000 Ang^3
#
#
#
# Elastic Constant Matrix: (Units=GPa)
#
#
# Indices 1 2 3 4 5 6 
#
# 1 31.8317 34.6347 11.5158 0.0000 7.5244 0.0000
# 2 34.6347 120.1405 34.8571 0.0000 12.1186 0.0000
# 3 11.5158 34.8571 92.8707 0.0000 31.5604 0.0000
# 4 0.0000 0.0000 0.0000 -1.4332 0.0000 1.1372
# 5 7.5244 12.1186 31.5604 0.0000 20.7759 0.0000
# 6 0.0000 0.0000 0.0000 1.1372 0.0000 26.6992
#
#
#
# Elastic Compliance Matrix: (Units=1/GPa)
#
#
# Indices 1 2 3 4 5 6 
#
# 1 0.048594 -0.013715 0.004929 0.000000 -0.017086 0.000000
# 2 -0.013715 0.013213 -0.004811 0.000000 0.004569 0.000000
# 3 0.004929 -0.004811 0.024010 0.000000 -0.035452 0.000000
# 4 0.000000 0.000000 0.000000 -0.674909 0.000000 0.028745
# 5 -0.017086 0.004569 -0.035452 0.000000 0.105510 0.000000
# 6 0.000000 0.000000 0.000000 0.028745 0.000000 0.036230
#
#
# Mechanical properties :
#
#
# Convention : Reuss Voigt Hill
#
# Bulk Modulus (GPa) = 17.05878 45.20646 31.13262
# Shear Modulus (GPa) = -12.48076 20.13075 3.82500
#
# Velocity S-wave (km/s) = -2.55146 3.24040 1.41249
# Velocity P-wave (km/s) = 0.46681 6.13025 4.34729
#
# Compressibility (1/GPa) = 0.05862085
#
# Stress axis : x y z
#
# Youngs Moduli (GPa) = 20.57861 75.68571 41.64970
#
# Poissons Ratio (x) = 1.03807 -0.20527
# Poissons Ratio (y) = 0.28225 0.20037
# Poissons Ratio (z) = -0.10142 0.36412
#
# Static dielectric constant tensor:
#      x y z
#    x 3.059530 0.000000 0.480680 
#    y 0.000000 3.512100 0.000000 
#    z 0.480680 0.000000 3.831450 
# 
# 
# High freq. dielectric constant tensor:
#      x y z
#    x 1.695440 0.000000 0.030190 
#    y 0.000000 1.743010 0.000000 
#    z 0.030190 0.000000 1.758310 
# 
# From -- ./inp_files/129567.got.cif
#   From: 2010.06.25/outbox.cif.g09.slc.cpg/sg12_65_cif.got.tgz:129567.got - 2010.06.28 00:19:55.
