data_PCOD8082516
_publ_section_title
;
Structure prediction by ZEFSAII (Michael W. Deem and Ramdas Pophale) SiO2 
 PCOD8082516
Probable space group: C 2/M
;
_chemical_formula_sum "Si O2"
_cell_formula_units_Z 64
_cell_length_a 21.701853
_cell_length_b 23.597864
_cell_length_c 18.743856
_cell_angle_alpha 90.000000
_cell_angle_beta 159.348829
_cell_angle_gamma 90.000000
_cell_volume 3385.370537
_symmetry_space_group_name_H-M "C 2/M"
_symmetry_group_IT_number 12
_symmetry_cell_setting 'monoclinic'
loop_
_space_group_symop_operation_xyz
x,y,z
-x,y,-z
-x,-y,-z
x,-y,z
1/2+x,1/2+y,z
1/2-x,1/2+y,-z
1/2-x,1/2-y,-z
1/2+x,1/2-y,z
loop_
_atom_site_type_symbol
_atom_site_label
_atom_site_fract_x
_atom_site_fract_y
_atom_site_fract_z
Si Si1 0.981121 0.306691 0.562469
Si Si2 0.054951 0.179354 0.640750
Si Si3 0.579738 0.844215 0.905818
Si Si4 0.903709 0.160272 0.820812
Si Si5 0.508434 0.719323 0.798290
Si Si6 0.220516 0.626822 0.920825
Si Si7 0.802764 0.858127 0.485994
Si Si8 0.046771 0.065263 0.234469
O O1 0.049540 0.244791 0.660275
O O2 0.782161 0.311552 0.369404
O O3 0.000000 0.316362 0.500000
O O4 0.091207 0.356469 0.717602
O O5 0.919314 0.142671 0.540747
O O6 0.000000 0.172822 0.500000
O O7 0.254199 0.157117 0.861871
O O8 0.548163 0.784620 0.830890
O O9 0.614553 0.888452 0.878472
O O10 0.403639 0.861007 0.757773
O O11 0.007637 0.203687 0.881921
O O12 0.890528 0.099247 0.767917
O O13 0.000000 0.153459 0.000000
O O14 0.331765 0.699011 0.565650
O O15 0.656190 0.679718 0.921884
O O16 0.338921 0.574630 0.022057
O O17 0.850445 0.913359 0.584168
O O18 0.087841 0.000000 0.265686
#
# Coordination Sequence:
#
# PCOD8082516 Si02
#       8
#     8   8   8   8   8   8   8   8
#     4  11  20  33  51  82 125 159 189 222 265 340
#     4  11  23  35  54  88 126 156 182 221 277 340
#     4  12  19  34  57  82 119 151 186 228 273 346
#     4  10  21  35  53  80 116 158 196 227 277 329
#     4  10  18  31  52  79 115 151 186 219 262 334
#     4  10  18  33  56  79 106 151 186 233 285 325
#     4  10  21  37  56  83 110 149 191 231 287 333
#     4  10  22  41  60  79 106 141 194 256 296 330
#
# _framework density 18.904872999999998
#
# number of rings (size 3 to 8) (size 9 to 14) (size 15 to 20)
#    0.000    1.750    3.750    5.250    1.750    0.750 
#    0.000    2.500    0.000    1.875    0.000    0.875 
#    0.000    0.000    0.000    0.000    0.000    0.000 
#
# Total GULP energy -396740.751509 kJ/mol
# GULP energy per Si atom -12398.148485 kJ/mol
# Density = 1.886185 g / cm^3
# Si number density = 18.904873 Si / 1000 Ang^3
#
#
#
# Elastic Constant Matrix: (Units=GPa)
#
#
# Indices 1 2 3 4 5 6 
#
# 1 89.0957 17.8193 41.1096 0.0001 3.5309 -0.0003
# 2 17.8193 39.0871 12.5787 0.0002 -3.8752 0.0000
# 3 41.1096 12.5787 124.5748 0.0003 8.7872 -0.0007
# 4 0.0001 0.0002 0.0003 11.3917 0.0001 0.1151
# 5 3.5309 -3.8752 8.7872 0.0001 28.8535 -0.0004
# 6 -0.0003 0.0000 -0.0007 0.1151 -0.0004 18.5329
#
#
#
# Elastic Compliance Matrix: (Units=1/GPa)
#
#
# Indices 1 2 3 4 5 6 
#
# 1 0.014207 -0.005287 -0.004069 0.000000 -0.001209 0.000000
# 2 -0.005287 0.028985 -0.001535 0.000000 0.005007 0.000000
# 3 -0.004069 -0.001535 0.009713 0.000000 -0.002666 0.000000
# 4 0.000000 0.000000 0.000000 0.087789 0.000000 -0.000545
# 5 -0.001209 0.005007 -0.002666 0.000000 0.036290 0.000001
# 6 0.000000 0.000000 0.000000 -0.000545 0.000001 0.053961
#
#
# Mechanical properties :
#
#
# Convention : Reuss Voigt Hill
#
# Bulk Modulus (GPa) = 32.13162 43.97476 38.05319
# Shear Modulus (GPa) = 19.00403 23.83895 21.42149
#
# Velocity S-wave (km/s) = 3.17400 3.55490 3.36984
# Velocity P-wave (km/s) = 5.51958 6.33730 5.94252
#
# Compressibility (1/GPa) = 0.03112200
#
# Stress axis : x y z
#
# Youngs Moduli (GPa) = 70.38910 34.50099 102.95294
#
# Poissons Ratio (x) = 0.18241 0.41892
# Poissons Ratio (y) = 0.37215 0.15805
# Poissons Ratio (z) = 0.28642 0.05296
#
# Static dielectric constant tensor:
#      x y z
#    x 3.381700 0.000000 0.223080 
#    y 0.000000 2.929040 0.000000 
#    z 0.223080 0.000000 3.634950 
# 
# 
# High freq. dielectric constant tensor:
#      x y z
#    x 1.742140 0.000000 0.010770 
#    y 0.000000 1.671250 0.000000 
#    z 0.010770 0.000000 1.747430 
# 
# From -- ./inp_files/286712.got.cif
#   From: 2010.06.25/outbox.cif.g09.slc.cpg/sg12_144_cif.got.tgz:286712.got - 2010.06.28 00:19:55.
