data_PCOD8082198
_publ_section_title
;
Structure prediction by ZEFSAII (Michael W. Deem and Ramdas Pophale) SiO2 
 PCOD8082198
Probable space group: C 2/M
;
_chemical_formula_sum "Si O2"
_cell_formula_units_Z 64
_cell_length_a 7.630872
_cell_length_b 26.822112
_cell_length_c 21.348712
_cell_angle_alpha 90.000000
_cell_angle_beta 58.023626
_cell_angle_gamma 90.000000
_cell_volume 3706.561018
_symmetry_space_group_name_H-M "C 2/M"
_symmetry_group_IT_number 12
_symmetry_cell_setting 'monoclinic'
loop_
_space_group_symop_operation_xyz
x,y,z
-x,y,-z
-x,-y,-z
x,-y,z
1/2+x,1/2+y,z
1/2-x,1/2+y,-z
1/2-x,1/2-y,-z
1/2+x,1/2-y,z
loop_
_atom_site_type_symbol
_atom_site_label
_atom_site_fract_x
_atom_site_fract_y
_atom_site_fract_z
Si Si1 0.066458 0.284870 0.553431
Si Si2 0.551785 0.853193 0.663346
Si Si3 0.680659 0.557280 0.012980
Si Si4 0.918826 0.895141 0.840578
Si Si5 0.360755 0.942212 0.752513
Si Si6 0.045472 0.557076 0.851061
Si Si7 0.825362 0.213113 0.691811
Si Si8 0.391841 0.695777 0.247784
O O1 0.250000 0.250000 0.500000
O O2 0.000000 0.308145 0.500000
O O3 0.135536 0.333315 0.580739
O O4 0.900019 0.250580 0.621978
O O5 0.519689 0.912748 0.676115
O O6 0.712231 0.835033 0.685726
O O7 0.325432 0.831423 0.715231
O O8 0.652649 0.500000 0.040744
O O9 0.669271 0.593531 0.074312
O O10 0.500000 0.572166 0.000000
O O11 0.899543 0.565295 0.938634
O O12 0.748737 0.909388 0.820569
O O13 0.123673 0.926973 0.787162
O O14 0.958327 0.835324 0.826970
O O15 0.420618 0.928241 0.812397
O O16 0.389135 0.000000 0.731842
O O17 0.117205 0.500000 0.833797
O O18 0.653108 0.246432 0.762740
O O19 0.011559 0.194999 0.700259
#
# Coordination Sequence:
#
# PCOD8082198 Si02
#       8
#     8   8   8   8   8   8   8   8
#     4  11  18  30  51  80 106 128 160 207 257 307
#     4  10  20  33  51  76 107 137 165 208 259 295
#     4  10  18  31  50  72 102 134 169 219 266 306
#     4  11  20  31  48  77 103 136 170 210 263 314
#     4  10  20  34  51  75 105 138 175 209 249 309
#     4  10  19  31  50  74 101 135 171 215 265 305
#     4  11  18  35  52  75 107 132 165 209 257 309
#     4  10  20  31  50  74 103 135 169 207 258 308
#
# _framework density 17.266680000000001
#
# number of rings (size 3 to 8) (size 9 to 14) (size 15 to 20)
#    0.000    1.625    5.000    3.000    0.000    1.000 
#    0.000    0.000    0.000    0.375    0.000   14.000 
#    0.000    0.000    0.000    0.000    0.000    0.000 
#
# Total GULP energy -396505.116697 kJ/mol
# GULP energy per Si atom -12390.784897 kJ/mol
# Density = 1.722738 g / cm^3
# Si number density = 17.266680 Si / 1000 Ang^3
#
#
#
# Elastic Constant Matrix: (Units=GPa)
#
#
# Indices 1 2 3 4 5 6 
#
# 1 80.7797 1.8288 3.1832 0.0000 -1.4616 0.0000
# 2 1.8288 55.9829 27.7843 0.0000 -7.5215 0.0000
# 3 3.1832 27.7843 58.5846 0.0000 2.8122 0.0000
# 4 0.0000 0.0000 0.0000 32.0777 0.0000 -3.1701
# 5 -1.4616 -7.5215 2.8122 0.0000 20.5826 0.0000
# 6 0.0000 0.0000 0.0000 -3.1701 0.0000 16.3547
#
#
#
# Elastic Compliance Matrix: (Units=1/GPa)
#
#
# Indices 1 2 3 4 5 6 
#
# 1 0.012426 0.000121 -0.000782 0.000000 0.001034 0.000000
# 2 0.000121 0.025661 -0.012711 0.000000 0.011123 0.000000
# 3 -0.000782 -0.012711 0.023520 0.000000 -0.007914 0.000000
# 4 0.000000 0.000000 0.000000 0.031783 0.000000 0.006161
# 5 0.001034 0.011123 -0.007914 0.000000 0.053804 0.000000
# 6 0.000000 0.000000 0.000000 0.006161 0.000000 0.062339
#
#
# Mechanical properties :
#
#
# Convention : Reuss Voigt Hill
#
# Bulk Modulus (GPa) = 28.68299 28.99332 28.83816
# Shear Modulus (GPa) = 20.16961 24.63972 22.40467
#
# Velocity S-wave (km/s) = 3.42149 3.78168 3.60608
# Velocity P-wave (km/s) = 5.67949 5.99133 5.83749
#
# Compressibility (1/GPa) = 0.03486387
#
# Stress axis : x y z
#
# Youngs Moduli (GPa) = 80.47558 38.96922 42.51726
#
# Poissons Ratio (x) = -0.00472 0.03326
# Poissons Ratio (y) = -0.00975 0.54042
# Poissons Ratio (z) = 0.06295 0.49532
#
# Static dielectric constant tensor:
#      x y z
#    x 3.430010 0.000000 -0.091830 
#    y 0.000000 3.412180 0.000000 
#    z -0.091830 0.000000 3.077840 
# 
# 
# High freq. dielectric constant tensor:
#      x y z
#    x 1.692120 0.000000 0.005230 
#    y 0.000000 1.644300 0.000000 
#    z 0.005230 0.000000 1.634560 
# 
# From -- ./inp_files/302556.got.cif
#   From: 2010.06.25/outbox.cif.g09.slc.cpg/sg12_152_cif.got.tgz:302556.got - 2010.06.28 00:19:55.
