data_PCOD8082475
_publ_section_title
;
Structure prediction by ZEFSAII (Michael W. Deem and Ramdas Pophale) SiO2 
 PCOD8082475
Probable space group: C 2/M
;
_chemical_formula_sum "Si O2"
_cell_formula_units_Z 56
_cell_length_a 31.211410
_cell_length_b 9.173420
_cell_length_c 11.853762
_cell_angle_alpha 90.000000
_cell_angle_beta 62.792445
_cell_angle_gamma 90.000000
_cell_volume 3018.398348
_symmetry_space_group_name_H-M "C 2/M"
_symmetry_group_IT_number 12
_symmetry_cell_setting 'monoclinic'
loop_
_space_group_symop_operation_xyz
x,y,z
-x,y,-z
-x,-y,-z
x,-y,z
1/2+x,1/2+y,z
1/2-x,1/2+y,-z
1/2-x,1/2-y,-z
1/2+x,1/2-y,z
loop_
_atom_site_type_symbol
_atom_site_label
_atom_site_fract_x
_atom_site_fract_y
_atom_site_fract_z
Si Si1 0.088877 0.328683 0.702768
Si Si2 0.875163 0.829681 0.553336
Si Si3 0.786094 0.831649 0.813118
Si Si4 0.948485 0.663551 0.618580
Si Si5 0.019056 0.328759 0.182330
Si Si6 0.308916 0.670707 0.038114
Si Si7 0.392343 0.169085 0.066991
O O1 0.088540 0.500000 0.676188
O O2 0.121504 0.249197 0.570916
O O3 0.112841 0.296587 0.794704
O O4 0.034512 0.262692 0.767314
O O5 0.822803 0.797244 0.668185
O O6 0.914927 0.771764 0.591010
O O7 0.883879 0.000000 0.525754
O O8 0.738766 0.736882 0.847427
O O9 0.770601 0.000000 0.833177
O O10 0.810459 0.789838 0.903488
O O11 0.925999 0.500000 0.647352
O O12 0.954664 0.729412 0.736584
O O13 0.000000 0.657084 0.500000
O O14 0.011952 0.500000 0.203673
O O15 0.052917 0.290322 0.035351
O O16 0.308539 0.500000 0.060199
O O17 0.355652 0.735683 0.040310
O O18 0.382077 0.000000 0.053272
#
# Coordination Sequence:
#
# PCOD8082475 Si02
#       7
#     8   8   8   8   8   8   8
#     4  10  20  36  54  75 107 145 187 224 255 307
#     4  11  22  35  53  79 111 144 176 217 270 319
#     4   9  20  38  58  81 109 139 172 214 267 325
#     4  10  18  31  52  77 108 141 175 218 259 308
#     4   9  17  32  54  79 105 140 184 223 260 306
#     4  10  20  36  59  84 109 134 169 221 271 318
#     4  10  20  34  56  80 105 142 182 222 266 313
#
# _framework density 18.552887999999999
#
# number of rings (size 3 to 8) (size 9 to 14) (size 15 to 20)
#    0.000    2.143    1.429    2.143    0.000    4.286 
#    0.000    1.429    0.000    1.714    0.000    0.000 
#    0.000    0.000    0.000    0.000    0.000    0.000 
#
# Total GULP energy -347225.565126 kJ/mol
# GULP energy per Si atom -12400.913040 kJ/mol
# Density = 1.851066 g / cm^3
# Si number density = 18.552888 Si / 1000 Ang^3
#
#
#
# Elastic Constant Matrix: (Units=GPa)
#
#
# Indices 1 2 3 4 5 6 
#
# 1 69.6440 36.1102 39.8699 0.0000 -5.9637 0.0000
# 2 36.1102 64.8427 49.2447 0.0000 -4.7055 0.0000
# 3 39.8699 49.2447 120.9785 0.0000 -1.8072 0.0000
# 4 0.0000 0.0000 0.0000 33.6885 0.0000 -6.0635
# 5 -5.9637 -4.7055 -1.8072 0.0000 22.6869 0.0000
# 6 0.0000 0.0000 0.0000 -6.0635 0.0000 29.3236
#
#
#
# Elastic Compliance Matrix: (Units=1/GPa)
#
#
# Indices 1 2 3 4 5 6 
#
# 1 0.021232 -0.009119 -0.003234 0.000000 0.003432 0.000000
# 2 -0.009119 0.026591 -0.007781 0.000000 0.002498 0.000000
# 3 -0.003234 -0.007781 0.012477 0.000000 -0.001470 0.000000
# 4 0.000000 0.000000 0.000000 0.030831 0.000000 0.006375
# 5 0.003432 0.002498 -0.001470 0.000000 0.045382 0.000000
# 6 0.000000 0.000000 0.000000 0.006375 0.000000 0.035420
#
#
# Mechanical properties :
#
#
# Convention : Reuss Voigt Hill
#
# Bulk Modulus (GPa) = 49.92080 56.21274 53.06677
# Shear Modulus (GPa) = 22.84360 25.82249 24.33304
#
# Velocity S-wave (km/s) = 3.51275 3.73477 3.62546
# Velocity P-wave (km/s) = 6.58925 6.99732 6.79635
#
# Compressibility (1/GPa) = 0.02003173
#
# Stress axis : x y z
#
# Youngs Moduli (GPa) = 47.09831 37.60683 80.14540
#
# Poissons Ratio (x) = 0.34292 0.25921
# Poissons Ratio (y) = 0.42947 0.62365
# Poissons Ratio (z) = 0.15233 0.29264
#
# Static dielectric constant tensor:
#      x y z
#    x 3.446680 0.000000 -0.046250 
#    y 0.000000 3.268390 0.000000 
#    z -0.046250 0.000000 3.600760 
# 
# 
# High freq. dielectric constant tensor:
#      x y z
#    x 1.710620 0.000000 0.000280 
#    y 0.000000 1.700790 0.000000 
#    z 0.000280 0.000000 1.728760 
# 
# From -- ./inp_files/181119.got.cif
#   From: 2010.06.25/outbox.cif.g09.slc.cpg/sg12_91_cif.got.tgz:181119.got - 2010.06.28 00:19:55.
