data_PCOD8082417
_publ_section_title
;
Structure prediction by ZEFSAII (Michael W. Deem and Ramdas Pophale) SiO2 
 PCOD8082417
Probable space group: C 2/M
;
_chemical_formula_sum "Si O2"
_cell_formula_units_Z 56
_cell_length_a 19.267101
_cell_length_b 9.111739
_cell_length_c 31.419434
_cell_angle_alpha 90.000000
_cell_angle_beta 34.813324
_cell_angle_gamma 90.000000
_cell_volume 3149.049411
_symmetry_space_group_name_H-M "C 2/M"
_symmetry_group_IT_number 12
_symmetry_cell_setting 'monoclinic'
loop_
_space_group_symop_operation_xyz
x,y,z
-x,y,-z
-x,-y,-z
x,-y,z
1/2+x,1/2+y,z
1/2-x,1/2+y,-z
1/2-x,1/2-y,-z
1/2+x,1/2-y,z
loop_
_atom_site_type_symbol
_atom_site_label
_atom_site_fract_x
_atom_site_fract_y
_atom_site_fract_z
Si Si1 0.421775 0.331673 0.185100
Si Si2 0.355965 0.166783 0.693130
Si Si3 0.115534 0.325440 0.414189
Si Si4 0.861554 0.328678 0.299533
Si Si5 0.919662 0.329121 0.751421
Si Si6 0.012396 0.329133 0.062248
Si Si7 0.195152 0.329524 0.898518
O O1 0.456453 0.500000 0.176834
O O2 0.288596 0.317194 0.231937
O O3 0.428636 0.242717 0.225447
O O4 0.516041 0.263752 0.103877
O O5 0.404208 0.234981 0.624206
O O6 0.412326 0.241233 0.707278
O O7 0.399112 0.000000 0.671217
O O8 0.138671 0.500000 0.402580
O O9 0.233940 0.248869 0.374389
O O10 0.000000 0.279494 0.500000
O O11 0.840382 0.500000 0.301085
O O12 0.946107 0.302511 0.298007
O O13 0.886654 0.500000 0.765966
O O14 0.820846 0.256875 0.832091
O O15 0.001133 0.500000 0.079293
O O16 0.898189 0.279182 0.091096
O O17 0.136396 0.296940 0.974211
O O18 0.223727 0.500000 0.879150
#
# Coordination Sequence:
#
# PCOD8082417 Si02
#       7
#     8   8   8   8   8   8   8
#     4  10  18  31  52  74  97 131 175 217 251 297
#     4   8  15  29  50  74  97 126 165 204 243 289
#     4   9  18  35  58  80 102 130 166 206 245 295
#     4  10  21  34  51  74 104 136 164 206 258 303
#     4  10  19  33  50  72 102 135 171 210 253 299
#     4   9  17  30  47  72 103 132 167 213 264 301
#     4   9  18  30  47  72 103 135 166 211 260 301
#
# _framework density 17.783144
#
# number of rings (size 3 to 8) (size 9 to 14) (size 15 to 20)
#    0.000    2.714    1.429    2.571    0.000    2.000 
#    0.000    2.857    0.000    0.000    0.000    0.000 
#    0.000    0.000    0.000    0.000    0.000    0.000 
#
# Total GULP energy -347106.007154 kJ/mol
# GULP energy per Si atom -12396.643113 kJ/mol
# Density = 1.774267 g / cm^3
# Si number density = 17.783144 Si / 1000 Ang^3
#
#
#
# Elastic Constant Matrix: (Units=GPa)
#
#
# Indices 1 2 3 4 5 6 
#
# 1 90.5510 33.8674 46.4735 0.0012 3.7275 0.0036
# 2 33.8674 59.1068 41.4258 0.0039 0.2551 0.0031
# 3 46.4735 41.4258 121.4945 -0.0003 7.6714 0.0014
# 4 0.0012 0.0039 -0.0003 27.3008 0.0002 -0.8727
# 5 3.7275 0.2551 7.6714 0.0002 20.2300 0.0048
# 6 0.0036 0.0031 0.0014 -0.8727 0.0048 21.8213
#
#
#
# Elastic Compliance Matrix: (Units=1/GPa)
#
#
# Indices 1 2 3 4 5 6 
#
# 1 0.015291 -0.006197 -0.003650 0.000000 -0.001355 -0.000001
# 2 -0.006197 0.024883 -0.006317 -0.000003 0.003224 -0.000003
# 3 -0.003650 -0.006317 0.012022 0.000001 -0.003806 0.000002
# 4 0.000000 -0.000003 0.000001 0.036676 -0.000001 0.001467
# 5 -0.001355 0.003224 -0.003806 -0.000001 0.051084 -0.000011
# 6 -0.000001 -0.000003 0.000002 0.001467 -0.000011 0.045885
#
#
# Mechanical properties :
#
#
# Convention : Reuss Voigt Hill
#
# Bulk Modulus (GPa) = 50.33837 57.18729 53.76283
# Shear Modulus (GPa) = 22.24279 23.82945 23.03612
#
# Velocity S-wave (km/s) = 3.54047 3.66458 3.60306
# Velocity P-wave (km/s) = 6.71428 7.08050 6.89982
#
# Compressibility (1/GPa) = 0.01986556
#
# Stress axis : x y z
#
# Youngs Moduli (GPa) = 65.40003 40.18788 83.18408
#
# Poissons Ratio (x) = 0.24905 0.30365
# Poissons Ratio (y) = 0.40529 0.52551
# Poissons Ratio (z) = 0.23873 0.25388
#
# Static dielectric constant tensor:
#      x y z
#    x 3.255560 -0.000010 0.213440 
#    y -0.000010 3.150210 0.000000 
#    z 0.213440 0.000000 3.222930 
# 
# 
# High freq. dielectric constant tensor:
#      x y z
#    x 1.675890 0.000000 0.015550 
#    y 0.000000 1.674420 0.000000 
#    z 0.015550 0.000000 1.678480 
# 
# From -- ./inp_files/314438.got.cif
#   From: 2010.06.25/outbox.cif.g09.slc.cpg/sg12_158_cif.got.tgz:314438.got - 2010.06.28 00:19:55.
