data_PCOD8082312
_publ_section_title
;
Structure prediction by ZEFSAII (Michael W. Deem and Ramdas Pophale) SiO2 
 PCOD8082312
Probable space group: C 2/M
;
_chemical_formula_sum "Si O2"
_cell_formula_units_Z 56
_cell_length_a 19.786368
_cell_length_b 8.827132
_cell_length_c 28.452726
_cell_angle_alpha 90.000000
_cell_angle_beta 142.461181
_cell_angle_gamma 90.000000
_cell_volume 3027.888710
_symmetry_space_group_name_H-M "C 2/M"
_symmetry_group_IT_number 12
_symmetry_cell_setting 'monoclinic'
loop_
_space_group_symop_operation_xyz
x,y,z
-x,y,-z
-x,-y,-z
x,-y,z
1/2+x,1/2+y,z
1/2-x,1/2+y,-z
1/2-x,1/2-y,-z
1/2+x,1/2-y,z
loop_
_atom_site_type_symbol
_atom_site_label
_atom_site_fract_x
_atom_site_fract_y
_atom_site_fract_z
Si Si1 0.572775 0.678984 0.496653
Si Si2 0.520343 0.321247 0.362875
Si Si3 0.676677 0.818578 0.374224
Si Si4 0.878696 0.324428 0.950722
Si Si5 0.363813 0.819790 0.047774
Si Si6 0.993240 0.674394 0.205127
Si Si7 0.833474 0.674670 0.201209
O O1 0.500000 0.747431 0.500000
O O2 0.576993 0.500000 0.504805
O O3 0.520203 0.725396 0.417710
O O4 0.699209 0.741124 0.566767
O O5 0.532107 0.500000 0.363177
O O6 0.625102 0.245255 0.394239
O O7 0.402537 0.266599 0.278028
O O8 0.602267 0.753907 0.289700
O O9 0.670924 0.000000 0.375053
O O10 0.845305 0.500000 0.929976
O O11 0.791993 0.234177 0.870644
O O12 0.884875 0.263559 0.007066
O O13 0.000000 0.291349 0.000000
O O14 0.461583 0.757375 0.136544
O O15 0.357551 0.000000 0.048540
O O16 0.250000 0.750000 0.000000
O O17 0.021056 0.500000 0.214051
O O18 0.887009 0.699900 0.179729
O O19 0.834326 0.500000 0.216679
#
# Coordination Sequence:
#
# PCOD8082312 Si02
#       7
#     8   8   8   8   8   8   8
#     4   9  18  33  52  79 109 138 172 210 255 310
#     4  10  19  32  54  81 106 132 170 216 262 307
#     4   9  17  32  54  77 104 135 174 214 250 306
#     4  10  21  35  50  76 111 140 171 214 263 310
#     4  10  18  31  51  74 102 134 173 212 252 302
#     4   8  15  28  48  75  97 125 169 212 251 290
#     4  10  19  34  55  76 102 135 178 218 256 309
#
# _framework density 18.494734000000001
#
# number of rings (size 3 to 8) (size 9 to 14) (size 15 to 20)
#    0.000    2.571    1.429    2.143    0.000    0.286 
#    2.571    0.714    0.000    3.857    0.000    0.000 
#    0.000    0.000    0.000    0.000    0.000    0.000 
#
# Total GULP energy -347024.998623 kJ/mol
# GULP energy per Si atom -12393.749951 kJ/mol
# Density = 1.845264 g / cm^3
# Si number density = 18.494734 Si / 1000 Ang^3
#
#
#
# Elastic Constant Matrix: (Units=GPa)
#
#
# Indices 1 2 3 4 5 6 
#
# 1 114.4776 25.6700 65.4274 0.0000 -15.5454 0.0000
# 2 25.6700 34.7400 31.2238 0.0000 -0.1297 0.0000
# 3 65.4274 31.2238 138.4080 0.0000 -16.0550 0.0000
# 4 0.0000 0.0000 0.0000 23.7836 0.0000 1.9616
# 5 -15.5454 -0.1297 -16.0550 0.0000 20.0265 0.0000
# 6 0.0000 0.0000 0.0000 1.9616 0.0000 18.9982
#
#
#
# Elastic Compliance Matrix: (Units=1/GPa)
#
#
# Indices 1 2 3 4 5 6 
#
# 1 0.013452 -0.006192 -0.004141 0.000000 0.007082 0.000000
# 2 -0.006192 0.039853 -0.007267 0.000000 -0.010374 0.000000
# 3 -0.004141 -0.007267 0.011514 0.000000 0.005970 0.000000
# 4 0.000000 0.000000 0.000000 0.042407 0.000000 -0.004379
# 5 0.007082 -0.010374 0.005970 0.000000 0.060150 0.000000
# 6 0.000000 0.000000 0.000000 -0.004379 0.000000 0.053089
#
#
# Mechanical properties :
#
#
# Convention : Reuss Voigt Hill
#
# Bulk Modulus (GPa) = 33.76038 59.14087 46.45062
# Shear Modulus (GPa) = 18.82973 23.58196 21.20584
#
# Velocity S-wave (km/s) = 3.19425 3.57468 3.38980
# Velocity P-wave (km/s) = 5.64783 7.00602 6.36327
#
# Compressibility (1/GPa) = 0.02962052
#
# Stress axis : x y z
#
# Youngs Moduli (GPa) = 74.33837 25.09199 86.84983
#
# Poissons Ratio (x) = 0.15537 0.35960
# Poissons Ratio (y) = 0.46030 0.63113
# Poissons Ratio (z) = 0.30780 0.18234
#
# Static dielectric constant tensor:
#      x y z
#    x 3.348930 0.000000 -0.102850 
#    y 0.000000 3.138310 0.000000 
#    z -0.102850 0.000000 3.747320 
# 
# 
# High freq. dielectric constant tensor:
#      x y z
#    x 1.700700 0.000000 -0.008080 
#    y 0.000000 1.686370 0.000000 
#    z -0.008080 0.000000 1.737130 
# 
# From -- ./inp_files/377747.got.cif
#   From: 2010.06.25/outbox.cif.g09.slc.cpg/sg12_189_cif.got.tgz:377747.got - 2010.06.28 00:19:55.
