data_PCOD8082489
_publ_section_title
;
Structure prediction by ZEFSAII (Michael W. Deem and Ramdas Pophale) SiO2 
 PCOD8082489
Probable space group: C 2/M
;
_chemical_formula_sum "Si O2"
_cell_formula_units_Z 48
_cell_length_a 28.228854
_cell_length_b 8.816917
_cell_length_c 10.371824
_cell_angle_alpha 90.000000
_cell_angle_beta 90.000000
_cell_angle_gamma 90.000000
_cell_volume 2581.458446
_symmetry_space_group_name_H-M "C 2/M"
_symmetry_group_IT_number 12
_symmetry_cell_setting 'monoclinic'
loop_
_space_group_symop_operation_xyz
x,y,z
-x,y,-z
-x,-y,-z
x,-y,z
1/2+x,1/2+y,z
1/2-x,1/2+y,-z
1/2-x,1/2-y,-z
1/2+x,1/2-y,z
loop_
_atom_site_type_symbol
_atom_site_label
_atom_site_fract_x
_atom_site_fract_y
_atom_site_fract_z
Si Si1 0.390901 0.180215 0.748259
Si Si2 0.200558 0.178705 0.647929
Si Si3 0.299442 0.321295 0.647928
Si Si4 0.552745 0.180259 0.500000
Si Si5 0.553584 0.180246 0.000000
Si Si6 0.890901 0.680215 0.251741
O O1 0.339272 0.254942 0.742463
O O2 0.420652 0.239701 0.626395
O O3 0.418225 0.238249 0.874846
O O4 0.385116 0.000000 0.747674
O O5 0.250000 0.249999 0.692684
O O6 0.189392 0.225570 0.500000
O O7 0.160728 0.245061 0.742464
O O8 0.203538 0.000000 0.664162
O O9 0.296461 0.500000 0.664161
O O10 0.500000 0.248541 0.500000
O O11 0.579348 0.239702 0.626395
O O12 0.550701 0.000000 0.500001
O O13 0.550938 0.000000 0.000000
O O14 0.500000 0.246132 0.000000
O O15 0.581775 0.238249 0.874846
O O16 0.885117 0.500000 0.252326
#
# Coordination Sequence:
#
# PCOD8082489 Si02
#       6
#     8   8   8   8   8   8
#     4  10  18  31  52  78 107 138 175 216 260 307
#     4  10  20  34  54  79 107 136 171 216 267 318
#     4  10  20  34  54  79 107 136 171 216 267 318
#     4   9  16  26  46  75 102 131 172 217 254 297
#     4   9  18  32  52  79 110 143 178 217 258 303
#     4  10  18  31  52  78 107 138 175 216 260 307
#
# _framework density 18.594139999999999
#
# number of rings (size 3 to 8) (size 9 to 14) (size 15 to 20)
#    0.000    2.333    1.667    2.000    0.000    5.333 
#    0.000    1.667    0.000    6.000    0.000    0.000 
#    0.000    0.000    0.000    0.000    0.000    0.000 
#
# Total GULP energy -297644.969634 kJ/mol
# GULP energy per Si atom -12401.873735 kJ/mol
# Density = 1.855182 g / cm^3
# Si number density = 18.594140 Si / 1000 Ang^3
#
#
#
# Elastic Constant Matrix: (Units=GPa)
#
#
# Indices 1 2 3 4 5 6 
#
# 1 194.6540 40.1215 91.1916 0.0000 -0.0010 0.0000
# 2 40.1215 38.4258 25.9613 0.0000 -0.0009 0.0000
# 3 91.1916 25.9613 147.7210 0.0000 -0.0004 0.0000
# 4 0.0000 0.0000 0.0000 11.9769 0.0000 0.0001
# 5 -0.0010 -0.0009 -0.0004 0.0000 35.2247 0.0000
# 6 0.0000 0.0000 0.0000 0.0001 0.0000 26.2896
#
#
#
# Elastic Compliance Matrix: (Units=1/GPa)
#
#
# Indices 1 2 3 4 5 6 
#
# 1 0.008250 -0.005870 -0.004061 0.000000 0.000000 0.000000
# 2 -0.005870 0.033707 -0.002300 0.000000 0.000001 0.000000
# 3 -0.004061 -0.002300 0.009681 0.000000 0.000000 0.000000
# 4 0.000000 0.000000 0.000000 0.083494 0.000000 0.000000
# 5 0.000000 0.000001 0.000000 0.000000 0.028389 0.000000
# 6 0.000000 0.000000 0.000000 0.000000 0.000000 0.038038
#
#
# Mechanical properties :
#
#
# Convention : Reuss Voigt Hill
#
# Bulk Modulus (GPa) = 36.79831 77.26107 57.02969
# Shear Modulus (GPa) = 21.26929 29.59998 25.43463
#
# Velocity S-wave (km/s) = 3.38578 3.99419 3.70250
# Velocity P-wave (km/s) = 5.92604 7.93176 7.00110
#
# Compressibility (1/GPa) = 0.02717516
#
# Stress axis : x y z
#
# Youngs Moduli (GPa) = 121.21480 29.66710 103.29700
#
# Poissons Ratio (x) = 0.17415 0.41951
# Poissons Ratio (y) = 0.71154 0.23760
# Poissons Ratio (z) = 0.49227 0.06824
#
# Static dielectric constant tensor:
#      x y z
#    x 3.573680 0.000000 0.000000 
#    y 0.000000 2.962810 0.000000 
#    z 0.000000 0.000000 3.425430 
# 
# 
# High freq. dielectric constant tensor:
#      x y z
#    x 1.739460 0.000000 0.000000 
#    y 0.000000 1.683400 0.000000 
#    z 0.000000 0.000000 1.708640 
# 
# From -- ./inp_files/108732.got.cif
#   From: 2010.06.25/outbox.cif.g09.slc.cpg/sg12_55_cif.got.tgz:108732.got - 2010.06.28 00:19:55.
