data_PCOD8082871
_publ_section_title
;
Structure prediction by ZEFSAII (Michael W. Deem and Ramdas Pophale) SiO2 
 PCOD8082871
Probable space group: C 2/M
;
_chemical_formula_sum "Si O2"
_cell_formula_units_Z 56
_cell_length_a 9.108302
_cell_length_b 26.957158
_cell_length_c 15.173744
_cell_angle_alpha 90.000000
_cell_angle_beta 54.713562
_cell_angle_gamma 90.000000
_cell_volume 3041.168104
_symmetry_space_group_name_H-M "C 2/M"
_symmetry_group_IT_number 12
_symmetry_cell_setting 'monoclinic'
loop_
_space_group_symop_operation_xyz
x,y,z
-x,y,-z
-x,-y,-z
x,-y,z
1/2+x,1/2+y,z
1/2-x,1/2+y,-z
1/2-x,1/2-y,-z
1/2+x,1/2-y,z
loop_
_atom_site_type_symbol
_atom_site_label
_atom_site_fract_x
_atom_site_fract_y
_atom_site_fract_z
Si Si1 0.496162 0.622756 0.103073
Si Si2 0.841039 0.556893 0.991045
Si Si3 0.500568 0.196537 0.705409
Si Si4 0.109623 0.410474 0.219037
Si Si5 0.124169 0.553268 0.541270
Si Si6 0.866522 0.206981 0.263549
Si Si7 0.307720 0.157516 0.518666
O O1 0.314976 0.591309 0.183350
O O2 0.498826 0.672456 0.160815
O O3 0.500000 0.639187 0.000000
O O4 0.666030 0.589778 0.070952
O O5 0.790539 0.500000 0.028150
O O6 0.905877 0.561562 0.868015
O O7 0.000000 0.575072 0.000000
O O8 0.462620 0.145525 0.769791
O O9 0.325180 0.213891 0.714363
O O10 0.547890 0.238678 0.759333
O O11 0.665819 0.189493 0.579405
O O12 0.997060 0.439801 0.329986
O O13 0.227836 0.500000 0.515595
O O14 0.255268 0.601038 0.484342
O O15 0.000000 0.549172 0.500000
O O16 0.843049 0.182749 0.368809
O O17 0.500000 0.152652 0.500000
#
# Coordination Sequence:
#
# PCOD8082871 Si02
#       7
#     8   8   8   8   8   8   8
#     4   9  19  34  50  71  98 126 162 204 244 288
#     4  10  21  36  53  73  97 128 165 202 243 292
#     4   9  18  30  49  73  97 127 163 198 242 291
#     4   9  18  33  50  73 101 128 163 208 245 286
#     4   9  15  24  44  74 101 126 158 199 248 292
#     4  10  18  32  49  70  99 129 160 200 243 285
#     4   8  15  28  44  67  99 127 157 197 236 287
#
# _framework density 18.413976999999999
#
# number of rings (size 3 to 8) (size 9 to 14) (size 15 to 20)
#    0.000    2.857    0.000    3.429    0.000    4.286 
#    0.000    7.857    0.000    0.000    0.000    3.000 
#    0.000   19.429    0.000    0.000    0.000    0.000 
#
# Total GULP energy -347074.993473 kJ/mol
# GULP energy per Si atom -12395.535481 kJ/mol
# Density = 1.837207 g / cm^3
# Si number density = 18.413977 Si / 1000 Ang^3
#
#
#
# Elastic Constant Matrix: (Units=GPa)
#
#
# Indices 1 2 3 4 5 6 
#
# 1 54.2374 41.1321 18.5237 0.0000 3.7801 0.0000
# 2 41.1321 121.4777 27.4801 0.0000 -0.6752 0.0000
# 3 18.5237 27.4801 53.7705 0.0000 -1.8895 0.0000
# 4 0.0000 0.0000 0.0000 33.2185 0.0000 12.7753
# 5 3.7801 -0.6752 -1.8895 0.0000 17.0595 0.0000
# 6 0.0000 0.0000 0.0000 12.7753 0.0000 34.4310
#
#
#
# Elastic Compliance Matrix: (Units=1/GPa)
#
#
# Indices 1 2 3 4 5 6 
#
# 1 0.026730 -0.007860 -0.005432 0.000000 -0.006835 0.000000
# 2 -0.007860 0.011620 -0.003166 0.000000 0.001851 0.000000
# 3 -0.005432 -0.003166 0.022211 0.000000 0.003538 0.000000
# 4 0.000000 0.000000 0.000000 0.035114 0.000000 -0.013029
# 5 -0.006835 0.001851 0.003538 0.000000 0.060598 0.000000
# 6 0.000000 0.000000 0.000000 -0.013029 0.000000 0.033878
#
#
# Mechanical properties :
#
#
# Convention : Reuss Voigt Hill
#
# Bulk Modulus (GPa) = 36.17157 44.86194 40.51676
# Shear Modulus (GPa) = 21.52573 26.43177 23.97875
#
# Velocity S-wave (km/s) = 3.42276 3.79280 3.61252
# Velocity P-wave (km/s) = 5.94193 6.60275 6.28104
#
# Compressibility (1/GPa) = 0.02764602
#
# Stress axis : x y z
#
# Youngs Moduli (GPa) = 37.41173 86.06064 45.02294
#
# Poissons Ratio (x) = 0.67643 0.24454
# Poissons Ratio (y) = 0.29405 0.14253
# Poissons Ratio (z) = 0.20320 0.27244
#
# Static dielectric constant tensor:
#      x y z
#    x 2.978290 0.000000 0.081650 
#    y 0.000000 3.621920 0.000000 
#    z 0.081650 0.000000 3.511890 
# 
# 
# High freq. dielectric constant tensor:
#      x y z
#    x 1.667320 0.000000 0.012290 
#    y 0.000000 1.725940 0.000000 
#    z 0.012290 0.000000 1.717010 
# 
# From -- ./inp_files/199688.got.cif
#   From: 2010.06.25/outbox.cif.g09.slc.cpg/sg12_100_cif.got.tgz:199688.got - 2010.06.28 00:19:55.
