data_PCOD8082446
_publ_section_title
;
Structure prediction by ZEFSAII (Michael W. Deem and Ramdas Pophale) SiO2 
 PCOD8082446
Probable space group: C 2/M
;
_chemical_formula_sum "Si O2"
_cell_formula_units_Z 56
_cell_length_a 22.045913
_cell_length_b 12.797716
_cell_length_c 12.222671
_cell_angle_alpha 90.000000
_cell_angle_beta 68.865564
_cell_angle_gamma 90.000000
_cell_volume 3216.517247
_symmetry_space_group_name_H-M "C 2/M"
_symmetry_group_IT_number 12
_symmetry_cell_setting 'monoclinic'
loop_
_space_group_symop_operation_xyz
x,y,z
-x,y,-z
-x,-y,-z
x,-y,z
1/2+x,1/2+y,z
1/2-x,1/2+y,-z
1/2-x,1/2-y,-z
1/2+x,1/2-y,z
loop_
_atom_site_type_symbol
_atom_site_label
_atom_site_fract_x
_atom_site_fract_y
_atom_site_fract_z
Si Si1 0.782425 0.623117 0.696322
Si Si2 0.359344 0.875830 0.427546
Si Si3 0.892407 0.621623 0.782770
Si Si4 0.506714 0.762614 0.615041
Si Si5 0.983497 0.122349 0.193957
Si Si6 0.438806 0.790012 0.980384
Si Si7 0.647258 0.732511 0.770042
O O1 0.774954 0.500000 0.710965
O O2 0.810800 0.651669 0.558213
O O3 0.827416 0.667756 0.766552
O O4 0.712500 0.673115 0.756994
O O5 0.428035 0.826238 0.410233
O O6 0.335770 0.821125 0.330750
O O7 0.365040 0.000000 0.405160
O O8 0.884039 0.500000 0.788396
O O9 0.907366 0.655766 0.896280
O O10 0.951455 0.651208 0.666467
O O11 0.500000 0.713643 0.500000
O O12 0.495731 0.664220 0.701014
O O13 0.907317 0.149603 0.232038
O O14 0.029558 0.178241 0.074452
O O15 0.995674 0.000000 0.176562
O O16 0.500000 0.851132 0.000000
O O17 0.379139 0.785069 0.102406
#
# Coordination Sequence:
#
# PCOD8082446 Si02
#       7
#     8   8   8   8   8   8   8
#     4  10  20  33  52  76 100 132 173 211 249 298
#     4  10  20  33  52  78 104 134 170 207 251 300
#     4  10  20  33  52  78 105 133 167 207 252 301
#     4  10  18  31  52  76 103 132 163 206 256 299
#     4   9  19  34  52  75  99 128 169 212 252 296
#     4   9  20  35  52  76 101 132 170 209 254 298
#     4  10  20  34  53  74 102 136 169 209 251 296
#
# _framework density 17.410135
#
# number of rings (size 3 to 8) (size 9 to 14) (size 15 to 20)
#    0.000    2.286    1.429    2.143    0.000    5.429 
#    0.000    0.000    0.000    3.429    0.000    0.000 
#    0.000    0.000    0.000    0.000    0.000    0.000 
#
# Total GULP energy -346975.755065 kJ/mol
# GULP energy per Si atom -12391.991252 kJ/mol
# Density = 1.737051 g / cm^3
# Si number density = 17.410135 Si / 1000 Ang^3
#
#
#
# Elastic Constant Matrix: (Units=GPa)
#
#
# Indices 1 2 3 4 5 6 
#
# 1 103.9549 27.0525 64.2106 0.0000 -4.4976 0.0000
# 2 27.0525 53.3583 30.5557 0.0000 1.7544 0.0000
# 3 64.2106 30.5557 135.1859 0.0000 13.2545 0.0000
# 4 0.0000 0.0000 0.0000 4.5224 0.0000 -1.7791
# 5 -4.4976 1.7544 13.2545 0.0000 31.4191 0.0000
# 6 0.0000 0.0000 0.0000 -1.7791 0.0000 20.4424
#
#
#
# Elastic Compliance Matrix: (Units=1/GPa)
#
#
# Indices 1 2 3 4 5 6 
#
# 1 0.015052 -0.003923 -0.006776 0.000000 0.005232 0.000000
# 2 -0.003923 0.022574 -0.003192 0.000000 -0.000475 0.000000
# 3 -0.006776 -0.003192 0.011907 0.000000 -0.005815 0.000000
# 4 0.000000 0.000000 0.000000 0.228960 0.000000 0.019927
# 5 0.005232 -0.000475 -0.005815 0.000000 0.035056 0.000000
# 6 0.000000 0.000000 0.000000 0.019927 0.000000 0.050652
#
#
# Mechanical properties :
#
#
# Convention : Reuss Voigt Hill
#
# Bulk Modulus (GPa) = 45.97518 59.57074 52.77296
# Shear Modulus (GPa) = 12.52396 22.65547 17.58972
#
# Velocity S-wave (km/s) = 2.68498 3.61124 3.18199
# Velocity P-wave (km/s) = 6.00638 7.18877 6.62401
#
# Compressibility (1/GPa) = 0.02175086
#
# Stress axis : x y z
#
# Youngs Moduli (GPa) = 66.43613 44.29880 83.98304
#
# Poissons Ratio (x) = 0.17380 0.56904
# Poissons Ratio (y) = 0.26065 0.26809
# Poissons Ratio (z) = 0.45015 0.14141
#
# Static dielectric constant tensor:
#      x y z
#    x 3.440900 0.000000 0.344450 
#    y 0.000000 2.993030 0.000000 
#    z 0.344450 0.000000 3.643470 
# 
# 
# High freq. dielectric constant tensor:
#      x y z
#    x 1.675870 0.000000 0.008560 
#    y 0.000000 1.649230 0.000000 
#    z 0.008560 0.000000 1.688200 
# 
# From -- ./inp_files/165615.got.cif
#   From: 2010.06.25/outbox.cif.g09.slc.cpg/sg12_83_cif.got.tgz:165615.got - 2010.06.28 00:19:55.
