data_PCOD8082041
_publ_section_title
;
Structure prediction by ZEFSAII (Michael W. Deem and Ramdas Pophale) SiO2 
 PCOD8082041
Probable space group: C 2/M
;
_chemical_formula_sum "Si O2"
_cell_formula_units_Z 64
_cell_length_a 32.059478
_cell_length_b 8.873334
_cell_length_c 12.123225
_cell_angle_alpha 90.000000
_cell_angle_beta 78.405237
_cell_angle_gamma 90.000000
_cell_volume 3378.371396
_symmetry_space_group_name_H-M "C 2/M"
_symmetry_group_IT_number 12
_symmetry_cell_setting 'monoclinic'
loop_
_space_group_symop_operation_xyz
x,y,z
-x,y,-z
-x,-y,-z
x,-y,z
1/2+x,1/2+y,z
1/2-x,1/2+y,-z
1/2-x,1/2-y,-z
1/2+x,1/2-y,z
loop_
_atom_site_type_symbol
_atom_site_label
_atom_site_fract_x
_atom_site_fract_y
_atom_site_fract_z
Si Si1 0.395883 0.821038 0.296582
Si Si2 0.991323 0.676827 0.207515
Si Si3 0.203874 0.678775 0.023510
Si Si4 0.142371 0.824211 0.220896
Si Si5 0.930807 0.172670 0.901062
Si Si6 0.962337 0.663240 0.599849
Si Si7 0.141492 0.175619 0.888411
Si Si8 0.888967 0.827468 0.529537
O O1 0.443323 0.758380 0.240916
O O2 0.362665 0.746106 0.230716
O O3 0.380879 0.776389 0.427653
O O4 0.394254 0.000000 0.288150
O O5 0.988143 0.500000 0.194357
O O6 0.023928 0.743315 0.098755
O O7 0.016957 0.729763 0.301396
O O8 0.206876 0.500000 0.016239
O O9 0.180149 0.727786 0.148182
O O10 0.250000 0.750000 0.000000
O O11 0.179590 0.739620 0.929126
O O12 0.096842 0.771262 0.191887
O O13 0.144318 0.798262 0.352189
O O14 0.148920 0.000000 0.186069
O O15 0.942376 0.000000 0.879776
O O16 0.902566 0.203123 0.023979
O O17 0.938580 0.500000 0.632569
O O18 0.934172 0.790983 0.558881
O O19 0.000000 0.622997 0.500000
O O20 0.152831 0.000000 0.874009
O O21 0.887849 0.000000 0.491314
#
# Coordination Sequence:
#
# PCOD8082041 Si02
#       8
#     8   8   8   8   8   8   8   8
#     4  11  23  38  52  74 109 153 199 237 278 332
#     4  10  20  31  47  71 104 146 193 241 285 328
#     4  11  22  39  67  97 119 143 172 213 269 329
#     4   9  19  35  54  83 118 146 180 229 278 328
#     4   9  18  33  52  74 105 142 185 239 287 325
#     4  10  18  31  46  67 102 144 190 243 288 322
#     4  10  22  41  59  81 112 145 184 230 278 334
#     4  11  21  33  52  78 109 148 190 235 283 327
#
# _framework density 18.944037999999999
#
# number of rings (size 3 to 8) (size 9 to 14) (size 15 to 20)
#    0.000    1.875    2.500    3.000    0.000    5.250 
#    0.000    2.500    0.000    0.750    0.000    0.000 
#    0.000    0.000    0.000    0.000    0.000    0.000 
#
# Total GULP energy -396615.439074 kJ/mol
# GULP energy per Si atom -12394.232471 kJ/mol
# Density = 1.890092 g / cm^3
# Si number density = 18.944038 Si / 1000 Ang^3
#
#
#
# Elastic Constant Matrix: (Units=GPa)
#
#
# Indices 1 2 3 4 5 6 
#
# 1 96.8787 51.6363 47.1004 0.0000 -2.9186 0.0000
# 2 51.6363 96.1633 46.4320 0.0000 2.4084 0.0000
# 3 47.1004 46.4320 84.2217 0.0000 9.3587 0.0000
# 4 0.0000 0.0000 0.0000 31.0109 0.0000 -0.2400
# 5 -2.9186 2.4084 9.3587 0.0000 16.3708 0.0000
# 6 0.0000 0.0000 0.0000 -0.2400 0.0000 29.1400
#
#
#
# Elastic Compliance Matrix: (Units=1/GPa)
#
#
# Indices 1 2 3 4 5 6 
#
# 1 0.017289 -0.005973 -0.007278 0.000000 0.008122 0.000000
# 2 -0.005973 0.016334 -0.005638 0.000000 -0.000245 0.000000
# 3 -0.007278 -0.005638 0.020400 0.000000 -0.012130 0.000000
# 4 0.000000 0.000000 0.000000 0.032249 0.000000 0.000266
# 5 0.008122 -0.000245 -0.012130 0.000000 0.069503 0.000000
# 6 0.000000 0.000000 0.000000 0.000266 0.000000 0.034319
#
#
# Mechanical properties :
#
#
# Convention : Reuss Voigt Hill
#
# Bulk Modulus (GPa) = 61.55612 63.06678 62.31145
# Shear Modulus (GPa) = 21.43281 24.11068 22.77174
#
# Velocity S-wave (km/s) = 3.36724 3.57141 3.47083
# Velocity P-wave (km/s) = 6.90521 7.09718 7.00185
#
# Compressibility (1/GPa) = 0.01624534
#
# Stress axis : x y z
#
# Youngs Moduli (GPa) = 57.84068 61.22042 49.01951
#
# Poissons Ratio (x) = 0.36564 0.35679
# Poissons Ratio (y) = 0.34546 0.27637
# Poissons Ratio (z) = 0.42099 0.34516
#
# Static dielectric constant tensor:
#      x y z
#    x 3.235210 0.000000 -0.068240 
#    y 0.000000 3.462860 0.000000 
#    z -0.068240 0.000000 3.578200 
# 
# 
# High freq. dielectric constant tensor:
#      x y z
#    x 1.699540 0.000000 -0.002930 
#    y 0.000000 1.740700 0.000000 
#    z -0.002930 0.000000 1.740000 
# 
# From -- ./inp_files/187615.got.cif
#   From: 2010.06.25/outbox.cif.g09.slc.cpg/sg12_94_cif.got.tgz:187615.got - 2010.06.28 00:19:55.
