data_PCOD8082262
_publ_section_title
;
Structure prediction by ZEFSAII (Michael W. Deem and Ramdas Pophale) SiO2 
 PCOD8082262
Probable space group: C 2/M
;
_chemical_formula_sum "Si O2"
_cell_formula_units_Z 48
_cell_length_a 26.114253
_cell_length_b 10.999430
_cell_length_c 23.993071
_cell_angle_alpha 90.000000
_cell_angle_beta 21.877169
_cell_angle_gamma 90.000000
_cell_volume 2568.014638
_symmetry_space_group_name_H-M "C 2/M"
_symmetry_group_IT_number 12
_symmetry_cell_setting 'monoclinic'
loop_
_space_group_symop_operation_xyz
x,y,z
-x,y,-z
-x,-y,-z
x,-y,z
1/2+x,1/2+y,z
1/2-x,1/2+y,-z
1/2-x,1/2-y,-z
1/2+x,1/2-y,z
loop_
_atom_site_type_symbol
_atom_site_label
_atom_site_fract_x
_atom_site_fract_y
_atom_site_fract_z
Si Si1 0.054907 0.241174 0.828497
Si Si2 0.765305 0.137059 0.145442
Si Si3 0.483571 0.000000 0.111861
Si Si4 0.206624 0.500000 0.802147
Si Si5 0.746047 0.140265 0.460110
Si Si6 0.774585 0.256010 0.699204
Si Si7 0.970320 0.360527 0.413783
O O1 0.058240 0.383957 0.808377
O O2 0.123549 0.157413 0.712328
O O3 0.132526 0.224563 0.808845
O O4 0.894475 0.216141 0.997295
O O5 0.729143 0.148027 0.247125
O O6 0.630505 0.175598 0.245759
O O7 0.806174 0.000000 0.090933
O O8 0.404370 0.000000 0.134111
O O9 0.641789 0.000000 0.930219
O O10 0.295546 0.622124 0.704449
O O11 0.750000 0.250000 0.500000
O O12 0.604449 0.159541 0.569662
O O13 0.753533 0.000000 0.476262
O O14 0.903537 0.277447 0.528851
O O15 0.955548 0.500000 0.448012
#
# Coordination Sequence:
#
# PCOD8082262 Si02
#       7
#     8   8   4   4   8   8   8
#     4  10  20  33  55  80 109 140 186 226 263 314
#     4  11  20  31  51  78 112 148 178 214 263 318
#     4   9  16  30  49  74 111 146 179 220 263 308
#     4   9  16  28  46  73 108 149 184 215 250 301
#     4  10  22  41  64  84 103 133 180 232 280 330
#     4  10  18  31  50  77 110 150 184 215 250 312
#     4   9  20  37  53  76 110 144 177 218 272 323
#
# _framework density 18.691482000000001
#
# number of rings (size 3 to 8) (size 9 to 14) (size 15 to 20)
#    0.000    2.167    1.667    2.000    1.167    4.000 
#    1.500    3.333    0.000    0.000    0.000    0.000 
#    0.000    0.000    0.000    0.000    0.000    0.000 
#
# Total GULP energy -297450.589864 kJ/mol
# GULP energy per Si atom -12393.774578 kJ/mol
# Density = 1.864894 g / cm^3
# Si number density = 18.691482 Si / 1000 Ang^3
#
#
#
# Elastic Constant Matrix: (Units=GPa)
#
#
# Indices 1 2 3 4 5 6 
#
# 1 65.1658 35.6663 34.8262 -0.0002 -7.9202 0.0000
# 2 35.6663 99.7028 32.7929 -0.0002 -6.4144 0.0001
# 3 34.8262 32.7929 70.4095 -0.0012 -22.3968 0.0003
# 4 -0.0002 -0.0002 -0.0012 29.5593 0.0006 7.1116
# 5 -7.9202 -6.4144 -22.3968 0.0006 23.6993 -0.0001
# 6 0.0000 0.0001 0.0003 7.1116 -0.0001 27.3305
#
#
#
# Elastic Compliance Matrix: (Units=1/GPa)
#
#
# Indices 1 2 3 4 5 6 
#
# 1 0.023171 -0.005187 -0.010050 0.000000 -0.003158 0.000000
# 2 -0.005187 0.013143 -0.004255 0.000000 -0.002197 0.000000
# 3 -0.010050 -0.004255 0.028197 0.000001 0.022137 0.000000
# 4 0.000000 0.000000 0.000001 0.036090 0.000000 -0.009391
# 5 -0.003158 -0.002197 0.022137 0.000000 0.061466 0.000000
# 6 0.000000 0.000000 0.000000 -0.009391 0.000000 0.039033
#
#
# Mechanical properties :
#
#
# Convention : Reuss Voigt Hill
#
# Bulk Modulus (GPa) = 39.17149 49.09431 44.13290
# Shear Modulus (GPa) = 20.11328 24.91733 22.51530
#
# Velocity S-wave (km/s) = 3.28390 3.65510 3.47446
# Velocity P-wave (km/s) = 5.94820 6.64347 6.30542
#
# Compressibility (1/GPa) = 0.02552877
#
# Stress axis : x y z
#
# Youngs Moduli (GPa) = 43.15672 76.08421 35.46498
#
# Poissons Ratio (x) = 0.39463 0.35642
# Poissons Ratio (y) = 0.22384 0.15090
# Poissons Ratio (z) = 0.43372 0.32373
#
# Static dielectric constant tensor:
#      x y z
#    x 3.214190 0.000000 -0.198450 
#    y 0.000000 3.689100 0.000000 
#    z -0.198450 0.000000 3.304910 
# 
# 
# High freq. dielectric constant tensor:
#      x y z
#    x 1.687980 0.000000 -0.013520 
#    y 0.000000 1.738290 0.000000 
#    z -0.013520 0.000000 1.717340 
# 
# From -- ./inp_files/109517.got.cif
#   From: 2010.06.25/outbox.cif.g09.slc.cpg/sg12_55_cif.got.tgz:109517.got - 2010.06.28 00:19:55.
