data_PCOD8082299
_publ_section_title
;
Structure prediction by ZEFSAII (Michael W. Deem and Ramdas Pophale) SiO2 
 PCOD8082299
Probable space group: C 2/M
;
_chemical_formula_sum "Si O2"
_cell_formula_units_Z 48
_cell_length_a 28.107926
_cell_length_b 8.675216
_cell_length_c 11.368981
_cell_angle_alpha 90.000000
_cell_angle_beta 102.332132
_cell_angle_gamma 90.000000
_cell_volume 2708.272036
_symmetry_space_group_name_H-M "C 2/M"
_symmetry_group_IT_number 12
_symmetry_cell_setting 'monoclinic'
loop_
_space_group_symop_operation_xyz
x,y,z
-x,y,-z
-x,-y,-z
x,-y,z
1/2+x,1/2+y,z
1/2-x,1/2+y,-z
1/2-x,1/2-y,-z
1/2+x,1/2-y,z
loop_
_atom_site_type_symbol
_atom_site_label
_atom_site_fract_x
_atom_site_fract_y
_atom_site_fract_z
Si Si1 0.154425 0.681189 0.273923
Si Si2 0.861001 0.820004 0.480130
Si Si3 0.048103 0.320611 0.595816
Si Si4 0.021404 0.319390 0.844855
Si Si5 0.930154 0.180732 0.911527
Si Si6 0.742721 0.678436 0.620733
O O1 0.144769 0.500000 0.251454
O O2 0.139889 0.724252 0.399634
O O3 0.122705 0.775590 0.164364
O O4 0.211104 0.730145 0.274365
O O5 0.907466 0.778231 0.428463
O O6 0.813092 0.782379 0.371875
O O7 0.862192 0.000000 0.513967
O O8 0.059948 0.500000 0.584882
O O9 0.041318 0.276213 0.727763
O O10 0.000000 0.273145 0.500000
O O11 0.010687 0.500000 0.850895
O O12 0.970838 0.230280 0.838437
O O13 0.061408 0.268237 0.961108
O O14 0.933655 0.000000 0.936204
O O15 0.749704 0.500000 0.606407
O O16 0.750000 0.750000 0.500000
#
# Coordination Sequence:
#
# PCOD8082299 Si02
#       6
#     8   8   8   8   8   8
#     4  10  18  31  51  73 100 132 166 200 240 292
#     4  10  19  31  49  75 104 130 160 201 249 291
#     4  10  21  35  51  72  99 132 166 196 233 290
#     4  10  20  35  53  72  98 133 168 197 237 294
#     4  11  21  33  51  75 101 126 161 208 250 285
#     4   8  16  29  46  70  98 128 160 198 242 289
#
# _framework density 17.723479000000001
#
# number of rings (size 3 to 8) (size 9 to 14) (size 15 to 20)
#    0.000    2.167    0.000    5.000    0.000    4.333 
#    0.000    0.000    0.000    1.000    0.000    0.000 
#    0.000    0.000    0.000    0.000    0.000    0.000 
#
# Total GULP energy -297421.959874 kJ/mol
# GULP energy per Si atom -12392.581661 kJ/mol
# Density = 1.768314 g / cm^3
# Si number density = 17.723479 Si / 1000 Ang^3
#
#
#
# Elastic Constant Matrix: (Units=GPa)
#
#
# Indices 1 2 3 4 5 6 
#
# 1 110.6835 18.3548 48.6322 0.0000 22.5899 0.0000
# 2 18.3548 36.0198 12.4853 0.0000 4.0577 0.0000
# 3 48.6322 12.4853 80.2651 0.0000 14.8436 0.0000
# 4 0.0000 0.0000 0.0000 20.8407 0.0000 4.4156
# 5 22.5899 4.0577 14.8436 0.0000 31.9336 0.0000
# 6 0.0000 0.0000 0.0000 4.4156 0.0000 21.6084
#
#
#
# Elastic Compliance Matrix: (Units=1/GPa)
#
#
# Indices 1 2 3 4 5 6 
#
# 1 0.013898 -0.004081 -0.006634 0.000000 -0.006229 0.000000
# 2 -0.004081 0.030633 -0.002305 0.000000 0.000065 0.000000
# 3 -0.006634 -0.002305 0.017411 0.000000 -0.003108 0.000000
# 4 0.000000 0.000000 0.000000 0.050155 0.000000 -0.010249
# 5 -0.006229 0.000065 -0.003108 0.000000 0.037158 0.000000
# 6 0.000000 0.000000 0.000000 -0.010249 0.000000 0.048373
#
#
# Mechanical properties :
#
#
# Convention : Reuss Voigt Hill
#
# Bulk Modulus (GPa) = 27.85204 42.87921 35.36563
# Shear Modulus (GPa) = 21.21941 24.70962 22.96451
#
# Velocity S-wave (km/s) = 3.46388 3.73792 3.60350
# Velocity P-wave (km/s) = 5.63444 6.54792 6.10828
#
# Compressibility (1/GPa) = 0.03590401
#
# Stress axis : x y z
#
# Youngs Moduli (GPa) = 71.95520 32.64406 57.43407
#
# Poissons Ratio (x) = 0.13321 0.38100
# Poissons Ratio (y) = 0.29363 0.13237
# Poissons Ratio (z) = 0.47733 0.07523
#
# Static dielectric constant tensor:
#      x y z
#    x 3.721720 0.000000 0.413190 
#    y 0.000000 3.327160 0.000000 
#    z 0.413190 0.000000 3.234590 
# 
# 
# High freq. dielectric constant tensor:
#      x y z
#    x 1.686800 0.000000 0.029320 
#    y 0.000000 1.695970 0.000000 
#    z 0.029320 0.000000 1.664000 
# 
# From -- ./inp_files/179221.got.cif
#   From: 2010.06.25/outbox.cif.g09.slc.cpg/sg12_90_cif.got.tgz:179221.got - 2010.06.28 00:19:55.
