data_PCOD8082930
_publ_section_title
;
Structure prediction by ZEFSAII (Michael W. Deem and Ramdas Pophale) SiO2 
 PCOD8082930
Probable space group: C 2/M
;
_chemical_formula_sum "Si O2"
_cell_formula_units_Z 56
_cell_length_a 19.402111
_cell_length_b 8.902631
_cell_length_c 31.880875
_cell_angle_alpha 90.000000
_cell_angle_beta 145.951772
_cell_angle_gamma 90.000000
_cell_volume 3083.193046
_symmetry_space_group_name_H-M "C 2/M"
_symmetry_group_IT_number 12
_symmetry_cell_setting 'monoclinic'
loop_
_space_group_symop_operation_xyz
x,y,z
-x,y,-z
-x,-y,-z
x,-y,z
1/2+x,1/2+y,z
1/2-x,1/2+y,-z
1/2-x,1/2-y,-z
1/2+x,1/2-y,z
loop_
_atom_site_type_symbol
_atom_site_label
_atom_site_fract_x
_atom_site_fract_y
_atom_site_fract_z
Si Si1 0.915018 0.673747 0.311443
Si Si2 0.974785 0.322190 0.547406
Si Si3 0.136348 0.825107 0.185131
Si Si4 0.374285 0.325581 0.208662
Si Si5 0.919780 0.175350 0.750395
Si Si6 0.183513 0.821616 0.596895
Si Si7 0.600854 0.821862 0.083103
O O1 0.918651 0.500000 0.302434
O O2 0.779678 0.720359 0.259546
O O3 0.948820 0.758624 0.285731
O O4 0.013642 0.714090 0.397291
O O5 0.966464 0.500000 0.535090
O O6 0.854664 0.237642 0.468741
O O7 0.096402 0.259864 0.586317
O O8 0.074636 0.777438 0.198064
O O9 0.069387 0.736459 0.113851
O O10 0.118487 0.000000 0.167398
O O11 0.366033 0.500000 0.213113
O O12 0.446588 0.290348 0.202169
O O13 0.235233 0.260412 0.136222
O O14 0.822909 0.275727 0.676249
O O15 0.883262 0.000000 0.727613
O O16 0.167237 0.000000 0.591216
O O17 0.596347 0.000000 0.081346
O O18 0.500000 0.756999 0.000000
#
# Coordination Sequence:
#
# PCOD8082930 Si02
#       7
#     8   8   8   8   8   8   8
#     4   9  17  31  51  73  97 129 169 213 253 293
#     4  10  18  32  51  71  99 137 175 211 257 303
#     4   9  17  31  52  75  97 128 171 209 242 292
#     4   9  19  33  53  75  99 135 170 205 249 304
#     4  10  19  35  52  71 101 136 173 207 253 307
#     4  11  21  30  46  75 104 131 168 218 262 296
#     4   9  18  34  54  78 106 132 161 201 252 303
#
# _framework density 18.162987999999999
#
# number of rings (size 3 to 8) (size 9 to 14) (size 15 to 20)
#    0.000    2.429    1.429    2.571    0.000    2.571 
#    0.000    1.429    0.000    0.000    0.000    0.000 
#    0.000    0.000    0.000    0.000    0.000    0.000 
#
# Total GULP energy -347148.094613 kJ/mol
# GULP energy per Si atom -12398.146236 kJ/mol
# Density = 1.812165 g / cm^3
# Si number density = 18.162988 Si / 1000 Ang^3
#
#
#
# Elastic Constant Matrix: (Units=GPa)
#
#
# Indices 1 2 3 4 5 6 
#
# 1 109.5833 26.0822 53.6329 0.0001 -17.4769 -0.0002
# 2 26.0822 41.7492 32.8793 0.0002 -5.2668 -0.0005
# 3 53.6329 32.8793 124.7330 0.0000 -20.6148 -0.0001
# 4 0.0001 0.0002 0.0000 25.1161 0.0000 -7.1076
# 5 -17.4769 -5.2668 -20.6148 0.0000 22.1849 0.0000
# 6 -0.0002 -0.0005 -0.0001 -7.1076 0.0000 21.5923
#
#
#
# Elastic Compliance Matrix: (Units=1/GPa)
#
#
# Indices 1 2 3 4 5 6 
#
# 1 0.012787 -0.004647 -0.003297 0.000000 0.005907 0.000000
# 2 -0.004647 0.031918 -0.006815 0.000000 -0.002416 0.000001
# 3 -0.003297 -0.006815 0.012446 0.000000 0.007350 0.000000
# 4 0.000000 0.000000 0.000000 0.043905 0.000000 0.014452
# 5 0.005907 -0.002416 0.007350 0.000000 0.055985 0.000000
# 6 0.000000 0.000001 0.000000 0.014452 0.000000 0.051070
#
#
# Mechanical properties :
#
#
# Convention : Reuss Voigt Hill
#
# Bulk Modulus (GPa) = 36.18793 55.69493 45.94143
# Shear Modulus (GPa) = 20.25612 24.67673 22.46643
#
# Velocity S-wave (km/s) = 3.34315 3.68995 3.52082
# Velocity P-wave (km/s) = 5.90503 6.99177 6.47126
#
# Compressibility (1/GPa) = 0.02763352
#
# Stress axis : x y z
#
# Youngs Moduli (GPa) = 78.20312 31.33063 80.34798
#
# Poissons Ratio (x) = 0.14559 0.26492
# Poissons Ratio (y) = 0.36340 0.54754
# Poissons Ratio (z) = 0.25785 0.21351
#
# Static dielectric constant tensor:
#      x y z
#    x 3.280410 0.000000 -0.125300 
#    y 0.000000 3.251620 0.000000 
#    z -0.125300 0.000000 3.504930 
# 
# 
# High freq. dielectric constant tensor:
#      x y z
#    x 1.687060 0.000000 -0.016640 
#    y 0.000000 1.698440 0.000000 
#    z -0.016640 0.000000 1.694440 
# 
# From -- ./inp_files/377726.got.cif
#   From: 2010.06.25/outbox.cif.g09.slc.cpg/sg12_189_cif.got.tgz:377726.got - 2010.06.28 00:19:55.
