data_PCOD8082313
_publ_section_title
;
Structure prediction by ZEFSAII (Michael W. Deem and Ramdas Pophale) SiO2 
 PCOD8082313
Probable space group: C 2/M
;
_chemical_formula_sum "Si O2"
_cell_formula_units_Z 64
_cell_length_a 23.225341
_cell_length_b 8.921177
_cell_length_c 16.850645
_cell_angle_alpha 90.000000
_cell_angle_beta 95.253081
_cell_angle_gamma 90.000000
_cell_volume 3476.745561
_symmetry_space_group_name_H-M "C 2/M"
_symmetry_group_IT_number 12
_symmetry_cell_setting 'monoclinic'
loop_
_space_group_symop_operation_xyz
x,y,z
-x,y,-z
-x,-y,-z
x,-y,z
1/2+x,1/2+y,z
1/2-x,1/2+y,-z
1/2-x,1/2-y,-z
1/2+x,1/2-y,z
loop_
_atom_site_type_symbol
_atom_site_label
_atom_site_fract_x
_atom_site_fract_y
_atom_site_fract_z
Si Si1 0.313291 0.175291 0.234097
Si Si2 0.277663 0.170047 0.677280
Si Si3 0.563043 0.177167 0.537249
Si Si4 0.229994 0.825845 0.077502
Si Si5 0.361533 0.832001 0.837395
Si Si6 0.051436 0.827479 0.251759
Si Si7 0.074030 0.824658 0.707612
Si Si8 0.630023 0.676854 0.408529
O O1 0.279906 0.238939 0.306994
O O2 0.277707 0.208105 0.150108
O O3 0.373293 0.264297 0.232638
O O4 0.324452 0.000000 0.248326
O O5 0.320634 0.173436 0.756409
O O6 0.308375 0.251339 0.607236
O O7 0.261164 0.000000 0.652011
O O8 0.500000 0.228731 0.500000
O O9 0.572234 0.230294 0.627374
O O10 0.611559 0.255645 0.490065
O O11 0.570797 0.000000 0.532567
O O12 0.167764 0.760979 0.095416
O O13 0.221938 0.000000 0.061312
O O14 0.250000 0.750000 0.000000
O O15 0.423245 0.763211 0.819947
O O16 0.371554 0.000000 0.869252
O O17 0.081307 0.778323 0.338002
O O18 0.983564 0.794517 0.248786
O O19 0.065404 0.000000 0.237208
O O20 0.080767 0.000000 0.688729
O O21 0.637639 0.500000 0.417086
#
# Coordination Sequence:
#
# PCOD8082313 Si02
#       8
#     8   8   8   8   8   8   8   8
#     4  10  21  37  55  79 109 141 175 214 261 316
#     4   9  17  31  51  75 102 135 175 218 263 315
#     4  11  22  34  50  74 105 139 180 228 272 315
#     4  10  20  35  58  85 113 140 171 211 258 309
#     4   9  17  29  50  79 108 136 172 214 257 305
#     4   9  18  31  49  74 104 138 177 218 262 308
#     4  11  22  36  54  76 105 144 182 220 266 317
#     4  10  18  31  51  74 102 135 176 226 272 315
#
# _framework density 18.408018999999999
#
# number of rings (size 3 to 8) (size 9 to 14) (size 15 to 20)
#    0.000    2.125    1.250    2.625    0.000    6.500 
#    0.000    0.625    0.000    0.750    0.000    5.250 
#    0.000    0.000    0.000    0.000    0.000    0.000 
#
# Total GULP energy -396886.503290 kJ/mol
# GULP energy per Si atom -12402.703228 kJ/mol
# Density = 1.836612 g / cm^3
# Si number density = 18.408019 Si / 1000 Ang^3
#
#
#
# Elastic Constant Matrix: (Units=GPa)
#
#
# Indices 1 2 3 4 5 6 
#
# 1 103.6937 48.4542 38.4087 0.0000 -22.6382 0.0000
# 2 48.4542 102.0032 44.9282 0.0000 -18.3152 0.0000
# 3 38.4087 44.9282 71.3139 0.0000 -28.6730 0.0000
# 4 0.0000 0.0000 0.0000 30.9101 0.0000 -7.6539
# 5 -22.6382 -18.3152 -28.6730 0.0000 28.5410 0.0000
# 6 0.0000 0.0000 0.0000 -7.6539 0.0000 34.2417
#
#
#
# Elastic Compliance Matrix: (Units=1/GPa)
#
#
# Indices 1 2 3 4 5 6 
#
# 1 0.013879 -0.004548 -0.002276 0.000000 0.005803 0.000000
# 2 -0.004548 0.015060 -0.007722 0.000000 -0.001701 0.000000
# 3 -0.002276 -0.007722 0.029183 0.000000 0.022557 0.000000
# 4 0.000000 0.000000 0.000000 0.034247 0.000000 0.007655
# 5 0.005803 -0.001701 0.022557 0.000000 0.061210 0.000000
# 6 0.000000 0.000000 0.000000 0.007655 0.000000 0.030915
#
#
# Mechanical properties :
#
#
# Convention : Reuss Voigt Hill
#
# Bulk Modulus (GPa) = 34.44938 60.06590 47.25764
# Shear Modulus (GPa) = 22.39487 28.41987 25.40737
#
# Velocity S-wave (km/s) = 3.49174 3.93349 3.71918
# Velocity P-wave (km/s) = 5.91703 7.30280 6.64614
#
# Compressibility (1/GPa) = 0.02902810
#
# Stress axis : x y z
#
# Youngs Moduli (GPa) = 72.04982 66.40074 34.26631
#
# Poissons Ratio (x) = 0.30201 0.07801
# Poissons Ratio (y) = 0.32771 0.26462
# Poissons Ratio (z) = 0.16402 0.51277
#
# Static dielectric constant tensor:
#      x y z
#    x 3.528630 0.000000 -0.200340 
#    y 0.000000 3.527750 0.000000 
#    z -0.200340 0.000000 3.103940 
# 
# 
# High freq. dielectric constant tensor:
#      x y z
#    x 1.711990 0.000000 -0.026620 
#    y 0.000000 1.730170 0.000000 
#    z -0.026620 0.000000 1.680240 
# 
# From -- ./inp_files/281255.got.cif
#   From: 2010.06.25/outbox.cif.g09.slc.cpg/sg12_141_cif.got.tgz:281255.got - 2010.06.28 00:19:55.
