data_PCOD8082593
_publ_section_title
;
Structure prediction by ZEFSAII (Michael W. Deem and Ramdas Pophale) SiO2 
 PCOD8082593
Probable space group: C 2/M
;
_chemical_formula_sum "Si O2"
_cell_formula_units_Z 64
_cell_length_a 25.117996
_cell_length_b 18.145669
_cell_length_c 19.701695
_cell_angle_alpha 90.000000
_cell_angle_beta 157.931784
_cell_angle_gamma 90.000000
_cell_volume 3373.763069
_symmetry_space_group_name_H-M "C 2/M"
_symmetry_group_IT_number 12
_symmetry_cell_setting 'monoclinic'
loop_
_space_group_symop_operation_xyz
x,y,z
-x,y,-z
-x,-y,-z
x,-y,z
1/2+x,1/2+y,z
1/2-x,1/2+y,-z
1/2-x,1/2-y,-z
1/2+x,1/2-y,z
loop_
_atom_site_type_symbol
_atom_site_label
_atom_site_fract_x
_atom_site_fract_y
_atom_site_fract_z
Si Si1 0.453800 0.205075 0.688044
Si Si2 0.602866 0.705096 0.067592
Si Si3 0.816037 0.184437 0.980510
Si Si4 0.156621 0.416047 0.886901
Si Si5 0.919893 0.207660 0.343327
Si Si6 0.282112 0.919359 0.884245
Si Si7 0.304476 0.288965 0.401656
Si Si8 0.058945 0.343441 0.182219
O O1 0.524978 0.140057 0.727062
O O2 0.324927 0.237172 0.492048
O O3 0.389943 0.167809 0.680116
O O4 0.563835 0.269175 0.839324
O O5 0.644385 0.657921 0.049746
O O6 0.742960 0.738169 0.268368
O O7 0.500000 0.661892 0.000000
O O8 0.509059 0.770597 0.927961
O O9 0.778158 0.111692 0.978541
O O10 0.679806 0.237875 0.815843
O O11 0.112334 0.500000 0.815735
O O12 0.218201 0.412625 0.035168
O O13 0.830488 0.141355 0.273191
O O14 0.000000 0.248465 0.500000
O O15 0.042153 0.177984 0.436801
O O16 0.232279 0.000000 0.801637
O O17 0.439537 0.906987 0.038859
O O18 0.197622 0.355887 0.297987
#
# Coordination Sequence:
#
# PCOD8082593 Si02
#       8
#     8   8   8   8   8   8   8   8
#     4  10  18  31  53  78 106 135 183 230 271 322
#     4   9  18  32  51  75 105 138 176 228 276 324
#     4  11  18  34  53  78 112 141 182 228 280 322
#     4  10  19  31  52  79 110 144 177 218 276 333
#     4  12  20  32  53  82 107 142 183 238 270 312
#     4  10  20  36  54  75 112 153 180 215 280 339
#     4  11  19  28  53  80 105 129 180 237 270 310
#     4   9  18  34  49  76 104 140 177 221 274 330
#
# _framework density 18.969913999999999
#
# number of rings (size 3 to 8) (size 9 to 14) (size 15 to 20)
#    0.000    1.750    6.250    1.500    0.000    0.250 
#    0.000    0.625    0.000   11.625    0.000   10.500 
#    0.000    0.000    0.000    0.000    0.000    0.000 
#
# Total GULP energy -396437.705325 kJ/mol
# GULP energy per Si atom -12388.678291 kJ/mol
# Density = 1.892674 g / cm^3
# Si number density = 18.969914 Si / 1000 Ang^3
#
#
#
# Elastic Constant Matrix: (Units=GPa)
#
#
# Indices 1 2 3 4 5 6 
#
# 1 98.2085 11.9277 20.7402 0.0008 18.8438 0.0005
# 2 11.9277 45.2741 5.3522 0.0008 2.4947 0.0007
# 3 20.7402 5.3522 58.7104 0.0011 8.2526 0.0012
# 4 0.0008 0.0008 0.0011 9.1413 0.0008 3.9779
# 5 18.8438 2.4947 8.2526 0.0008 35.1462 0.0008
# 6 0.0005 0.0007 0.0012 3.9779 0.0008 13.0122
#
#
#
# Elastic Compliance Matrix: (Units=1/GPa)
#
#
# Indices 1 2 3 4 5 6 
#
# 1 0.012268 -0.002531 -0.003313 0.000000 -0.005620 0.000000
# 2 -0.002531 0.022895 -0.001195 -0.000001 0.000012 -0.000001
# 3 -0.003313 -0.001195 0.018667 -0.000001 -0.002522 -0.000001
# 4 0.000000 -0.000001 -0.000001 0.126179 -0.000001 -0.038574
# 5 -0.005620 0.000012 -0.002522 -0.000001 0.032057 -0.000001
# 6 0.000000 -0.000001 -0.000001 -0.038574 -0.000001 0.088644
#
#
# Mechanical properties :
#
#
# Convention : Reuss Voigt Hill
#
# Bulk Modulus (GPa) = 25.15596 30.91480 28.03538
# Shear Modulus (GPa) = 15.24216 22.40480 18.82348
#
# Velocity S-wave (km/s) = 2.83767 3.44040 3.15347
# Velocity P-wave (km/s) = 4.90166 5.66691 5.29812
#
# Compressibility (1/GPa) = 0.03975200
#
# Stress axis : x y z
#
# Youngs Moduli (GPa) = 81.51443 43.67770 53.57166
#
# Poissons Ratio (x) = 0.11053 0.17749
# Poissons Ratio (y) = 0.20629 0.06401
# Poissons Ratio (z) = 0.27007 0.05219
#
# Static dielectric constant tensor:
#      x y z
#    x 4.350020 0.000000 0.187800 
#    y 0.000000 3.101290 0.000000 
#    z 0.187800 0.000000 3.504040 
# 
# 
# High freq. dielectric constant tensor:
#      x y z
#    x 1.764800 0.000000 0.002300 
#    y 0.000000 1.666260 0.000000 
#    z 0.002300 0.000000 1.735360 
# 
# From -- ./inp_files/328661.got.cif
#   From: 2010.06.25/outbox.cif.g09.slc.cpg/sg12_165_cif.got.tgz:328661.got - 2010.06.28 00:19:55.
