data_PCOD8082092
_publ_section_title
;
Structure prediction by ZEFSAII (Michael W. Deem and Ramdas Pophale) SiO2 
 PCOD8082092
Probable space group: C 2/M
;
_chemical_formula_sum "Si O2"
_cell_formula_units_Z 48
_cell_length_a 19.398523
_cell_length_b 19.901771
_cell_length_c 13.326749
_cell_angle_alpha 90.000000
_cell_angle_beta 34.203936
_cell_angle_gamma 90.000000
_cell_volume 2892.206155
_symmetry_space_group_name_H-M "C 2/M"
_symmetry_group_IT_number 12
_symmetry_cell_setting 'monoclinic'
loop_
_space_group_symop_operation_xyz
x,y,z
-x,y,-z
-x,-y,-z
x,-y,z
1/2+x,1/2+y,z
1/2-x,1/2+y,-z
1/2-x,1/2-y,-z
1/2+x,1/2-y,z
loop_
_atom_site_type_symbol
_atom_site_label
_atom_site_fract_x
_atom_site_fract_y
_atom_site_fract_z
Si Si1 0.290678 0.075730 0.581873
Si Si2 0.494562 0.171003 0.623403
Si Si3 0.594226 0.370479 0.966738
Si Si4 0.595780 0.425097 0.653103
Si Si5 0.006511 0.829501 0.375537
Si Si6 0.771044 0.822752 0.014416
O O1 0.400408 0.129189 0.448186
O O2 0.195957 0.086279 0.786915
O O3 0.223097 0.086114 0.557584
O O4 0.342662 0.000000 0.529024
O O5 0.500000 0.156631 0.500000
O O6 0.512174 0.250383 0.624185
O O7 0.362541 0.142570 0.819809
O O8 0.665825 0.317069 0.950836
O O9 0.500000 0.335498 0.000000
O O10 0.516690 0.418391 0.133300
O O11 0.589283 0.500000 0.615455
O O12 0.595634 0.371139 0.562671
O O13 0.000000 0.846469 0.500000
O O14 0.137190 0.857391 0.175832
O O15 0.750000 0.750000 0.000000
#
# Coordination Sequence:
#
# PCOD8082092 Si02
#       6
#     8   8   8   8   8   8
#     4  10  19  30  48  74 105 132 156 195 250 306
#     4  10  18  31  48  72 103 131 156 194 245 305
#     4   9  16  29  48  73 100 129 160 198 248 297
#     4   9  18  32  49  72  99 128 166 208 244 284
#     4   9  19  33  52  71  92 129 170 208 243 275
#     4   9  17  31  49  68  99 131 160 201 242 285
#
# _framework density 16.596326999999999
#
# number of rings (size 3 to 8) (size 9 to 14) (size 15 to 20)
#    0.000    2.667    1.667    0.500    0.000    3.333 
#    0.000    0.833    0.000    0.000    0.000    2.333 
#    0.000    0.000    0.000    0.000    0.000    0.000 
#
# Total GULP energy -297353.495297 kJ/mol
# GULP energy per Si atom -12389.728971 kJ/mol
# Density = 1.655855 g / cm^3
# Si number density = 16.596327 Si / 1000 Ang^3
#
#
#
# Elastic Constant Matrix: (Units=GPa)
#
#
# Indices 1 2 3 4 5 6 
#
# 1 125.4334 69.0950 53.5458 0.0000 -1.9146 0.0000
# 2 69.0950 80.2897 34.9246 0.0000 -2.7769 0.0000
# 3 53.5458 34.9246 89.3257 0.0000 -4.6828 0.0000
# 4 0.0000 0.0000 0.0000 13.8379 0.0000 -1.7480
# 5 -1.9146 -2.7769 -4.6828 0.0000 28.9048 0.0000
# 6 0.0000 0.0000 0.0000 -1.7480 0.0000 29.5687
#
#
#
# Elastic Compliance Matrix: (Units=1/GPa)
#
#
# Indices 1 2 3 4 5 6 
#
# 1 0.017111 -0.012380 -0.005466 0.000000 -0.000941 0.000000
# 2 -0.012380 0.023971 -0.001889 0.000000 0.001177 0.000000
# 3 -0.005466 -0.001889 0.015312 0.000000 0.001937 0.000000
# 4 0.000000 0.000000 0.000000 0.072809 0.000000 0.004304
# 5 -0.000941 0.001177 0.001937 0.000000 0.034961 0.000000
# 6 0.000000 0.000000 0.000000 0.004304 0.000000 0.034074
#
#
# Mechanical properties :
#
#
# Convention : Reuss Voigt Hill
#
# Bulk Modulus (GPa) = 59.09116 67.79774 63.44445
# Shear Modulus (GPa) = 20.54649 23.62784 22.08716
#
# Velocity S-wave (km/s) = 3.52236 3.77726 3.65203
# Velocity P-wave (km/s) = 7.22668 7.74360 7.48960
#
# Compressibility (1/GPa) = 0.01692301
#
# Stress axis : x y z
#
# Youngs Moduli (GPa) = 58.44206 41.71626 65.30879
#
# Poissons Ratio (x) = 0.51645 0.35698
# Poissons Ratio (y) = 0.72352 0.12340
# Poissons Ratio (z) = 0.31945 0.07882
#
# Static dielectric constant tensor:
#      x y z
#    x 3.460120 0.000000 -0.365370 
#    y 0.000000 2.939720 0.000000 
#    z -0.365370 0.000000 3.768620 
# 
# 
# High freq. dielectric constant tensor:
#      x y z
#    x 1.642980 0.000000 -0.005640 
#    y 0.000000 1.612680 0.000000 
#    z -0.005640 0.000000 1.633640 
# 
# From -- ./inp_files/146526.got.cif
#   From: 2010.06.25/outbox.cif.g09.slc.cpg/sg12_74_cif.got.tgz:146526.got - 2010.06.28 00:19:55.
