data_PCOD8082838
_publ_section_title
;
Structure prediction by ZEFSAII (Michael W. Deem and Ramdas Pophale) SiO2 
 PCOD8082838
Probable space group: C 2/M
;
_chemical_formula_sum "Si O2"
_cell_formula_units_Z 64
_cell_length_a 9.822234
_cell_length_b 20.231416
_cell_length_c 23.416167
_cell_angle_alpha 90.000000
_cell_angle_beta 50.144480
_cell_angle_gamma 90.000000
_cell_volume 3572.094266
_symmetry_space_group_name_H-M "C 2/M"
_symmetry_group_IT_number 12
_symmetry_cell_setting 'monoclinic'
loop_
_space_group_symop_operation_xyz
x,y,z
-x,y,-z
-x,-y,-z
x,-y,z
1/2+x,1/2+y,z
1/2-x,1/2+y,-z
1/2-x,1/2-y,-z
1/2+x,1/2-y,z
loop_
_atom_site_type_symbol
_atom_site_label
_atom_site_fract_x
_atom_site_fract_y
_atom_site_fract_z
Si Si1 0.596341 0.733522 0.617110
Si Si2 0.744175 0.818753 0.313688
Si Si3 0.499095 0.923047 0.434515
Si Si4 0.136599 0.292257 0.910787
Si Si5 0.396548 0.424295 0.972604
Si Si6 0.007684 0.184971 0.857789
Si Si7 0.334919 0.652150 0.507350
Si Si8 0.006758 0.571561 0.930686
O O1 0.404710 0.765887 0.662677
O O2 0.623381 0.710114 0.674446
O O3 0.602732 0.670887 0.573098
O O4 0.755535 0.783254 0.559230
O O5 0.655531 0.885883 0.359646
O O6 0.857327 0.835542 0.227763
O O7 0.500000 0.899490 0.500000
O O8 0.309802 0.905930 0.457298
O O9 0.536969 0.000000 0.418378
O O10 0.333498 0.279491 0.880254
O O11 0.098861 0.235621 0.875996
O O12 0.126314 0.364806 0.882440
O O13 0.000000 0.288728 0.000000
O O14 0.446341 0.500000 0.946044
O O15 0.453652 0.382739 0.902639
O O16 0.500000 0.397482 0.000000
O O17 0.189032 0.415636 0.041347
O O18 0.500000 0.625642 0.500000
O O19 0.078952 0.500000 0.887516
O O20 0.000000 0.565605 0.000000
#
# Coordination Sequence:
#
# PCOD8082838 Si02
#       8
#     8   8   8   8   8   8   8   8
#     4  10  19  33  53  84 111 138 186 228 275 327
#     4  11  22  37  55  81 118 150 182 232 284 341
#     4  10  21  37  58  85 114 148 189 230 273 331
#     4  11  22  37  57  84 113 149 188 242 284 341
#     4  10  21  37  58  82 106 141 193 240 279 338
#     4  12  24  36  55  84 116 152 186 234 299 342
#     4  10  18  31  59  85 106 142 184 233 268 320
#     4   9  17  34  58  81 103 134 183 233 275 326
#
# _framework density 17.91666
#
# number of rings (size 3 to 8) (size 9 to 14) (size 15 to 20)
#    0.000    1.625    5.000    1.500    1.750    0.750 
#    0.000    0.000    0.000    0.000    0.000    0.000 
#    0.000    0.000    0.000    0.000    0.000    0.000 
#
# Total GULP energy -396821.725885 kJ/mol
# GULP energy per Si atom -12400.678934 kJ/mol
# Density = 1.787588 g / cm^3
# Si number density = 17.916660 Si / 1000 Ang^3
#
#
#
# Elastic Constant Matrix: (Units=GPa)
#
#
# Indices 1 2 3 4 5 6 
#
# 1 129.0180 28.8445 27.6465 0.0012 -1.5350 -0.0019
# 2 28.8445 78.5475 31.6049 0.0008 9.5414 -0.0014
# 3 27.6465 31.6049 86.4063 -0.0001 2.5350 -0.0016
# 4 0.0012 0.0008 -0.0001 8.0820 -0.0008 1.2482
# 5 -1.5350 9.5414 2.5350 -0.0008 20.7248 0.0019
# 6 -0.0019 -0.0014 -0.0016 1.2482 0.0019 24.7961
#
#
#
# Elastic Compliance Matrix: (Units=1/GPa)
#
#
# Indices 1 2 3 4 5 6 
#
# 1 0.008789 -0.002733 -0.001875 -0.000001 0.002138 0.000000
# 2 -0.002733 0.016624 -0.004994 -0.000002 -0.007245 0.000001
# 3 -0.001875 -0.004994 0.013987 0.000001 0.000449 0.000000
# 4 -0.000001 -0.000002 0.000001 0.124702 0.000006 -0.006277
# 5 0.002138 -0.007245 0.000449 0.000006 0.051690 -0.000004
# 6 0.000000 0.000001 0.000000 -0.006277 -0.000004 0.040645
#
#
# Mechanical properties :
#
#
# Convention : Reuss Voigt Hill
#
# Bulk Modulus (GPa) = 49.51411 52.24040 50.87726
# Shear Modulus (GPa) = 17.70713 24.44564 21.07638
#
# Velocity S-wave (km/s) = 3.14714 3.69780 3.43353
# Velocity P-wave (km/s) = 6.39545 6.88857 6.64658
#
# Compressibility (1/GPa) = 0.02019626
#
# Stress axis : x y z
#
# Youngs Moduli (GPa) = 113.77705 60.15377 71.49697
#
# Poissons Ratio (x) = 0.16439 0.13408
# Poissons Ratio (y) = 0.31093 0.35703
# Poissons Ratio (z) = 0.21337 0.30039
#
# Static dielectric constant tensor:
#      x y z
#    x 3.520550 0.000000 -0.018830 
#    y 0.000000 3.447190 0.000000 
#    z -0.018830 0.000000 3.039260 
# 
# 
# High freq. dielectric constant tensor:
#      x y z
#    x 1.714550 0.000000 -0.004190 
#    y 0.000000 1.691490 0.000000 
#    z -0.004190 0.000000 1.660030 
# 
# From -- ./inp_files/333704.got.cif
#   From: 2010.06.25/outbox.cif.g09.slc.cpg/sg12_167_cif.got.tgz:333704.got - 2010.06.28 00:19:55.
