data_PCOD8082367
_publ_section_title
;
Structure prediction by ZEFSAII (Michael W. Deem and Ramdas Pophale) SiO2 
 PCOD8082367
Probable space group: C 2/M
;
_chemical_formula_sum "Si O2"
_cell_formula_units_Z 56
_cell_length_a 19.123197
_cell_length_b 8.583013
_cell_length_c 28.565383
_cell_angle_alpha 90.000000
_cell_angle_beta 38.828756
_cell_angle_gamma 90.000000
_cell_volume 2939.708780
_symmetry_space_group_name_H-M "C 2/M"
_symmetry_group_IT_number 12
_symmetry_cell_setting 'monoclinic'
loop_
_space_group_symop_operation_xyz
x,y,z
-x,y,-z
-x,-y,-z
x,-y,z
1/2+x,1/2+y,z
1/2-x,1/2+y,-z
1/2-x,1/2-y,-z
1/2+x,1/2-y,z
loop_
_atom_site_type_symbol
_atom_site_label
_atom_site_fract_x
_atom_site_fract_y
_atom_site_fract_z
Si Si1 0.157426 0.316615 0.082144
Si Si2 0.143999 0.679045 0.455917
Si Si3 0.619811 0.320392 0.693906
Si Si4 0.065086 0.819744 0.401998
Si Si5 0.290492 0.179868 0.752477
Si Si6 0.907831 0.679353 0.193962
Si Si7 0.127079 0.819058 0.198214
O O1 0.171705 0.500000 0.082289
O O2 0.170001 0.231611 0.125074
O O3 0.037889 0.277023 0.121362
O O4 0.250000 0.250000 0.000000
O O5 0.116076 0.500000 0.480497
O O6 0.275853 0.713304 0.395145
O O7 0.117871 0.715508 0.415303
O O8 0.068091 0.782975 0.530266
O O9 0.621137 0.500000 0.710314
O O10 0.633323 0.211464 0.731982
O O11 0.504892 0.283203 0.727122
O O12 0.122200 0.780626 0.323104
O O13 0.083433 0.000000 0.404028
O O14 0.163021 0.218721 0.805498
O O15 0.306453 0.219816 0.798417
O O16 0.314629 0.000000 0.730865
O O17 0.885629 0.500000 0.193926
O O18 0.153444 0.000000 0.191828
#
# Coordination Sequence:
#
# PCOD8082367 Si02
#       7
#     8   8   8   8   8   8   8
#     4  10  21  39  63  91 118 147 181 220 267 323
#     4  10  18  31  51  78 108 142 185 234 282 331
#     4   9  18  33  55  80 108 143 185 230 278 331
#     4  11  21  32  49  76 108 146 187 234 283 329
#     4  12  23  37  55  80 113 149 188 232 281 332
#     4  10  20  34  57  85 112 144 185 227 269 324
#     4  10  21  38  59  84 114 148 183 226 278 333
#
# _framework density 19.049506999999998
#
# number of rings (size 3 to 8) (size 9 to 14) (size 15 to 20)
#    0.000    1.714    1.429    5.143    0.000    2.857 
#    0.000    1.429    0.000    4.286    0.000    0.000 
#    0.000    0.000    0.000    0.000    0.000    0.000 
#
# Total GULP energy -347249.991751 kJ/mol
# GULP energy per Si atom -12401.785420 kJ/mol
# Density = 1.900615 g / cm^3
# Si number density = 19.049507 Si / 1000 Ang^3
#
#
#
# Elastic Constant Matrix: (Units=GPa)
#
#
# Indices 1 2 3 4 5 6 
#
# 1 93.4888 31.1317 37.9482 0.0002 -5.7498 -0.0015
# 2 31.1317 72.8197 27.8785 0.0009 -5.4647 -0.0021
# 3 37.9482 27.8785 113.9787 -0.0001 -14.0574 -0.0006
# 4 0.0002 0.0009 -0.0001 31.5444 0.0000 1.4825
# 5 -5.7498 -5.4647 -14.0574 0.0000 20.8506 0.0005
# 6 -0.0015 -0.0021 -0.0006 1.4825 0.0005 26.3678
#
#
#
# Elastic Compliance Matrix: (Units=1/GPa)
#
#
# Indices 1 2 3 4 5 6 
#
# 1 0.013585 -0.004489 -0.003390 0.000000 0.000284 0.000000
# 2 -0.004489 0.016684 -0.002399 0.000000 0.001517 0.000001
# 3 -0.003390 -0.002399 0.011230 0.000000 0.006008 0.000000
# 4 0.000000 0.000000 0.000000 0.031785 0.000000 -0.001787
# 5 0.000284 0.001517 0.006008 0.000000 0.052487 -0.000001
# 6 0.000000 0.000001 0.000000 -0.001787 -0.000001 0.038025
#
#
# Mechanical properties :
#
#
# Convention : Reuss Voigt Hill
#
# Bulk Modulus (GPa) = 47.74846 52.68935 50.21891
# Shear Modulus (GPa) = 26.13255 27.97449 27.05352
#
# Velocity S-wave (km/s) = 3.70783 3.83628 3.77260
# Velocity P-wave (km/s) = 6.59170 6.88055 6.73767
#
# Compressibility (1/GPa) = 0.02094308
#
# Stress axis : x y z
#
# Youngs Moduli (GPa) = 73.61245 59.93820 89.04720
#
# Poissons Ratio (x) = 0.26903 0.30187
# Poissons Ratio (y) = 0.33041 0.21364
# Poissons Ratio (z) = 0.24954 0.14380
#
# Static dielectric constant tensor:
#      x y z
#    x 3.322740 0.000000 -0.276220 
#    y 0.000000 3.537700 0.000000 
#    z -0.276220 0.000000 3.453320 
# 
# 
# High freq. dielectric constant tensor:
#      x y z
#    x 1.718170 0.000000 -0.020510 
#    y 0.000000 1.753260 0.000000 
#    z -0.020510 0.000000 1.733530 
# 
# From -- ./inp_files/363012.got.cif
#   From: 2010.06.25/outbox.cif.g09.slc.cpg/sg12_182_cif.got.tgz:363012.got - 2010.06.28 00:19:55.
