data_PCOD8082601
_publ_section_title
;
Structure prediction by ZEFSAII (Michael W. Deem and Ramdas Pophale) SiO2 
 PCOD8082601
Probable space group: C 2/M
;
_chemical_formula_sum "Si O2"
_cell_formula_units_Z 56
_cell_length_a 30.169314
_cell_length_b 8.514940
_cell_length_c 12.555786
_cell_angle_alpha 90.000000
_cell_angle_beta 105.576276
_cell_angle_gamma 90.000000
_cell_volume 3106.996010
_symmetry_space_group_name_H-M "C 2/M"
_symmetry_group_IT_number 12
_symmetry_cell_setting 'monoclinic'
loop_
_space_group_symop_operation_xyz
x,y,z
-x,y,-z
-x,-y,-z
x,-y,z
1/2+x,1/2+y,z
1/2-x,1/2+y,-z
1/2-x,1/2-y,-z
1/2+x,1/2-y,z
loop_
_atom_site_type_symbol
_atom_site_label
_atom_site_fract_x
_atom_site_fract_y
_atom_site_fract_z
Si Si1 0.043316 0.316686 0.653944
Si Si2 0.450253 0.680733 0.570593
Si Si3 0.147482 0.181183 0.408502
Si Si4 0.701424 0.815585 0.257258
Si Si5 0.639647 0.813766 0.791818
Si Si6 0.298963 0.816262 0.363462
Si Si7 0.203522 0.685677 0.018472
O O1 0.035727 0.500000 0.668808
O O2 0.053594 0.288286 0.536212
O O3 0.087254 0.251808 0.748652
O O4 0.997440 0.225515 0.662739
O O5 0.452016 0.500000 0.535688
O O6 0.407057 0.714255 0.618882
O O7 0.162488 0.227407 0.299681
O O8 0.174577 0.288121 0.509689
O O9 0.158905 0.000000 0.439274
O O10 0.751419 0.777535 0.336240
O O11 0.696677 0.751199 0.133555
O O12 0.692489 0.000000 0.257591
O O13 0.670656 0.748817 0.714575
O O14 0.639263 0.000000 0.781679
O O15 0.660904 0.756890 0.917708
O O16 0.288323 0.000000 0.343576
O O17 0.207050 0.500000 0.020465
O O18 0.250000 0.750000 0.000000
#
# Coordination Sequence:
#
# PCOD8082601 Si02
#       7
#     8   8   8   8   8   8   8
#     4  10  18  31  53  79 104 134 169 207 258 315
#     4  10  20  33  50  75 106 136 168 212 260 307
#     4  11  23  37  53  74 107 144 178 215 260 313
#     4  11  23  36  53  77 106 140 181 218 256 310
#     4   9  18  32  53  79 107 136 167 211 259 305
#     4  11  20  34  55  77 108 142 174 213 259 311
#     4  10  20  36  55  77 104 136 175 218 259 302
#
# _framework density 18.023841000000001
#
# number of rings (size 3 to 8) (size 9 to 14) (size 15 to 20)
#    0.000    1.714    2.857    3.429    0.000    2.286 
#    0.000    1.429    0.000    0.857    0.000    6.000 
#    0.000    0.000    0.000    0.000    0.000    0.000 
#
# Total GULP energy -347235.739087 kJ/mol
# GULP energy per Si atom -12401.276396 kJ/mol
# Density = 1.798282 g / cm^3
# Si number density = 18.023841 Si / 1000 Ang^3
#
#
#
# Elastic Constant Matrix: (Units=GPa)
#
#
# Indices 1 2 3 4 5 6 
#
# 1 149.0894 22.2622 68.3559 0.0000 7.8931 0.0000
# 2 22.2622 36.2565 13.3607 0.0000 0.0937 0.0000
# 3 68.3559 13.3607 104.8347 0.0000 1.3167 0.0000
# 4 0.0000 0.0000 0.0000 15.7872 0.0000 -1.4083
# 5 7.8931 0.0937 1.3167 0.0000 32.9299 0.0000
# 6 0.0000 0.0000 0.0000 -1.4083 0.0000 28.5587
#
#
#
# Elastic Compliance Matrix: (Units=1/GPa)
#
#
# Indices 1 2 3 4 5 6 
#
# 1 0.010237 -0.004019 -0.006135 0.000000 -0.002197 0.000000
# 2 -0.004019 0.030518 -0.001281 0.000000 0.000928 0.000000
# 3 -0.006135 -0.001281 0.013690 0.000000 0.000927 0.000000
# 4 0.000000 0.000000 0.000000 0.063622 0.000000 0.003137
# 5 -0.002197 0.000928 0.000927 0.000000 0.030854 0.000000
# 6 0.000000 0.000000 0.000000 0.003137 0.000000 0.035170
#
#
# Mechanical properties :
#
#
# Convention : Reuss Voigt Hill
#
# Bulk Modulus (GPa) = 31.66886 55.34871 43.50878
# Shear Modulus (GPa) = 22.98990 27.86862 25.42926
#
# Velocity S-wave (km/s) = 3.57533 3.93645 3.76023
# Velocity P-wave (km/s) = 5.88665 7.17190 6.56082
#
# Compressibility (1/GPa) = 0.03157676
#
# Stress axis : x y z
#
# Youngs Moduli (GPa) = 97.68902 32.76701 73.04342
#
# Poissons Ratio (x) = 0.13169 0.44811
# Poissons Ratio (y) = 0.39262 0.09354
# Poissons Ratio (z) = 0.59930 0.04196
#
# Static dielectric constant tensor:
#      x y z
#    x 3.544550 0.000000 0.134480 
#    y 0.000000 3.228040 0.000000 
#    z 0.134480 0.000000 3.383990 
# 
# 
# High freq. dielectric constant tensor:
#      x y z
#    x 1.701020 0.000000 0.010100 
#    y 0.000000 1.694470 0.000000 
#    z 0.010100 0.000000 1.677070 
# 
# From -- ./inp_files/186857.got.cif
#   From: 2010.06.25/outbox.cif.g09.slc.cpg/sg12_94_cif.got.tgz:186857.got - 2010.06.28 00:19:55.
