data_PCOD8082883
_publ_section_title
;
Structure prediction by ZEFSAII (Michael W. Deem and Ramdas Pophale) SiO2 
 PCOD8082883
Probable space group: C 2/M
;
_chemical_formula_sum "Si O2"
_cell_formula_units_Z 64
_cell_length_a 24.347020
_cell_length_b 9.041391
_cell_length_c 19.095850
_cell_angle_alpha 90.000000
_cell_angle_beta 106.246865
_cell_angle_gamma 90.000000
_cell_volume 4035.717608
_symmetry_space_group_name_H-M "C 2/M"
_symmetry_group_IT_number 12
_symmetry_cell_setting 'monoclinic'
loop_
_space_group_symop_operation_xyz
x,y,z
-x,y,-z
-x,-y,-z
x,-y,z
1/2+x,1/2+y,z
1/2-x,1/2+y,-z
1/2-x,1/2-y,-z
1/2+x,1/2-y,z
loop_
_atom_site_type_symbol
_atom_site_label
_atom_site_fract_x
_atom_site_fract_y
_atom_site_fract_z
Si Si1 0.313606 0.674576 0.375494
Si Si2 0.087858 0.827632 0.686457
Si Si3 0.133944 0.176086 0.459934
Si Si4 0.813690 0.324900 0.653098
Si Si5 0.475810 0.666633 0.206363
Si Si6 0.918223 0.673086 0.785341
Si Si7 0.519178 0.330929 0.080481
Si Si8 0.484825 0.168932 0.575103
O O1 0.313331 0.500000 0.378985
O O2 0.351209 0.728828 0.321864
O O3 0.341628 0.734877 0.457142
O O4 0.248626 0.729714 0.343014
O O5 0.081401 0.799054 0.768473
O O6 0.037748 0.734731 0.635014
O O7 0.080181 0.000000 0.664538
O O8 0.174506 0.240545 0.414516
O O9 0.070494 0.235851 0.426305
O O10 0.133503 0.000000 0.455556
O O11 0.816177 0.500000 0.639529
O O12 0.858436 0.278911 0.729460
O O13 0.496058 0.500000 0.230819
O O14 0.529505 0.772525 0.246518
O O15 0.466426 0.681588 0.118443
O O16 0.922141 0.500000 0.797045
O O17 0.925938 0.748168 0.865267
O O18 0.537206 0.500000 0.073154
O O19 0.500000 0.257332 0.000000
O O20 0.500000 0.180985 0.500000
O O21 0.473870 0.000000 0.594205
#
# Coordination Sequence:
#
# PCOD8082883 Si02
#       8
#     8   8   8   8   8   8   8   8
#     4   9  19  33  48  65  87 121 161 201 238 270
#     4  10  18  32  50  66  88 118 156 196 228 273
#     4  11  21  33  50  67  85 117 162 204 239 276
#     4  10  20  34  48  65  93 123 155 195 238 276
#     4   8  16  28  45  68  91 115 145 179 219 267
#     4   9  17  28  45  68  94 121 147 177 219 272
#     4   8  15  29  47  69  98 121 140 175 221 268
#     4  11  22  33  46  65  91 119 149 191 244 291
#
# _framework density 15.858394000000001
#
# number of rings (size 3 to 8) (size 9 to 14) (size 15 to 20)
#    0.750    1.750    1.250    1.875    0.000    4.250 
#    0.000    1.250    0.000    0.000    0.000    0.875 
#    0.000    0.000    0.000    0.000    0.000    0.000 
#
# Total GULP energy -396422.461927 kJ/mol
# GULP energy per Si atom -12388.201935 kJ/mol
# Density = 1.582230 g / cm^3
# Si number density = 15.858394 Si / 1000 Ang^3
#
#
#
# Elastic Constant Matrix: (Units=GPa)
#
#
# Indices 1 2 3 4 5 6 
#
# 1 123.8319 24.9416 61.0294 0.0000 -11.7898 0.0000
# 2 24.9416 39.7155 30.1027 0.0000 -4.0735 0.0000
# 3 61.0294 30.1027 101.8738 0.0000 -12.6920 0.0000
# 4 0.0000 0.0000 0.0000 17.9476 0.0000 -0.2687
# 5 -11.7898 -4.0735 -12.6920 0.0000 14.5898 0.0000
# 6 0.0000 0.0000 0.0000 -0.2687 0.0000 21.6921
#
#
#
# Elastic Compliance Matrix: (Units=1/GPa)
#
#
# Indices 1 2 3 4 5 6 
#
# 1 0.011845 -0.002616 -0.005856 0.000000 0.003747 0.000000
# 2 -0.002616 0.033032 -0.008196 0.000000 -0.000021 0.000000
# 3 -0.005856 -0.008196 0.016679 0.000000 0.007489 0.000000
# 4 0.000000 0.000000 0.000000 0.055728 0.000000 0.000690
# 5 0.003747 -0.000021 0.007489 0.000000 0.078078 0.000000
# 6 0.000000 0.000000 0.000000 0.000690 0.000000 0.046108
#
#
# Mechanical properties :
#
#
# Convention : Reuss Voigt Hill
#
# Bulk Modulus (GPa) = 35.43595 55.28540 45.36068
# Shear Modulus (GPa) = 17.59235 20.80240 19.19738
#
# Velocity S-wave (km/s) = 3.33429 3.62575 3.48307
# Velocity P-wave (km/s) = 6.10058 7.24332 6.69637
#
# Compressibility (1/GPa) = 0.02821993
#
# Stress axis : x y z
#
# Youngs Moduli (GPa) = 84.42139 30.27364 59.95424
#
# Poissons Ratio (x) = 0.07919 0.35112
# Poissons Ratio (y) = 0.22082 0.49140
# Poissons Ratio (z) = 0.49441 0.24813
#
# Static dielectric constant tensor:
#      x y z
#    x 3.249910 0.000000 -0.302710 
#    y 0.000000 2.958980 0.000000 
#    z -0.302710 0.000000 3.346070 
# 
# 
# High freq. dielectric constant tensor:
#      x y z
#    x 1.593680 0.000000 -0.015210 
#    y 0.000000 1.604340 0.000000 
#    z -0.015210 0.000000 1.591180 
# 
# From -- ./inp_files/323400.got.cif
#   From: 2010.06.25/outbox.cif.g09.slc.cpg/sg12_162_cif.got.tgz:323400.got - 2010.06.28 00:19:55.
