data_PCOD8082826
_publ_section_title
;
Structure prediction by ZEFSAII (Michael W. Deem and Ramdas Pophale) SiO2 
 PCOD8082826
Probable space group: C 2/M
;
_chemical_formula_sum "Si O2"
_cell_formula_units_Z 44
_cell_length_a 13.437467
_cell_length_b 18.930989
_cell_length_c 11.905383
_cell_angle_alpha 90.000000
_cell_angle_beta 128.120064
_cell_angle_gamma 90.000000
_cell_volume 2382.613883
_symmetry_space_group_name_H-M "C 2/M"
_symmetry_group_IT_number 12
_symmetry_cell_setting 'monoclinic'
loop_
_space_group_symop_operation_xyz
x,y,z
-x,y,-z
-x,-y,-z
x,-y,z
1/2+x,1/2+y,z
1/2-x,1/2+y,-z
1/2-x,1/2-y,-z
1/2+x,1/2-y,z
loop_
_atom_site_type_symbol
_atom_site_label
_atom_site_fract_x
_atom_site_fract_y
_atom_site_fract_z
Si Si1 0.733521 0.700740 0.797423
Si Si2 0.363857 0.423011 0.385284
Si Si3 0.869560 0.707800 0.471276
Si Si4 0.803981 0.920111 0.587613
Si Si5 0.500000 0.249389 0.000000
Si Si6 0.981594 0.200093 0.743794
O O1 0.717889 0.618279 0.761692
O O2 0.717268 0.744547 0.670531
O O3 0.626124 0.719560 0.813941
O O4 0.874319 0.705761 0.945489
O O5 0.500000 0.383377 0.500000
O O6 0.393846 0.500000 0.355145
O O7 0.280878 0.428848 0.439458
O O8 0.804654 0.631139 0.439664
O O9 0.888879 0.749091 0.604090
O O10 0.000000 0.692662 0.500000
O O11 0.941272 0.881757 0.696571
O O12 0.802279 0.000000 0.640840
O O13 0.536755 0.293003 0.135671
#
# Coordination Sequence:
#
# PCOD8082826 Si02
#       6
#     8   8   8   8   4   8
#     4  11  20  36  58  84 111 149 187 235 277 329
#     4  10  18  31  57  89 111 135 180 238 285 321
#     4  10  20  37  62  83 110 143 188 239 277 322
#     4  11  20  33  57  87 114 141 180 232 284 327
#     4  12  24  34  54  80 120 150 186 228 278 336
#     4  11  21  37  58  84 111 147 192 231 275 329
#
# _framework density 18.467113000000001
#
# number of rings (size 3 to 8) (size 9 to 14) (size 15 to 20)
#    0.000    1.273    5.455    2.727    0.000    0.364 
#    0.000    0.909    0.000    1.091    0.000    0.000 
#    0.000    0.000    0.000    0.000    0.000    0.000 
#
# Total GULP energy -272565.328875 kJ/mol
# GULP energy per Si atom -12389.333131 kJ/mol
# Density = 1.842508 g / cm^3
# Si number density = 18.467113 Si / 1000 Ang^3
#
#
#
# Elastic Constant Matrix: (Units=GPa)
#
#
# Indices 1 2 3 4 5 6 
#
# 1 71.3363 33.7156 39.8073 0.0000 6.6712 0.0000
# 2 33.7156 116.4170 30.3930 0.0000 6.4565 0.0000
# 3 39.8073 30.3930 72.5507 0.0000 4.0863 0.0000
# 4 0.0000 0.0000 0.0000 10.6289 0.0000 1.4387
# 5 6.6712 6.4565 4.0863 0.0000 41.1797 0.0000
# 6 0.0000 0.0000 0.0000 1.4387 0.0000 29.2818
#
#
#
# Elastic Compliance Matrix: (Units=1/GPa)
#
#
# Indices 1 2 3 4 5 6 
#
# 1 0.021567 -0.003456 -0.010277 0.000000 -0.001932 0.000000
# 2 -0.003456 0.010250 -0.002352 0.000000 -0.000814 0.000000
# 3 -0.010277 -0.002352 0.020407 0.000000 0.000009 0.000000
# 4 0.000000 0.000000 0.000000 0.094713 0.000000 -0.004653
# 5 -0.001932 -0.000814 0.000009 0.000000 0.024724 0.000000
# 6 0.000000 0.000000 0.000000 -0.004653 0.000000 0.034379
#
#
# Mechanical properties :
#
#
# Convention : Reuss Voigt Hill
#
# Bulk Modulus (GPa) = 49.86398 52.01509 50.93953
# Shear Modulus (GPa) = 20.41704 26.64395 23.53050
#
# Velocity S-wave (km/s) = 3.32865 3.80251 3.57344
# Velocity P-wave (km/s) = 6.46787 6.89248 6.68355
#
# Compressibility (1/GPa) = 0.02005456
#
# Stress axis : x y z
#
# Youngs Moduli (GPa) = 46.36747 97.56286 49.00297
#
# Poissons Ratio (x) = 0.33716 0.50359
# Poissons Ratio (y) = 0.16024 0.11525
# Poissons Ratio (z) = 0.47651 0.22945
#
# Static dielectric constant tensor:
#      x y z
#    x 3.649660 0.000000 0.139110 
#    y 0.000000 3.426690 0.000000 
#    z 0.139110 0.000000 3.276870 
# 
# 
# High freq. dielectric constant tensor:
#      x y z
#    x 1.736170 0.000000 0.000930 
#    y 0.000000 1.700840 0.000000 
#    z 0.000930 0.000000 1.687140 
# 
# From -- ./inp_files/145809.got.cif
#   From: 2010.06.25/outbox.cif.g09.slc.cpg/sg12_73_cif.got.tgz:145809.got - 2010.06.28 00:19:55.
