data_PCOD8082112
_publ_section_title
;
Structure prediction by ZEFSAII (Michael W. Deem and Ramdas Pophale) SiO2 
 PCOD8082112
Probable space group: C 2/M
;
_chemical_formula_sum "Si O2"
_cell_formula_units_Z 64
_cell_length_a 10.080452
_cell_length_b 18.479194
_cell_length_c 17.879615
_cell_angle_alpha 90.000000
_cell_angle_beta 89.121614
_cell_angle_gamma 90.000000
_cell_volume 3330.198765
_symmetry_space_group_name_H-M "C 2/M"
_symmetry_group_IT_number 12
_symmetry_cell_setting 'monoclinic'
loop_
_space_group_symop_operation_xyz
x,y,z
-x,y,-z
-x,-y,-z
x,-y,z
1/2+x,1/2+y,z
1/2-x,1/2+y,-z
1/2-x,1/2-y,-z
1/2+x,1/2-y,z
loop_
_atom_site_type_symbol
_atom_site_label
_atom_site_fract_x
_atom_site_fract_y
_atom_site_fract_z
Si Si1 0.156721 0.680965 0.019106
Si Si2 0.634457 0.178948 0.189867
Si Si3 0.885130 0.664928 0.449295
Si Si4 0.362919 0.665687 0.294610
Si Si5 0.125080 0.084890 0.047995
Si Si6 0.619260 0.163435 0.717337
Si Si7 0.129320 0.836864 0.538596
Si Si8 0.879145 0.150326 0.792757
O O1 0.160301 0.655903 0.104911
O O2 0.250000 0.750000 0.000000
O O3 0.230126 0.616760 0.974409
O O4 0.000000 0.692971 0.000000
O O5 0.497747 0.147752 0.223391
O O6 0.633625 0.265439 0.188245
O O7 0.745590 0.141537 0.240511
O O8 0.907628 0.633147 0.365756
O O9 0.888206 0.751331 0.452428
O O10 0.746342 0.638192 0.483349
O O11 0.000000 0.632212 0.500000
O O12 0.358272 0.751930 0.294479
O O13 0.344083 0.633143 0.377952
O O14 0.500805 0.634750 0.263978
O O15 0.094503 0.104898 0.133391
O O16 0.136896 0.000000 0.037646
O O17 0.000000 0.114757 0.000000
O O18 0.747116 0.124419 0.751324
O O19 0.000000 0.870282 0.500000
#
# Coordination Sequence:
#
# PCOD8082112 Si02
#       8
#     8   8   8   8   8   8   8   8
#     4  12  24  37  60  84 111 143 184 233 278 336
#     4  10  19  29  48  71 100 129 173 218 266 311
#     4   9  15  23  36  54  91 130 165 199 246 309
#     4   9  17  26  42  66  96 131 170 213 255 308
#     4  11  24  41  59  80 109 145 184 229 285 339
#     4   9  17  27  41  67  94 132 169 209 257 311
#     4   9  15  23  35  56  88 131 170 201 243 303
#     4  10  18  31  49  68  99 129 171 218 262 317
#
# _framework density 19.218073
#
# number of rings (size 3 to 8) (size 9 to 14) (size 15 to 20)
#    0.000    2.125    1.250    3.375    3.500    6.250 
#    0.000    0.000    0.000    0.000    0.000    0.000 
#    0.000    5.000    0.000    0.500    0.000    1.500 
#
# Total GULP energy -396612.344022 kJ/mol
# GULP energy per Si atom -12394.135751 kJ/mol
# Density = 1.917433 g / cm^3
# Si number density = 19.218073 Si / 1000 Ang^3
#
#
#
# Elastic Constant Matrix: (Units=GPa)
#
#
# Indices 1 2 3 4 5 6 
#
# 1 139.3414 18.9226 46.2534 0.0000 16.3059 0.0000
# 2 18.9226 26.5472 10.9372 0.0000 -0.5857 0.0000
# 3 46.2534 10.9372 150.7556 0.0000 8.4671 0.0000
# 4 0.0000 0.0000 0.0000 6.6648 0.0000 0.7296
# 5 16.3059 -0.5857 8.4671 0.0000 40.6952 0.0000
# 6 0.0000 0.0000 0.0000 0.7296 0.0000 9.6056
#
#
#
# Elastic Compliance Matrix: (Units=1/GPa)
#
#
# Indices 1 2 3 4 5 6 
#
# 1 0.009045 -0.005619 -0.002185 0.000000 -0.003251 0.000000
# 2 -0.005619 0.042374 -0.001529 0.000000 0.003179 0.000000
# 3 -0.002185 -0.001529 0.007454 0.000000 -0.000697 0.000000
# 4 0.000000 0.000000 0.000000 0.151299 0.000000 -0.011492
# 5 -0.003251 0.003179 -0.000697 0.000000 0.026066 0.000000
# 6 0.000000 0.000000 0.000000 -0.011492 0.000000 0.104979
#
#
# Mechanical properties :
#
#
# Convention : Reuss Voigt Hill
#
# Bulk Modulus (GPa) = 24.87104 52.09675 38.48390
# Shear Modulus (GPa) = 13.39459 27.42853 20.41156
#
# Velocity S-wave (km/s) = 2.64290 3.78196 3.26253
# Velocity P-wave (km/s) = 4.72047 6.79986 5.85324
#
# Compressibility (1/GPa) = 0.04020740
#
# Stress axis : x y z
#
# Youngs Moduli (GPa) = 110.55399 23.59946 134.16139
#
# Poissons Ratio (x) = 0.13260 0.29314
# Poissons Ratio (y) = 0.62120 0.20511
# Poissons Ratio (z) = 0.24156 0.03608
#
# Static dielectric constant tensor:
#      x y z
#    x 3.829810 0.000000 0.111590 
#    y 0.000000 2.796810 0.000000 
#    z 0.111590 0.000000 3.818080 
# 
# 
# High freq. dielectric constant tensor:
#      x y z
#    x 1.767040 0.000000 0.000550 
#    y 0.000000 1.656600 0.000000 
#    z 0.000550 0.000000 1.772010 
# 
# From -- ./inp_files/258107.got.cif
#   From: 2010.06.25/outbox.cif.g09.slc.cpg/sg12_130_cif.got.tgz:258107.got - 2010.06.28 00:19:55.
