data_PCOD8082465
_publ_section_title
;
Structure prediction by ZEFSAII (Michael W. Deem and Ramdas Pophale) SiO2 
 PCOD8082465
Probable space group: C 2/M
;
_chemical_formula_sum "Si O2"
_cell_formula_units_Z 56
_cell_length_a 28.538580
_cell_length_b 10.246662
_cell_length_c 29.102526
_cell_angle_alpha 90.000000
_cell_angle_beta 158.859223
_cell_angle_gamma 90.000000
_cell_volume 3069.334845
_symmetry_space_group_name_H-M "C 2/M"
_symmetry_group_IT_number 12
_symmetry_cell_setting 'monoclinic'
loop_
_space_group_symop_operation_xyz
x,y,z
-x,y,-z
-x,-y,-z
x,-y,z
1/2+x,1/2+y,z
1/2-x,1/2+y,-z
1/2-x,1/2-y,-z
1/2+x,1/2-y,z
loop_
_atom_site_type_symbol
_atom_site_label
_atom_site_fract_x
_atom_site_fract_y
_atom_site_fract_z
Si Si1 0.455483 0.845601 0.008103
Si Si2 0.352952 0.642431 0.582728
Si Si3 0.097035 0.148951 0.475494
Si Si4 0.043288 0.760195 0.827053
Si Si5 0.127079 0.654391 0.248264
Si Si6 0.821785 0.155381 0.208287
Si Si7 0.708595 0.145084 0.901112
O O1 0.547428 0.786081 0.132307
O O2 0.471266 0.000000 0.022143
O O3 0.500000 0.786007 0.000000
O O4 0.305457 0.807341 0.878976
O O5 0.285669 0.500000 0.521447
O O6 0.250000 0.750000 0.500000
O O7 0.410788 0.672998 0.585987
O O8 0.466707 0.641165 0.724137
O O9 0.225275 0.216965 0.615297
O O10 0.950722 0.192250 0.357084
O O11 0.115868 0.000000 0.505824
O O12 0.120052 0.656634 0.865661
O O13 0.943222 0.684407 0.768223
O O14 0.141093 0.843897 0.947303
O O15 0.133473 0.500000 0.249032
O O16 0.824143 0.240387 0.164339
O O17 0.823009 0.000000 0.196507
O O18 0.686144 0.000000 0.859522
#
# Coordination Sequence:
#
# PCOD8082465 Si02
#       7
#     8   8   8   8   8   8   8
#     4   9  18  33  55  80 103 133 177 225 271 322
#     4  11  21  33  49  71 106 146 184 218 255 303
#     4   9  18  31  48  73 106 141 173 208 259 315
#     4  11  21  33  48  71 107 148 177 217 260 308
#     4  10  18  31  52  77 105 139 178 218 261 317
#     4  10  19  35  56  77 106 142 174 216 272 318
#     4  11  23  33  49  78 108 138 181 224 259 307
#
# _framework density 18.244994999999999
#
# number of rings (size 3 to 8) (size 9 to 14) (size 15 to 20)
#    0.000    1.857    4.286    0.857    0.000    2.857 
#    0.000    0.714    0.000    4.714    0.000    0.000 
#    0.000    1.143    0.000    0.000    0.000    0.000 
#
# Total GULP energy -346899.991945 kJ/mol
# GULP energy per Si atom -12389.285427 kJ/mol
# Density = 1.820347 g / cm^3
# Si number density = 18.244995 Si / 1000 Ang^3
#
#
#
# Elastic Constant Matrix: (Units=GPa)
#
#
# Indices 1 2 3 4 5 6 
#
# 1 78.6760 15.6217 58.9246 0.0047 4.3031 0.0000
# 2 15.6217 52.8546 19.4876 0.0044 6.6320 0.0011
# 3 58.9246 19.4876 174.7742 0.0149 11.5108 0.0015
# 4 0.0047 0.0044 0.0149 14.8821 0.0011 -0.2537
# 5 4.3031 6.6320 11.5108 0.0011 18.8235 -0.0010
# 6 0.0000 0.0011 0.0015 -0.2537 -0.0010 13.4895
#
#
#
# Elastic Compliance Matrix: (Units=1/GPa)
#
#
# Indices 1 2 3 4 5 6 
#
# 1 0.017490 -0.003180 -0.005577 0.000001 0.000533 0.000001
# 2 -0.003180 0.020945 -0.000860 -0.000004 -0.006127 -0.000002
# 3 -0.005577 -0.000860 0.007913 -0.000006 -0.003261 -0.000001
# 4 0.000001 -0.000004 -0.000006 0.067216 0.000001 0.001264
# 5 0.000533 -0.006127 -0.003261 0.000001 0.057156 0.000005
# 6 0.000001 -0.000002 -0.000001 0.001264 0.000005 0.074156
#
#
# Mechanical properties :
#
#
# Convention : Reuss Voigt Hill
#
# Bulk Modulus (GPa) = 36.88110 54.93028 45.90569
# Shear Modulus (GPa) = 18.30514 23.59040 20.94777
#
# Velocity S-wave (km/s) = 3.17092 3.59970 3.39209
# Velocity P-wave (km/s) = 5.80212 6.88836 6.36844
#
# Compressibility (1/GPa) = 0.02711416
#
# Stress axis : x y z
#
# Youngs Moduli (GPa) = 57.17697 47.74305 126.38080
#
# Poissons Ratio (x) = 0.15181 0.70484
# Poissons Ratio (y) = 0.18181 0.10867
# Poissons Ratio (z) = 0.31888 0.04105
#
# Static dielectric constant tensor:
#      x y z
#    x 3.259490 0.000000 -0.084160 
#    y 0.000000 3.021490 -0.000010 
#    z -0.084160 -0.000010 3.954360 
# 
# 
# High freq. dielectric constant tensor:
#      x y z
#    x 1.674280 0.000000 0.003860 
#    y 0.000000 1.658880 0.000000 
#    z 0.003860 0.000000 1.737410 
# 
# From -- ./inp_files/383873.got.cif
#   From: 2010.06.25/outbox.cif.g09.slc.cpg/sg12_192_cif.got.tgz:383873.got - 2010.06.28 00:19:55.
