data_PCOD8082549
_publ_section_title
;
Structure prediction by ZEFSAII (Michael W. Deem and Ramdas Pophale) SiO2 
 PCOD8082549
Probable space group: C 2/M
;
_chemical_formula_sum "Si O2"
_cell_formula_units_Z 48
_cell_length_a 15.983368
_cell_length_b 9.483420
_cell_length_c 18.598818
_cell_angle_alpha 90.000000
_cell_angle_beta 64.414596
_cell_angle_gamma 90.000000
_cell_volume 2542.713997
_symmetry_space_group_name_H-M "C 2/M"
_symmetry_group_IT_number 12
_symmetry_cell_setting 'monoclinic'
loop_
_space_group_symop_operation_xyz
x,y,z
-x,y,-z
-x,-y,-z
x,-y,z
1/2+x,1/2+y,z
1/2-x,1/2+y,-z
1/2-x,1/2-y,-z
1/2+x,1/2-y,z
loop_
_atom_site_type_symbol
_atom_site_label
_atom_site_fract_x
_atom_site_fract_y
_atom_site_fract_z
Si Si1 0.091320 0.832048 0.002888
Si Si2 0.749610 0.836416 0.321549
Si Si3 0.749906 0.163342 0.160689
Si Si4 0.041468 0.663507 0.406287
Si Si5 0.910608 0.160730 0.834422
Si Si6 0.429114 0.662519 0.331296
O O1 0.094369 0.776624 0.083212
O O2 0.087512 0.000000 0.002180
O O3 0.178973 0.776229 0.924970
O O4 0.000000 0.768302 0.000000
O O5 0.788904 0.812475 0.226423
O O6 0.646106 0.771030 0.368249
O O7 0.826078 0.776773 0.349752
O O8 0.740127 0.000000 0.342340
O O9 0.654375 0.246947 0.192038
O O10 0.728879 0.000000 0.154309
O O11 0.043456 0.500000 0.381522
O O12 0.000000 0.682883 0.500000
O O13 0.975010 0.745815 0.376475
O O14 0.013491 0.171992 0.764334
O O15 0.875201 0.000000 0.847147
O O16 0.424841 0.500000 0.358889
#
# Coordination Sequence:
#
# PCOD8082549 Si02
#       6
#     8   8   8   8   8   8
#     4   9  17  29  47  73 101 133 178 219 250 298
#     4   9  18  34  55  78 105 140 179 212 255 318
#     4  10  18  31  53  74  99 140 179 211 255 310
#     4  10  21  38  58  80 108 138 170 216 269 318
#     4  10  19  31  49  75 105 133 170 221 263 296
#     4  10  20  35  56  79 106 141 177 216 261 311
#
# _framework density 18.877468
#
# number of rings (size 3 to 8) (size 9 to 14) (size 15 to 20)
#    0.000    2.333    1.667    1.500    0.000    5.000 
#    0.000    1.667    0.000    4.000    0.000    0.000 
#    0.000    0.000    0.000    0.000    0.000    0.000 
#
# Total GULP energy -297511.252044 kJ/mol
# GULP energy per Si atom -12396.302168 kJ/mol
# Density = 1.883450 g / cm^3
# Si number density = 18.877468 Si / 1000 Ang^3
#
#
#
# Elastic Constant Matrix: (Units=GPa)
#
#
# Indices 1 2 3 4 5 6 
#
# 1 167.3188 46.7703 47.2464 0.0000 9.3309 0.0000
# 2 46.7703 42.1697 27.6454 0.0000 6.1421 0.0001
# 3 47.2464 27.6454 91.2386 0.0000 3.6256 0.0000
# 4 0.0000 0.0000 0.0000 12.8159 0.0000 0.6774
# 5 9.3309 6.1421 3.6256 0.0000 23.2969 0.0000
# 6 0.0000 0.0001 0.0000 0.6774 0.0000 25.3013
#
#
#
# Elastic Compliance Matrix: (Units=1/GPa)
#
#
# Indices 1 2 3 4 5 6 
#
# 1 0.008978 -0.008467 -0.002042 0.000000 -0.001046 0.000000
# 2 -0.008467 0.038570 -0.007077 0.000000 -0.005676 0.000000
# 3 -0.002042 -0.007077 0.014143 0.000000 0.000483 0.000000
# 4 0.000000 0.000000 0.000000 0.078139 0.000000 -0.002092
# 5 -0.001046 -0.005676 0.000483 0.000000 0.044765 0.000000
# 6 0.000000 0.000000 0.000000 -0.002092 0.000000 0.039580
#
#
# Mechanical properties :
#
#
# Convention : Reuss Voigt Hill
#
# Bulk Modulus (GPa) = 37.70771 60.45016 49.07893
# Shear Modulus (GPa) = 18.64377 24.22048 21.43212
#
# Velocity S-wave (km/s) = 3.14605 3.58584 3.37312
# Velocity P-wave (km/s) = 5.76326 7.01685 6.42072
#
# Compressibility (1/GPa) = 0.02651978
#
# Stress axis : x y z
#
# Youngs Moduli (GPa) = 111.37987 25.92675 70.70630
#
# Poissons Ratio (x) = 0.21951 0.14440
# Poissons Ratio (y) = 0.94300 0.50039
# Poissons Ratio (z) = 0.22747 0.18348
#
# Static dielectric constant tensor:
#      x y z
#    x 3.625100 0.000000 -0.111250 
#    y 0.000000 3.052420 0.000000 
#    z -0.111250 0.000000 3.544090 
# 
# 
# High freq. dielectric constant tensor:
#      x y z
#    x 1.743260 0.000000 -0.002360 
#    y 0.000000 1.685380 0.000000 
#    z -0.002360 0.000000 1.741080 
# 
# From -- ./inp_files/250737.got.cif
#   From: 2010.06.25/outbox.cif.g09.slc.cpg/sg12_126_cif.got.tgz:250737.got - 2010.06.28 00:19:55.
