data_PCOD8082182
_publ_section_title
;
Structure prediction by ZEFSAII (Michael W. Deem and Ramdas Pophale) SiO2 
 PCOD8082182
Probable space group: C 2/M
;
_chemical_formula_sum "Si O2"
_cell_formula_units_Z 48
_cell_length_a 25.077874
_cell_length_b 8.690484
_cell_length_c 12.503817
_cell_angle_alpha 90.000000
_cell_angle_beta 86.558274
_cell_angle_gamma 90.000000
_cell_volume 2720.152651
_symmetry_space_group_name_H-M "C 2/M"
_symmetry_group_IT_number 12
_symmetry_cell_setting 'monoclinic'
loop_
_space_group_symop_operation_xyz
x,y,z
-x,y,-z
-x,-y,-z
x,-y,z
1/2+x,1/2+y,z
1/2-x,1/2+y,-z
1/2-x,1/2-y,-z
1/2+x,1/2-y,z
loop_
_atom_site_type_symbol
_atom_site_label
_atom_site_fract_x
_atom_site_fract_y
_atom_site_fract_z
Si Si1 0.651078 0.182162 0.366904
Si Si2 0.635260 0.318617 0.600707
Si Si3 0.563064 0.327362 0.978878
Si Si4 0.946894 0.679633 0.236170
Si Si5 0.257960 0.182941 0.381627
Si Si6 0.069098 0.320153 0.194490
O O1 0.632938 0.251061 0.481966
O O2 0.707953 0.251807 0.319677
O O3 0.607223 0.231883 0.285768
O O4 0.656054 0.000000 0.377783
O O5 0.642573 0.500000 0.592798
O O6 0.580711 0.275259 0.666331
O O7 0.684507 0.246066 0.663797
O O8 0.583853 0.500000 0.956797
O O9 0.589356 0.262097 0.083908
O O10 0.500000 0.321778 0.000000
O O11 0.579077 0.224238 0.874964
O O12 0.938351 0.500000 0.257869
O O13 0.008955 0.727623 0.232515
O O14 0.250000 0.250000 0.500000
O O15 0.257715 0.000000 0.380679
O O16 0.072188 0.500000 0.171628
#
# Coordination Sequence:
#
# PCOD8082182 Si02
#       6
#     8   8   8   8   8   8
#     4  10  19  33  51  73 100 130 164 200 241 288
#     4  11  21  33  49  72 100 130 164 202 246 290
#     4   9  17  30  49  72  97 126 163 204 241 281
#     4  10  19  33  51  72  99 131 166 201 240 288
#     4  10  18  31  50  71  94 125 164 202 241 285
#     4   9  19  33  51  73  99 132 165 198 239 289
#
# _framework density 17.646070000000002
#
# number of rings (size 3 to 8) (size 9 to 14) (size 15 to 20)
#    0.000    2.167    0.000    6.500    0.000    4.667 
#    0.000    3.333    0.000    1.000    0.000    0.000 
#    0.000    0.000    0.000    0.000    0.000    0.000 
#
# Total GULP energy -297563.301107 kJ/mol
# GULP energy per Si atom -12398.470879 kJ/mol
# Density = 1.760591 g / cm^3
# Si number density = 17.646070 Si / 1000 Ang^3
#
#
#
# Elastic Constant Matrix: (Units=GPa)
#
#
# Indices 1 2 3 4 5 6 
#
# 1 85.7570 38.2239 47.1724 0.0000 24.6092 0.0000
# 2 38.2239 107.7096 37.2793 0.0000 15.6757 0.0000
# 3 47.1724 37.2793 86.6279 0.0000 24.8977 0.0000
# 4 0.0000 0.0000 0.0000 26.0671 0.0000 -1.6217
# 5 24.6092 15.6757 24.8977 0.0000 13.6580 0.0000
# 6 0.0000 0.0000 0.0000 -1.6217 0.0000 27.8766
#
#
#
# Elastic Compliance Matrix: (Units=1/GPa)
#
#
# Indices 1 2 3 4 5 6 
#
# 1 0.024838 -0.002683 -0.000826 0.000000 -0.040169 0.000000
# 2 -0.002683 0.011669 -0.002312 0.000000 -0.004344 0.000000
# 3 -0.000826 -0.002312 0.024782 0.000000 -0.041035 0.000000
# 4 0.000000 0.000000 0.000000 0.038502 0.000000 0.002240
# 5 -0.040169 -0.004344 -0.041035 0.000000 0.225384 0.000000
# 6 0.000000 0.000000 0.000000 0.002240 0.000000 0.036003
#
#
# Mechanical properties :
#
#
# Convention : Reuss Voigt Hill
#
# Bulk Modulus (GPa) = 20.14197 58.38285 39.26241
# Shear Modulus (GPa) = 12.84133 24.01494 18.42814
#
# Velocity S-wave (km/s) = 2.70055 3.69307 3.23510
# Velocity P-wave (km/s) = 4.60034 7.16536 6.02102
#
# Compressibility (1/GPa) = 0.04964759
#
# Stress axis : x y z
#
# Youngs Moduli (GPa) = 40.26100 85.69933 40.35170
#
# Poissons Ratio (x) = 0.22989 0.03332
# Poissons Ratio (y) = 0.10800 0.09330
# Poissons Ratio (z) = 0.03325 0.19816
#
# Static dielectric constant tensor:
#      x y z
#    x 3.676980 0.000000 0.099630 
#    y 0.000000 3.368120 0.000000 
#    z 0.099630 0.000000 3.184190 
# 
# 
# High freq. dielectric constant tensor:
#      x y z
#    x 1.669810 0.000000 0.005130 
#    y 0.000000 1.698770 0.000000 
#    z 0.005130 0.000000 1.661380 
# 
# From -- ./inp_files/172323.got.cif
#   From: 2010.06.25/outbox.cif.g09.slc.cpg/sg12_87_cif.got.tgz:172323.got - 2010.06.28 00:19:55.
