data_PCOD8082878
_publ_section_title
;
Structure prediction by ZEFSAII (Michael W. Deem and Ramdas Pophale) SiO2 
 PCOD8082878
Probable space group: C 2/M
;
_chemical_formula_sum "Si O2"
_cell_formula_units_Z 56
_cell_length_a 22.241270
_cell_length_b 9.637793
_cell_length_c 14.066753
_cell_angle_alpha 90.000000
_cell_angle_beta 84.948475
_cell_angle_gamma 90.000000
_cell_volume 3003.591858
_symmetry_space_group_name_H-M "C 2/M"
_symmetry_group_IT_number 12
_symmetry_cell_setting 'monoclinic'
loop_
_space_group_symop_operation_xyz
x,y,z
-x,y,-z
-x,-y,-z
x,-y,z
1/2+x,1/2+y,z
1/2-x,1/2+y,-z
1/2-x,1/2-y,-z
1/2+x,1/2-y,z
loop_
_atom_site_type_symbol
_atom_site_label
_atom_site_fract_x
_atom_site_fract_y
_atom_site_fract_z
Si Si1 0.741227 0.840431 0.094265
Si Si2 0.670374 0.350153 0.752647
Si Si3 0.039206 0.841200 0.330461
Si Si4 0.274886 0.781116 0.600958
Si Si5 0.927715 0.661173 0.310996
Si Si6 0.095477 0.350378 0.469437
Si Si7 0.330614 0.650603 0.763502
O O1 0.802291 0.831757 0.146460
O O2 0.687742 0.774340 0.164246
O O3 0.724599 0.000000 0.072042
O O4 0.750000 0.750000 0.000000
O O5 0.636997 0.500000 0.751245
O O6 0.722840 0.359809 0.665566
O O7 0.624511 0.223199 0.748144
O O8 0.055208 0.769564 0.428650
O O9 0.097660 0.835977 0.256225
O O10 0.987846 0.751036 0.285874
O O11 0.018236 0.000000 0.351463
O O12 0.250000 0.750000 0.500000
O O13 0.336566 0.866930 0.579317
O O14 0.296010 0.653110 0.665633
O O15 0.938895 0.500000 0.283528
O O16 0.902431 0.682362 0.419919
O O17 0.063963 0.500000 0.454654
O O18 0.314914 0.500000 0.810256
#
# Coordination Sequence:
#
# PCOD8082878 Si02
#       7
#     8   8   8   8   8   8   8
#     4  10  21  38  62  88 113 140 171 215 272 328
#     4  10  21  35  53  80 110 143 180 220 268 324
#     4  10  21  36  52  73 102 143 188 229 268 313
#     4  10  18  32  49  77 109 147 182 224 267 318
#     4  11  22  34  50  73 104 145 185 229 272 313
#     4  10  20  33  48  71 102 143 190 232 270 313
#     4   9  20  35  55  81 108 140 182 224 268 322
#
# _framework density 18.644344
#
# number of rings (size 3 to 8) (size 9 to 14) (size 15 to 20)
#    0.000    2.000    1.429    2.143    0.000   10.857 
#    0.000    0.000    0.000    0.857    0.000    6.000 
#    0.000    0.000    0.000    0.000    0.000    0.000 
#
# Total GULP energy -346967.593439 kJ/mol
# GULP energy per Si atom -12391.699766 kJ/mol
# Density = 1.860191 g / cm^3
# Si number density = 18.644344 Si / 1000 Ang^3
#
#
#
# Elastic Constant Matrix: (Units=GPa)
#
#
# Indices 1 2 3 4 5 6 
#
# 1 90.5610 59.3058 24.3784 0.0000 7.2649 0.0000
# 2 59.3058 174.4450 49.9560 0.0000 4.1248 0.0000
# 3 24.3784 49.9560 87.2931 0.0000 3.5194 0.0000
# 4 0.0000 0.0000 0.0000 26.3293 0.0000 1.6825
# 5 7.2649 4.1248 3.5194 0.0000 13.6001 0.0000
# 6 0.0000 0.0000 0.0000 1.6825 0.0000 25.3603
#
#
#
# Elastic Compliance Matrix: (Units=1/GPa)
#
#
# Indices 1 2 3 4 5 6 
#
# 1 0.014860 -0.004531 -0.001306 0.000000 -0.006226 0.000000
# 2 -0.004531 0.008253 -0.003491 0.000000 0.000821 0.000000
# 3 -0.001306 -0.003491 0.013892 0.000000 -0.001839 0.000000
# 4 0.000000 0.000000 0.000000 0.038142 0.000000 -0.002530
# 5 -0.006226 0.000821 -0.001839 0.000000 0.077082 0.000000
# 6 0.000000 0.000000 0.000000 -0.002530 0.000000 0.039600
#
#
# Mechanical properties :
#
#
# Convention : Reuss Voigt Hill
#
# Bulk Modulus (GPa) = 54.49541 68.84217 61.66879
# Shear Modulus (GPa) = 23.08385 27.63519 25.35952
#
# Velocity S-wave (km/s) = 3.52250 3.85415 3.69205
# Velocity P-wave (km/s) = 6.77026 7.53724 7.16402
#
# Compressibility (1/GPa) = 0.01835017
#
# Stress axis : x y z
#
# Youngs Moduli (GPa) = 67.29264 121.16711 71.98241
#
# Poissons Ratio (x) = 0.54899 0.09402
# Poissons Ratio (y) = 0.30489 0.25128
# Poissons Ratio (z) = 0.08790 0.42297
#
# Static dielectric constant tensor:
#      x y z
#    x 3.468810 0.000000 0.011250 
#    y 0.000000 3.642530 0.000000 
#    z 0.011250 0.000000 3.162460 
# 
# 
# High freq. dielectric constant tensor:
#      x y z
#    x 1.721630 0.000000 0.000500 
#    y 0.000000 1.738280 0.000000 
#    z 0.000500 0.000000 1.688000 
# 
# From -- ./inp_files/230897.got.cif
#   From: 2010.06.25/outbox.cif.g09.slc.cpg/sg12_116_cif.got.tgz:230897.got - 2010.06.28 00:19:55.
