data_PCOD8082464
_publ_section_title
;
Structure prediction by ZEFSAII (Michael W. Deem and Ramdas Pophale) SiO2 
 PCOD8082464
Probable space group: C 2/M
;
_chemical_formula_sum "Si O2"
_cell_formula_units_Z 56
_cell_length_a 20.253577
_cell_length_b 8.990429
_cell_length_c 30.767572
_cell_angle_alpha 90.000000
_cell_angle_beta 32.585125
_cell_angle_gamma 90.000000
_cell_volume 3017.192789
_symmetry_space_group_name_H-M "C 2/M"
_symmetry_group_IT_number 12
_symmetry_cell_setting 'monoclinic'
loop_
_space_group_symop_operation_xyz
x,y,z
-x,y,-z
-x,-y,-z
x,-y,z
1/2+x,1/2+y,z
1/2-x,1/2+y,-z
1/2-x,1/2-y,-z
1/2+x,1/2-y,z
loop_
_atom_site_type_symbol
_atom_site_label
_atom_site_fract_x
_atom_site_fract_y
_atom_site_fract_z
Si Si1 0.722314 0.827518 0.666805
Si Si2 0.896473 0.172505 0.651714
Si Si3 0.740570 0.671618 0.806868
Si Si4 0.911451 0.332466 0.508048
Si Si5 0.539578 0.823468 0.158859
Si Si6 0.487626 0.176417 0.923799
Si Si7 0.765914 0.828540 0.089309
O O1 0.795044 0.801435 0.671068
O O2 0.781878 0.738522 0.593722
O O3 0.585558 0.764073 0.749818
O O4 0.723643 0.000000 0.653240
O O5 0.854699 0.259970 0.717676
O O6 0.027820 0.237035 0.564165
O O7 0.912545 0.000000 0.653915
O O8 0.722534 0.500000 0.803948
O O9 0.618592 0.760095 0.863395
O O10 0.772914 0.689416 0.839409
O O11 0.889605 0.500000 0.503757
O O12 0.000000 0.328579 0.500000
O O13 0.549737 0.768171 0.103621
O O14 0.655919 0.762655 0.120940
O O15 0.535157 0.000000 0.162714
O O16 0.495479 0.000000 0.922133
O O17 0.388120 0.235055 0.013023
O O18 0.792771 0.000000 0.062767
#
# Coordination Sequence:
#
# PCOD8082464 Si02
#       7
#     8   8   8   8   8   8   8
#     4   9  16  30  51  75 102 134 171 211 257 307
#     4  10  18  31  52  77 104 136 174 214 258 306
#     4  11  22  35  53  77 107 140 174 214 263 313
#     4   9  17  28  45  75 110 137 165 208 259 308
#     4   9  18  35  56  77 104 137 176 216 260 311
#     4  11  21  36  57  79 102 134 177 223 263 306
#     4  10  22  38  54  75 105 141 175 214 264 315
#
# _framework density 18.560298
#
# number of rings (size 3 to 8) (size 9 to 14) (size 15 to 20)
#    0.000    2.143    1.429    2.571    0.000    5.143 
#    0.000    1.429    0.000    0.857    0.000    0.000 
#    0.000    0.000    0.000    0.000    0.000    0.000 
#
# Total GULP energy -347269.102828 kJ/mol
# GULP energy per Si atom -12402.467958 kJ/mol
# Density = 1.851805 g / cm^3
# Si number density = 18.560298 Si / 1000 Ang^3
#
#
#
# Elastic Constant Matrix: (Units=GPa)
#
#
# Indices 1 2 3 4 5 6 
#
# 1 54.7599 25.9411 13.8348 0.0024 11.8202 -0.0094
# 2 25.9411 90.9923 49.4652 0.0045 11.2654 -0.0081
# 3 13.8348 49.4652 126.7231 -0.0018 17.7110 0.0015
# 4 0.0024 0.0045 -0.0018 34.8964 -0.0010 4.8199
# 5 11.8202 11.2654 17.7110 -0.0010 14.2245 0.0052
# 6 -0.0094 -0.0081 0.0015 4.8199 0.0052 17.1015
#
#
#
# Elastic Compliance Matrix: (Units=1/GPa)
#
#
# Indices 1 2 3 4 5 6 
#
# 1 0.024471 -0.005894 0.002202 -0.000004 -0.018408 0.000017
# 2 -0.005894 0.015691 -0.005362 -0.000003 -0.000852 0.000006
# 3 0.002202 -0.005362 0.011388 0.000001 -0.011762 0.000001
# 4 -0.000004 -0.000003 0.000001 0.029817 0.000010 -0.008404
# 5 -0.018408 -0.000852 -0.011762 0.000010 0.100918 -0.000043
# 6 0.000017 0.000006 0.000001 -0.008404 -0.000043 0.060843
#
#
# Mechanical properties :
#
#
# Convention : Reuss Voigt Hill
#
# Bulk Modulus (GPa) = 29.90378 50.10637 40.00507
# Shear Modulus (GPa) = 18.35645 25.46011 21.90828
#
# Velocity S-wave (km/s) = 3.14828 3.70773 3.43940
# Velocity P-wave (km/s) = 5.41869 6.73683 6.11339
#
# Compressibility (1/GPa) = 0.03344059
#
# Stress axis : x y z
#
# Youngs Moduli (GPa) = 40.86450 63.73129 87.81332
#
# Poissons Ratio (x) = 0.37566 -0.19337
# Poissons Ratio (y) = 0.24088 0.47087
# Poissons Ratio (z) = -0.08999 0.34174
#
# Static dielectric constant tensor:
#      x y z
#    x 3.219290 -0.000010 0.042840 
#    y -0.000010 3.376220 0.000010 
#    z 0.042840 0.000010 3.630730 
# 
# 
# High freq. dielectric constant tensor:
#      x y z
#    x 1.684830 0.000000 0.006080 
#    y 0.000000 1.715170 0.000000 
#    z 0.006080 0.000000 1.736440 
# 
# From -- ./inp_files/320232.got.cif
#   From: 2010.06.25/outbox.cif.g09.slc.cpg/sg12_161_cif.got.tgz:320232.got - 2010.06.28 00:19:55.
