data_PCOD8082498
_publ_section_title
;
Structure prediction by ZEFSAII (Michael W. Deem and Ramdas Pophale) SiO2 
 PCOD8082498
Probable space group: C 2/M
;
_chemical_formula_sum "Si O2"
_cell_formula_units_Z 52
_cell_length_a 21.120376
_cell_length_b 9.773071
_cell_length_c 20.164447
_cell_angle_alpha 90.000000
_cell_angle_beta 139.463420
_cell_angle_gamma 90.000000
_cell_volume 2705.128284
_symmetry_space_group_name_H-M "C 2/M"
_symmetry_group_IT_number 12
_symmetry_cell_setting 'monoclinic'
loop_
_space_group_symop_operation_xyz
x,y,z
-x,y,-z
-x,-y,-z
x,-y,z
1/2+x,1/2+y,z
1/2-x,1/2+y,-z
1/2-x,1/2-y,-z
1/2+x,1/2-y,z
loop_
_atom_site_type_symbol
_atom_site_label
_atom_site_fract_x
_atom_site_fract_y
_atom_site_fract_z
Si Si1 0.969568 0.155153 0.229056
Si Si2 0.743572 0.347863 0.895026
Si Si3 0.500000 0.261417 0.000000
Si Si4 0.788427 0.155047 0.812530
Si Si5 0.985378 0.160734 0.591637
Si Si6 0.453352 0.150803 0.103316
Si Si7 0.341567 0.661364 0.366525
O O1 0.852804 0.163825 0.137913
O O2 0.005695 0.242956 0.194766
O O3 0.014143 0.218745 0.332834
O O4 0.005331 0.000000 0.245922
O O5 0.746513 0.500000 0.863326
O O6 0.742556 0.230287 0.839254
O O7 0.836689 0.331180 0.016704
O O8 0.405312 0.353702 0.910969
O O9 0.516062 0.167912 0.948613
O O10 0.754127 0.244817 0.721270
O O11 0.748600 0.000000 0.776329
O O12 0.885173 0.197172 0.473978
O O13 0.078999 0.210327 0.624638
O O14 0.998184 0.000000 0.607411
O O15 0.485417 0.000000 0.151615
O O16 0.316501 0.500000 0.341697
#
# Coordination Sequence:
#
# PCOD8082498 Si02
#       7
#     8   8   4   8   8   8   8
#     4  10  18  31  52  78 109 141 169 204 257 319
#     4   9  18  33  51  73 105 143 176 204 250 322
#     4  10  24  42  54  68 100 144 186 216 258 326
#     4  11  21  33  53  79 106 136 176 226 269 301
#     4   8  15  29  52  79 107 143 178 201 242 318
#     4  10  21  35  53  76 100 133 178 225 265 301
#     4   9  16  31  54  77 106 143 178 209 247 309
#
# _framework density 19.222749
#
# number of rings (size 3 to 8) (size 9 to 14) (size 15 to 20)
#    0.000    2.462    1.538    2.308    0.000    5.538 
#    0.000    2.308    0.000    0.923    0.000    0.000 
#    0.000    0.000    0.000    0.000    0.000    0.000 
#
# Total GULP energy -322203.300008 kJ/mol
# GULP energy per Si atom -12392.434616 kJ/mol
# Density = 1.917900 g / cm^3
# Si number density = 19.222749 Si / 1000 Ang^3
#
#
#
# Elastic Constant Matrix: (Units=GPa)
#
#
# Indices 1 2 3 4 5 6 
#
# 1 48.0529 27.4367 37.0177 0.0000 -19.4508 0.0000
# 2 27.4367 119.0716 57.5890 0.0000 -15.4686 0.0000
# 3 37.0177 57.5890 113.4537 0.0000 -24.9661 0.0000
# 4 0.0000 0.0000 0.0000 20.0387 0.0000 -1.9407
# 5 -19.4508 -15.4686 -24.9661 0.0000 32.4166 0.0000
# 6 0.0000 0.0000 0.0000 -1.9407 0.0000 14.1323
#
#
#
# Elastic Compliance Matrix: (Units=1/GPa)
#
#
# Indices 1 2 3 4 5 6 
#
# 1 0.032675 -0.002727 -0.006320 0.000000 0.013437 0.000000
# 2 -0.002727 0.011395 -0.004886 0.000000 0.000038 0.000000
# 3 -0.006320 -0.004886 0.014459 0.000000 0.005012 0.000000
# 4 0.000000 0.000000 0.000000 0.050576 0.000000 0.006945
# 5 0.013437 0.000038 0.005012 0.000000 0.042790 0.000000
# 6 0.000000 0.000000 0.000000 0.006945 0.000000 0.071714
#
#
# Mechanical properties :
#
#
# Convention : Reuss Voigt Hill
#
# Bulk Modulus (GPa) = 32.61187 58.29612 45.45400
# Shear Modulus (GPa) = 19.10618 23.88650 21.49634
#
# Velocity S-wave (km/s) = 3.15610 3.52890 3.34769
# Velocity P-wave (km/s) = 5.50303 6.85541 6.21611
#
# Compressibility (1/GPa) = 0.03066368
#
# Stress axis : x y z
#
# Youngs Moduli (GPa) = 30.60429 87.76096 69.15935
#
# Poissons Ratio (x) = 0.23929 0.43711
# Poissons Ratio (y) = 0.08345 0.33790
# Poissons Ratio (z) = 0.19343 0.42878
#
# Static dielectric constant tensor:
#      x y z
#    x 3.157060 0.000000 -0.116360 
#    y 0.000000 3.298010 0.000000 
#    z -0.116360 0.000000 3.837210 
# 
# 
# High freq. dielectric constant tensor:
#      x y z
#    x 1.706360 0.000000 -0.010820 
#    y 0.000000 1.727710 0.000000 
#    z -0.010820 0.000000 1.751690 
# 
# From -- ./inp_files/324391.got.cif
#   From: 2010.06.25/outbox.cif.g09.slc.cpg/sg12_163_cif.got.tgz:324391.got - 2010.06.28 00:19:55.
