data_PCOD8082879
_publ_section_title
;
Structure prediction by ZEFSAII (Michael W. Deem and Ramdas Pophale) SiO2 
 PCOD8082879
Probable space group: C 2/M
;
_chemical_formula_sum "Si O2"
_cell_formula_units_Z 56
_cell_length_a 27.024603
_cell_length_b 13.753863
_cell_length_c 9.900664
_cell_angle_alpha 90.000000
_cell_angle_beta 55.307899
_cell_angle_gamma 90.000000
_cell_volume 3025.782484
_symmetry_space_group_name_H-M "C 2/M"
_symmetry_group_IT_number 12
_symmetry_cell_setting 'monoclinic'
loop_
_space_group_symop_operation_xyz
x,y,z
-x,y,-z
-x,-y,-z
x,-y,z
1/2+x,1/2+y,z
1/2-x,1/2+y,-z
1/2-x,1/2-y,-z
1/2+x,1/2-y,z
loop_
_atom_site_type_symbol
_atom_site_label
_atom_site_fract_x
_atom_site_fract_y
_atom_site_fract_z
Si Si1 0.333064 0.793759 0.774148
Si Si2 0.750622 0.610866 0.400119
Si Si3 0.745185 0.390930 0.101658
Si Si4 0.051441 0.789649 0.311292
Si Si5 0.033008 0.211055 0.806711
Si Si6 0.839102 0.282333 0.451767
Si Si7 0.552567 0.500000 0.310542
Si Si8 0.472550 0.500000 0.186964
O O1 0.306233 0.687345 0.845787
O O2 0.400116 0.793111 0.731273
O O3 0.333062 0.817984 0.615499
O O4 0.297587 0.876824 0.909886
O O5 0.731785 0.500000 0.460891
O O6 0.771398 0.623093 0.212207
O O7 0.806816 0.639353 0.406611
O O8 0.692521 0.677672 0.520664
O O9 0.718619 0.500000 0.125828
O O10 0.086027 0.895722 0.271573
O O11 0.000000 0.783489 0.500000
O O12 0.020423 0.769366 0.216163
O O13 0.090417 0.280742 0.698621
O O14 0.062319 0.102290 0.739533
O O15 0.000000 0.226579 0.000000
O O16 0.500000 0.500000 0.500000
O O17 0.528737 0.500000 0.197072
O O18 0.500000 0.500000 0.000000
#
# Coordination Sequence:
#
# PCOD8082879 Si02
#       8
#     8   8   8   8   8   8   4   4
#     4  10  20  34  57  81 111 142 176 221 269 323
#     4   9  20  38  58  79 104 141 186 227 264 312
#     4   9  20  38  57  80 106 140 182 227 270 310
#     4  10  18  32  49  79 109 140 175 215 267 324
#     4  10  20  32  51  77 111 145 176 216 264 322
#     4  10  20  35  56  82 108 143 181 218 270 317
#     4   8  16  26  42  68 102 136 168 202 246 310
#     4   8  16  30  42  64 106 140 170 202 248 308
#
# _framework density 18.507608999999999
#
# number of rings (size 3 to 8) (size 9 to 14) (size 15 to 20)
#    0.000    2.571    1.429    0.000    4.000    0.571 
#    0.000    0.000    0.000    1.714    0.000    0.000 
#    0.000    0.000    0.000    0.000    0.000    0.000 
#
# Total GULP energy -346880.495673 kJ/mol
# GULP energy per Si atom -12388.589131 kJ/mol
# Density = 1.846548 g / cm^3
# Si number density = 18.507609 Si / 1000 Ang^3
#
#
#
# Elastic Constant Matrix: (Units=GPa)
#
#
# Indices 1 2 3 4 5 6 
#
# 1 83.0851 13.3619 31.8356 0.0000 11.5975 0.0000
# 2 13.3619 49.9838 16.4507 0.0000 5.1924 0.0000
# 3 31.8356 16.4507 93.3556 0.0000 12.7656 0.0000
# 4 0.0000 0.0000 0.0000 24.6522 0.0000 1.0706
# 5 11.5975 5.1924 12.7656 0.0000 26.9266 0.0000
# 6 0.0000 0.0000 0.0000 1.0706 0.0000 24.9293
#
#
#
# Elastic Compliance Matrix: (Units=1/GPa)
#
#
# Indices 1 2 3 4 5 6 
#
# 1 0.014467 -0.002137 -0.004022 0.000000 -0.003912 0.000000
# 2 -0.002137 0.021710 -0.002834 0.000000 -0.001922 0.000000
# 3 -0.004022 -0.002834 0.013122 0.000000 -0.003942 0.000000
# 4 0.000000 0.000000 0.000000 0.040640 0.000000 -0.001745
# 5 -0.003912 -0.001922 -0.003942 0.000000 0.041063 0.000000
# 6 0.000000 0.000000 0.000000 -0.001745 0.000000 0.040188
#
#
# Mechanical properties :
#
#
# Convention : Reuss Voigt Hill
#
# Bulk Modulus (GPa) = 31.93606 38.85789 35.39697
# Shear Modulus (GPa) = 25.04844 26.28671 25.66758
#
# Velocity S-wave (km/s) = 3.68287 3.77280 3.72811
# Velocity P-wave (km/s) = 5.94792 6.32613 6.13994
#
# Compressibility (1/GPa) = 0.03131257
#
# Stress axis : x y z
#
# Youngs Moduli (GPa) = 69.12444 46.06122 76.20987
#
# Poissons Ratio (x) = 0.09844 0.30650
# Poissons Ratio (y) = 0.14774 0.21598
# Poissons Ratio (z) = 0.27800 0.13054
#
# Static dielectric constant tensor:
#      x y z
#    x 3.078830 0.000000 0.074170 
#    y 0.000000 3.387830 0.000000 
#    z 0.074170 0.000000 3.292330 
# 
# 
# High freq. dielectric constant tensor:
#      x y z
#    x 1.709620 0.000000 0.019990 
#    y 0.000000 1.693620 0.000000 
#    z 0.019990 0.000000 1.719730 
# 
# From -- ./inp_files/104483.got.cif
#   From: 2010.06.25/outbox.cif.g09.slc.cpg/sg12_53_cif.got.tgz:104483.got - 2010.06.28 00:19:55.
