data_PCOD8082151
_publ_section_title
;
Structure prediction by ZEFSAII (Michael W. Deem and Ramdas Pophale) SiO2 
 PCOD8082151
Probable space group: C 2/M
;
_chemical_formula_sum "Si O2"
_cell_formula_units_Z 56
_cell_length_a 19.855909
_cell_length_b 17.830096
_cell_length_c 9.448420
_cell_angle_alpha 90.000000
_cell_angle_beta 85.004647
_cell_angle_gamma 90.000000
_cell_volume 3332.344953
_symmetry_space_group_name_H-M "C 2/M"
_symmetry_group_IT_number 12
_symmetry_cell_setting 'monoclinic'
loop_
_space_group_symop_operation_xyz
x,y,z
-x,y,-z
-x,-y,-z
x,-y,z
1/2+x,1/2+y,z
1/2-x,1/2+y,-z
1/2-x,1/2-y,-z
1/2+x,1/2-y,z
loop_
_atom_site_type_symbol
_atom_site_label
_atom_site_fract_x
_atom_site_fract_y
_atom_site_fract_z
Si Si1 0.945451 0.588155 0.632055
Si Si2 0.744327 0.661632 0.859880
Si Si3 0.555342 0.189501 0.097623
Si Si4 0.665633 0.697166 0.129304
Si Si5 0.342015 0.083396 0.038263
Si Si6 0.735788 0.414525 0.298899
Si Si7 0.210085 0.411923 0.410146
O O1 0.949410 0.500000 0.669777
O O2 0.966335 0.636490 0.766935
O O3 0.869159 0.610211 0.597078
O O4 0.000000 0.607368 0.500000
O O5 0.773616 0.745214 0.853669
O O6 0.737327 0.632530 0.701232
O O7 0.676352 0.662060 0.968645
O O8 0.795875 0.599834 0.911340
O O9 0.593643 0.262272 0.153323
O O10 0.500000 0.221268 0.000000
O O11 0.597989 0.142306 0.975921
O O12 0.672762 0.633760 0.249421
O O13 0.300493 0.094516 0.187760
O O14 0.371709 0.000000 0.019998
O O15 0.710297 0.500000 0.310613
O O16 0.763331 0.385227 0.442763
O O17 0.219376 0.500000 0.389245
#
# Coordination Sequence:
#
# PCOD8082151 Si02
#       7
#     8   8   8   8   8   8   8
#     4  10  21  35  47  68 107 147 174 197 228 279
#     4   9  16  29  49  70  96 130 161 203 250 294
#     4  11  22  34  49  69  97 138 177 209 237 287
#     4   9  18  34  48  69  98 127 166 210 255 289
#     4   9  16  29  47  70  98 130 165 199 240 289
#     4   9  19  31  50  75  98 125 159 206 258 303
#     4  10  18  31  49  75 105 131 163 202 242 294
#
# _framework density 16.804981999999999
#
# number of rings (size 3 to 8) (size 9 to 14) (size 15 to 20)
#    0.000    2.429    2.857    1.714    2.000    2.286 
#    0.000    0.000    0.000    0.429    0.000    0.000 
#    0.000    2.857    0.000    0.000    0.000    0.000 
#
# Total GULP energy -346931.951774 kJ/mol
# GULP energy per Si atom -12390.426849 kJ/mol
# Density = 1.676673 g / cm^3
# Si number density = 16.804982 Si / 1000 Ang^3
#
#
#
# Elastic Constant Matrix: (Units=GPa)
#
#
# Indices 1 2 3 4 5 6 
#
# 1 50.6202 32.0796 34.3598 0.0000 7.8803 0.0000
# 2 32.0796 55.1860 47.9629 0.0000 7.5395 0.0000
# 3 34.3598 47.9629 115.3735 0.0000 12.8980 0.0000
# 4 0.0000 0.0000 0.0000 26.0099 0.0000 3.3686
# 5 7.8803 7.5395 12.8980 0.0000 20.5680 0.0000
# 6 0.0000 0.0000 0.0000 3.3686 0.0000 16.5576
#
#
#
# Elastic Compliance Matrix: (Units=1/GPa)
#
#
# Indices 1 2 3 4 5 6 
#
# 1 0.032313 -0.016005 -0.002410 0.000000 -0.005002 0.000000
# 2 -0.016005 0.036500 -0.010320 0.000000 -0.000776 0.000000
# 3 -0.002410 -0.010320 0.014141 0.000000 -0.004161 0.000000
# 4 0.000000 0.000000 0.000000 0.039487 0.000000 -0.008034
# 5 -0.005002 -0.000776 -0.004161 0.000000 0.053429 0.000000
# 6 0.000000 0.000000 0.000000 -0.008034 0.000000 0.062030
#
#
# Mechanical properties :
#
#
# Convention : Reuss Voigt Hill
#
# Bulk Modulus (GPa) = 39.24400 49.99825 44.62113
# Shear Modulus (GPa) = 16.45465 19.74559 18.10012
#
# Velocity S-wave (km/s) = 3.13254 3.43152 3.28543
# Velocity P-wave (km/s) = 6.04045 6.74664 6.40328
#
# Compressibility (1/GPa) = 0.02548160
#
# Stress axis : x y z
#
# Youngs Moduli (GPa) = 30.94762 27.39729 70.71667
#
# Poissons Ratio (x) = 0.43850 0.17045
# Poissons Ratio (y) = 0.49532 0.72983
# Poissons Ratio (z) = 0.07460 0.28275
#
# Static dielectric constant tensor:
#      x y z
#    x 2.874940 0.000000 -0.074460 
#    y 0.000000 3.199660 0.000000 
#    z -0.074460 0.000000 3.373610 
# 
# 
# High freq. dielectric constant tensor:
#      x y z
#    x 1.598990 0.000000 0.000940 
#    y 0.000000 1.640330 0.000000 
#    z 0.000940 0.000000 1.659730 
# 
# From -- ./inp_files/87243.got.cif
#   From: 2010.06.25/outbox.cif.g09.slc.cpg/sg12_44_cif.got.tgz:87243.got - 2010.06.28 00:19:55.
