data_PCOD8082405
_publ_section_title
;
Structure prediction by ZEFSAII (Michael W. Deem and Ramdas Pophale) SiO2 
 PCOD8082405
Probable space group: C 2/M
;
_chemical_formula_sum "Si O2"
_cell_formula_units_Z 56
_cell_length_a 22.764990
_cell_length_b 14.604455
_cell_length_c 19.622732
_cell_angle_alpha 90.000000
_cell_angle_beta 151.162996
_cell_angle_gamma 90.000000
_cell_volume 3146.640571
_symmetry_space_group_name_H-M "C 2/M"
_symmetry_group_IT_number 12
_symmetry_cell_setting 'monoclinic'
loop_
_space_group_symop_operation_xyz
x,y,z
-x,y,-z
-x,-y,-z
x,-y,z
1/2+x,1/2+y,z
1/2-x,1/2+y,-z
1/2-x,1/2-y,-z
1/2+x,1/2-y,z
loop_
_atom_site_type_symbol
_atom_site_label
_atom_site_fract_x
_atom_site_fract_y
_atom_site_fract_z
Si Si1 0.671896 0.606054 0.124002
Si Si2 0.938902 0.767800 0.204131
Si Si3 0.907283 0.893465 0.813456
Si Si4 0.921033 0.395107 0.709724
Si Si5 0.944950 0.605868 0.016771
Si Si6 0.271110 0.753336 0.908506
Si Si7 0.846113 0.107994 0.603801
O O1 0.692668 0.500000 0.127068
O O2 0.685573 0.624272 0.218656
O O3 0.766505 0.669363 0.179661
O O4 0.540322 0.646555 0.965925
O O5 0.854029 0.782874 0.183336
O O6 0.993128 0.665121 0.252276
O O7 0.045129 0.841406 0.324389
O O8 0.863130 0.787281 0.058614
O O9 0.849386 0.854735 0.685305
O O10 0.931253 0.000000 0.830369
O O11 0.939834 0.500000 0.705620
O O12 0.781812 0.363513 0.558954
O O13 0.951179 0.381681 0.820126
O O14 0.903965 0.500000 0.969368
O O15 0.826903 0.663603 0.920421
O O16 0.000000 0.639602 0.000000
O O17 0.868014 0.000000 0.620991
#
# Coordination Sequence:
#
# PCOD8082405 Si02
#       7
#     8   8   8   8   8   8   8
#     4   9  16  27  44  70 100 122 151 191 233 282
#     4  10  20  32  45  72 103 126 159 198 237 289
#     4   8  15  26  44  71  95 118 152 192 230 275
#     4   9  19  34  52  72  94 126 162 197 241 288
#     4   9  19  35  53  72  93 121 164 210 243 277
#     4  10  20  30  48  72  98 132 159 191 247 289
#     4  10  18  31  52  73  96 126 159 198 243 284
#
# _framework density 17.796758000000001
#
# number of rings (size 3 to 8) (size 9 to 14) (size 15 to 20)
#    0.000    2.714    1.429    1.286    2.000    1.143 
#    0.000    2.857    0.000    3.429    0.000    8.000 
#    0.000    0.000    0.000    0.000    0.000    0.000 
#
# Total GULP energy -347037.239725 kJ/mol
# GULP energy per Si atom -12394.187133 kJ/mol
# Density = 1.775625 g / cm^3
# Si number density = 17.796758 Si / 1000 Ang^3
#
#
#
# Elastic Constant Matrix: (Units=GPa)
#
#
# Indices 1 2 3 4 5 6 
#
# 1 143.3699 61.7031 44.4442 0.0001 8.4991 0.0001
# 2 61.7031 67.8091 30.5901 0.0001 5.8544 0.0001
# 3 44.4442 30.5901 73.1199 0.0000 4.2435 0.0001
# 4 0.0001 0.0001 0.0000 17.6505 0.0001 -0.8192
# 5 8.4991 5.8544 4.2435 0.0001 20.3423 0.0001
# 6 0.0001 0.0001 0.0001 -0.8192 0.0001 24.0475
#
#
#
# Elastic Compliance Matrix: (Units=1/GPa)
#
#
# Indices 1 2 3 4 5 6 
#
# 1 0.012166 -0.009410 -0.003361 0.000000 -0.001674 0.000000
# 2 -0.009410 0.025734 -0.004904 0.000000 -0.002452 0.000000
# 3 -0.003361 -0.004904 0.017823 0.000000 -0.000902 0.000000
# 4 0.000000 0.000000 0.000000 0.056745 0.000000 0.001933
# 5 -0.001674 -0.002452 -0.000902 0.000000 0.050752 0.000000
# 6 0.000000 0.000000 0.000000 0.001933 0.000000 0.041650
#
#
# Mechanical properties :
#
#
# Convention : Reuss Voigt Hill
#
# Bulk Modulus (GPa) = 49.08438 61.97484 55.52961
# Shear Modulus (GPa) = 20.24210 22.24549 21.24379
#
# Velocity S-wave (km/s) = 3.37620 3.53933 3.45873
# Velocity P-wave (km/s) = 6.54513 7.18344 6.87170
#
# Compressibility (1/GPa) = 0.02037308
#
# Stress axis : x y z
#
# Youngs Moduli (GPa) = 82.19821 38.85983 56.10696
#
# Poissons Ratio (x) = 0.36565 0.18857
# Poissons Ratio (y) = 0.77345 0.27516
# Poissons Ratio (z) = 0.27627 0.19057
#
# Static dielectric constant tensor:
#      x y z
#    x 3.345870 0.000000 -0.215790 
#    y 0.000000 3.302780 0.000000 
#    z -0.215790 0.000000 3.255170 
# 
# 
# High freq. dielectric constant tensor:
#      x y z
#    x 1.680220 0.000000 -0.011260 
#    y 0.000000 1.694860 0.000000 
#    z -0.011260 0.000000 1.654280 
# 
# From -- ./inp_files/284563.got.cif
#   From: 2010.06.25/outbox.cif.g09.slc.cpg/sg12_143_cif.got.tgz:284563.got - 2010.06.28 00:19:55.
