data_PCOD8082176
_publ_section_title
;
Structure prediction by ZEFSAII (Michael W. Deem and Ramdas Pophale) SiO2 
 PCOD8082176
Probable space group: C 2/M
;
_chemical_formula_sum "Si O2"
_cell_formula_units_Z 64
_cell_length_a 25.180274
_cell_length_b 8.916886
_cell_length_c 17.007439
_cell_angle_alpha 90.000000
_cell_angle_beta 90.103811
_cell_angle_gamma 90.000000
_cell_volume 3818.667764
_symmetry_space_group_name_H-M "C 2/M"
_symmetry_group_IT_number 12
_symmetry_cell_setting 'monoclinic'
loop_
_space_group_symop_operation_xyz
x,y,z
-x,y,-z
-x,-y,-z
x,-y,z
1/2+x,1/2+y,z
1/2-x,1/2+y,-z
1/2-x,1/2-y,-z
1/2+x,1/2-y,z
loop_
_atom_site_type_symbol
_atom_site_label
_atom_site_fract_x
_atom_site_fract_y
_atom_site_fract_z
Si Si1 0.811596 0.826094 0.085710
Si Si2 0.101975 0.677730 0.813079
Si Si3 0.938792 0.823414 0.340430
Si Si4 0.436916 0.830925 0.498643
Si Si5 0.903018 0.675373 0.809502
Si Si6 0.438329 0.323919 0.656476
Si Si7 0.501718 0.178068 0.912099
Si Si8 0.810368 0.672471 0.925135
O O1 0.842631 0.731707 0.150876
O O2 0.749644 0.793439 0.100715
O O3 0.825777 0.000000 0.094641
O O4 0.827926 0.773479 0.998610
O O5 0.101488 0.500000 0.805008
O O6 0.095873 0.748573 0.727460
O O7 0.054529 0.736027 0.868956
O O8 0.916737 0.760402 0.422864
O O9 0.000390 0.779056 0.328463
O O10 0.930416 0.000000 0.339133
O O11 0.500000 0.828568 0.500000
O O12 0.415656 0.752123 0.577472
O O13 0.414841 0.000000 0.494709
O O14 0.910305 0.500000 0.791301
O O15 0.903098 0.765202 0.728282
O O16 0.847422 0.710586 0.851434
O O17 0.950412 0.735558 0.864849
O O18 0.431676 0.500000 0.646886
O O19 0.501430 0.000000 0.916528
O O20 0.500000 0.246117 0.000000
O O21 0.817543 0.500000 0.951395
#
# Coordination Sequence:
#
# PCOD8082176 Si02
#       8
#     8   8   8   8   8   8   8   8
#     4  10  20  34  51  72  97 125 162 210 256 291
#     4  11  20  31  49  71  97 130 167 200 239 291
#     4  10  19  31  46  68 101 132 160 198 244 288
#     4   9  17  29  47  68  93 128 169 200 231 280
#     4  10  18  31  50  70  95 127 166 204 239 285
#     4  10  19  30  45  69 102 132 159 195 245 292
#     4   9  17  28  44  66  92 123 160 198 235 280
#     4   9  19  35  54  72  92 125 168 209 249 292
#
# _framework density 16.759772000000002
#
# number of rings (size 3 to 8) (size 9 to 14) (size 15 to 20)
#    0.000    2.250    1.250    2.625    0.000    5.500 
#    0.000    0.000    0.000    1.875    0.000    0.875 
#    0.000    0.000    0.000    0.000    0.000    0.000 
#
# Total GULP energy -396896.232972 kJ/mol
# GULP energy per Si atom -12403.007280 kJ/mol
# Density = 1.672163 g / cm^3
# Si number density = 16.759772 Si / 1000 Ang^3
#
#
#
# Elastic Constant Matrix: (Units=GPa)
#
#
# Indices 1 2 3 4 5 6 
#
# 1 65.1128 31.4554 50.6520 0.0000 3.0266 0.0000
# 2 31.4554 76.3168 53.4335 0.0000 4.3325 0.0000
# 3 50.6520 53.4335 149.9648 0.0000 5.7817 0.0000
# 4 0.0000 0.0000 0.0000 31.4457 0.0000 3.9861
# 5 3.0266 4.3325 5.7817 0.0000 20.0436 0.0000
# 6 0.0000 0.0000 0.0000 3.9861 0.0000 20.3473
#
#
#
# Elastic Compliance Matrix: (Units=1/GPa)
#
#
# Indices 1 2 3 4 5 6 
#
# 1 0.022296 -0.005195 -0.005656 0.000000 -0.000612 0.000000
# 2 -0.005195 0.018749 -0.004854 0.000000 -0.001868 0.000000
# 3 -0.005656 -0.004854 0.010350 0.000000 -0.001082 0.000000
# 4 0.000000 0.000000 0.000000 0.032611 0.000000 -0.006389
# 5 -0.000612 -0.001868 -0.001082 0.000000 0.050700 0.000000
# 6 0.000000 0.000000 0.000000 -0.006389 0.000000 0.050398
#
#
# Mechanical properties :
#
#
# Convention : Reuss Voigt Hill
#
# Bulk Modulus (GPa) = 50.03687 62.49736 56.26711
# Shear Modulus (GPa) = 22.40407 24.75757 23.58082
#
# Velocity S-wave (km/s) = 3.66016 3.84761 3.75505
# Velocity P-wave (km/s) = 6.91249 7.55711 7.24197
#
# Compressibility (1/GPa) = 0.01998526
#
# Stress axis : x y z
#
# Youngs Moduli (GPa) = 44.85124 53.33676 96.62058
#
# Poissons Ratio (x) = 0.27707 0.54650
# Poissons Ratio (y) = 0.23299 0.46897
# Poissons Ratio (z) = 0.25368 0.25888
#
# Static dielectric constant tensor:
#      x y z
#    x 2.916310 0.000000 0.010570 
#    y 0.000000 3.096240 0.000000 
#    z 0.010570 0.000000 3.233010 
# 
# 
# High freq. dielectric constant tensor:
#      x y z
#    x 1.608980 0.000000 0.004220 
#    y 0.000000 1.646240 0.000000 
#    z 0.004220 0.000000 1.651930 
# 
# From -- ./inp_files/243958.got.cif
#   From: 2010.06.25/outbox.cif.g09.slc.cpg/sg12_122_cif.got.tgz:243958.got - 2010.06.28 00:19:55.
