data_PCOD8082753
_publ_section_title
;
Structure prediction by ZEFSAII (Michael W. Deem and Ramdas Pophale) SiO2 
 PCOD8082753
Probable space group: C 2/M
;
_chemical_formula_sum "Si O2"
_cell_formula_units_Z 56
_cell_length_a 20.702198
_cell_length_b 8.912909
_cell_length_c 17.293428
_cell_angle_alpha 90.000000
_cell_angle_beta 74.965064
_cell_angle_gamma 90.000000
_cell_volume 3081.695728
_symmetry_space_group_name_H-M "C 2/M"
_symmetry_group_IT_number 12
_symmetry_cell_setting 'monoclinic'
loop_
_space_group_symop_operation_xyz
x,y,z
-x,y,-z
-x,-y,-z
x,-y,z
1/2+x,1/2+y,z
1/2-x,1/2+y,-z
1/2-x,1/2-y,-z
1/2+x,1/2-y,z
loop_
_atom_site_type_symbol
_atom_site_label
_atom_site_fract_x
_atom_site_fract_y
_atom_site_fract_z
Si Si1 0.934781 0.822164 0.766893
Si Si2 0.201165 0.673395 0.906450
Si Si3 0.920884 0.178633 0.323371
Si Si4 0.838391 0.177805 0.661853
Si Si5 0.800294 0.822081 0.254793
Si Si6 0.655129 0.326384 0.067683
Si Si7 0.929069 0.822144 0.493610
O O1 0.886670 0.760155 0.714379
O O2 0.906732 0.774348 0.859608
O O3 0.009441 0.757830 0.733187
O O4 0.935138 0.000000 0.759493
O O5 0.187247 0.500000 0.894280
O O6 0.183852 0.767122 0.836142
O O7 0.277963 0.703296 0.904167
O O8 0.153441 0.728001 0.990745
O O9 0.860012 0.237897 0.290590
O O10 0.911989 0.239698 0.413556
O O11 0.922721 0.000000 0.322464
O O12 0.767304 0.255678 0.690073
O O13 0.870255 0.225752 0.570085
O O14 0.828351 0.000000 0.672228
O O15 0.795618 0.000000 0.256176
O O16 0.650052 0.500000 0.045410
O O17 0.000000 0.754788 0.500000
O O18 0.935584 0.000000 0.489329
#
# Coordination Sequence:
#
# PCOD8082753 Si02
#       7
#     8   8   8   8   8   8   8
#     4   9  15  29  52  78 103 129 172 221 255 294
#     4  10  19  33  53  77 104 134 172 215 256 305
#     4   9  18  31  49  77 108 137 172 217 261 302
#     4  10  18  31  55  81 102 132 176 221 259 299
#     4  11  22  34  49  74 111 145 170 205 261 318
#     4   9  17  30  52  80 103 127 166 218 266 302
#     4   9  15  27  52  82 105 128 172 227 263 291
#
# _framework density 18.171814000000001
#
# number of rings (size 3 to 8) (size 9 to 14) (size 15 to 20)
#    0.000    2.429    2.857    0.857    0.000    1.143 
#    0.000    0.714    0.000    9.000    0.000    0.000 
#    0.000    0.000    0.000    0.000    0.000    0.000 
#
# Total GULP energy -347175.507185 kJ/mol
# GULP energy per Si atom -12399.125257 kJ/mol
# Density = 1.813045 g / cm^3
# Si number density = 18.171814 Si / 1000 Ang^3
#
#
#
# Elastic Constant Matrix: (Units=GPa)
#
#
# Indices 1 2 3 4 5 6 
#
# 1 145.2911 32.1285 89.3978 0.0000 -5.3391 0.0000
# 2 32.1285 34.6679 32.9645 0.0000 -0.6159 0.0000
# 3 89.3978 32.9645 161.7443 0.0000 -10.3222 0.0000
# 4 0.0000 0.0000 0.0000 21.8782 0.0000 -2.9036
# 5 -5.3391 -0.6159 -10.3222 0.0000 28.3020 0.0000
# 6 0.0000 0.0000 0.0000 -2.9036 0.0000 19.4064
#
#
#
# Elastic Compliance Matrix: (Units=1/GPa)
#
#
# Indices 1 2 3 4 5 6 
#
# 1 0.011242 -0.005602 -0.005062 0.000000 0.000153 0.000000
# 2 -0.005602 0.038674 -0.004913 0.000000 -0.002007 0.000000
# 3 -0.005062 -0.004913 0.010150 0.000000 0.002640 0.000000
# 4 0.000000 0.000000 0.000000 0.046634 0.000000 0.006977
# 5 0.000153 -0.002007 0.002640 0.000000 0.036281 0.000000
# 6 0.000000 0.000000 0.000000 0.006977 0.000000 0.052573
#
#
# Mechanical properties :
#
#
# Convention : Reuss Voigt Hill
#
# Bulk Modulus (GPa) = 34.59018 72.29833 53.44426
# Shear Modulus (GPa) = 21.15538 26.39813 23.77676
#
# Velocity S-wave (km/s) = 3.41572 3.81556 3.62116
# Velocity P-wave (km/s) = 5.88495 7.69959 6.85260
#
# Compressibility (1/GPa) = 0.02890994
#
# Stress axis : x y z
#
# Youngs Moduli (GPa) = 88.95335 25.85747 98.51964
#
# Poissons Ratio (x) = 0.14487 0.49870
# Poissons Ratio (y) = 0.49836 0.48407
# Poissons Ratio (z) = 0.45028 0.12705
#
# Static dielectric constant tensor:
#      x y z
#    x 3.387180 0.000000 -0.070090 
#    y 0.000000 2.930280 0.000000 
#    z -0.070090 0.000000 3.620780 
# 
# 
# High freq. dielectric constant tensor:
#      x y z
#    x 1.692250 0.000000 -0.008790 
#    y 0.000000 1.659360 0.000000 
#    z -0.008790 0.000000 1.722220 
# 
# From -- ./inp_files/280220.got.cif
#   From: 2010.06.25/outbox.cif.g09.slc.cpg/sg12_141_cif.got.tgz:280220.got - 2010.06.28 00:19:55.
