data_PCOD8082881
_publ_section_title
;
Structure prediction by ZEFSAII (Michael W. Deem and Ramdas Pophale) SiO2 
 PCOD8082881
Probable space group: C 2/M
;
_chemical_formula_sum "Si O2"
_cell_formula_units_Z 48
_cell_length_a 11.680539
_cell_length_b 19.224231
_cell_length_c 11.699471
_cell_angle_alpha 90.000000
_cell_angle_beta 89.288613
_cell_angle_gamma 90.000000
_cell_volume 2626.906466
_symmetry_space_group_name_H-M "C 2/M"
_symmetry_group_IT_number 12
_symmetry_cell_setting 'monoclinic'
loop_
_space_group_symop_operation_xyz
x,y,z
-x,y,-z
-x,-y,-z
x,-y,z
1/2+x,1/2+y,z
1/2-x,1/2+y,-z
1/2-x,1/2-y,-z
1/2+x,1/2-y,z
loop_
_atom_site_type_symbol
_atom_site_label
_atom_site_fract_x
_atom_site_fract_y
_atom_site_fract_z
Si Si1 0.583181 0.634295 0.399777
Si Si2 0.657039 0.651433 0.979667
Si Si3 0.814313 0.679665 0.470651
Si Si4 0.399542 0.803791 0.925817
Si Si5 0.475446 0.421189 0.838228
Si Si6 0.966959 0.707355 0.663820
O O1 0.500000 0.607328 0.500000
O O2 0.715941 0.624353 0.437536
O O3 0.560431 0.586185 0.291806
O O4 0.554697 0.713398 0.369909
O O5 0.788084 0.647986 0.939077
O O6 0.578086 0.631646 0.871558
O O7 0.624788 0.727271 0.026363
O O8 0.634374 0.596324 0.081122
O O9 0.750000 0.750000 0.500000
O O10 0.886390 0.658748 0.583602
O O11 0.900182 0.689206 0.361849
O O12 0.438183 0.804409 0.794875
O O13 0.500000 0.838012 0.000000
O O14 0.514811 0.500000 0.860309
#
# Coordination Sequence:
#
# PCOD8082881 Si02
#       6
#     8   8   8   8   8   8
#     4  11  20  32  54  82 110 141 190 230 270 329
#     4  10  21  37  55  82 115 149 180 231 288 338
#     4   9  18  30  50  78 112 154 170 215 287 354
#     4  11  21  31  56  90 117 137 178 235 291 342
#     4  11  23  41  59  77 112 159 197 230 272 327
#     4  10  18  32  49  82 117 149 170 214 301 346
#
# _framework density 18.272442999999999
#
# number of rings (size 3 to 8) (size 9 to 14) (size 15 to 20)
#    0.000    1.667    6.667    1.000    4.667    1.667 
#    0.000    0.000    0.000    2.000    0.000    2.333 
#    0.000    0.000    0.000    0.000    0.000    0.000 
#
# Total GULP energy -297488.901830 kJ/mol
# GULP energy per Si atom -12395.370910 kJ/mol
# Density = 1.823085 g / cm^3
# Si number density = 18.272443 Si / 1000 Ang^3
#
#
#
# Elastic Constant Matrix: (Units=GPa)
#
#
# Indices 1 2 3 4 5 6 
#
# 1 159.1963 31.9406 79.1122 0.0000 -15.0974 0.0000
# 2 31.9406 43.3797 22.6373 0.0000 3.5014 0.0000
# 3 79.1122 22.6373 144.0457 0.0000 -2.0090 0.0000
# 4 0.0000 0.0000 0.0000 8.8602 0.0000 -3.0474
# 5 -15.0974 3.5014 -2.0090 0.0000 28.8224 0.0000
# 6 0.0000 0.0000 0.0000 -3.0474 0.0000 8.2466
#
#
#
# Elastic Compliance Matrix: (Units=1/GPa)
#
#
# Indices 1 2 3 4 5 6 
#
# 1 0.010274 -0.005582 -0.004685 0.000000 0.005733 0.000000
# 2 -0.005582 0.028468 -0.001498 0.000000 -0.006487 0.000000
# 3 -0.004685 -0.001498 0.009729 0.000000 -0.001594 0.000000
# 4 0.000000 0.000000 0.000000 0.129297 0.000000 0.047779
# 5 0.005733 -0.006487 -0.001594 0.000000 0.038375 0.000000
# 6 0.000000 0.000000 0.000000 0.047779 0.000000 0.138918
#
#
# Mechanical properties :
#
#
# Convention : Reuss Voigt Hill
#
# Bulk Modulus (GPa) = 40.09866 68.22243 54.16055
# Shear Modulus (GPa) = 12.92308 23.38128 18.15218
#
# Velocity S-wave (km/s) = 2.66229 3.58102 3.15527
# Velocity P-wave (km/s) = 5.60740 7.38347 6.55586
#
# Compressibility (1/GPa) = 0.02493849
#
# Stress axis : x y z
#
# Youngs Moduli (GPa) = 97.33771 35.12709 102.78910
#
# Poissons Ratio (x) = 0.19609 0.48158
# Poissons Ratio (y) = 0.54336 0.15403
# Poissons Ratio (z) = 0.45604 0.05264
#
# Static dielectric constant tensor:
#      x y z
#    x 3.700500 0.000000 -0.202980 
#    y 0.000000 2.895270 0.000000 
#    z -0.202980 0.000000 3.202170 
# 
# 
# High freq. dielectric constant tensor:
#      x y z
#    x 1.720920 0.000000 0.001350 
#    y 0.000000 1.644540 0.000000 
#    z 0.001350 0.000000 1.723400 
# 
# From -- ./inp_files/131036.got.cif
#   From: 2010.06.25/outbox.cif.g09.slc.cpg/sg12_66_cif.got.tgz:131036.got - 2010.06.28 00:19:55.
