data_PCOD8082750
_publ_section_title
;
Structure prediction by ZEFSAII (Michael W. Deem and Ramdas Pophale) SiO2 
 PCOD8082750
Probable space group: C 2/M
;
_chemical_formula_sum "Si O2"
_cell_formula_units_Z 60
_cell_length_a 22.190363
_cell_length_b 18.254624
_cell_length_c 8.611220
_cell_angle_alpha 90.000000
_cell_angle_beta 63.549651
_cell_angle_gamma 90.000000
_cell_volume 3123.061982
_symmetry_space_group_name_H-M "C 2/M"
_symmetry_group_IT_number 12
_symmetry_cell_setting 'monoclinic'
loop_
_space_group_symop_operation_xyz
x,y,z
-x,y,-z
-x,-y,-z
x,-y,z
1/2+x,1/2+y,z
1/2-x,1/2+y,-z
1/2-x,1/2-y,-z
1/2+x,1/2-y,z
loop_
_atom_site_type_symbol
_atom_site_label
_atom_site_fract_x
_atom_site_fract_y
_atom_site_fract_z
Si Si1 0.269860 0.915483 0.530926
Si Si2 0.360687 0.652532 0.460160
Si Si3 0.500000 0.769525 0.000000
Si Si4 0.871955 0.852018 0.811579
Si Si5 0.639875 0.197343 0.727484
Si Si6 0.184114 0.714037 0.005765
Si Si7 0.501372 0.371441 0.827954
Si Si8 0.762356 0.583826 0.899399
O O1 0.204521 0.894287 0.507123
O O2 0.336044 0.871567 0.400485
O O3 0.255588 0.897546 0.726162
O O4 0.286236 0.000000 0.484301
O O5 0.366993 0.660956 0.635552
O O6 0.357111 0.731265 0.382729
O O7 0.427054 0.608598 0.329341
O O8 0.433635 0.818660 0.110347
O O9 0.507067 0.716603 0.141874
O O10 0.875361 0.770647 0.884838
O O11 0.939606 0.895452 0.787150
O O12 0.809394 0.900220 0.940223
O O13 0.691437 0.207517 0.811649
O O14 0.178572 0.633443 0.090607
O O15 0.250000 0.750000 0.000000
O O16 0.500000 0.410288 0.000000
O O17 0.782920 0.500000 0.904478
#
# Coordination Sequence:
#
# PCOD8082750 Si02
#       8
#     8   8   4   8   8   8   8   8
#     4  11  23  38  55  79 113 149 187 232 283 333
#     4  11  21  33  57  86 113 144 182 232 278 333
#     4   8  18  34  57  82 111 142 184 222 278 328
#     4  11  19  33  54  83 112 143 186 226 278 330
#     4  11  20  37  58  84 113 147 184 231 280 330
#     4  10  18  31  55  80 106 138 180 228 274 329
#     4   9  17  34  54  79 113 144 181 227 274 328
#     4  10  22  37  53  76 110 148 187 232 279 329
#
# _framework density 19.211915999999999
#
# number of rings (size 3 to 8) (size 9 to 14) (size 15 to 20)
#    0.400    1.333    1.333    5.600    0.000    2.133 
#    0.000    1.000    0.000    4.000    0.000    1.867 
#    0.000    0.000    0.000    0.000    0.000    0.000 
#
# Total GULP energy -371791.122764 kJ/mol
# GULP energy per Si atom -12393.037425 kJ/mol
# Density = 1.916819 g / cm^3
# Si number density = 19.211916 Si / 1000 Ang^3
#
#
#
# Elastic Constant Matrix: (Units=GPa)
#
#
# Indices 1 2 3 4 5 6 
#
# 1 70.9798 10.2451 23.2317 0.0000 9.2816 0.0000
# 2 10.2451 64.4753 27.8031 0.0000 6.9920 0.0000
# 3 23.2317 27.8031 103.9655 0.0000 12.4848 0.0000
# 4 0.0000 0.0000 0.0000 23.7841 0.0000 2.4772
# 5 9.2816 6.9920 12.4848 0.0000 47.3074 0.0000
# 6 0.0000 0.0000 0.0000 2.4772 0.0000 12.3860
#
#
#
# Elastic Compliance Matrix: (Units=1/GPa)
#
#
# Indices 1 2 3 4 5 6 
#
# 1 0.015468 -0.000958 -0.002946 0.000000 -0.002116 0.000000
# 2 -0.000958 0.017681 -0.004361 0.000000 -0.001274 0.000000
# 3 -0.002946 -0.004361 0.011666 0.000000 -0.001856 0.000000
# 4 0.000000 0.000000 0.000000 0.042939 0.000000 -0.008588
# 5 -0.002116 -0.001274 -0.001856 0.000000 0.022232 0.000000
# 6 0.000000 0.000000 0.000000 -0.008588 0.000000 0.082454
#
#
# Mechanical properties :
#
#
# Convention : Reuss Voigt Hill
#
# Bulk Modulus (GPa) = 35.35556 40.22003 37.78780
# Shear Modulus (GPa) = 22.89397 28.57155 25.73276
#
# Velocity S-wave (km/s) = 3.45578 3.86058 3.66377
# Velocity P-wave (km/s) = 5.86226 6.39159 6.13264
#
# Compressibility (1/GPa) = 0.02828409
#
# Stress axis : x y z
#
# Youngs Moduli (GPa) = 64.65087 56.55822 85.71840
#
# Poissons Ratio (x) = 0.05418 0.25254
# Poissons Ratio (y) = 0.06193 0.37384
# Poissons Ratio (z) = 0.19047 0.24666
#
# Static dielectric constant tensor:
#      x y z
#    x 3.619330 0.000000 0.002890 
#    y 0.000000 3.528140 0.000000 
#    z 0.002890 0.000000 3.631650 
# 
# 
# High freq. dielectric constant tensor:
#      x y z
#    x 1.745570 0.000000 0.010570 
#    y 0.000000 1.717820 0.000000 
#    z 0.010570 0.000000 1.755000 
# 
# From -- ./inp_files/98129.got.cif
#   From: 2010.06.25/outbox.cif.g09.slc.cpg/sg12_50_cif.got.tgz:98129.got - 2010.06.28 00:19:55.
