data_PCOD8082619
_publ_section_title
;
Structure prediction by ZEFSAII (Michael W. Deem and Ramdas Pophale) SiO2 
 PCOD8082619
Probable space group: C 2/M
;
_chemical_formula_sum "Si O2"
_cell_formula_units_Z 64
_cell_length_a 20.562701
_cell_length_b 9.070826
_cell_length_c 19.789214
_cell_angle_alpha 90.000000
_cell_angle_beta 104.874115
_cell_angle_gamma 90.000000
_cell_volume 3567.416952
_symmetry_space_group_name_H-M "C 2/M"
_symmetry_group_IT_number 12
_symmetry_cell_setting 'monoclinic'
loop_
_space_group_symop_operation_xyz
x,y,z
-x,y,-z
-x,-y,-z
x,-y,z
1/2+x,1/2+y,z
1/2-x,1/2+y,-z
1/2-x,1/2-y,-z
1/2+x,1/2-y,z
loop_
_atom_site_type_symbol
_atom_site_label
_atom_site_fract_x
_atom_site_fract_y
_atom_site_fract_z
Si Si1 0.909851 0.173799 0.155755
Si Si2 0.434091 0.174241 0.443001
Si Si3 0.894341 0.173195 0.301091
Si Si4 0.166872 0.170265 0.149614
Si Si5 0.764200 0.824881 0.074181
Si Si6 0.260545 0.831701 0.293924
Si Si7 0.288018 0.170317 0.450232
Si Si8 0.516773 0.675028 0.079069
O O1 0.927883 0.213953 0.237984
O O2 0.836345 0.234716 0.117995
O O3 0.964369 0.243585 0.119093
O O4 0.909240 0.000000 0.146204
O O5 0.500000 0.229888 0.500000
O O6 0.437264 0.246656 0.370095
O O7 0.365800 0.223961 0.463532
O O8 0.434596 0.000000 0.433292
O O9 0.817140 0.225473 0.278774
O O10 0.895029 0.000000 0.314914
O O11 0.209146 0.274592 0.112853
O O12 0.191665 0.190673 0.233737
O O13 0.090309 0.223846 0.123360
O O14 0.174491 0.000000 0.128606
O O15 0.761979 0.000000 0.066107
O O16 0.750000 0.750000 0.000000
O O17 0.248399 0.795721 0.369752
O O18 0.286951 0.000000 0.294797
O O19 0.250000 0.250000 0.500000
O O20 0.286741 0.000000 0.468322
O O21 0.510758 0.500000 0.076287
O O22 0.500000 0.738251 0.000000
#
# Coordination Sequence:
#
# PCOD8082619 Si02
#       8
#     8   8   8   8   8   8   8   8
#     4   9  18  32  50  76 106 134 170 216 261 307
#     4   9  19  37  57  76 105 142 177 211 254 312
#     4  10  18  31  53  81 107 134 171 219 267 302
#     4  10  19  33  55  78 100 134 177 215 257 311
#     4  11  21  34  53  78 106 134 171 218 262 309
#     4   9  18  33  52  76 105 138 175 209 255 316
#     4   9  18  33  52  76 104 137 172 212 256 305
#     4   9  17  31  51  73 101 137 174 210 255 311
#
# _framework density 17.940151
#
# number of rings (size 3 to 8) (size 9 to 14) (size 15 to 20)
#    0.000    2.500    1.250    2.250    0.000    4.250 
#    2.250    0.000    0.000    5.625    0.000    0.000 
#    0.000    0.000    0.000    0.000    0.000    0.000 
#
# Total GULP energy -396726.544346 kJ/mol
# GULP energy per Si atom -12397.704511 kJ/mol
# Density = 1.789932 g / cm^3
# Si number density = 17.940151 Si / 1000 Ang^3
#
#
#
# Elastic Constant Matrix: (Units=GPa)
#
#
# Indices 1 2 3 4 5 6 
#
# 1 129.9493 30.9936 88.6163 0.0000 3.0463 0.0000
# 2 30.9936 39.0082 38.5322 0.0000 -1.8003 0.0000
# 3 88.6163 38.5322 158.5422 0.0000 1.0564 0.0000
# 4 0.0000 0.0000 0.0000 26.8657 0.0000 -2.6293
# 5 3.0463 -1.8003 1.0564 0.0000 39.2986 0.0000
# 6 0.0000 0.0000 0.0000 -2.6293 0.0000 20.6532
#
#
#
# Elastic Compliance Matrix: (Units=1/GPa)
#
#
# Indices 1 2 3 4 5 6 
#
# 1 0.012961 -0.004206 -0.006215 0.000000 -0.001030 0.000000
# 2 -0.004206 0.035222 -0.006224 0.000000 0.002107 0.000000
# 3 -0.006215 -0.006224 0.011295 0.000000 -0.000107 0.000000
# 4 0.000000 0.000000 0.000000 0.037692 0.000000 0.004798
# 5 -0.001030 0.002107 -0.000107 0.000000 0.025625 0.000000
# 6 0.000000 0.000000 0.000000 0.004798 0.000000 0.049030
#
#
# Mechanical properties :
#
#
# Convention : Reuss Voigt Hill
#
# Bulk Modulus (GPa) = 38.18510 71.53154 54.85832
# Shear Modulus (GPa) = 23.38145 28.65400 26.01772
#
# Velocity S-wave (km/s) = 3.61404 4.00083 3.81235
# Velocity P-wave (km/s) = 6.22463 7.82950 7.07273
#
# Compressibility (1/GPa) = 0.02618823
#
# Stress axis : x y z
#
# Youngs Moduli (GPa) = 77.15370 28.39100 88.53606
#
# Poissons Ratio (x) = 0.11942 0.55029
# Poissons Ratio (y) = 0.32452 0.55101
# Poissons Ratio (z) = 0.47954 0.17669
#
# Static dielectric constant tensor:
#      x y z
#    x 3.415870 0.000000 0.088300 
#    y 0.000000 3.066570 0.000000 
#    z 0.088300 0.000000 3.438240 
# 
# 
# High freq. dielectric constant tensor:
#      x y z
#    x 1.685020 0.000000 0.005470 
#    y 0.000000 1.669180 0.000000 
#    z 0.005470 0.000000 1.708920 
# 
# From -- ./inp_files/314105.got.cif
#   From: 2010.06.25/outbox.cif.g09.slc.cpg/sg12_158_cif.got.tgz:314105.got - 2010.06.28 00:19:55.
