data_PCOD8082158
_publ_section_title
;
Structure prediction by ZEFSAII (Michael W. Deem and Ramdas Pophale) SiO2 
 PCOD8082158
Probable space group: C 2/M
;
_chemical_formula_sum "Si O2"
_cell_formula_units_Z 64
_cell_length_a 20.628023
_cell_length_b 9.091137
_cell_length_c 19.376698
_cell_angle_alpha 90.000000
_cell_angle_beta 90.370229
_cell_angle_gamma 90.000000
_cell_volume 3633.678617
_symmetry_space_group_name_H-M "C 2/M"
_symmetry_group_IT_number 12
_symmetry_cell_setting 'monoclinic'
loop_
_space_group_symop_operation_xyz
x,y,z
-x,y,-z
-x,-y,-z
x,-y,z
1/2+x,1/2+y,z
1/2-x,1/2+y,-z
1/2-x,1/2-y,-z
1/2+x,1/2-y,z
loop_
_atom_site_type_symbol
_atom_site_label
_atom_site_fract_x
_atom_site_fract_y
_atom_site_fract_z
Si Si1 0.125278 0.825045 0.915442
Si Si2 0.948241 0.174942 0.553939
Si Si3 0.199832 0.826387 0.449427
Si Si4 0.257835 0.174327 0.156977
Si Si5 0.367064 0.325446 0.928484
Si Si6 0.507767 0.675105 0.150208
Si Si7 0.554032 0.325025 0.293859
Si Si8 0.697747 0.673714 0.295659
O O1 0.178846 0.756679 0.866957
O O2 0.056586 0.766137 0.887008
O O3 0.129994 0.000000 0.911861
O O4 0.134308 0.766436 0.993264
O O5 0.874428 0.225868 0.536633
O O6 0.969632 0.230194 0.630783
O O7 0.000000 0.242506 0.500000
O O8 0.950260 0.000000 0.551066
O O9 0.250000 0.750000 0.500000
O O10 0.221050 0.778727 0.372049
O O11 0.205175 0.000000 0.459641
O O12 0.197510 0.228403 0.110325
O O13 0.246405 0.226566 0.236056
O O14 0.267525 0.000000 0.150960
O O15 0.370989 0.500000 0.927921
O O16 0.430073 0.260919 0.890072
O O17 0.509728 0.500000 0.147562
O O18 0.508852 0.729814 0.230344
O O19 0.556080 0.500000 0.294948
O O20 0.626138 0.262463 0.280542
O O21 0.691914 0.500000 0.292119
#
# Coordination Sequence:
#
# PCOD8082158 Si02
#       8
#     8   8   8   8   8   8   8   8
#     4  10  20  30  42  70 103 118 135 188 249 277
#     4   8  14  25  42  65  91 116 145 185 226 261
#     4   9  17  30  48  70  94 120 149 185 225 267
#     4  10  18  31  50  66  85 122 164 190 212 261
#     4   9  16  28  48  67  85 117 160 192 218 264
#     4   9  15  26  44  66  89 116 151 189 227 266
#     4   8  12  22  42  64  84 111 153 192 215 251
#     4   8  14  27  47  67  86 116 161 194 209 247
#
# _framework density 17.613005999999999
#
# number of rings (size 3 to 8) (size 9 to 14) (size 15 to 20)
#    0.000    3.125    1.250    2.250    0.000    1.500 
#    2.250    0.625    0.000    2.625    0.000    0.875 
#    0.000    0.000    0.000    0.000    0.000    0.000 
#
# Total GULP energy -396531.068425 kJ/mol
# GULP energy per Si atom -12391.595888 kJ/mol
# Density = 1.757292 g / cm^3
# Si number density = 17.613006 Si / 1000 Ang^3
#
#
#
# Elastic Constant Matrix: (Units=GPa)
#
#
# Indices 1 2 3 4 5 6 
#
# 1 104.6958 16.4776 65.7242 0.0000 -9.3889 0.0000
# 2 16.4776 10.7704 16.7131 0.0000 1.1656 0.0000
# 3 65.7242 16.7131 152.8631 0.0000 -8.1298 0.0000
# 4 0.0000 0.0000 0.0000 16.2565 0.0000 -1.3577
# 5 -9.3889 1.1656 -8.1298 0.0000 34.4285 0.0000
# 6 0.0000 0.0000 0.0000 -1.3577 0.0000 19.4774
#
#
#
# Elastic Compliance Matrix: (Units=1/GPa)
#
#
# Indices 1 2 3 4 5 6 
#
# 1 0.015418 -0.016867 -0.004588 0.000000 0.003692 0.000000
# 2 -0.016867 0.131844 -0.007742 0.000000 -0.010892 0.000000
# 3 -0.004588 -0.007742 0.009427 0.000000 0.001237 0.000000
# 4 0.000000 0.000000 0.000000 0.061874 0.000000 0.004313
# 5 0.003692 -0.010892 0.001237 0.000000 0.030713 0.000000
# 6 0.000000 0.000000 0.000000 0.004313 0.000000 0.051642
#
#
# Mechanical properties :
#
#
# Convention : Reuss Voigt Hill
#
# Bulk Modulus (GPa) = 10.17360 51.79546 30.98453
# Shear Modulus (GPa) = 12.75258 25.32679 19.03968
#
# Velocity S-wave (km/s) = 2.69372 3.79616 3.29143
# Velocity P-wave (km/s) = 3.93238 6.97752 5.66345
#
# Compressibility (1/GPa) = 0.09829363
#
# Stress axis : x y z
#
# Youngs Moduli (GPa) = 64.86106 7.58471 106.07951
#
# Poissons Ratio (x) = 0.12793 0.48673
# Poissons Ratio (y) = 1.09399 0.82131
# Poissons Ratio (z) = 0.29761 0.05872
#
# Static dielectric constant tensor:
#      x y z
#    x 3.337740 0.000000 -0.068600 
#    y 0.000000 2.587430 0.000000 
#    z -0.068600 0.000000 3.796330 
# 
# 
# High freq. dielectric constant tensor:
#      x y z
#    x 1.676350 0.000000 -0.000900 
#    y 0.000000 1.607680 0.000000 
#    z -0.000900 0.000000 1.701640 
# 
# From -- ./inp_files/276506.got.cif
#   From: 2010.06.25/outbox.cif.g09.slc.cpg/sg12_139_cif.got.tgz:276506.got - 2010.06.28 00:19:55.
