data_PCOD8082888
_publ_section_title
;
Structure prediction by ZEFSAII (Michael W. Deem and Ramdas Pophale) SiO2 
 PCOD8082888
Probable space group: C 2/M
;
_chemical_formula_sum "Si O2"
_cell_formula_units_Z 44
_cell_length_a 13.517240
_cell_length_b 10.106807
_cell_length_c 33.044698
_cell_angle_alpha 90.000000
_cell_angle_beta 146.279111
_cell_angle_gamma 90.000000
_cell_volume 2506.180427
_symmetry_space_group_name_H-M "C 2/M"
_symmetry_group_IT_number 12
_symmetry_cell_setting 'monoclinic'
loop_
_space_group_symop_operation_xyz
x,y,z
-x,y,-z
-x,-y,-z
x,-y,z
1/2+x,1/2+y,z
1/2-x,1/2+y,-z
1/2-x,1/2-y,-z
1/2+x,1/2-y,z
loop_
_atom_site_type_symbol
_atom_site_label
_atom_site_fract_x
_atom_site_fract_y
_atom_site_fract_z
Si Si1 0.053611 0.348809 0.600874
Si Si2 0.500000 0.292063 0.500000
Si Si3 0.954383 0.844731 0.721354
Si Si4 0.262980 0.152949 0.883608
Si Si5 0.893865 0.647412 0.629610
Si Si6 0.161987 0.345080 0.001891
O O1 0.004032 0.500000 0.580973
O O2 0.264439 0.324399 0.678239
O O3 0.982775 0.291920 0.534892
O O4 0.949793 0.292861 0.604835
O O5 0.318424 0.375399 0.437527
O O6 0.968445 0.755093 0.686252
O O7 0.103416 0.786588 0.802636
O O8 0.984414 0.000000 0.720182
O O9 0.268952 0.208551 0.931234
O O10 0.223034 0.000000 0.874650
O O11 0.450797 0.176675 0.925684
O O12 0.978462 0.500000 0.665099
O O13 0.209466 0.500000 0.011026
O O14 0.250000 0.250000 0.000000
#
# Coordination Sequence:
#
# PCOD8082888 Si02
#       6
#     8   4   8   8   8   8
#     4   9  18  31  49  71  94 121 160 202 237 278
#     4  10  18  32  50  68  93 130 161 190 233 294
#     4   9  18  34  52  69  92 128 166 196 230 284
#     4   8  16  32  51  69  96 131 162 191 234 287
#     4  10  20  33  48  72 100 124 153 198 248 284
#     4   9  17  31  51  74  98 127 161 197 234 279
#
# _framework density 17.556597
#
# number of rings (size 3 to 8) (size 9 to 14) (size 15 to 20)
#    0.000    2.909    0.000    2.182    0.000    2.182 
#    0.000   10.000    0.000    0.000    0.000    0.000 
#    0.000    0.000    0.000    0.000    0.000    0.000 
#
# Total GULP energy -272596.544736 kJ/mol
# GULP energy per Si atom -12390.752033 kJ/mol
# Density = 1.751664 g / cm^3
# Si number density = 17.556597 Si / 1000 Ang^3
#
#
#
# Elastic Constant Matrix: (Units=GPa)
#
#
# Indices 1 2 3 4 5 6 
#
# 1 119.2983 47.5605 42.5540 0.0000 -20.1694 0.0000
# 2 47.5605 62.4218 37.6518 0.0000 -9.2718 0.0000
# 3 42.5540 37.6518 114.9190 0.0000 -7.7910 0.0000
# 4 0.0000 0.0000 0.0000 8.1130 0.0000 -3.7636
# 5 -20.1694 -9.2718 -7.7910 0.0000 18.5298 0.0000
# 6 0.0000 0.0000 0.0000 -3.7636 0.0000 31.6447
#
#
#
# Elastic Compliance Matrix: (Units=1/GPa)
#
#
# Indices 1 2 3 4 5 6 
#
# 1 0.013999 -0.007994 -0.001856 0.000000 0.010458 0.000000
# 2 -0.007994 0.025583 -0.005295 0.000000 0.001874 0.000000
# 3 -0.001856 -0.005295 0.011124 0.000000 0.000008 0.000000
# 4 0.000000 0.000000 0.000000 0.130456 0.000000 0.015516
# 5 0.010458 0.001874 0.000008 0.000000 0.066291 0.000000
# 6 0.000000 0.000000 0.000000 0.015516 0.000000 0.033446
#
#
# Mechanical properties :
#
#
# Convention : Reuss Voigt Hill
#
# Bulk Modulus (GPa) = 48.97720 61.35242 55.16481
# Shear Modulus (GPa) = 15.72359 22.91571 19.31965
#
# Velocity S-wave (km/s) = 2.99589 3.61674 3.32086
# Velocity P-wave (km/s) = 6.31858 7.24310 6.79658
#
# Compressibility (1/GPa) = 0.02041766
#
# Stress axis : x y z
#
# Youngs Moduli (GPa) = 71.43273 39.08917 89.89325
#
# Poissons Ratio (x) = 0.31246 0.16683
# Poissons Ratio (y) = 0.57100 0.47597
# Poissons Ratio (z) = 0.13257 0.20697
#
# Static dielectric constant tensor:
#      x y z
#    x 3.318620 0.000000 0.063280 
#    y 0.000000 2.989560 0.000000 
#    z 0.063280 0.000000 9.930570 
# 
# 
# High freq. dielectric constant tensor:
#      x y z
#    x 1.682450 0.000000 -0.000640 
#    y 0.000000 1.654920 0.000000 
#    z -0.000640 0.000000 1.680440 
# 
# From -- ./inp_files/334854.got.cif
#   From: 2010.06.25/outbox.cif.g09.slc.cpg/sg12_168_cif.got.tgz:334854.got - 2010.06.28 00:19:55.
