data_PCOD8082254
_publ_section_title
;
Structure prediction by ZEFSAII (Michael W. Deem and Ramdas Pophale) SiO2 
 PCOD8082254
Probable space group: C 2/M
;
_chemical_formula_sum "Si O2"
_cell_formula_units_Z 56
_cell_length_a 32.930567
_cell_length_b 9.207253
_cell_length_c 12.516390
_cell_angle_alpha 90.000000
_cell_angle_beta 119.740175
_cell_angle_gamma 90.000000
_cell_volume 3295.111515
_symmetry_space_group_name_H-M "C 2/M"
_symmetry_group_IT_number 12
_symmetry_cell_setting 'monoclinic'
loop_
_space_group_symop_operation_xyz
x,y,z
-x,y,-z
-x,-y,-z
x,-y,z
1/2+x,1/2+y,z
1/2-x,1/2+y,-z
1/2-x,1/2-y,-z
1/2+x,1/2-y,z
loop_
_atom_site_type_symbol
_atom_site_label
_atom_site_fract_x
_atom_site_fract_y
_atom_site_fract_z
Si Si1 0.950263 0.667307 0.161381
Si Si2 0.057431 0.668036 0.259960
Si Si3 0.298286 0.168151 0.437012
Si Si4 0.046234 0.833798 0.617347
Si Si5 0.393829 0.828698 0.888709
Si Si6 0.387300 0.332823 0.489057
Si Si7 0.205557 0.332889 0.319522
O O1 0.938944 0.500000 0.169453
O O2 0.941841 0.750152 0.259739
O O3 0.002062 0.686761 0.183042
O O4 0.915148 0.734042 0.026356
O O5 0.072296 0.500000 0.296641
O O6 0.078404 0.732550 0.177622
O O7 0.076805 0.761056 0.382445
O O8 0.337833 0.251380 0.422599
O O9 0.248054 0.231881 0.338487
O O10 0.307985 0.193070 0.574834
O O11 0.299340 0.000000 0.407012
O O12 0.091104 0.818667 0.600304
O O13 0.000000 0.767315 0.500000
O O14 0.035639 0.000000 0.633651
O O15 0.339116 0.787926 0.809636
O O16 0.401350 0.000000 0.897951
O O17 0.379643 0.500000 0.511380
O O18 0.219920 0.500000 0.320351
#
# Coordination Sequence:
#
# PCOD8082254 Si02
#       7
#     8   8   8   8   8   8   8
#     4  10  20  32  53  78 102 136 177 213 245 297
#     4  10  18  31  50  76 107 137 168 205 251 301
#     4  10  19  32  51  77 104 131 166 212 257 300
#     4  10  21  37  52  69 101 140 173 212 258 299
#     4   9  17  32  51  76 108 139 167 202 254 305
#     4  11  21  33  52  74 101 137 173 209 255 304
#     4   9  17  31  51  74 105 138 164 198 252 313
#
# _framework density 16.994872999999998
#
# number of rings (size 3 to 8) (size 9 to 14) (size 15 to 20)
#    0.000    2.143    2.857    1.286    0.000    3.714 
#    0.000    1.429    0.000    2.571    0.000    0.000 
#    0.000    0.000    0.000    0.000    0.000    0.000 
#
# Total GULP energy -347259.042935 kJ/mol
# GULP energy per Si atom -12402.108676 kJ/mol
# Density = 1.695619 g / cm^3
# Si number density = 16.994873 Si / 1000 Ang^3
#
#
#
# Elastic Constant Matrix: (Units=GPa)
#
#
# Indices 1 2 3 4 5 6 
#
# 1 90.9152 48.5777 45.7343 0.0000 10.7070 0.0000
# 2 48.5777 78.4867 43.8202 0.0000 3.9163 0.0000
# 3 45.7343 43.8202 117.7067 0.0000 6.0860 0.0000
# 4 0.0000 0.0000 0.0000 12.9444 0.0000 2.3363
# 5 10.7070 3.9163 6.0860 0.0000 21.7142 0.0000
# 6 0.0000 0.0000 0.0000 2.3363 0.0000 27.2484
#
#
#
# Elastic Compliance Matrix: (Units=1/GPa)
#
#
# Indices 1 2 3 4 5 6 
#
# 1 0.018350 -0.009141 -0.003393 0.000000 -0.006448 0.000000
# 2 -0.009141 0.020671 -0.004245 0.000000 0.001969 0.000000
# 3 -0.003393 -0.004245 0.011434 0.000000 -0.000766 0.000000
# 4 0.000000 0.000000 0.000000 0.078468 0.000000 -0.006728
# 5 -0.006448 0.001969 -0.000766 0.000000 0.049092 0.000000
# 6 0.000000 0.000000 0.000000 -0.006728 0.000000 0.037276
#
#
# Mechanical properties :
#
#
# Convention : Reuss Voigt Hill
#
# Bulk Modulus (GPa) = 59.18806 62.59700 60.89253
# Shear Modulus (GPa) = 19.64776 22.31317 20.98047
#
# Velocity S-wave (km/s) = 3.40383 3.62738 3.51738
# Velocity P-wave (km/s) = 7.09583 7.37947 7.23904
#
# Compressibility (1/GPa) = 0.01689530
#
# Stress axis : x y z
#
# Youngs Moduli (GPa) = 54.49635 48.37764 87.45649
#
# Poissons Ratio (x) = 0.44222 0.29676
# Poissons Ratio (y) = 0.49815 0.37130
# Poissons Ratio (z) = 0.18492 0.20539
#
# Static dielectric constant tensor:
#      x y z
#    x 3.168460 0.000000 0.097740 
#    y 0.000000 3.102700 0.000000 
#    z 0.097740 0.000000 3.129490 
# 
# 
# High freq. dielectric constant tensor:
#      x y z
#    x 1.657340 0.000000 0.009390 
#    y 0.000000 1.644010 0.000000 
#    z 0.009390 0.000000 1.639330 
# 
# From -- ./inp_files/186797.got.cif
#   From: 2010.06.25/outbox.cif.g09.slc.cpg/sg12_94_cif.got.tgz:186797.got - 2010.06.28 00:19:55.
