data_PCOD8082342
_publ_section_title
;
Structure prediction by ZEFSAII (Michael W. Deem and Ramdas Pophale) SiO2 
 PCOD8082342
Probable space group: C 2/M
;
_chemical_formula_sum "Si O2"
_cell_formula_units_Z 56
_cell_length_a 20.767339
_cell_length_b 7.756628
_cell_length_c 31.973688
_cell_angle_alpha 90.000000
_cell_angle_beta 144.858255
_cell_angle_gamma 90.000000
_cell_volume 2964.614539
_symmetry_space_group_name_H-M "C 2/M"
_symmetry_group_IT_number 12
_symmetry_cell_setting 'monoclinic'
loop_
_space_group_symop_operation_xyz
x,y,z
-x,y,-z
-x,-y,-z
x,-y,z
1/2+x,1/2+y,z
1/2-x,1/2+y,-z
1/2-x,1/2-y,-z
1/2+x,1/2-y,z
loop_
_atom_site_type_symbol
_atom_site_label
_atom_site_fract_x
_atom_site_fract_y
_atom_site_fract_z
Si Si1 0.763774 0.294760 0.910107
Si Si2 0.820318 0.500000 0.416136
Si Si3 0.196137 0.296875 0.160950
Si Si4 0.538502 0.697794 0.832331
Si Si5 0.980364 0.500000 0.421796
Si Si6 0.799917 0.309475 0.683159
Si Si7 0.852189 0.197632 0.318508
Si Si8 0.535192 0.794787 0.924771
O O1 0.762835 0.500000 0.908941
O O2 0.778964 0.218502 0.871511
O O3 0.647593 0.225228 0.867328
O O4 0.865858 0.229272 0.992701
O O5 0.905772 0.500000 0.423401
O O6 0.743235 0.670470 0.373435
O O7 0.889011 0.500000 0.496082
O O8 0.181489 0.500000 0.149639
O O9 0.299411 0.250658 0.246010
O O10 0.080621 0.221385 0.117827
O O11 0.518996 0.500000 0.809746
O O12 0.432539 0.803591 0.759663
O O13 0.556046 0.712413 0.890967
O O14 0.955170 0.326772 0.381915
O O15 0.767259 0.500000 0.649346
O O16 0.744739 0.274624 0.698868
O O17 0.896115 0.000000 0.342218
O O18 0.532431 0.000000 0.918857
#
# Coordination Sequence:
#
# PCOD8082342 Si02
#       8
#     8   4   8   8   4   8   8   8
#     4   9  19  31  47  73 102 132 179 226 270 307
#     4   9  18  32  48  80 109 138 164 205 265 315
#     4   9  16  30  51  73  98 132 179 224 262 313
#     4  11  20  31  48  71 103 140 178 218 265 316
#     4   9  18  30  50  76 114 135 162 210 261 319
#     4  10  18  31  51  76 103 136 175 211 254 316
#     4   9  17  29  50  76 101 137 175 210 258 311
#     4  10  18  31  52  72  94 136 179 223 270 314
#
# _framework density 18.889471
#
# number of rings (size 3 to 8) (size 9 to 14) (size 15 to 20)
#    0.000    2.429    2.143    1.286    0.000    2.286 
#    0.000    3.571    4.714    0.857    0.000    1.000 
#    0.000    0.000    0.000    0.000    0.000    0.000 
#
# Total GULP energy -347188.362730 kJ/mol
# GULP energy per Si atom -12399.584383 kJ/mol
# Density = 1.884648 g / cm^3
# Si number density = 18.889471 Si / 1000 Ang^3
#
#
#
# Elastic Constant Matrix: (Units=GPa)
#
#
# Indices 1 2 3 4 5 6 
#
# 1 100.2174 17.8598 46.9654 -0.0003 -2.9888 0.0013
# 2 17.8598 80.7501 52.7770 0.0002 -0.6098 0.0037
# 3 46.9654 52.7770 152.7699 -0.0001 -4.2258 0.0004
# 4 -0.0003 0.0002 -0.0001 22.8443 0.0002 -2.8102
# 5 -2.9888 -0.6098 -4.2258 0.0002 8.2691 -0.0006
# 6 0.0013 0.0037 0.0004 -2.8102 -0.0006 13.1643
#
#
#
# Elastic Compliance Matrix: (Units=1/GPa)
#
#
# Indices 1 2 3 4 5 6 
#
# 1 0.011713 -0.000340 -0.003415 0.000000 0.002463 -0.000001
# 2 -0.000340 0.016028 -0.005481 -0.000001 -0.001742 -0.000005
# 3 -0.003415 -0.005481 0.009579 0.000000 0.003257 0.000002
# 4 0.000000 -0.000001 0.000000 0.044955 -0.000001 0.009597
# 5 0.002463 -0.001742 0.003257 -0.000001 0.123358 0.000005
# 6 -0.000001 -0.000005 0.000002 0.009597 0.000005 0.078012
#
#
# Mechanical properties :
#
#
# Convention : Reuss Voigt Hill
#
# Bulk Modulus (GPa) = 53.05526 63.21576 58.13551
# Shear Modulus (GPa) = 16.21272 23.26457 19.73864
#
# Velocity S-wave (km/s) = 2.93284 3.51325 3.23608
# Velocity P-wave (km/s) = 6.29420 7.07078 6.69376
#
# Compressibility (1/GPa) = 0.01884827
#
# Stress axis : x y z
#
# Youngs Moduli (GPa) = 85.37629 62.39040 104.39164
#
# Poissons Ratio (x) = 0.02120 0.35653
# Poissons Ratio (y) = 0.02901 0.57216
# Poissons Ratio (z) = 0.29159 0.34196
#
# Static dielectric constant tensor:
#      x y z
#    x 3.349010 0.000000 -0.029280 
#    y 0.000000 3.338710 0.000000 
#    z -0.029280 0.000000 3.536120 
# 
# 
# High freq. dielectric constant tensor:
#      x y z
#    x 1.699430 0.000000 -0.000610 
#    y 0.000000 1.725660 0.000000 
#    z -0.000610 0.000000 1.730140 
# 
# From -- ./inp_files/380838.got.cif
#   From: 2010.06.25/outbox.cif.g09.slc.cpg/sg12_191_cif.got.tgz:380838.got - 2010.06.28 00:19:55.
