data_PCOD8082067
_publ_section_title
;
Structure prediction by ZEFSAII (Michael W. Deem and Ramdas Pophale) SiO2 
 PCOD8082067
Probable space group: C 2/M
;
_chemical_formula_sum "Si O2"
_cell_formula_units_Z 64
_cell_length_a 28.254313
_cell_length_b 9.079594
_cell_length_c 21.162074
_cell_angle_alpha 90.000000
_cell_angle_beta 133.263068
_cell_angle_gamma 90.000000
_cell_volume 3953.382507
_symmetry_space_group_name_H-M "C 2/M"
_symmetry_group_IT_number 12
_symmetry_cell_setting 'monoclinic'
loop_
_space_group_symop_operation_xyz
x,y,z
-x,y,-z
-x,-y,-z
x,-y,z
1/2+x,1/2+y,z
1/2-x,1/2+y,-z
1/2-x,1/2-y,-z
1/2+x,1/2-y,z
loop_
_atom_site_type_symbol
_atom_site_label
_atom_site_fract_x
_atom_site_fract_y
_atom_site_fract_z
Si Si1 0.773360 0.172601 0.167874
Si Si2 0.758521 0.668227 0.416175
Si Si3 0.797746 0.169546 0.996832
Si Si4 0.894352 0.832413 0.189325
Si Si5 0.646991 0.671092 0.406677
Si Si6 0.974523 0.674208 0.663621
Si Si7 0.195692 0.329620 0.676687
Si Si8 0.054601 0.674788 0.503422
O O1 0.838482 0.212368 0.188399
O O2 0.778418 0.229918 0.243431
O O3 0.760225 0.000000 0.156064
O O4 0.710247 0.251217 0.078360
O O5 0.779487 0.500000 0.450468
O O6 0.687520 0.702497 0.379681
O O7 0.812675 0.772112 0.496260
O O8 0.756221 0.693352 0.338852
O O9 0.869110 0.182953 0.093663
O O10 0.777213 0.000000 0.971259
O O11 0.750000 0.250000 0.000000
O O12 0.953810 0.722422 0.251195
O O13 0.916594 0.000000 0.222586
O O14 0.632911 0.500000 0.403372
O O15 0.578596 0.755385 0.337935
O O16 0.969985 0.500000 0.664218
O O17 0.959068 0.734224 0.579272
O O18 0.193529 0.500000 0.696084
O O19 0.124470 0.272468 0.591710
O O20 0.051304 0.500000 0.499345
O O21 0.000000 0.740809 0.500000
#
# Coordination Sequence:
#
# PCOD8082067 Si02
#       8
#     8   8   8   8   8   8   8   8
#     4  10  20  32  47  71 101 128 161 199 238 285
#     4   9  18  33  50  68  90 123 163 201 240 287
#     4   9  17  31  50  70  95 126 160 199 241 281
#     4   9  19  33  47  68  98 127 158 197 235 278
#     4  10  19  31  49  69  93 122 156 202 250 285
#     4  11  20  31  48  69  94 126 164 198 234 285
#     4  10  18  31  48  66  94 127 164 200 232 279
#     4   9  17  28  42  62  90 125 162 195 224 265
#
# _framework density 16.188668
#
# number of rings (size 3 to 8) (size 9 to 14) (size 15 to 20)
#    0.000    2.375    1.250    3.000    0.000    5.000 
#    0.000    0.000    0.000    2.625    0.000    0.875 
#    0.000    7.000    0.000    0.000    0.000    0.000 
#
# Total GULP energy -396745.716668 kJ/mol
# GULP energy per Si atom -12398.303646 kJ/mol
# Density = 1.615182 g / cm^3
# Si number density = 16.188668 Si / 1000 Ang^3
#
#
#
# Elastic Constant Matrix: (Units=GPa)
#
#
# Indices 1 2 3 4 5 6 
#
# 1 86.6822 39.1520 42.1323 0.0000 -6.7549 0.0000
# 2 39.1520 84.6855 48.6193 0.0000 -2.3383 0.0001
# 3 42.1323 48.6193 102.7864 0.0000 -13.1114 0.0000
# 4 0.0000 0.0000 0.0000 29.9634 0.0000 0.6596
# 5 -6.7549 -2.3383 -13.1114 0.0000 12.0985 0.0000
# 6 0.0000 0.0001 0.0000 0.6596 0.0000 23.0717
#
#
#
# Elastic Compliance Matrix: (Units=1/GPa)
#
#
# Indices 1 2 3 4 5 6 
#
# 1 0.015932 -0.005218 -0.003547 0.000000 0.004043 0.000000
# 2 -0.005218 0.018305 -0.007473 0.000000 -0.007474 0.000000
# 3 -0.003547 -0.007473 0.016571 0.000000 0.014534 0.000000
# 4 0.000000 0.000000 0.000000 0.033395 0.000000 -0.000955
# 5 0.004043 -0.007474 0.014534 0.000000 0.099219 0.000000
# 6 0.000000 0.000000 0.000000 -0.000955 0.000000 0.043370
#
#
# Mechanical properties :
#
#
# Convention : Reuss Voigt Hill
#
# Bulk Modulus (GPa) = 54.54575 59.32900 56.93738
# Shear Modulus (GPa) = 18.84101 22.64345 20.74223
#
# Velocity S-wave (km/s) = 3.41521 3.74401 3.58338
# Velocity P-wave (km/s) = 7.02271 7.44434 7.23660
#
# Compressibility (1/GPa) = 0.01833323
#
# Stress axis : x y z
#
# Youngs Moduli (GPa) = 62.76618 54.63080 60.34458
#
# Poissons Ratio (x) = 0.28506 0.21403
# Poissons Ratio (y) = 0.32751 0.45095
# Poissons Ratio (z) = 0.22261 0.40825
#
# Static dielectric constant tensor:
#      x y z
#    x 3.061500 0.000000 -0.039530 
#    y 0.000000 3.071890 0.000000 
#    z -0.039530 0.000000 3.061900 
# 
# 
# High freq. dielectric constant tensor:
#      x y z
#    x 1.602670 0.000000 -0.004130 
#    y 0.000000 1.624210 0.000000 
#    z -0.004130 0.000000 1.609940 
# 
# From -- ./inp_files/326962.got.cif
#   From: 2010.06.25/outbox.cif.g09.slc.cpg/sg12_164_cif.got.tgz:326962.got - 2010.06.28 00:19:55.
