data_PCOD8082420
_publ_section_title
;
Structure prediction by ZEFSAII (Michael W. Deem and Ramdas Pophale) SiO2 
 PCOD8082420
Probable space group: C 2/M
;
_chemical_formula_sum "Si O2"
_cell_formula_units_Z 64
_cell_length_a 29.222842
_cell_length_b 13.804297
_cell_length_c 9.465854
_cell_angle_alpha 90.000000
_cell_angle_beta 108.090427
_cell_angle_gamma 90.000000
_cell_volume 3629.773834
_symmetry_space_group_name_H-M "C 2/M"
_symmetry_group_IT_number 12
_symmetry_cell_setting 'monoclinic'
loop_
_space_group_symop_operation_xyz
x,y,z
-x,y,-z
-x,-y,-z
x,-y,z
1/2+x,1/2+y,z
1/2-x,1/2+y,-z
1/2-x,1/2-y,-z
1/2+x,1/2-y,z
loop_
_atom_site_type_symbol
_atom_site_label
_atom_site_fract_x
_atom_site_fract_y
_atom_site_fract_z
Si Si1 0.192140 0.285052 0.724140
Si Si2 0.690851 0.107137 0.292447
Si Si3 0.798759 0.893173 0.462275
Si Si4 0.431066 0.885784 0.049861
Si Si5 0.466772 0.887432 0.772459
Si Si6 0.122477 0.614969 0.469169
Si Si7 0.294027 0.386745 0.773862
Si Si8 0.164629 0.270153 0.012490
O O1 0.183968 0.183534 0.636058
O O2 0.144875 0.347579 0.636697
O O3 0.241336 0.338247 0.731668
O O4 0.191924 0.269071 0.890625
O O5 0.741356 0.104883 0.418641
O O6 0.654250 0.155098 0.368748
O O7 0.695405 0.166011 0.151976
O O8 0.672638 0.000000 0.233528
O O9 0.815734 0.868931 0.637972
O O10 0.817818 0.000000 0.435134
O O11 0.478910 0.845422 0.176779
O O12 0.420203 0.000000 0.071267
O O13 0.438851 0.868833 0.891562
O O14 0.388374 0.814869 0.056950
O O15 0.432718 0.848702 0.611699
O O16 0.475172 0.000000 0.762976
O O17 0.124252 0.500000 0.473402
O O18 0.289192 0.500000 0.805099
O O19 0.332145 0.338759 0.920378
#
# Coordination Sequence:
#
# PCOD8082420 Si02
#       8
#     8   8   8   8   8   8   8   8
#     4  12  23  35  49  77 108 139 172 207 255 309
#     4  10  18  31  52  74  99 135 176 211 248 296
#     4  10  21  37  55  72  96 134 179 221 251 289
#     4   9  17  31  51  78 108 134 169 211 252 303
#     4   8  15  29  52  79 102 132 172 212 252 295
#     4  10  18  31  52  77 103 137 175 209 248 298
#     4  11  23  38  53  73 102 137 178 219 249 289
#     4  12  23  33  48  77 107 143 168 203 258 311
#
# _framework density 17.631951999999998
#
# number of rings (size 3 to 8) (size 9 to 14) (size 15 to 20)
#    0.000    1.750    3.750    3.000    0.000    2.500 
#    0.000    0.625    0.000    2.250    0.000    2.625 
#    0.000    2.000    0.000    0.000    0.000    0.000 
#
# Total GULP energy -396529.739975 kJ/mol
# GULP energy per Si atom -12391.554374 kJ/mol
# Density = 1.759182 g / cm^3
# Si number density = 17.631952 Si / 1000 Ang^3
#
#
#
# Elastic Constant Matrix: (Units=GPa)
#
#
# Indices 1 2 3 4 5 6 
#
# 1 49.2530 25.7395 18.3143 0.0000 13.5208 0.0000
# 2 25.7395 84.6041 38.6141 0.0000 -2.2288 0.0000
# 3 18.3143 38.6141 93.2869 0.0000 -0.3372 0.0000
# 4 0.0000 0.0000 0.0000 18.2363 0.0000 7.4076
# 5 13.5208 -2.2288 -0.3372 0.0000 26.6311 0.0000
# 6 0.0000 0.0000 0.0000 7.4076 0.0000 15.4947
#
#
#
# Elastic Compliance Matrix: (Units=1/GPa)
#
#
# Indices 1 2 3 4 5 6 
#
# 1 0.030006 -0.008427 -0.002461 0.000000 -0.015971 0.000000
# 2 -0.008427 0.016974 -0.005351 0.000000 0.005631 0.000000
# 3 -0.002461 -0.005351 0.013421 0.000000 0.000971 0.000000
# 4 0.000000 0.000000 0.000000 0.068050 0.000000 -0.032533
# 5 -0.015971 0.005631 0.000971 0.000000 0.046142 0.000000
# 6 0.000000 0.000000 0.000000 -0.032533 0.000000 0.080092
#
#
# Mechanical properties :
#
#
# Convention : Reuss Voigt Hill
#
# Bulk Modulus (GPa) = 35.81089 43.60886 39.70987
# Shear Modulus (GPa) = 16.86503 21.70416 19.28459
#
# Velocity S-wave (km/s) = 3.09609 3.51230 3.31075
# Velocity P-wave (km/s) = 5.75633 6.42144 6.09796
#
# Compressibility (1/GPa) = 0.02792447
#
# Stress axis : x y z
#
# Youngs Moduli (GPa) = 33.32638 58.91282 74.50844
#
# Poissons Ratio (x) = 0.49644 0.18333
# Poissons Ratio (y) = 0.28083 0.39873
# Poissons Ratio (z) = 0.08200 0.31527
#
# Static dielectric constant tensor:
#      x y z
#    x 3.189670 0.000000 0.352690 
#    y 0.000000 3.286640 0.000000 
#    z 0.352690 0.000000 3.556110 
# 
# 
# High freq. dielectric constant tensor:
#      x y z
#    x 1.654190 0.000000 0.015750 
#    y 0.000000 1.658310 0.000000 
#    z 0.015750 0.000000 1.684540 
# 
# From -- ./inp_files/111250.got.cif
#   From: 2010.06.25/outbox.cif.g09.slc.cpg/sg12_56_cif.got.tgz:111250.got - 2010.06.28 00:19:55.
