data_PCOD8082317
_publ_section_title
;
Structure prediction by ZEFSAII (Michael W. Deem and Ramdas Pophale) SiO2 
 PCOD8082317
Probable space group: C 2/M
;
_chemical_formula_sum "Si O2"
_cell_formula_units_Z 56
_cell_length_a 21.438882
_cell_length_b 9.335867
_cell_length_c 19.480525
_cell_angle_alpha 90.000000
_cell_angle_beta 132.845140
_cell_angle_gamma 90.000000
_cell_volume 2858.752474
_symmetry_space_group_name_H-M "C 2/M"
_symmetry_group_IT_number 12
_symmetry_cell_setting 'monoclinic'
loop_
_space_group_symop_operation_xyz
x,y,z
-x,y,-z
-x,-y,-z
x,-y,z
1/2+x,1/2+y,z
1/2-x,1/2+y,-z
1/2-x,1/2-y,-z
1/2+x,1/2-y,z
loop_
_atom_site_type_symbol
_atom_site_label
_atom_site_fract_x
_atom_site_fract_y
_atom_site_fract_z
Si Si1 0.468115 0.834964 0.052794
Si Si2 0.478718 0.830654 0.286040
Si Si3 0.808907 0.342559 0.091934
Si Si4 0.599185 0.831755 0.262722
Si Si5 0.255888 0.168498 0.721315
Si Si6 0.064970 0.831766 0.608157
Si Si7 0.178465 0.160653 0.105293
O O1 0.537536 0.770999 0.157087
O O2 0.445573 0.000000 0.051567
O O3 0.500000 0.813259 0.000000
O O4 0.383301 0.739027 0.995799
O O5 0.405552 0.788713 0.175574
O O6 0.567436 0.781220 0.314897
O O7 0.466227 0.746577 0.346989
O O8 0.476404 0.000000 0.300635
O O9 0.810106 0.500000 0.059641
O O10 0.770931 0.346410 0.140162
O O11 0.750000 0.250000 0.000000
O O12 0.698090 0.793631 0.317831
O O13 0.587216 0.000000 0.252249
O O14 0.158029 0.219334 0.651153
O O15 0.313521 0.247676 0.820016
O O16 0.262684 0.000000 0.741495
O O17 0.000000 0.790013 0.500000
O O18 0.065086 0.000000 0.623767
O O19 0.145507 0.000000 0.097438
#
# Coordination Sequence:
#
# PCOD8082317 Si02
#       7
#     8   8   8   8   8   8   8
#     4  10  18  31  51  74 106 152 202 230 257 321
#     4  10  20  37  58  82 114 146 184 235 283 333
#     4  10  21  34  50  75 110 149 187 228 274 328
#     4   9  18  33  55  81 108 146 192 232 267 319
#     4  10  19  36  59  79 104 143 187 225 270 335
#     4  10  22  40  63  88 111 140 183 237 292 347
#     4  11  21  32  48  76 111 142 183 233 279 319
#
# _framework density 19.588964000000001
#
# number of rings (size 3 to 8) (size 9 to 14) (size 15 to 20)
#    0.000    2.000    2.857    1.286    0.000    3.429 
#    0.000    2.143    0.000    0.000    0.000    0.000 
#    0.000    0.000    0.000    0.000    0.000    0.000 
#
# Total GULP energy -346959.005262 kJ/mol
# GULP energy per Si atom -12391.393045 kJ/mol
# Density = 1.954438 g / cm^3
# Si number density = 19.588964 Si / 1000 Ang^3
#
#
#
# Elastic Constant Matrix: (Units=GPa)
#
#
# Indices 1 2 3 4 5 6 
#
# 1 169.4917 30.3520 54.5933 0.0000 1.8724 0.0000
# 2 30.3520 48.7893 34.1386 0.0000 -2.8921 0.0000
# 3 54.5933 34.1386 89.3089 0.0000 -1.3836 0.0000
# 4 0.0000 0.0000 0.0000 18.8842 0.0000 -3.5841
# 5 1.8724 -2.8921 -1.3836 0.0000 21.3953 0.0000
# 6 0.0000 0.0000 0.0000 -3.5841 0.0000 24.5544
#
#
#
# Elastic Compliance Matrix: (Units=1/GPa)
#
#
# Indices 1 2 3 4 5 6 
#
# 1 0.007515 -0.002072 -0.003820 0.000000 -0.001185 0.000000
# 2 -0.002072 0.028758 -0.009673 0.000000 0.003443 0.000000
# 3 -0.003820 -0.009673 0.017232 0.000000 0.000141 0.000000
# 4 0.000000 0.000000 0.000000 0.054463 0.000000 0.007950
# 5 -0.001185 0.003443 0.000141 0.000000 0.047317 0.000000
# 6 0.000000 0.000000 0.000000 0.007950 0.000000 0.041886
#
#
# Mechanical properties :
#
#
# Convention : Reuss Voigt Hill
#
# Bulk Modulus (GPa) = 44.69372 60.63975 52.66674
# Shear Modulus (GPa) = 21.20819 25.53385 23.37102
#
# Velocity S-wave (km/s) = 3.29395 3.61429 3.45783
# Velocity P-wave (km/s) = 6.11000 6.95994 6.54877
#
# Compressibility (1/GPa) = 0.02237451
#
# Stress axis : x y z
#
# Youngs Moduli (GPa) = 133.07570 34.77338 58.03297
#
# Poissons Ratio (x) = 0.07206 0.22167
# Poissons Ratio (y) = 0.27578 0.56133
# Poissons Ratio (z) = 0.50831 0.33635
#
# Static dielectric constant tensor:
#      x y z
#    x 4.120330 0.000000 0.187030 
#    y 0.000000 3.376630 0.000000 
#    z 0.187030 0.000000 3.302780 
# 
# 
# High freq. dielectric constant tensor:
#      x y z
#    x 1.790910 0.000000 0.006970 
#    y 0.000000 1.736800 0.000000 
#    z 0.006970 0.000000 1.727140 
# 
# From -- ./inp_files/320206.got.cif
#   From: 2010.06.25/outbox.cif.g09.slc.cpg/sg12_161_cif.got.tgz:320206.got - 2010.06.28 00:19:55.
