data_PCOD8082172
_publ_section_title
;
Structure prediction by ZEFSAII (Michael W. Deem and Ramdas Pophale) SiO2 
 PCOD8082172
Probable space group: C 2/M
;
_chemical_formula_sum "Si O2"
_cell_formula_units_Z 56
_cell_length_a 27.543432
_cell_length_b 24.935191
_cell_length_c 14.583018
_cell_angle_alpha 90.000000
_cell_angle_beta 159.370528
_cell_angle_gamma 90.000000
_cell_volume 3528.736890
_symmetry_space_group_name_H-M "C 2/M"
_symmetry_group_IT_number 12
_symmetry_cell_setting 'monoclinic'
loop_
_space_group_symop_operation_xyz
x,y,z
-x,y,-z
-x,-y,-z
x,-y,z
1/2+x,1/2+y,z
1/2-x,1/2+y,-z
1/2-x,1/2-y,-z
1/2+x,1/2-y,z
loop_
_atom_site_type_symbol
_atom_site_label
_atom_site_fract_x
_atom_site_fract_y
_atom_site_fract_z
Si Si1 0.115364 0.436698 0.960444
Si Si2 0.107103 0.369128 0.770502
Si Si3 0.907967 0.063514 0.559176
Si Si4 0.115125 0.063722 0.271889
Si Si5 0.919300 0.862769 0.261854
Si Si6 0.905536 0.746572 0.245896
Si Si7 0.082991 0.563914 0.233473
O O1 0.112892 0.500000 0.950556
O O2 0.261719 0.417759 0.259735
O O3 0.089079 0.415065 0.813043
O O4 0.992421 0.415562 0.808177
O O5 0.078628 0.311936 0.773895
O O6 0.000000 0.379911 0.500000
O O7 0.258629 0.372427 0.994791
O O8 0.915375 0.081573 0.678100
O O9 0.029123 0.093700 0.719624
O O10 0.930471 0.000000 0.587696
O O11 0.261807 0.086565 0.496683
O O12 0.117451 0.000000 0.271332
O O13 0.000000 0.087493 0.000000
O O14 0.943555 0.802392 0.261302
O O15 0.000000 0.869274 0.500000
O O16 0.000000 0.742780 0.500000
O O17 0.750000 0.750000 0.000000
O O18 0.083721 0.500000 0.230986
O O19 0.000000 0.586695 0.000000
#
# Coordination Sequence:
#
# PCOD8082172 Si02
#       7
#     8   8   8   8   8   8   8
#     4  10  19  30  47  71  97 128 162 189 228 287
#     4  10  20  33  46  67  98 126 157 199 233 267
#     4  10  19  30  47  73  99 124 158 191 229 288
#     4   9  17  29  45  67  94 121 154 197 234 267
#     4  10  18  31  50  70  92 127 161 189 231 281
#     4   8  16  30  48  66  87 117 160 202 230 260
#     4   9  15  27  46  64  88 122 157 193 227 265
#
# _framework density 15.869702
#
# number of rings (size 3 to 8) (size 9 to 14) (size 15 to 20)
#    0.000    2.571    2.857    0.000    0.000    2.286 
#    0.000    1.429    0.000    0.000    0.000    2.000 
#    0.000    0.000    0.000    0.000    0.000    0.000 
#
# Total GULP energy -346899.377426 kJ/mol
# GULP energy per Si atom -12389.263479 kJ/mol
# Density = 1.583358 g / cm^3
# Si number density = 15.869702 Si / 1000 Ang^3
#
#
#
# Elastic Constant Matrix: (Units=GPa)
#
#
# Indices 1 2 3 4 5 6 
#
# 1 105.7523 35.1978 57.6998 0.0000 3.7030 0.0000
# 2 35.1978 34.5322 24.5855 0.0000 5.3320 0.0000
# 3 57.6998 24.5855 132.4263 0.0000 -1.0940 0.0000
# 4 0.0000 0.0000 0.0000 16.7585 0.0000 0.5031
# 5 3.7030 5.3320 -1.0940 0.0000 27.6676 0.0000
# 6 0.0000 0.0000 0.0000 0.5031 0.0000 0.4491
#
#
#
# Elastic Compliance Matrix: (Units=1/GPa)
#
#
# Indices 1 2 3 4 5 6 
#
# 1 0.016501 -0.013522 -0.004678 0.000000 0.000212 0.000000
# 2 -0.013522 0.045730 -0.002657 0.000000 -0.007108 0.000000
# 3 -0.004678 -0.002657 0.010096 0.000000 0.001537 0.000000
# 4 0.000000 0.000000 0.000000 0.061748 0.000000 -0.069180
# 5 0.000212 -0.007108 0.001537 0.000000 0.037546 0.000000
# 6 0.000000 0.000000 0.000000 -0.069180 0.000000 2.304408
#
#
# Mechanical properties :
#
#
# Convention : Reuss Voigt Hill
#
# Bulk Modulus (GPa) = 32.66501 56.40854 44.53677
# Shear Modulus (GPa) = 1.97789 19.32356 10.65072
#
# Velocity S-wave (km/s) = 1.11760 3.49325 2.59344
# Velocity P-wave (km/s) = 4.72158 7.20364 6.09039
#
# Compressibility (1/GPa) = 0.03061380
#
# Stress axis : x y z
#
# Youngs Moduli (GPa) = 60.60120 21.86736 99.05402
#
# Poissons Ratio (x) = 0.29569 0.46334
# Poissons Ratio (y) = 0.81944 0.26320
# Poissons Ratio (z) = 0.28347 0.05810
#
# Static dielectric constant tensor:
#      x y z
#    x 2.866390 0.000000 0.024700 
#    y 0.000000 3.064100 0.000000 
#    z 0.024700 0.000000 3.346960 
# 
# 
# High freq. dielectric constant tensor:
#      x y z
#    x 1.586790 0.000000 0.001520 
#    y 0.000000 1.579000 0.000000 
#    z 0.001520 0.000000 1.629170 
# 
# From -- ./inp_files/198376.got.cif
#   From: 2010.06.25/outbox.cif.g09.slc.cpg/sg12_100_cif.got.tgz:198376.got - 2010.06.28 00:19:55.
