data_PCOD8082362
_publ_section_title
;
Structure prediction by ZEFSAII (Michael W. Deem and Ramdas Pophale) SiO2 
 PCOD8082362
Probable space group: C 2/M
;
_chemical_formula_sum "Si O2"
_cell_formula_units_Z 48
_cell_length_a 21.926365
_cell_length_b 13.360763
_cell_length_c 20.544981
_cell_angle_alpha 90.000000
_cell_angle_beta 24.603006
_cell_angle_gamma 90.000000
_cell_volume 2505.761773
_symmetry_space_group_name_H-M "C 2/M"
_symmetry_group_IT_number 12
_symmetry_cell_setting 'monoclinic'
loop_
_space_group_symop_operation_xyz
x,y,z
-x,y,-z
-x,-y,-z
x,-y,z
1/2+x,1/2+y,z
1/2-x,1/2+y,-z
1/2-x,1/2-y,-z
1/2+x,1/2-y,z
loop_
_atom_site_type_symbol
_atom_site_label
_atom_site_fract_x
_atom_site_fract_y
_atom_site_fract_z
Si Si1 0.846550 0.613805 0.523869
Si Si2 0.591055 0.791709 0.664292
Si Si3 0.899113 0.217506 0.041377
Si Si4 0.346418 0.274545 0.628414
Si Si5 0.598952 0.884888 0.793902
Si Si6 0.006023 0.112979 0.818088
O O1 0.887584 0.500000 0.498183
O O2 0.947370 0.650155 0.364935
O O3 0.887885 0.676423 0.546968
O O4 0.672673 0.626500 0.680367
O O5 0.750000 0.750000 0.500000
O O6 0.594462 0.869195 0.720772
O O7 0.482784 0.696174 0.783532
O O8 0.737596 0.239658 0.224713
O O9 0.897016 0.139266 0.983492
O O10 0.000000 0.169247 0.000000
O O11 0.968198 0.323385 0.953329
O O12 0.500000 0.326031 0.500000
O O13 0.254328 0.350834 0.673295
O O14 0.573331 0.000000 0.835142
O O15 0.974795 0.000000 0.823361
#
# Coordination Sequence:
#
# PCOD8082362 Si02
#       6
#     8   8   8   8   8   8
#     4  10  18  31  51  78 106 133 169 213 259 302
#     4   9  15  31  50  81 106 123 163 221 263 293
#     4   9  17  33  49  73 101 133 174 212 248 295
#     4  11  22  35  49  74 110 141 169 205 252 307
#     4  10  19  34  57  79 100 133 172 213 257 298
#     4   9  16  27  51  78 100 126 164 215 259 297
#
# _framework density 19.155851999999999
#
# number of rings (size 3 to 8) (size 9 to 14) (size 15 to 20)
#    0.000    2.333    6.667    0.500    0.000    5.333 
#    0.000    0.000    0.000    4.000    0.000    2.333 
#    0.000    0.000    0.000    0.000    0.000    0.000 
#
# Total GULP energy -297450.793923 kJ/mol
# GULP energy per Si atom -12393.783080 kJ/mol
# Density = 1.911225 g / cm^3
# Si number density = 19.155852 Si / 1000 Ang^3
#
#
#
# Elastic Constant Matrix: (Units=GPa)
#
#
# Indices 1 2 3 4 5 6 
#
# 1 55.8321 36.7688 45.1086 -0.0005 22.4616 0.0003
# 2 36.7688 120.6719 20.7005 0.0004 13.6110 0.0009
# 3 45.1086 20.7005 88.4752 0.0017 19.3016 0.0001
# 4 -0.0005 0.0004 0.0017 12.9924 0.0003 4.9027
# 5 22.4616 13.6110 19.3016 0.0003 33.4202 -0.0005
# 6 0.0003 0.0009 0.0001 4.9027 -0.0005 17.4235
#
#
#
# Elastic Compliance Matrix: (Units=1/GPa)
#
#
# Indices 1 2 3 4 5 6 
#
# 1 0.043506 -0.008580 -0.016655 0.000005 -0.016126 -0.000002
# 2 -0.008580 0.010542 0.001815 -0.000001 0.000425 0.000000
# 3 -0.016655 0.001815 0.019552 -0.000004 -0.000838 0.000001
# 4 0.000005 -0.000001 -0.000004 0.086112 -0.000002 -0.024231
# 5 -0.016126 0.000425 -0.000838 -0.000002 0.041071 0.000002
# 6 -0.000002 0.000000 0.000001 -0.024231 0.000002 0.064212
#
#
# Mechanical properties :
#
#
# Convention : Reuss Voigt Hill
#
# Bulk Modulus (GPa) = 37.37016 52.23721 44.80369
# Shear Modulus (GPa) = 15.58823 23.59397 19.59110
#
# Velocity S-wave (km/s) = 2.85574 3.51334 3.20147
# Velocity P-wave (km/s) = 5.51584 6.61717 6.09144
#
# Compressibility (1/GPa) = 0.02675932
#
# Stress axis : x y z
#
# Youngs Moduli (GPa) = 22.98559 94.85906 51.14490
#
# Poissons Ratio (x) = 0.81390 0.85184
# Poissons Ratio (y) = 0.19722 -0.09284
# Poissons Ratio (z) = 0.38284 -0.17220
#
# Static dielectric constant tensor:
#      x y z
#    x 3.153120 0.000060 0.454460 
#    y 0.000060 3.559060 0.000040 
#    z 0.454460 0.000040 3.428580 
# 
# 
# High freq. dielectric constant tensor:
#      x y z
#    x 1.715530 0.000000 0.043780 
#    y 0.000000 1.740850 0.000000 
#    z 0.043780 0.000000 1.730650 
# 
# From -- ./inp_files/278032.got.cif
#   From: 2010.06.25/outbox.cif.g09.slc.cpg/sg12_140_cif.got.tgz:278032.got - 2010.06.28 00:19:55.
