data_PCOD8082946
_publ_section_title
;
Structure prediction by ZEFSAII (Michael W. Deem and Ramdas Pophale) SiO2 
 PCOD8082946
Probable space group: C 2/M
;
_chemical_formula_sum "Si O2"
_cell_formula_units_Z 56
_cell_length_a 9.898631
_cell_length_b 27.144819
_cell_length_c 14.615568
_cell_angle_alpha 90.000000
_cell_angle_beta 57.672806
_cell_angle_gamma 90.000000
_cell_volume 3318.475884
_symmetry_space_group_name_H-M "C 2/M"
_symmetry_group_IT_number 12
_symmetry_cell_setting 'monoclinic'
loop_
_space_group_symop_operation_xyz
x,y,z
-x,y,-z
-x,-y,-z
x,-y,z
1/2+x,1/2+y,z
1/2-x,1/2+y,-z
1/2-x,1/2-y,-z
1/2+x,1/2-y,z
loop_
_atom_site_type_symbol
_atom_site_label
_atom_site_fract_x
_atom_site_fract_y
_atom_site_fract_z
Si Si1 0.355798 0.000000 0.694809
Si Si2 0.058318 0.248961 0.238257
Si Si3 0.279267 0.604956 0.437415
Si Si4 0.388592 0.846148 0.342312
Si Si5 0.391692 0.302805 0.127550
Si Si6 0.311009 0.000000 0.494837
Si Si7 0.209374 0.605266 0.255729
Si Si8 0.070080 0.162685 0.375149
O O1 0.351837 0.000000 0.586897
O O2 0.548991 0.000000 0.633364
O O3 0.268898 0.952985 0.773898
O O4 0.231736 0.273168 0.159325
O O5 0.992914 0.223218 0.170545
O O6 0.074514 0.211379 0.314411
O O7 0.930602 0.288828 0.318301
O O8 0.178120 0.643953 0.532448
O O9 0.284462 0.551186 0.484257
O O10 0.193593 0.607699 0.370848
O O11 0.463656 0.621422 0.363529
O O12 0.544661 0.878809 0.266999
O O13 0.249927 0.858843 0.319000
O O14 0.351477 0.359456 0.170052
O O15 0.500000 0.305250 0.000000
O O16 0.000000 0.176152 0.500000
#
# Coordination Sequence:
#
# PCOD8082946 Si02
#       8
#     4   8   8   8   8   4   8   8
#     4   9  16  30  52  82 103 137 170 213 261 314
#     4  11  21  38  54  73 108 138 174 220 265 311
#     4  10  18  32  51  75 107 141 174 210 250 311
#     4  10  20  31  49  76 105 138 172 207 251 317
#     4  11  23  38  57  79 100 135 183 228 270 309
#     4   9  16  28  50  77 106 137 177 205 252 311
#     4  10  19  33  56  76 106 136 176 218 260 310
#     4  10  21  33  47  75 112 141 171 206 251 315
#
# _framework density 16.875216999999999
#
# number of rings (size 3 to 8) (size 9 to 14) (size 15 to 20)
#    0.000    1.857    4.286    0.857    0.000    4.571 
#    0.000    4.286    0.000    0.000    0.000    0.000 
#    0.000    1.143    0.000    0.000    0.000    0.000 
#
# Total GULP energy -346949.854247 kJ/mol
# GULP energy per Si atom -12391.066223 kJ/mol
# Density = 1.683681 g / cm^3
# Si number density = 16.875217 Si / 1000 Ang^3
#
#
#
# Elastic Constant Matrix: (Units=GPa)
#
#
# Indices 1 2 3 4 5 6 
#
# 1 83.3857 43.7746 28.7073 0.0000 -7.9761 0.0000
# 2 43.7746 140.1212 54.1792 0.0000 -3.9927 0.0000
# 3 28.7073 54.1792 66.2040 0.0000 -3.4447 0.0000
# 4 0.0000 0.0000 0.0000 15.5776 0.0000 -5.2943
# 5 -7.9761 -3.9927 -3.4447 0.0000 19.8872 0.0000
# 6 0.0000 0.0000 0.0000 -5.2943 0.0000 9.3769
#
#
#
# Elastic Compliance Matrix: (Units=1/GPa)
#
#
# Indices 1 2 3 4 5 6 
#
# 1 0.015463 -0.003214 -0.003820 0.000000 0.004895 0.000000
# 2 -0.003214 0.011116 -0.007724 0.000000 -0.000395 0.000000
# 3 -0.003820 -0.007724 0.023130 0.000000 0.000924 0.000000
# 4 0.000000 0.000000 0.000000 0.079438 0.000000 0.044852
# 5 0.004895 -0.000395 0.000924 0.000000 0.052327 0.000000
# 6 0.000000 0.000000 0.000000 0.044852 0.000000 0.131969
#
#
# Mechanical properties :
#
#
# Convention : Reuss Voigt Hill
#
# Bulk Modulus (GPa) = 49.52135 60.33700 54.92918
# Shear Modulus (GPa) = 14.29833 19.83834 17.06833
#
# Velocity S-wave (km/s) = 2.91400 3.43241 3.18377
# Velocity P-wave (km/s) = 6.38210 7.17920 6.79235
#
# Compressibility (1/GPa) = 0.02019331
#
# Stress axis : x y z
#
# Youngs Moduli (GPa) = 64.66982 89.95995 43.23350
#
# Poissons Ratio (x) = 0.28916 0.16515
# Poissons Ratio (y) = 0.20787 0.33393
# Poissons Ratio (z) = 0.24704 0.69483
#
# Static dielectric constant tensor:
#      x y z
#    x 3.401960 0.000000 -0.166620 
#    y 0.000000 3.428580 0.000000 
#    z -0.166620 0.000000 2.844080 
# 
# 
# High freq. dielectric constant tensor:
#      x y z
#    x 1.656040 0.000000 -0.012570 
#    y 0.000000 1.658360 0.000000 
#    z -0.012570 0.000000 1.611070 
# 
# From -- ./inp_files/200883.got.cif
#   From: 2010.06.25/outbox.cif.g09.slc.cpg/sg12_101_cif.got.tgz:200883.got - 2010.06.28 00:19:55.
