data_PCOD8082062
_publ_section_title
;
Structure prediction by ZEFSAII (Michael W. Deem and Ramdas Pophale) SiO2 
 PCOD8082062
Probable space group: C 2/M
;
_chemical_formula_sum "Si O2"
_cell_formula_units_Z 64
_cell_length_a 29.177406
_cell_length_b 16.535085
_cell_length_c 27.051969
_cell_angle_alpha 90.000000
_cell_angle_beta 161.829018
_cell_angle_gamma 90.000000
_cell_volume 4070.080233
_symmetry_space_group_name_H-M "C 2/M"
_symmetry_group_IT_number 12
_symmetry_cell_setting 'monoclinic'
loop_
_space_group_symop_operation_xyz
x,y,z
-x,y,-z
-x,-y,-z
x,-y,z
1/2+x,1/2+y,z
1/2-x,1/2+y,-z
1/2-x,1/2-y,-z
1/2+x,1/2-y,z
loop_
_atom_site_type_symbol
_atom_site_label
_atom_site_fract_x
_atom_site_fract_y
_atom_site_fract_z
Si Si1 0.009167 0.684652 0.779046
Si Si2 0.440047 0.669943 0.640926
Si Si3 0.166711 0.093294 0.664268
Si Si4 0.267116 0.408801 0.077686
Si Si5 0.256191 0.406845 0.534784
Si Si6 0.123304 0.587804 0.034524
Si Si7 0.323709 0.261307 0.672694
Si Si8 0.601718 0.795288 0.150204
O O1 0.008820 0.752471 0.737292
O O2 0.897926 0.613693 0.649066
O O3 0.960301 0.723740 0.781676
O O4 0.173559 0.648047 0.945236
O O5 0.570124 0.625049 0.744898
O O6 0.381196 0.608408 0.622071
O O7 0.313069 0.699217 0.473560
O O8 0.231689 0.102868 0.785164
O O9 0.254212 0.155835 0.719099
O O10 0.000000 0.121912 0.500000
O O11 0.177094 0.000000 0.655361
O O12 0.279136 0.500000 0.069461
O O13 0.168889 0.405363 0.025311
O O14 0.258996 0.500000 0.554902
O O15 0.284304 0.349988 0.611312
O O16 0.058218 0.500000 0.980119
O O17 0.992755 0.646250 0.913065
O O18 0.354793 0.272170 0.763904
O O19 0.500000 0.762545 0.000000
#
# Coordination Sequence:
#
# PCOD8082062 Si02
#       8
#     8   8   8   8   8   8   8   8
#     4   9  17  32  47  63  90 123 153 184 218 270
#     4   9  19  30  45  66  93 122 149 185 229 262
#     4   9  18  30  43  61  86 115 148 187 226 259
#     4  11  19  27  42  66  96 122 153 185 213 258
#     4   9  17  32  50  68  90 117 151 188 227 273
#     4   9  18  29  40  60  87 120 153 182 215 255
#     4   9  18  32  48  67  89 117 154 188 227 270
#     4  10  18  31  48  62  85 120 155 187 218 271
#
# _framework density 15.724505000000001
#
# number of rings (size 3 to 8) (size 9 to 14) (size 15 to 20)
#    0.000    2.625    1.250    3.000    1.750    1.500 
#    0.000    1.250    0.000    0.375    0.000    0.000 
#    0.000    0.500    0.000    0.000    0.000    0.000 
#
# Total GULP energy -396487.377222 kJ/mol
# GULP energy per Si atom -12390.230538 kJ/mol
# Density = 1.568872 g / cm^3
# Si number density = 15.724505 Si / 1000 Ang^3
#
#
#
# Elastic Constant Matrix: (Units=GPa)
#
#
# Indices 1 2 3 4 5 6 
#
# 1 52.2756 16.3336 16.4707 0.0016 -14.4321 -0.0006
# 2 16.3336 71.3797 21.3532 0.0123 -3.0362 0.0038
# 3 16.4707 21.3532 66.7852 0.0057 5.8355 0.0044
# 4 0.0016 0.0123 0.0057 21.1731 -0.0009 -1.3804
# 5 -14.4321 -3.0362 5.8355 -0.0009 24.5242 -0.0004
# 6 -0.0006 0.0038 0.0044 -1.3804 -0.0004 12.5915
#
#
#
# Elastic Compliance Matrix: (Units=1/GPa)
#
#
# Indices 1 2 3 4 5 6 
#
# 1 0.027204 -0.003351 -0.007149 0.000003 0.017295 0.000006
# 2 -0.003351 0.016148 -0.004431 -0.000008 0.001082 -0.000004
# 3 -0.007149 -0.004431 0.018963 -0.000003 -0.009268 -0.000006
# 4 0.000003 -0.000008 -0.000003 0.047570 0.000003 0.005215
# 5 0.017295 0.001082 -0.009268 0.000003 0.053293 0.000006
# 6 0.000006 -0.000004 -0.000006 0.005215 0.000006 0.079990
#
#
# Mechanical properties :
#
#
# Convention : Reuss Voigt Hill
#
# Bulk Modulus (GPa) = 30.81372 33.19505 32.00438
# Shear Modulus (GPa) = 17.61515 20.74329 19.17922
#
# Velocity S-wave (km/s) = 3.35062 3.63598 3.49621
# Velocity P-wave (km/s) = 5.88281 6.22763 6.05767
#
# Compressibility (1/GPa) = 0.03245308
#
# Stress axis : x y z
#
# Youngs Moduli (GPa) = 36.75994 61.92755 52.73422
#
# Poissons Ratio (x) = 0.20750 0.37699
# Poissons Ratio (y) = 0.12317 0.23367
# Poissons Ratio (z) = 0.26279 0.27441
#
# Static dielectric constant tensor:
#      x y z
#    x 2.952790 -0.000010 -0.029490 
#    y -0.000010 2.822220 -0.000030 
#    z -0.029490 -0.000030 3.091760 
# 
# 
# High freq. dielectric constant tensor:
#      x y z
#    x 1.586840 0.000000 0.001070 
#    y 0.000000 1.577370 0.000000 
#    z 0.001070 0.000000 1.613670 
# 
# From -- ./inp_files/350040.got.cif
#   From: 2010.06.25/outbox.cif.g09.slc.cpg/sg12_176_cif.got.tgz:350040.got - 2010.06.28 00:19:55.
