data_PCOD8082707
_publ_section_title
;
Structure prediction by ZEFSAII (Michael W. Deem and Ramdas Pophale) SiO2 
 PCOD8082707
Probable space group: C 2/M
;
_chemical_formula_sum "Si O2"
_cell_formula_units_Z 56
_cell_length_a 15.241634
_cell_length_b 9.508059
_cell_length_c 23.850866
_cell_angle_alpha 90.000000
_cell_angle_beta 117.132665
_cell_angle_gamma 90.000000
_cell_volume 3076.058533
_symmetry_space_group_name_H-M "C 2/M"
_symmetry_group_IT_number 12
_symmetry_cell_setting 'monoclinic'
loop_
_space_group_symop_operation_xyz
x,y,z
-x,y,-z
-x,-y,-z
x,-y,z
1/2+x,1/2+y,z
1/2-x,1/2+y,-z
1/2-x,1/2-y,-z
1/2+x,1/2-y,z
loop_
_atom_site_type_symbol
_atom_site_label
_atom_site_fract_x
_atom_site_fract_y
_atom_site_fract_z
Si Si1 0.891403 0.835513 0.707850
Si Si2 0.731181 0.336753 0.939035
Si Si3 0.697862 0.665059 0.643060
Si Si4 0.994234 0.834668 0.626734
Si Si5 0.991681 0.838022 0.146639
Si Si6 0.075774 0.335928 0.070350
Si Si7 0.667095 0.337044 0.505820
O O1 0.791258 0.752587 0.690395
O O2 0.940841 0.771138 0.665990
O O3 0.966170 0.806299 0.779926
O O4 0.866324 0.000000 0.694316
O O5 0.739947 0.500000 0.957668
O O6 0.623629 0.297731 0.884151
O O7 0.812990 0.298513 0.916193
O O8 0.750000 0.250000 0.000000
O O9 0.720304 0.500000 0.656939
O O10 0.606845 0.717509 0.654986
O O11 0.665454 0.700455 0.570445
O O12 0.936666 0.794855 0.552907
O O13 0.996919 0.000000 0.635407
O O14 0.051730 0.747328 0.119535
O O15 0.005439 0.000000 0.133581
O O16 0.063494 0.500000 0.080016
O O17 0.000000 0.288410 0.000000
O O18 0.690316 0.500000 0.502468
O O19 0.750000 0.250000 0.500000
#
# Coordination Sequence:
#
# PCOD8082707 Si02
#       7
#     8   8   8   8   8   8   8
#     4  10  21  38  55  75 108 147 183 218 267 322
#     4  10  20  35  56  82 110 139 174 216 266 320
#     4  10  20  34  56  83 107 139 186 228 267 319
#     4   9  18  34  56  78 107 145 180 220 270 323
#     4  10  22  37  55  80 109 144 182 218 261 324
#     4  10  20  35  57  85 111 136 171 219 270 317
#     4  10  18  31  54  82 108 138 179 226 273 318
#
# _framework density 18.205114999999999
#
# number of rings (size 3 to 8) (size 9 to 14) (size 15 to 20)
#    0.000    2.143    2.857    0.429    0.000    4.286 
#    0.000    4.286    0.000    1.714    0.000    0.000 
#    0.000    0.000    0.000    0.000    0.000    0.000 
#
# Total GULP energy -347205.934931 kJ/mol
# GULP energy per Si atom -12400.211962 kJ/mol
# Density = 1.816368 g / cm^3
# Si number density = 18.205115 Si / 1000 Ang^3
#
#
#
# Elastic Constant Matrix: (Units=GPa)
#
#
# Indices 1 2 3 4 5 6 
#
# 1 136.2754 39.1177 39.6580 0.0000 21.6759 0.0000
# 2 39.1177 40.2727 33.0541 0.0000 6.1745 0.0000
# 3 39.6580 33.0541 90.6426 0.0000 18.4361 0.0000
# 4 0.0000 0.0000 0.0000 24.5328 0.0000 -1.4587
# 5 21.6759 6.1745 18.4361 0.0000 28.4557 0.0000
# 6 0.0000 0.0000 0.0000 -1.4587 0.0000 30.2474
#
#
#
# Elastic Compliance Matrix: (Units=1/GPa)
#
#
# Indices 1 2 3 4 5 6 
#
# 1 0.011193 -0.009904 0.000013 0.000000 -0.006386 0.000000
# 2 -0.009904 0.044215 -0.013100 0.000000 0.006437 0.000000
# 3 0.000013 -0.013100 0.017539 0.000000 -0.008531 0.000000
# 4 0.000000 0.000000 0.000000 0.040879 0.000000 0.001971
# 5 -0.006386 0.006437 -0.008531 0.000000 0.044137 0.000000
# 6 0.000000 0.000000 0.000000 0.001971 0.000000 0.033156
#
#
# Mechanical properties :
#
#
# Convention : Reuss Voigt Hill
#
# Bulk Modulus (GPa) = 37.08371 54.53891 45.81131
# Shear Modulus (GPa) = 20.31800 27.00458 23.66129
#
# Velocity S-wave (km/s) = 3.34437 3.85561 3.60905
# Velocity P-wave (km/s) = 5.94367 7.06003 6.52577
#
# Compressibility (1/GPa) = 0.02696601
#
# Stress axis : x y z
#
# Youngs Moduli (GPa) = 89.34378 22.61669 57.01665
#
# Poissons Ratio (x) = 0.22398 -0.00075
# Poissons Ratio (y) = 0.88482 0.74692
# Poissons Ratio (z) = -0.00118 0.29628
#
# Static dielectric constant tensor:
#      x y z
#    x 4.104250 0.000000 -0.748460 
#    y 0.000000 3.156910 0.000000 
#    z -0.748460 0.000000 4.306370 
# 
# 
# High freq. dielectric constant tensor:
#      x y z
#    x 1.719190 0.000000 0.005020 
#    y 0.000000 1.683820 0.000000 
#    z 0.005020 0.000000 1.705400 
# 
# From -- ./inp_files/337911.got.cif
#   From: 2010.06.25/outbox.cif.g09.slc.cpg/sg12_169_cif.got.tgz:337911.got - 2010.06.28 00:19:55.
