data_PCOD8082411
_publ_section_title
;
Structure prediction by ZEFSAII (Michael W. Deem and Ramdas Pophale) SiO2 
 PCOD8082411
Probable space group: C 2/M
;
_chemical_formula_sum "Si O2"
_cell_formula_units_Z 48
_cell_length_a 18.474551
_cell_length_b 8.759826
_cell_length_c 18.977971
_cell_angle_alpha 90.000000
_cell_angle_beta 122.144932
_cell_angle_gamma 90.000000
_cell_volume 2600.466361
_symmetry_space_group_name_H-M "C 2/M"
_symmetry_group_IT_number 12
_symmetry_cell_setting 'monoclinic'
loop_
_space_group_symop_operation_xyz
x,y,z
-x,y,-z
-x,-y,-z
x,-y,z
1/2+x,1/2+y,z
1/2-x,1/2+y,-z
1/2-x,1/2-y,-z
1/2+x,1/2-y,z
loop_
_atom_site_type_symbol
_atom_site_label
_atom_site_fract_x
_atom_site_fract_y
_atom_site_fract_z
Si Si1 0.753795 0.824264 0.426517
Si Si2 0.749192 0.181899 0.921678
Si Si3 0.078852 0.680253 0.991150
Si Si4 0.422048 0.320622 0.162505
Si Si5 0.921210 0.678457 0.503324
Si Si6 0.934397 0.324600 0.674158
O O1 0.750000 0.750000 0.500000
O O2 0.833243 0.749232 0.426034
O O3 0.660907 0.800972 0.342139
O O4 0.774259 0.000000 0.447305
O O5 0.661474 0.246286 0.842330
O O6 0.749016 0.000000 0.921068
O O7 0.750000 0.250000 0.000000
O O8 0.835534 0.245353 0.929619
O O9 0.091713 0.500000 0.991416
O O10 0.060765 0.747392 0.904718
O O11 0.000000 0.723748 0.000000
O O12 0.407847 0.500000 0.146129
O O13 0.502891 0.288882 0.253445
O O14 0.913840 0.500000 0.487494
O O15 0.934466 0.719607 0.591938
O O16 0.000000 0.747353 0.500000
O O17 0.963787 0.500000 0.699593
#
# Coordination Sequence:
#
# PCOD8082411 Si02
#       6
#     8   8   8   8   8   8
#     4   9  17  30  50  73  98 131 168 205 246 296
#     4  10  18  31  52  74 100 132 167 204 243 294
#     4  10  20  35  55  77 102 131 164 205 251 297
#     4  11  21  33  52  76 102 133 170 207 245 294
#     4   9  18  33  53  76 102 132 166 206 251 297
#     4   9  18  33  51  72 100 133 168 207 251 295
#
# _framework density 18.458227000000001
#
# number of rings (size 3 to 8) (size 9 to 14) (size 15 to 20)
#    0.000    2.333    0.000    7.000    0.000    5.000 
#    0.000    1.667    0.000    4.000    0.000    0.000 
#    0.000    0.000    0.000    0.000    0.000    0.000 
#
# Total GULP energy -297454.939547 kJ/mol
# GULP energy per Si atom -12393.955814 kJ/mol
# Density = 1.841622 g / cm^3
# Si number density = 18.458227 Si / 1000 Ang^3
#
#
#
# Elastic Constant Matrix: (Units=GPa)
#
#
# Indices 1 2 3 4 5 6 
#
# 1 145.0624 59.6523 50.3496 0.0000 38.8394 0.0000
# 2 59.6523 114.0365 42.3670 0.0000 20.9359 0.0000
# 3 50.3496 42.3670 79.9576 0.0000 29.3457 0.0000
# 4 0.0000 0.0000 0.0000 30.2038 0.0000 9.6542
# 5 38.8394 20.9359 29.3457 0.0000 30.1888 0.0000
# 6 0.0000 0.0000 0.0000 9.6542 0.0000 29.6729
#
#
#
# Elastic Compliance Matrix: (Units=1/GPa)
#
#
# Indices 1 2 3 4 5 6 
#
# 1 0.011944 -0.003623 -0.001374 0.000000 -0.011519 0.000000
# 2 -0.003623 0.012198 -0.004334 0.000000 0.000415 0.000000
# 3 -0.001374 -0.004334 0.021635 0.000000 -0.016257 0.000000
# 4 0.000000 0.000000 0.000000 0.036951 0.000000 -0.012022
# 5 -0.011519 0.000415 -0.016257 0.000000 0.063460 0.000000
# 6 0.000000 0.000000 0.000000 -0.012022 0.000000 0.037612
#
#
# Mechanical properties :
#
#
# Convention : Reuss Voigt Hill
#
# Bulk Modulus (GPa) = 36.87987 71.53271 54.20629
# Shear Modulus (GPa) = 23.64035 30.45894 27.04965
#
# Velocity S-wave (km/s) = 3.58264 4.06662 3.83228
# Velocity P-wave (km/s) = 6.09404 7.80306 7.00090
#
# Compressibility (1/GPa) = 0.02711506
#
# Stress axis : x y z
#
# Youngs Moduli (GPa) = 83.72114 81.97788 46.22074
#
# Poissons Ratio (x) = 0.29699 0.06352
# Poissons Ratio (y) = 0.30331 0.20034
# Poissons Ratio (z) = 0.11505 0.35533
#
# Static dielectric constant tensor:
#      x y z
#    x 3.902620 0.000000 0.667130 
#    y 0.000000 3.501390 0.000000 
#    z 0.667130 0.000000 3.448020 
# 
# 
# High freq. dielectric constant tensor:
#      x y z
#    x 1.711960 0.000000 0.041100 
#    y 0.000000 1.726020 0.000000 
#    z 0.041100 0.000000 1.692740 
# 
# From -- ./inp_files/342051.got.cif
#   From: 2010.06.25/outbox.cif.g09.slc.cpg/sg12_172_cif.got.tgz:342051.got - 2010.06.28 00:19:55.
