data_PCOD8082636
_publ_section_title
;
Structure prediction by ZEFSAII (Michael W. Deem and Ramdas Pophale) SiO2 
 PCOD8082636
Probable space group: C 2/M
;
_chemical_formula_sum "Si O2"
_cell_formula_units_Z 40
_cell_length_a 24.740493
_cell_length_b 17.231352
_cell_length_c 8.894876
_cell_angle_alpha 90.000000
_cell_angle_beta 146.252197
_cell_angle_gamma 90.000000
_cell_volume 2106.597898
_symmetry_space_group_name_H-M "C 2/M"
_symmetry_group_IT_number 12
_symmetry_cell_setting 'monoclinic'
loop_
_space_group_symop_operation_xyz
x,y,z
-x,y,-z
-x,-y,-z
x,-y,z
1/2+x,1/2+y,z
1/2-x,1/2+y,-z
1/2-x,1/2-y,-z
1/2+x,1/2-y,z
loop_
_atom_site_type_symbol
_atom_site_label
_atom_site_fract_x
_atom_site_fract_y
_atom_site_fract_z
Si Si1 0.111929 0.414341 0.216999
Si Si2 0.759719 0.344951 0.248674
Si Si3 0.882769 0.252536 0.879193
Si Si4 0.602814 0.410164 0.661216
Si Si5 0.595337 0.279628 0.418131
O O1 0.125862 0.500000 0.176419
O O2 0.177863 0.409877 0.519315
O O3 0.142626 0.344852 0.175923
O O4 0.000000 0.399456 0.000000
O O5 0.700385 0.293969 0.230583
O O6 0.834792 0.284973 0.342104
O O7 0.690903 0.388445 0.974224
O O8 0.887957 0.219975 0.721673
O O9 0.984186 0.241039 0.199524
O O10 0.500000 0.389729 0.500000
O O11 0.608461 0.500000 0.631711
O O12 0.616586 0.363623 0.538089
#
# Coordination Sequence:
#
# PCOD8082636 Si02
#       5
#     8   8   8   8   8
#     4  10  18  31  53  84 112 136 175 230 277 320
#     4  11  20  37  61  82 109 152 189 224 277 339
#     4  10  19  36  59  84 110 145 191 227 273 337
#     4  11  23  38  55  82 116 150 189 232 277 329
#     4  10  19  37  57  82 111 147 186 228 277 330
#
# _framework density 18.987962
#
# number of rings (size 3 to 8) (size 9 to 14) (size 15 to 20)
#    0.000    1.600    6.000    3.600    0.000    0.000 
#    0.000    7.000    0.000    0.000    0.000    2.800 
#    0.000    0.000    0.000    0.000    0.000    0.000 
#
# Total GULP energy -247899.079592 kJ/mol
# GULP energy per Si atom -12394.953980 kJ/mol
# Density = 1.894474 g / cm^3
# Si number density = 18.987962 Si / 1000 Ang^3
#
#
#
# Elastic Constant Matrix: (Units=GPa)
#
#
# Indices 1 2 3 4 5 6 
#
# 1 33.8855 31.6778 19.8220 0.0000 7.8913 0.0000
# 2 31.6778 117.9612 35.6079 0.0000 -7.2310 0.0000
# 3 19.8220 35.6079 131.5451 0.0000 18.1665 0.0000
# 4 0.0000 0.0000 0.0000 26.6317 0.0000 -8.6601
# 5 7.8913 -7.2310 18.1665 0.0000 26.8623 0.0000
# 6 0.0000 0.0000 0.0000 -8.6601 0.0000 8.6545
#
#
#
# Elastic Compliance Matrix: (Units=1/GPa)
#
#
# Indices 1 2 3 4 5 6 
#
# 1 0.046189 -0.013046 -0.001180 0.000000 -0.016283 0.000000
# 2 -0.013046 0.013463 -0.002987 0.000000 0.009477 0.000000
# 3 -0.001180 -0.002987 0.009543 0.000000 -0.006911 0.000000
# 4 0.000000 0.000000 0.000000 0.055661 0.000000 0.055697
# 5 -0.016283 0.009477 -0.006911 0.000000 0.049235 0.000000
# 6 0.000000 0.000000 0.000000 0.055697 0.000000 0.171280
#
#
# Mechanical properties :
#
#
# Convention : Reuss Voigt Hill
#
# Bulk Modulus (GPa) = 28.76122 50.84524 39.80323
# Shear Modulus (GPa) = 12.77509 25.51531 19.14520
#
# Velocity S-wave (km/s) = 2.59665 3.66971 3.17879
# Velocity P-wave (km/s) = 4.91631 6.69264 5.87203
#
# Compressibility (1/GPa) = 0.03476904
#
# Stress axis : x y z
#
# Youngs Moduli (GPa) = 21.65015 74.27538 104.79039
#
# Poissons Ratio (x) = 0.96897 0.12366
# Poissons Ratio (y) = 0.28244 0.31305
# Poissons Ratio (z) = 0.02555 0.22189
#
# Static dielectric constant tensor:
#      x y z
#    x 3.158810 0.000000 0.377740 
#    y 0.000000 3.561470 0.000000 
#    z 0.377740 0.000000 3.919660 
# 
# 
# High freq. dielectric constant tensor:
#      x y z
#    x 1.696330 0.000000 0.026900 
#    y 0.000000 1.741950 0.000000 
#    z 0.026900 0.000000 1.765610 
# 
# From -- ./inp_files/60246.got.cif
#   From: 2010.06.25/outbox.cif.g09.slc.cpg/sg12_31_cif.got.tgz:60246.got - 2010.06.28 00:19:55.
