data_PCOD8082261
_publ_section_title
;
Structure prediction by ZEFSAII (Michael W. Deem and Ramdas Pophale) SiO2 
 PCOD8082261
Probable space group: C 2/M
;
_chemical_formula_sum "Si O2"
_cell_formula_units_Z 64
_cell_length_a 22.125894
_cell_length_b 13.229866
_cell_length_c 12.127884
_cell_angle_alpha 90.000000
_cell_angle_beta 76.403484
_cell_angle_gamma 90.000000
_cell_volume 3450.615229
_symmetry_space_group_name_H-M "C 2/M"
_symmetry_group_IT_number 12
_symmetry_cell_setting 'monoclinic'
loop_
_space_group_symop_operation_xyz
x,y,z
-x,y,-z
-x,-y,-z
x,-y,z
1/2+x,1/2+y,z
1/2-x,1/2+y,-z
1/2-x,1/2-y,-z
1/2+x,1/2-y,z
loop_
_atom_site_type_symbol
_atom_site_label
_atom_site_fract_x
_atom_site_fract_y
_atom_site_fract_z
Si Si1 0.298961 0.386465 0.796120
Si Si2 0.000091 0.173238 0.253385
Si Si3 0.084601 0.110350 0.409633
Si Si4 0.607749 0.618553 0.060180
Si Si5 0.377403 0.613273 0.195955
Si Si6 0.446350 0.196618 0.442870
Si Si7 0.769668 0.750254 0.322233
Si Si8 0.686660 0.116394 0.499753
O O1 0.271130 0.500000 0.809390
O O2 0.350868 0.375482 0.680234
O O3 0.327775 0.360641 0.903162
O O4 0.246473 0.304596 0.786828
O O5 0.028173 0.115246 0.346800
O O6 0.052933 0.185925 0.137384
O O7 0.943901 0.110618 0.225631
O O8 0.975721 0.283058 0.308406
O O9 0.078915 0.194708 0.505124
O O10 0.082426 0.000000 0.467437
O O11 0.589328 0.500000 0.078646
O O12 0.615907 0.653651 0.931602
O O13 0.349968 0.500000 0.205978
O O14 0.331844 0.685172 0.282835
O O15 0.500000 0.152010 0.500000
O O16 0.388462 0.120875 0.463085
O O17 0.713237 0.823766 0.382531
O O18 0.781703 0.662769 0.405726
O O19 0.706548 0.000000 0.483026
#
# Coordination Sequence:
#
# PCOD8082261 Si02
#       8
#     8   8   8   8   8   8   8   8
#     4   9  17  33  55  75 103 140 176 214 257 309
#     4  10  18  31  50  77 110 138 169 210 263 320
#     4   9  17  29  49  78 109 136 168 214 261 309
#     4   9  19  33  52  80 108 137 173 218 271 310
#     4  11  21  33  51  79 112 141 173 215 262 317
#     4  10  20  34  53  80 104 137 179 217 258 320
#     4  11  22  37  55  79 103 144 179 210 259 319
#     4  11  23  40  55  77 109 138 174 220 264 315
#
# _framework density 18.547415999999998
#
# number of rings (size 3 to 8) (size 9 to 14) (size 15 to 20)
#    0.000    2.000    2.500    3.000    0.000    5.000 
#    0.000    0.000    0.000    0.000    0.000    2.625 
#    0.000    0.000    0.000    0.000    0.000    0.000 
#
# Total GULP energy -396749.539887 kJ/mol
# GULP energy per Si atom -12398.423121 kJ/mol
# Density = 1.850520 g / cm^3
# Si number density = 18.547416 Si / 1000 Ang^3
#
#
#
# Elastic Constant Matrix: (Units=GPa)
#
#
# Indices 1 2 3 4 5 6 
#
# 1 69.4284 31.2062 8.8320 0.0000 11.1676 0.0000
# 2 31.2062 76.6814 23.2313 0.0000 4.9988 0.0000
# 3 8.8320 23.2313 62.4094 0.0000 8.9203 0.0000
# 4 0.0000 0.0000 0.0000 16.5495 0.0000 2.4705
# 5 11.1676 4.9988 8.9203 0.0000 21.4968 0.0000
# 6 0.0000 0.0000 0.0000 2.4705 0.0000 23.8909
#
#
#
# Elastic Compliance Matrix: (Units=1/GPa)
#
#
# Indices 1 2 3 4 5 6 
#
# 1 0.019043 -0.007600 0.001377 0.000000 -0.008697 0.000000
# 2 -0.007600 0.017762 -0.005858 0.000000 0.002249 0.000000
# 3 0.001377 -0.005858 0.019046 0.000000 -0.007257 0.000000
# 4 0.000000 0.000000 0.000000 0.061372 0.000000 -0.006346
# 5 -0.008697 0.002249 -0.007257 0.000000 0.053525 0.000000
# 6 0.000000 0.000000 0.000000 -0.006346 0.000000 0.042513
#
#
# Mechanical properties :
#
#
# Convention : Reuss Voigt Hill
#
# Bulk Modulus (GPa) = 31.55553 37.22871 34.39212
# Shear Modulus (GPa) = 20.16246 22.07075 21.11661
#
# Velocity S-wave (km/s) = 3.30066 3.45333 3.37786
# Velocity P-wave (km/s) = 5.61927 6.00137 5.81346
#
# Compressibility (1/GPa) = 0.03169017
#
# Stress axis : x y z
#
# Youngs Moduli (GPa) = 52.51254 56.30037 52.50457
#
# Poissons Ratio (x) = 0.42788 -0.07231
# Poissons Ratio (y) = 0.39910 0.30755
# Poissons Ratio (z) = -0.07232 0.32978
#
# Static dielectric constant tensor:
#      x y z
#    x 3.443030 0.000000 -0.003720 
#    y 0.000000 3.145750 0.000000 
#    z -0.003720 0.000000 3.401830 
# 
# 
# High freq. dielectric constant tensor:
#      x y z
#    x 1.725470 0.000000 0.007160 
#    y 0.000000 1.684910 0.000000 
#    z 0.007160 0.000000 1.709540 
# 
# From -- ./inp_files/174586.got.cif
#   From: 2010.06.25/outbox.cif.g09.slc.cpg/sg12_88_cif.got.tgz:174586.got - 2010.06.28 00:19:55.
