data_PCOD8082229
_publ_section_title
;
Structure prediction by ZEFSAII (Michael W. Deem and Ramdas Pophale) SiO2 
 PCOD8082229
Probable space group: C 2/M
;
_chemical_formula_sum "Si O2"
_cell_formula_units_Z 52
_cell_length_a 18.221086
_cell_length_b 23.991704
_cell_length_c 11.139603
_cell_angle_alpha 90.000000
_cell_angle_beta 34.735376
_cell_angle_gamma 90.000000
_cell_volume 2774.710162
_symmetry_space_group_name_H-M "C 2/M"
_symmetry_group_IT_number 12
_symmetry_cell_setting 'monoclinic'
loop_
_space_group_symop_operation_xyz
x,y,z
-x,y,-z
-x,-y,-z
x,-y,z
1/2+x,1/2+y,z
1/2-x,1/2+y,-z
1/2-x,1/2-y,-z
1/2+x,1/2-y,z
loop_
_atom_site_type_symbol
_atom_site_label
_atom_site_fract_x
_atom_site_fract_y
_atom_site_fract_z
Si Si1 0.030254 0.280419 0.715574
Si Si2 0.706080 0.384904 0.941249
Si Si3 0.549973 0.665217 0.802417
Si Si4 0.758993 0.303352 0.068595
Si Si5 0.199239 0.384342 0.452853
Si Si6 0.308515 0.000000 0.836282
Si Si7 0.423297 0.000000 0.419993
Si Si8 0.500000 0.267704 0.500000
O O1 0.092002 0.224010 0.686895
O O2 0.119005 0.333692 0.616582
O O3 0.008540 0.272220 0.603004
O O4 0.891967 0.295415 0.964974
O O5 0.559479 0.363753 0.130988
O O6 0.777400 0.355006 0.954759
O O7 0.781623 0.375030 0.715239
O O8 0.710764 0.448739 0.975031
O O9 0.664693 0.620055 0.660174
O O10 0.500000 0.681186 0.000000
O O11 0.628973 0.306904 0.323850
O O12 0.750000 0.250000 0.000000
O O13 0.132344 0.444148 0.569908
O O14 0.378934 0.000000 0.615290
O O15 0.419787 0.000000 0.790309
#
# Coordination Sequence:
#
# PCOD8082229 Si02
#       8
#     8   8   8   8   8   4   4   4
#     4  11  20  33  52  80 105 137 176 209 270 302
#     4  10  18  34  49  79 108 135 177 208 269 308
#     4  10  21  33  49  73 113 142 170 207 248 323
#     4  10  18  31  50  74 102 133 166 219 259 304
#     4  10  20  32  52  74 110 142 168 214 253 315
#     4   9  18  29  55  74 104 136 167 226 256 306
#     4   9  18  33  47  79 101 134 179 206 267 312
#     4  10  20  30  54  76 106 136 166 224 262 306
#
# _framework density 18.740696
#
# number of rings (size 3 to 8) (size 9 to 14) (size 15 to 20)
#    0.000    2.000    3.077    3.231    2.154    3.077 
#    0.000    3.077    0.000    0.462    0.000    0.538 
#    0.000    0.000    0.000    0.000    0.000    0.000 
#
# Total GULP energy -322176.567638 kJ/mol
# GULP energy per Si atom -12391.406448 kJ/mol
# Density = 1.869804 g / cm^3
# Si number density = 18.740696 Si / 1000 Ang^3
#
#
#
# Elastic Constant Matrix: (Units=GPa)
#
#
# Indices 1 2 3 4 5 6 
#
# 1 55.1825 36.5319 12.9388 0.0008 -15.7276 -0.0003
# 2 36.5319 154.5382 31.4262 0.0006 -16.3593 -0.0005
# 3 12.9388 31.4262 66.8363 -0.0005 -17.8714 -0.0004
# 4 0.0008 0.0006 -0.0005 23.4598 -0.0003 -2.8573
# 5 -15.7276 -16.3593 -17.8714 -0.0003 21.1747 0.0004
# 6 -0.0003 -0.0005 -0.0004 -2.8573 0.0004 31.4891
#
#
#
# Elastic Compliance Matrix: (Units=1/GPa)
#
#
# Indices 1 2 3 4 5 6 
#
# 1 0.025586 -0.004612 0.001736 0.000000 0.016906 0.000000
# 2 -0.004612 0.008190 -0.002818 0.000000 0.000523 0.000000
# 3 0.001736 -0.002818 0.020293 0.000001 0.016240 0.000000
# 4 0.000000 0.000000 0.000001 0.043102 0.000001 0.003911
# 5 0.016906 0.000523 0.016240 0.000001 0.073894 0.000000
# 6 0.000000 0.000000 0.000000 0.003911 0.000000 0.032112
#
#
# Mechanical properties :
#
#
# Convention : Reuss Voigt Hill
#
# Bulk Modulus (GPa) = 23.42955 48.70568 36.06762
# Shear Modulus (GPa) = 21.85392 28.26873 25.06133
#
# Velocity S-wave (km/s) = 3.41856 3.88804 3.66083
# Velocity P-wave (km/s) = 5.30199 6.79717 6.09560
#
# Compressibility (1/GPa) = 0.04268114
#
# Stress axis : x y z
#
# Youngs Moduli (GPa) = 39.08355 122.10714 49.27753
#
# Poissons Ratio (x) = 0.56312 -0.08553
# Poissons Ratio (y) = 0.18024 0.13886
# Poissons Ratio (z) = -0.06784 0.34409
#
# Static dielectric constant tensor:
#      x y z
#    x 3.297650 0.000010 -0.437760 
#    y 0.000010 3.344170 -0.000030 
#    z -0.437760 -0.000030 3.861510 
# 
# 
# High freq. dielectric constant tensor:
#      x y z
#    x 1.710800 0.000000 -0.033590 
#    y 0.000000 1.720520 0.000000 
#    z -0.033590 0.000000 1.708100 
# 
# From -- ./inp_files/169854.got.cif
#   From: 2010.06.25/outbox.cif.g09.slc.cpg/sg12_85_cif.got.tgz:169854.got - 2010.06.28 00:19:55.
