data_PCOD8082895
_publ_section_title
;
Structure prediction by ZEFSAII (Michael W. Deem and Ramdas Pophale) SiO2 
 PCOD8082895
Probable space group: C 2/M
;
_chemical_formula_sum "Si O2"
_cell_formula_units_Z 44
_cell_length_a 13.412632
_cell_length_b 10.167107
_cell_length_c 19.454216
_cell_angle_alpha 90.000000
_cell_angle_beta 112.701756
_cell_angle_gamma 90.000000
_cell_volume 2447.393910
_symmetry_space_group_name_H-M "C 2/M"
_symmetry_group_IT_number 12
_symmetry_cell_setting 'monoclinic'
loop_
_space_group_symop_operation_xyz
x,y,z
-x,y,-z
-x,-y,-z
x,-y,z
1/2+x,1/2+y,z
1/2-x,1/2+y,-z
1/2-x,1/2-y,-z
1/2+x,1/2-y,z
loop_
_atom_site_type_symbol
_atom_site_label
_atom_site_fract_x
_atom_site_fract_y
_atom_site_fract_z
Si Si1 0.869207 0.651131 0.775918
Si Si2 0.399525 0.350446 0.520242
Si Si3 0.500000 0.291885 0.000000
Si Si4 0.095810 0.349813 0.898700
Si Si5 0.703837 0.646481 0.133614
Si Si6 0.328787 0.850169 0.608117
O O1 0.837897 0.500000 0.785747
O O2 0.802216 0.750369 0.805833
O O3 0.839964 0.686137 0.690505
O O4 0.996691 0.673777 0.820188
O O5 0.500000 0.314522 0.500000
O O6 0.406188 0.500000 0.550074
O O7 0.402543 0.250455 0.584894
O O8 0.294943 0.329783 0.445482
O O9 0.428245 0.207973 0.033233
O O10 0.588116 0.374535 0.065591
O O11 0.117886 0.500000 0.919583
O O12 0.204906 0.293174 0.892969
O O13 0.737509 0.500000 0.169186
O O14 0.367065 0.000000 0.604114
#
# Coordination Sequence:
#
# PCOD8082895 Si02
#       6
#     8   8   4   8   8   8
#     4   9  19  35  51  69  96 129 161 194 235 284
#     4   9  18  32  50  73 100 128 158 194 238 283
#     4  10  18  32  50  70  95 126 157 196 239 284
#     4   9  18  32  50  71  95 125 160 195 236 285
#     4  10  20  33  49  72  98 123 156 199 241 281
#     4   9  18  33  51  71  97 127 161 198 233 277
#
# _framework density 17.978307000000001
#
# number of rings (size 3 to 8) (size 9 to 14) (size 15 to 20)
#    0.000    2.727    0.000    1.091    0.000    3.273 
#    0.000    4.545    0.000    0.000    0.000    0.000 
#    0.000    0.000    0.000    0.000    0.000    0.000 
#
# Total GULP energy -272712.748664 kJ/mol
# GULP energy per Si atom -12396.034030 kJ/mol
# Density = 1.793739 g / cm^3
# Si number density = 17.978307 Si / 1000 Ang^3
#
#
#
# Elastic Constant Matrix: (Units=GPa)
#
#
# Indices 1 2 3 4 5 6 
#
# 1 132.0977 69.9912 38.7129 0.0000 -25.6076 0.0000
# 2 69.9912 102.0371 56.1529 0.0000 -26.4222 0.0000
# 3 38.7129 56.1529 94.7576 0.0000 -25.6067 0.0000
# 4 0.0000 0.0000 0.0000 69.1521 0.0000 16.9561
# 5 -25.6076 -26.4222 -25.6067 0.0000 21.9887 0.0000
# 6 0.0000 0.0000 0.0000 16.9561 0.0000 38.1000
#
#
#
# Elastic Compliance Matrix: (Units=1/GPa)
#
#
# Indices 1 2 3 4 5 6 
#
# 1 0.012517 -0.007412 0.001183 0.000000 0.007049 0.000000
# 2 -0.007412 0.020954 -0.007176 0.000000 0.008191 0.000000
# 3 0.001183 -0.007176 0.018042 0.000000 0.013766 0.000000
# 4 0.000000 0.000000 0.000000 0.016232 0.000000 -0.007224
# 5 0.007049 0.008191 0.013766 0.000000 0.079561 0.000000
# 6 0.000000 0.000000 0.000000 -0.007224 0.000000 0.029462
#
#
# Mechanical properties :
#
#
# Convention : Reuss Voigt Hill
#
# Bulk Modulus (GPa) = 40.47784 73.17848 56.82816
# Shear Modulus (GPa) = 23.60578 36.78385 30.19481
#
# Velocity S-wave (km/s) = 3.62749 4.52819 4.10263
# Velocity P-wave (km/s) = 6.33313 8.25418 7.35663
#
# Compressibility (1/GPa) = 0.02470487
#
# Stress axis : x y z
#
# Youngs Moduli (GPa) = 79.89224 47.72246 55.42506
#
# Poissons Ratio (x) = 0.35371 -0.06558
# Poissons Ratio (y) = 0.59214 0.39773
# Poissons Ratio (z) = -0.09453 0.34245
#
# Static dielectric constant tensor:
#      x y z
#    x 3.409830 0.000000 -0.010210 
#    y 0.000000 3.325420 0.000000 
#    z -0.010210 0.000000 3.252920 
# 
# 
# High freq. dielectric constant tensor:
#      x y z
#    x 1.697740 0.000000 0.001670 
#    y 0.000000 1.694960 0.000000 
#    z 0.001670 0.000000 1.689150 
# 
# From -- ./inp_files/261569.got.cif
#   From: 2010.06.25/outbox.cif.g09.slc.cpg/sg12_131_cif.got.tgz:261569.got - 2010.06.28 00:19:55.
