data_PCOD8082352
_publ_section_title
;
Structure prediction by ZEFSAII (Michael W. Deem and Ramdas Pophale) SiO2 
 PCOD8082352
Probable space group: C 2/M
;
_chemical_formula_sum "Si O2"
_cell_formula_units_Z 64
_cell_length_a 21.407420
_cell_length_b 20.187888
_cell_length_c 11.932969
_cell_angle_alpha 90.000000
_cell_angle_beta 47.390706
_cell_angle_gamma 90.000000
_cell_volume 3795.544065
_symmetry_space_group_name_H-M "C 2/M"
_symmetry_group_IT_number 12
_symmetry_cell_setting 'monoclinic'
loop_
_space_group_symop_operation_xyz
x,y,z
-x,y,-z
-x,-y,-z
x,-y,z
1/2+x,1/2+y,z
1/2-x,1/2+y,-z
1/2-x,1/2-y,-z
1/2+x,1/2-y,z
loop_
_atom_site_type_symbol
_atom_site_label
_atom_site_fract_x
_atom_site_fract_y
_atom_site_fract_z
Si Si1 0.656899 0.726001 0.867654
Si Si2 0.045290 0.573412 0.062766
Si Si3 0.244222 0.677386 0.063758
Si Si4 0.658322 0.280915 0.623146
Si Si5 0.921824 0.275963 0.661102
Si Si6 0.486830 0.210724 0.819313
Si Si7 0.681076 0.321422 0.358658
Si Si8 0.260632 0.074516 0.128951
O O1 0.681677 0.672461 0.932991
O O2 0.648161 0.686417 0.759437
O O3 0.731207 0.780756 0.764235
O O4 0.568970 0.762364 0.008113
O O5 0.018412 0.500000 0.139446
O O6 0.017952 0.630673 0.182487
O O7 0.146630 0.576616 0.928654
O O8 0.000000 0.588031 0.000000
O O9 0.154308 0.671128 0.237466
O O10 0.250000 0.750000 0.000000
O O11 0.249735 0.618380 0.969843
O O12 0.750000 0.250000 0.500000
O O13 0.586084 0.225036 0.708894
O O14 0.648629 0.328346 0.526948
O O15 0.949758 0.255670 0.752364
O O16 0.892363 0.211142 0.628114
O O17 0.000000 0.309625 0.500000
O O18 0.696286 0.396223 0.299306
O O19 0.233444 0.000000 0.131726
#
# Coordination Sequence:
#
# PCOD8082352 Si02
#       8
#     8   8   8   8   8   8   8   8
#     4  10  18  31  51  77 101 135 173 221 265 304
#     4  10  20  31  46  73 105 140 177 211 252 310
#     4  11  17  33  55  75 105 135 179 225 261 308
#     4  10  22  30  46  77 106 134 168 220 267 308
#     4  11  19  30  50  81 102 141 170 213 272 312
#     4  12  18  31  53  75 107 136 177 221 260 311
#     4  10  18  34  48  76 111 130 170 217 269 315
#     4  11  20  33  55  80 105 138 181 221 265 316
#
# _framework density 16.861878000000001
#
# number of rings (size 3 to 8) (size 9 to 14) (size 15 to 20)
#    0.000    1.375    7.500    1.125    1.750    0.000 
#    0.000    0.000    0.000    2.625    0.000    0.000 
#    0.000    3.250    0.000    0.125    0.000    0.000 
#
# Total GULP energy -396461.356079 kJ/mol
# GULP energy per Si atom -12389.417377 kJ/mol
# Density = 1.682350 g / cm^3
# Si number density = 16.861878 Si / 1000 Ang^3
#
#
#
# Elastic Constant Matrix: (Units=GPa)
#
#
# Indices 1 2 3 4 5 6 
#
# 1 104.5765 44.6678 43.7749 0.0000 17.6429 0.0000
# 2 44.6678 94.1646 49.6808 0.0000 12.0363 0.0000
# 3 43.7749 49.6808 115.9175 0.0000 9.6200 0.0000
# 4 0.0000 0.0000 0.0000 16.7975 0.0000 -1.4664
# 5 17.6429 12.0363 9.6200 0.0000 38.8992 0.0000
# 6 0.0000 0.0000 0.0000 -1.4664 0.0000 16.5494
#
#
#
# Elastic Compliance Matrix: (Units=1/GPa)
#
#
# Indices 1 2 3 4 5 6 
#
# 1 0.013250 -0.004278 -0.002840 0.000000 -0.003984 0.000000
# 2 -0.004278 0.015421 -0.004858 0.000000 -0.001630 0.000000
# 3 -0.002840 -0.004858 0.011792 0.000000 -0.000125 0.000000
# 4 0.000000 0.000000 0.000000 0.059997 0.000000 0.005316
# 5 -0.003984 -0.001630 -0.000125 0.000000 0.028050 0.000000
# 6 0.000000 0.000000 0.000000 0.005316 0.000000 0.060896
#
#
# Mechanical properties :
#
#
# Convention : Reuss Voigt Hill
#
# Bulk Modulus (GPa) = 60.56678 65.65618 63.11148
# Shear Modulus (GPa) = 22.84560 26.21824 24.53192
#
# Velocity S-wave (km/s) = 3.68484 3.94748 3.81842
# Velocity P-wave (km/s) = 7.35537 7.73298 7.54654
#
# Compressibility (1/GPa) = 0.01651070
#
# Stress axis : x y z
#
# Youngs Moduli (GPa) = 75.46916 64.84863 84.80484
#
# Poissons Ratio (x) = 0.27742 0.24083
# Poissons Ratio (y) = 0.32286 0.41200
# Poissons Ratio (z) = 0.21431 0.31505
#
# Static dielectric constant tensor:
#      x y z
#    x 3.556360 0.000000 0.150260 
#    y 0.000000 2.902600 0.000000 
#    z 0.150260 0.000000 3.509890 
# 
# 
# High freq. dielectric constant tensor:
#      x y z
#    x 1.670780 0.000000 0.003360 
#    y 0.000000 1.586960 0.000000 
#    z 0.003360 0.000000 1.653400 
# 
# From -- ./inp_files/169432.got.cif
#   From: 2010.06.25/outbox.cif.g09.slc.cpg/sg12_85_cif.got.tgz:169432.got - 2010.06.28 00:19:55.
