data_PCOD8082733
_publ_section_title
;
Structure prediction by ZEFSAII (Michael W. Deem and Ramdas Pophale) SiO2 
 PCOD8082733
Probable space group: C 2/M
;
_chemical_formula_sum "Si O2"
_cell_formula_units_Z 60
_cell_length_a 25.076020
_cell_length_b 15.340497
_cell_length_c 11.808804
_cell_angle_alpha 90.000000
_cell_angle_beta 135.846354
_cell_angle_gamma 90.000000
_cell_volume 3164.302474
_symmetry_space_group_name_H-M "C 2/M"
_symmetry_group_IT_number 12
_symmetry_cell_setting 'monoclinic'
loop_
_space_group_symop_operation_xyz
x,y,z
-x,y,-z
-x,-y,-z
x,-y,z
1/2+x,1/2+y,z
1/2-x,1/2+y,-z
1/2-x,1/2-y,-z
1/2+x,1/2-y,z
loop_
_atom_site_type_symbol
_atom_site_label
_atom_site_fract_x
_atom_site_fract_y
_atom_site_fract_z
Si Si1 0.719203 0.899951 0.659582
Si Si2 0.427057 0.398609 0.640507
Si Si3 0.774523 0.243959 0.909126
Si Si4 0.055048 0.790081 0.898724
Si Si5 0.844604 0.598813 0.665402
Si Si6 0.613021 0.403409 0.177583
Si Si7 0.236600 0.898489 0.697414
Si Si8 0.500000 0.159107 0.000000
O O1 0.723270 0.831492 0.769835
O O2 0.659618 0.865021 0.471324
O O3 0.798966 0.896440 0.717399
O O4 0.701541 0.000000 0.675340
O O5 0.453605 0.500000 0.679677
O O6 0.496691 0.331862 0.715831
O O7 0.399502 0.359887 0.719776
O O8 0.354819 0.387736 0.448666
O O9 0.761986 0.339925 0.840562
O O10 0.750000 0.250000 0.000000
O O11 0.864831 0.224814 0.041284
O O12 0.060205 0.863323 0.002044
O O13 0.025183 0.707477 0.923234
O O14 0.818556 0.500000 0.610840
O O15 0.781584 0.639635 0.655432
O O16 0.928301 0.602884 0.848349
O O17 0.583635 0.500000 0.144906
O O18 0.258548 0.000000 0.752411
#
# Coordination Sequence:
#
# PCOD8082733 Si02
#       8
#     8   8   8   8   8   8   8   4
#     4   9  19  35  60  87 113 149 194 242 293 356
#     4  10  18  31  54  86 121 149 177 230 303 367
#     4  11  25  42  59  81 115 164 210 243 282 343
#     4  11  21  32  50  84 118 148 192 233 292 346
#     4  10  20  36  56  86 121 151 188 241 308 366
#     4   9  15  27  48  80 119 147 168 211 281 360
#     4  10  21  38  61  88 119 157 196 240 300 362
#     4  12  21  30  53  90 120 148 182 246 313 352
#
# _framework density 18.961525999999999
#
# number of rings (size 3 to 8) (size 9 to 14) (size 15 to 20)
#    0.000    1.867    4.000    0.600    1.867    2.667 
#    0.000    0.667    0.000    1.600    0.000    1.867 
#    0.000    0.000    0.000    0.000    0.000    0.000 
#
# Total GULP energy -371644.124087 kJ/mol
# GULP energy per Si atom -12388.137470 kJ/mol
# Density = 1.891837 g / cm^3
# Si number density = 18.961526 Si / 1000 Ang^3
#
#
#
# Elastic Constant Matrix: (Units=GPa)
#
#
# Indices 1 2 3 4 5 6 
#
# 1 68.0795 42.9023 33.6661 0.0000 -19.6345 0.0000
# 2 42.9023 66.0801 51.8305 0.0000 -3.5684 0.0000
# 3 33.6661 51.8305 95.1136 0.0000 -2.6927 0.0000
# 4 0.0000 0.0000 0.0000 28.6889 0.0000 2.8899
# 5 -19.6345 -3.5684 -2.6927 0.0000 24.3115 0.0000
# 6 0.0000 0.0000 0.0000 2.8899 0.0000 18.7286
#
#
#
# Elastic Compliance Matrix: (Units=1/GPa)
#
#
# Indices 1 2 3 4 5 6 
#
# 1 0.035983 -0.021919 -0.000061 0.000000 0.025837 0.000000
# 2 -0.021919 0.039910 -0.014370 0.000000 -0.013436 0.000000
# 3 -0.000061 -0.014370 0.018362 0.000000 -0.000124 0.000000
# 4 0.000000 0.000000 0.000000 0.035407 0.000000 -0.005463
# 5 0.025837 -0.013436 -0.000124 0.000000 0.060013 0.000000
# 6 0.000000 0.000000 0.000000 -0.005463 0.000000 0.054237
#
#
# Mechanical properties :
#
#
# Convention : Reuss Voigt Hill
#
# Bulk Modulus (GPa) = 46.39149 54.00789 50.19969
# Shear Modulus (GPa) = 15.44170 21.07074 18.25622
#
# Velocity S-wave (km/s) = 2.85681 3.33714 3.10627
# Velocity P-wave (km/s) = 5.94988 6.58736 6.27672
#
# Compressibility (1/GPa) = 0.02155568
#
# Stress axis : x y z
#
# Youngs Moduli (GPa) = 27.79067 25.05637 54.45912
#
# Poissons Ratio (x) = 0.54922 0.00330
# Poissons Ratio (y) = 0.60915 0.78258
# Poissons Ratio (z) = 0.00168 0.36006
#
# Static dielectric constant tensor:
#      x y z
#    x 3.129770 0.000000 0.219750 
#    y 0.000000 3.633180 0.000000 
#    z 0.219750 0.000000 3.589490 
# 
# 
# High freq. dielectric constant tensor:
#      x y z
#    x 1.695910 0.000000 0.024970 
#    y 0.000000 1.735910 0.000000 
#    z 0.024970 0.000000 1.738820 
# 
# From -- ./inp_files/176491.got.cif
#   From: 2010.06.25/outbox.cif.g09.slc.cpg/sg12_89_cif.got.tgz:176491.got - 2010.06.28 00:19:55.
