data_PCOD8082845
_publ_section_title
;
Structure prediction by ZEFSAII (Michael W. Deem and Ramdas Pophale) SiO2 
 PCOD8082845
Probable space group: C 2/M
;
_chemical_formula_sum "Si O2"
_cell_formula_units_Z 44
_cell_length_a 13.198987
_cell_length_b 27.407472
_cell_length_c 13.034516
_cell_angle_alpha 90.000000
_cell_angle_beta 32.116103
_cell_angle_gamma 90.000000
_cell_volume 2506.798328
_symmetry_space_group_name_H-M "C 2/M"
_symmetry_group_IT_number 12
_symmetry_cell_setting 'monoclinic'
loop_
_space_group_symop_operation_xyz
x,y,z
-x,y,-z
-x,-y,-z
x,-y,z
1/2+x,1/2+y,z
1/2-x,1/2+y,-z
1/2-x,1/2-y,-z
1/2+x,1/2-y,z
loop_
_atom_site_type_symbol
_atom_site_label
_atom_site_fract_x
_atom_site_fract_y
_atom_site_fract_z
Si Si1 0.500000 0.590247 0.500000
Si Si2 0.507411 0.151948 0.795301
Si Si3 0.197451 0.729249 0.778755
Si Si4 0.740163 0.798345 0.444471
Si Si5 0.102427 0.833482 0.239405
Si Si6 0.900049 0.554410 0.191664
O O1 0.443894 0.621181 0.648410
O O2 0.673527 0.554506 0.375111
O O3 0.656729 0.181892 0.740288
O O4 0.556744 0.169207 0.636452
O O5 0.542688 0.094133 0.772482
O O6 0.290605 0.161190 0.009501
O O7 0.270293 0.779357 0.663383
O O8 0.362374 0.713909 0.717864
O O9 0.000000 0.743595 0.000000
O O10 0.750000 0.750000 0.500000
O O11 0.934463 0.827533 0.301620
O O12 0.965867 0.500000 0.168589
O O13 0.000000 0.570156 0.000000
#
# Coordination Sequence:
#
# PCOD8082845 Si02
#       6
#     4   8   8   8   8   8
#     4  12  17  30  48  66  88 134 162 186 239 274
#     4  10  18  32  45  64  92 128 159 192 237 272
#     4   9  18  31  48  67  93 126 164 196 234 277
#     4  10  20  31  47  69  90 127 167 196 232 280
#     4  11  19  31  51  63  97 130 161 195 231 281
#     4  11  20  30  45  69  95 124 166 201 229 281
#
# _framework density 17.55227
#
# number of rings (size 3 to 8) (size 9 to 14) (size 15 to 20)
#    0.000    1.636    5.455    1.909    0.000    6.545 
#    0.000    1.818    0.000    0.000    0.000    0.000 
#    0.000    0.727    0.000   20.545    0.000    4.727 
#
# Total GULP energy -272636.937681 kJ/mol
# GULP energy per Si atom -12392.588076 kJ/mol
# Density = 1.751232 g / cm^3
# Si number density = 17.552270 Si / 1000 Ang^3
#
#
#
# Elastic Constant Matrix: (Units=GPa)
#
#
# Indices 1 2 3 4 5 6 
#
# 1 24.9149 12.0282 18.5411 0.0001 0.3334 -0.0001
# 2 12.0282 95.0400 41.0178 0.0000 14.3817 0.0000
# 3 18.5411 41.0178 96.3376 0.0002 1.6255 -0.0001
# 4 0.0001 0.0000 0.0002 16.7791 -0.0001 -2.5441
# 5 0.3334 14.3817 1.6255 -0.0001 20.2044 0.0000
# 6 -0.0001 0.0000 -0.0001 -2.5441 0.0000 13.4105
#
#
#
# Elastic Compliance Matrix: (Units=1/GPa)
#
#
# Indices 1 2 3 4 5 6 
#
# 1 0.047398 -0.002860 -0.007937 0.000000 0.001892 0.000000
# 2 -0.002860 0.014816 -0.005588 0.000000 -0.010050 0.000000
# 3 -0.007937 -0.005588 0.014237 0.000000 0.002964 0.000000
# 4 0.000000 0.000000 0.000000 0.061363 0.000000 0.011641
# 5 0.001892 -0.010050 0.002964 0.000000 0.056378 0.000000
# 6 0.000000 0.000000 0.000000 0.011641 0.000000 0.076777
#
#
# Mechanical properties :
#
#
# Convention : Reuss Voigt Hill
#
# Bulk Modulus (GPa) = 22.89266 39.94077 31.41671
# Shear Modulus (GPa) = 15.70848 19.72583 17.71715
#
# Velocity S-wave (km/s) = 2.99482 3.35600 3.18054
# Velocity P-wave (km/s) = 5.00295 6.14994 5.60585
#
# Compressibility (1/GPa) = 0.04368212
#
# Stress axis : x y z
#
# Youngs Moduli (GPa) = 21.09791 67.49252 70.23924
#
# Poissons Ratio (x) = 0.19300 0.55746
# Poissons Ratio (y) = 0.06033 0.39253
# Poissons Ratio (z) = 0.16745 0.37718
#
# Static dielectric constant tensor:
#      x y z
#    x 4.079340 -0.000020 -0.168280 
#    y -0.000020 3.212300 0.000010 
#    z -0.168280 0.000010 4.227170 
# 
# 
# High freq. dielectric constant tensor:
#      x y z
#    x 1.622180 0.000000 -0.020050 
#    y 0.000000 1.652590 0.000000 
#    z -0.020050 0.000000 1.708920 
# 
# From -- ./inp_files/136850.got.cif
#   From: 2010.06.25/outbox.cif.g09.slc.cpg/sg12_69_cif.got.tgz:136850.got - 2010.06.28 00:19:55.
