data_PCOD8082099
_publ_section_title
;
Structure prediction by ZEFSAII (Michael W. Deem and Ramdas Pophale) SiO2 
 PCOD8082099
Probable space group: C 2/M
;
_chemical_formula_sum "Si O2"
_cell_formula_units_Z 64
_cell_length_a 30.325830
_cell_length_b 9.108154
_cell_length_c 14.977334
_cell_angle_alpha 90.000000
_cell_angle_beta 100.345922
_cell_angle_gamma 90.000000
_cell_volume 4069.663778
_symmetry_space_group_name_H-M "C 2/M"
_symmetry_group_IT_number 12
_symmetry_cell_setting 'monoclinic'
loop_
_space_group_symop_operation_xyz
x,y,z
-x,y,-z
-x,-y,-z
x,-y,z
1/2+x,1/2+y,z
1/2-x,1/2+y,-z
1/2-x,1/2-y,-z
1/2+x,1/2-y,z
loop_
_atom_site_type_symbol
_atom_site_label
_atom_site_fract_x
_atom_site_fract_y
_atom_site_fract_z
Si Si1 0.126108 0.173079 0.246735
Si Si2 0.647347 0.171496 0.930084
Si Si3 0.808194 0.829358 0.583773
Si Si4 0.058140 0.826913 0.932229
Si Si5 0.190582 0.173786 0.113173
Si Si6 0.539604 0.672705 0.127941
Si Si7 0.221095 0.828792 0.617875
Si Si8 0.211330 0.330289 0.790835
O O1 0.144714 0.215078 0.351848
O O2 0.160214 0.231349 0.183864
O O3 0.075812 0.237643 0.212327
O O4 0.122684 0.000000 0.234207
O O5 0.597971 0.238722 0.900124
O O6 0.672361 0.202055 0.846627
O O7 0.644038 0.000000 0.950340
O O8 0.675132 0.248513 0.017802
O O9 0.811003 0.796381 0.479249
O O10 0.769736 0.737343 0.617392
O O11 0.797178 0.000000 0.597823
O O12 0.010752 0.766592 0.874676
O O13 0.064942 0.000000 0.918312
O O14 0.058601 0.789413 0.037236
O O15 0.241382 0.222552 0.151436
O O16 0.186354 0.000000 0.097430
O O17 0.534714 0.500000 0.134504
O O18 0.198871 0.757311 0.696551
O O19 0.226860 0.000000 0.636551
O O20 0.214493 0.500000 0.766017
#
# Coordination Sequence:
#
# PCOD8082099 Si02
#       8
#     8   8   8   8   8   8   8   8
#     4   9  14  25  48  70  88 118 152 178 217 270
#     4  11  22  32  44  65  93 122 154 190 227 263
#     4   9  17  30  47  67  94 122 148 183 229 275
#     4   9  16  29  47  66  88 115 152 188 218 264
#     4  10  18  31  49  64  86 124 160 184 214 259
#     4   8  14  25  46  70  87 111 150 188 218 261
#     4  10  19  29  45  69  92 118 153 192 225 260
#     4  10  21  35  47  61  88 127 160 187 223 266
#
# _framework density 15.726115
#
# number of rings (size 3 to 8) (size 9 to 14) (size 15 to 20)
#    0.000    2.500    2.500    1.875    0.000    2.000 
#    0.000    1.250    0.000    0.000    0.000    0.875 
#    0.000    7.000    0.000    0.000    0.000    0.000 
#
# Total GULP energy -396637.702187 kJ/mol
# GULP energy per Si atom -12394.928193 kJ/mol
# Density = 1.569032 g / cm^3
# Si number density = 15.726115 Si / 1000 Ang^3
#
#
#
# Elastic Constant Matrix: (Units=GPa)
#
#
# Indices 1 2 3 4 5 6 
#
# 1 121.8210 34.1918 62.6522 0.0000 14.9872 0.0000
# 2 34.1918 44.2259 43.1588 0.0000 0.5824 0.0000
# 3 62.6522 43.1588 107.5065 0.0000 14.4029 0.0000
# 4 0.0000 0.0000 0.0000 22.7685 0.0000 -2.3267
# 5 14.9872 0.5824 14.4029 0.0000 25.0479 0.0000
# 6 0.0000 0.0000 0.0000 -2.3267 0.0000 19.8805
#
#
#
# Elastic Compliance Matrix: (Units=1/GPa)
#
#
# Indices 1 2 3 4 5 6 
#
# 1 0.012638 -0.005169 -0.004652 0.000000 -0.004767 0.000000
# 2 -0.005169 0.040979 -0.014871 0.000000 0.010691 0.000000
# 3 -0.004652 -0.014871 0.019029 0.000000 -0.007813 0.000000
# 4 0.000000 0.000000 0.000000 0.044452 0.000000 0.005202
# 5 -0.004767 0.010691 -0.007813 0.000000 0.047020 0.000000
# 6 0.000000 0.000000 0.000000 0.005202 0.000000 0.050909
#
#
# Mechanical properties :
#
#
# Convention : Reuss Voigt Hill
#
# Bulk Modulus (GPa) = 42.98578 61.50655 52.24616
# Shear Modulus (GPa) = 18.37121 22.44276 20.40698
#
# Velocity S-wave (km/s) = 3.42160 3.78180 3.60620
# Velocity P-wave (km/s) = 6.55768 7.63317 7.11577
#
# Compressibility (1/GPa) = 0.02326351
#
# Stress axis : x y z
#
# Youngs Moduli (GPa) = 79.12472 24.40293 52.55026
#
# Poissons Ratio (x) = 0.12613 0.24444
# Poissons Ratio (y) = 0.40897 0.78148
# Poissons Ratio (z) = 0.36806 0.36290
#
# Static dielectric constant tensor:
#      x y z
#    x 3.190450 0.000000 0.251560 
#    y 0.000000 2.821570 0.000000 
#    z 0.251560 0.000000 3.054640 
# 
# 
# High freq. dielectric constant tensor:
#      x y z
#    x 1.594760 0.000000 0.016380 
#    y 0.000000 1.583960 0.000000 
#    z 0.016380 0.000000 1.590500 
# 
# From -- ./inp_files/248424.got.cif
#   From: 2010.06.25/outbox.cif.g09.slc.cpg/sg12_125_cif.got.tgz:248424.got - 2010.06.28 00:19:55.
