data_PCOD8082791
_publ_section_title
;
Structure prediction by ZEFSAII (Michael W. Deem and Ramdas Pophale) SiO2 
 PCOD8082791
Probable space group: C 2/M
;
_chemical_formula_sum "Si O2"
_cell_formula_units_Z 48
_cell_length_a 10.546880
_cell_length_b 18.077761
_cell_length_c 12.613527
_cell_angle_alpha 90.000000
_cell_angle_beta 73.096184
_cell_angle_gamma 90.000000
_cell_volume 2301.037676
_symmetry_space_group_name_H-M "C 2/M"
_symmetry_group_IT_number 12
_symmetry_cell_setting 'monoclinic'
loop_
_space_group_symop_operation_xyz
x,y,z
-x,y,-z
-x,-y,-z
x,-y,z
1/2+x,1/2+y,z
1/2-x,1/2+y,-z
1/2-x,1/2-y,-z
1/2+x,1/2-y,z
loop_
_atom_site_type_symbol
_atom_site_label
_atom_site_fract_x
_atom_site_fract_y
_atom_site_fract_z
Si Si1 0.104601 0.861689 0.201819
Si Si2 0.850774 0.588252 0.543900
Si Si3 0.356906 0.587030 0.582487
Si Si4 0.899445 0.730590 0.935032
Si Si5 0.178054 0.084396 0.772219
Si Si6 0.283214 0.085281 0.967978
O O1 0.166953 0.867339 0.303221
O O2 0.071291 0.776022 0.180007
O O3 0.969076 0.906737 0.235023
O O4 0.204397 0.899793 0.094743
O O5 0.854188 0.500000 0.545513
O O6 0.760692 0.613375 0.466425
O O7 0.783696 0.622750 0.666738
O O8 0.000000 0.620393 0.500000
O O9 0.500000 0.607645 0.500000
O O10 0.348922 0.500000 0.608885
O O11 0.909804 0.640759 0.924260
O O12 0.750000 0.750000 0.000000
O O13 0.000000 0.759232 0.000000
O O14 0.189400 0.108767 0.891851
O O15 0.217296 0.000000 0.756745
O O16 0.331657 0.000000 0.952304
#
# Coordination Sequence:
#
# PCOD8082791 Si02
#       6
#     8   8   8   8   8   8
#     4  11  19  33  60  91 127 161 205 249 301 364
#     4   9  18  33  52  80 123 167 202 240 302 362
#     4  10  18  31  55  88 124 160 203 255 300 349
#     4  10  22  41  61  85 120 166 202 242 305 371
#     4  10  18  32  58  90 124 161 203 250 294 358
#     4  10  21  36  58  92 125 157 202 258 312 359
#
# _framework density 20.860154000000001
#
# number of rings (size 3 to 8) (size 9 to 14) (size 15 to 20)
#    0.000    2.000    1.667    4.000    0.000    1.667 
#    6.000    0.000    0.000    2.000    0.000    0.000 
#    0.000    0.000    0.000    0.000    0.000    0.833 
#
# Total GULP energy -297406.227018 kJ/mol
# GULP energy per Si atom -12391.926126 kJ/mol
# Density = 2.081268 g / cm^3
# Si number density = 20.860154 Si / 1000 Ang^3
#
#
#
# Elastic Constant Matrix: (Units=GPa)
#
#
# Indices 1 2 3 4 5 6 
#
# 1 123.8879 21.2674 59.0449 0.0000 19.5512 0.0000
# 2 21.2674 86.4562 42.2321 0.0000 11.0023 0.0000
# 3 59.0449 42.2321 157.2480 0.0000 16.3237 0.0000
# 4 0.0000 0.0000 0.0000 12.2834 0.0000 -0.1605
# 5 19.5512 11.0023 16.3237 0.0000 21.2551 0.0000
# 6 0.0000 0.0000 0.0000 -0.1605 0.0000 20.9601
#
#
#
# Elastic Compliance Matrix: (Units=1/GPa)
#
#
# Indices 1 2 3 4 5 6 
#
# 1 0.010811 -0.000129 -0.003259 0.000000 -0.007375 0.000000
# 2 -0.000129 0.013724 -0.003165 0.000000 -0.004555 0.000000
# 3 -0.003259 -0.003165 0.008641 0.000000 -0.002000 0.000000
# 4 0.000000 0.000000 0.000000 0.081419 0.000000 0.000624
# 5 -0.007375 -0.004555 -0.002000 0.000000 0.057725 0.000000
# 6 0.000000 0.000000 0.000000 0.000624 0.000000 0.047714
#
#
# Mechanical properties :
#
#
# Convention : Reuss Voigt Hill
#
# Bulk Modulus (GPa) = 49.82516 68.07565 58.95040
# Shear Modulus (GPa) = 20.84816 27.23622 24.04219
#
# Velocity S-wave (km/s) = 3.16480 3.61731 3.39859
# Velocity P-wave (km/s) = 6.10670 7.08179 6.61224
#
# Compressibility (1/GPa) = 0.02007018
#
# Stress axis : x y z
#
# Youngs Moduli (GPa) = 92.49721 72.86648 115.73096
#
# Poissons Ratio (x) = 0.00939 0.37720
# Poissons Ratio (y) = 0.01192 0.36624
# Poissons Ratio (z) = 0.30148 0.23059
#
# Static dielectric constant tensor:
#      x y z
#    x 3.752900 0.000000 0.141890 
#    y 0.000000 4.014840 0.000000 
#    z 0.141890 0.000000 4.270530 
# 
# 
# High freq. dielectric constant tensor:
#      x y z
#    x 1.811270 0.000000 0.012090 
#    y 0.000000 1.788380 0.000000 
#    z 0.012090 0.000000 1.818150 
# 
# From -- ./inp_files/131660.got.cif
#   From: 2010.06.25/outbox.cif.g09.slc.cpg/sg12_66_cif.got.tgz:131660.got - 2010.06.28 00:19:55.
