data_PCOD8082506
_publ_section_title
;
Structure prediction by ZEFSAII (Michael W. Deem and Ramdas Pophale) SiO2 
 PCOD8082506
Probable space group: C 2/M
;
_chemical_formula_sum "Si O2"
_cell_formula_units_Z 48
_cell_length_a 17.130688
_cell_length_b 12.665272
_cell_length_c 21.802370
_cell_angle_alpha 90.000000
_cell_angle_beta 33.983573
_cell_angle_gamma 90.000000
_cell_volume 2644.052207
_symmetry_space_group_name_H-M "C 2/M"
_symmetry_group_IT_number 12
_symmetry_cell_setting 'monoclinic'
loop_
_space_group_symop_operation_xyz
x,y,z
-x,y,-z
-x,-y,-z
x,-y,z
1/2+x,1/2+y,z
1/2-x,1/2+y,-z
1/2-x,1/2-y,-z
1/2+x,1/2-y,z
loop_
_atom_site_type_symbol
_atom_site_label
_atom_site_fract_x
_atom_site_fract_y
_atom_site_fract_z
Si Si1 0.099620 0.621986 0.070282
Si Si2 0.450155 0.621843 0.679149
Si Si3 0.671237 0.242428 0.143812
Si Si4 0.137011 0.116455 0.450790
Si Si5 0.346135 0.620656 0.125145
Si Si6 0.302032 0.193472 0.238212
O O1 0.138497 0.500000 0.055676
O O2 0.097510 0.685237 0.135438
O O3 0.947988 0.631651 0.138400
O O4 0.213184 0.672604 0.951425
O O5 0.467761 0.500000 0.686045
O O6 0.447554 0.693903 0.741476
O O7 0.584706 0.659321 0.551070
O O8 0.305205 0.633718 0.736455
O O9 0.738638 0.152896 0.142351
O O10 0.246103 0.193551 0.345208
O O11 0.000000 0.103929 0.500000
O O12 0.206656 0.000000 0.412066
O O13 0.320875 0.500000 0.159566
O O14 0.321961 0.686269 0.203263
O O15 0.500000 0.641216 0.000000
#
# Coordination Sequence:
#
# PCOD8082506 Si02
#       6
#     8   8   8   8   8   8
#     4  11  21  33  49  72 101 130 159 201 250 290
#     4   9  17  31  53  76  99 128 163 202 242 285
#     4  10  21  34  47  71 100 132 165 197 240 295
#     4   8  14  27  49  75 100 126 155 196 247 288
#     4  10  19  34  51  69  96 130 165 198 238 293
#     4  10  18  31  52  78  98 122 162 205 244 287
#
# _framework density 18.153953999999999
#
# number of rings (size 3 to 8) (size 9 to 14) (size 15 to 20)
#    0.000    2.333    1.667    3.500    0.000    0.000 
#    0.000    4.167    0.000   13.500    0.000    0.000 
#    0.000    0.000    0.000    0.000    0.000    0.000 
#
# Total GULP energy -297519.063631 kJ/mol
# GULP energy per Si atom -12396.627651 kJ/mol
# Density = 1.811263 g / cm^3
# Si number density = 18.153954 Si / 1000 Ang^3
#
#
#
# Elastic Constant Matrix: (Units=GPa)
#
#
# Indices 1 2 3 4 5 6 
#
# 1 35.4697 21.7823 24.4646 -0.0003 11.5968 0.0000
# 2 21.7823 111.5537 61.0102 0.0002 18.7147 0.0000
# 3 24.4646 61.0102 98.7517 0.0003 33.4203 0.0000
# 4 -0.0003 0.0002 0.0003 26.5967 0.0001 6.8586
# 5 11.5968 18.7147 33.4203 0.0001 26.8612 0.0000
# 6 0.0000 0.0000 0.0000 6.8586 0.0000 12.1042
#
#
#
# Elastic Compliance Matrix: (Units=1/GPa)
#
#
# Indices 1 2 3 4 5 6 
#
# 1 0.035688 -0.003432 -0.004000 0.000001 -0.008040 0.000000
# 2 -0.003432 0.013913 -0.008579 0.000000 0.002461 0.000000
# 3 -0.004000 -0.008579 0.023855 0.000000 -0.021976 0.000000
# 4 0.000001 0.000000 0.000000 0.044033 0.000000 -0.024950
# 5 -0.008040 0.002461 -0.021976 0.000000 0.066326 0.000000
# 6 0.000000 0.000000 0.000000 -0.024950 0.000000 0.096754
#
#
# Mechanical properties :
#
#
# Convention : Reuss Voigt Hill
#
# Bulk Modulus (GPa) = 24.13454 51.14324 37.63889
# Shear Modulus (GPa) = 15.31856 22.34696 18.83276
#
# Velocity S-wave (km/s) = 2.90800 3.51232 3.22435
# Velocity P-wave (km/s) = 4.95969 6.68444 5.88558
#
# Compressibility (1/GPa) = 0.04143440
#
# Stress axis : x y z
#
# Youngs Moduli (GPa) = 28.02043 71.87399 41.92079
#
# Poissons Ratio (x) = 0.24668 0.16769
# Poissons Ratio (y) = 0.09617 0.35962
# Poissons Ratio (z) = 0.11209 0.61658
#
# Static dielectric constant tensor:
#      x y z
#    x 3.092560 0.000000 0.251700 
#    y 0.000000 3.267740 0.000000 
#    z 0.251700 0.000000 3.703600 
# 
# 
# High freq. dielectric constant tensor:
#      x y z
#    x 1.676450 0.000000 0.013550 
#    y 0.000000 1.694420 0.000000 
#    z 0.013550 0.000000 1.709100 
# 
# From -- ./inp_files/153636.got.cif
#   From: 2010.06.25/outbox.cif.g09.slc.cpg/sg12_77_cif.got.tgz:153636.got - 2010.06.28 00:19:55.
