data_PCOD8082156
_publ_section_title
;
Structure prediction by ZEFSAII (Michael W. Deem and Ramdas Pophale) SiO2 
 PCOD8082156
Probable space group: C 2/M
;
_chemical_formula_sum "Si O2"
_cell_formula_units_Z 64
_cell_length_a 23.382583
_cell_length_b 23.074481
_cell_length_c 12.031764
_cell_angle_alpha 90.000000
_cell_angle_beta 30.816011
_cell_angle_gamma 90.000000
_cell_volume 3325.550678
_symmetry_space_group_name_H-M "C 2/M"
_symmetry_group_IT_number 12
_symmetry_cell_setting 'monoclinic'
loop_
_space_group_symop_operation_xyz
x,y,z
-x,y,-z
-x,-y,-z
x,-y,z
1/2+x,1/2+y,z
1/2-x,1/2+y,-z
1/2-x,1/2-y,-z
1/2+x,1/2-y,z
loop_
_atom_site_type_symbol
_atom_site_label
_atom_site_fract_x
_atom_site_fract_y
_atom_site_fract_z
Si Si1 0.707380 0.200512 0.495963
Si Si2 0.105836 0.119723 0.893066
Si Si3 0.179954 0.337916 0.206132
Si Si4 0.817354 0.435595 0.617326
Si Si5 0.146328 0.329406 0.016434
Si Si6 0.137828 0.229187 0.397620
Si Si7 0.580449 0.698837 0.137258
Si Si8 0.469478 0.888286 0.172573
O O1 0.750000 0.250000 0.500000
O O2 0.806971 0.154484 0.328030
O O3 0.680866 0.225886 0.419564
O O4 0.597526 0.171801 0.733209
O O5 0.183613 0.069195 0.816092
O O6 0.054156 0.163275 0.069856
O O7 0.000000 0.094807 0.000000
O O8 0.146290 0.387039 0.352652
O O9 0.135705 0.355471 0.158777
O O10 0.123825 0.274578 0.319789
O O11 0.313152 0.328453 0.979100
O O12 0.838504 0.500000 0.629596
O O13 0.891809 0.428547 0.380905
O O14 0.091492 0.266534 0.091476
O O15 0.086929 0.375905 0.036823
O O16 0.275444 0.322545 0.768626
O O17 0.026018 0.193441 0.605672
O O18 0.500000 0.915496 0.000000
#
# Coordination Sequence:
#
# PCOD8082156 Si02
#       8
#     8   8   8   8   8   8   8   8
#     4  11  19  30  49  76 117 158 186 210 267 346
#     4  10  20  33  52  84 114 146 192 233 270 341
#     4  10  21  37  52  82 113 145 198 238 279 337
#     4  10  22  44  63  78 105 147 199 254 296 324
#     4  11  21  33  53  80 119 153 183 226 277 344
#     4  11  18  31  50  82 116 159 180 213 279 344
#     4  10  18  31  49  77 120 156 182 219 271 337
#     4  11  23  37  54  82 113 147 187 231 287 342
#
# _framework density 19.244933
#
# number of rings (size 3 to 8) (size 9 to 14) (size 15 to 20)
#    0.000    1.500    6.250    3.000    0.000    5.000 
#    0.000    1.250    0.000    0.000    0.000    7.875 
#    0.000    0.000    0.000    0.000    0.000    0.000 
#
# Total GULP energy -396566.349241 kJ/mol
# GULP energy per Si atom -12392.698414 kJ/mol
# Density = 1.920113 g / cm^3
# Si number density = 19.244933 Si / 1000 Ang^3
#
#
#
# Elastic Constant Matrix: (Units=GPa)
#
#
# Indices 1 2 3 4 5 6 
#
# 1 78.1281 20.3291 34.2474 0.0000 5.0945 0.0000
# 2 20.3291 68.7208 24.9617 -0.0003 0.8259 0.0002
# 3 34.2474 24.9617 121.5668 -0.0005 4.4544 0.0003
# 4 0.0000 -0.0003 -0.0005 11.9151 0.0002 1.4508
# 5 5.0945 0.8259 4.4544 0.0002 19.5501 -0.0001
# 6 0.0000 0.0002 0.0003 1.4508 -0.0001 8.7103
#
#
#
# Elastic Compliance Matrix: (Units=1/GPa)
#
#
# Indices 1 2 3 4 5 6 
#
# 1 0.015401 -0.003224 -0.003564 0.000000 -0.003065 0.000000
# 2 -0.003224 0.016400 -0.002485 0.000000 0.000714 0.000000
# 3 -0.003564 -0.002485 0.009784 0.000000 -0.001195 0.000000
# 4 0.000000 0.000000 0.000000 0.085664 -0.000001 -0.014268
# 5 -0.003065 0.000714 -0.001195 -0.000001 0.052191 0.000001
# 6 0.000000 0.000000 0.000000 -0.014268 0.000001 0.117183
#
#
# Mechanical properties :
#
#
# Convention : Reuss Voigt Hill
#
# Bulk Modulus (GPa) = 43.40874 47.49913 45.45393
# Shear Modulus (GPa) = 15.48707 20.62694 18.05701
#
# Velocity S-wave (km/s) = 2.83986 3.27741 3.06645
# Velocity P-wave (km/s) = 5.77564 6.24954 6.01726
#
# Compressibility (1/GPa) = 0.02303684
#
# Stress axis : x y z
#
# Youngs Moduli (GPa) = 64.93201 60.97711 102.20622
#
# Poissons Ratio (x) = 0.19661 0.36429
# Poissons Ratio (y) = 0.20936 0.25400
# Poissons Ratio (z) = 0.23144 0.15154
#
# Static dielectric constant tensor:
#      x y z
#    x 3.061550 0.000000 -0.274820 
#    y 0.000000 3.198230 0.000000 
#    z -0.274820 0.000000 3.742280 
# 
# 
# High freq. dielectric constant tensor:
#      x y z
#    x 1.751580 0.000000 -0.005580 
#    y 0.000000 1.692360 0.000000 
#    z -0.005580 0.000000 1.760100 
# 
# From -- ./inp_files/178404.got.cif
#   From: 2010.06.25/outbox.cif.g09.slc.cpg/sg12_90_cif.got.tgz:178404.got - 2010.06.28 00:19:55.
