data_PCOD8082064
_publ_section_title
;
Structure prediction by ZEFSAII (Michael W. Deem and Ramdas Pophale) SiO2 
 PCOD8082064
Probable space group: C 2/M
;
_chemical_formula_sum "Si O2"
_cell_formula_units_Z 64
_cell_length_a 23.854326
_cell_length_b 8.999941
_cell_length_c 18.302346
_cell_angle_alpha 90.000000
_cell_angle_beta 68.694127
_cell_angle_gamma 90.000000
_cell_volume 3660.734408
_symmetry_space_group_name_H-M "C 2/M"
_symmetry_group_IT_number 12
_symmetry_cell_setting 'monoclinic'
loop_
_space_group_symop_operation_xyz
x,y,z
-x,y,-z
-x,-y,-z
x,-y,z
1/2+x,1/2+y,z
1/2-x,1/2+y,-z
1/2-x,1/2-y,-z
1/2+x,1/2-y,z
loop_
_atom_site_type_symbol
_atom_site_label
_atom_site_fract_x
_atom_site_fract_y
_atom_site_fract_z
Si Si1 0.152373 0.174076 0.971738
Si Si2 0.736056 0.675536 0.683663
Si Si3 0.013489 0.324147 0.787373
Si Si4 0.302755 0.171617 0.515876
Si Si5 0.880039 0.677067 0.861469
Si Si6 0.057714 0.668472 0.922228
Si Si7 0.232858 0.674988 0.172136
Si Si8 0.626973 0.824888 0.649897
O O1 0.107610 0.220359 0.928488
O O2 0.218928 0.217412 0.912687
O O3 0.146023 0.000000 0.990244
O O4 0.137838 0.263743 0.051046
O O5 0.724038 0.500000 0.693129
O O6 0.796055 0.711468 0.605153
O O7 0.749869 0.744137 0.757076
O O8 0.676439 0.748791 0.678301
O O9 0.008538 0.500000 0.791519
O O10 0.945941 0.261608 0.806544
O O11 0.039176 0.267876 0.852275
O O12 0.059756 0.269323 0.702618
O O13 0.250000 0.250000 0.500000
O O14 0.363545 0.213907 0.441633
O O15 0.290689 0.000000 0.511216
O O16 0.879228 0.500000 0.867791
O O17 0.832046 0.734645 0.824211
O O18 0.083214 0.500000 0.905563
O O19 0.000000 0.671891 0.000000
O O20 0.229896 0.500000 0.184192
O O21 0.632276 0.000000 0.662106
#
# Coordination Sequence:
#
# PCOD8082064 Si02
#       8
#     8   8   8   8   8   8   8   8
#     4  11  21  32  46  69  92 112 144 192 236 264
#     4   9  16  29  46  67  92 118 144 175 217 269
#     4   9  17  29  47  66  86 114 152 186 213 254
#     4   8  14  24  42  65  92 117 138 170 216 263
#     4  10  19  35  51  61  81 122 160 186 216 263
#     4  10  18  31  48  66  87 117 153 180 212 268
#     4   9  19  32  48  66  87 116 154 188 221 264
#     4   9  16  27  44  70  94 114 142 179 220 262
#
# _framework density 17.48283
#
# number of rings (size 3 to 8) (size 9 to 14) (size 15 to 20)
#    0.000    2.625    1.250    1.500    0.000    0.250 
#    0.000    2.500    0.000    0.750    0.000    5.250 
#    0.000    0.000    0.000   19.500    0.000   14.000 
#
# Total GULP energy -396448.347145 kJ/mol
# GULP energy per Si atom -12389.010848 kJ/mol
# Density = 1.744304 g / cm^3
# Si number density = 17.482830 Si / 1000 Ang^3
#
#
#
# Elastic Constant Matrix: (Units=GPa)
#
#
# Indices 1 2 3 4 5 6 
#
# 1 120.8114 18.2424 63.1287 0.0000 -12.5092 0.0001
# 2 18.2424 18.4601 16.3088 -0.0005 -3.7788 0.0012
# 3 63.1287 16.3088 99.3302 0.0000 -28.4164 0.0001
# 4 0.0000 -0.0005 0.0000 19.7796 0.0000 -16.0178
# 5 -12.5092 -3.7788 -28.4164 0.0000 23.6966 0.0000
# 6 0.0001 0.0012 0.0001 -16.0178 0.0000 102.8102
#
#
#
# Elastic Compliance Matrix: (Units=1/GPa)
#
#
# Indices 1 2 3 4 5 6 
#
# 1 0.013320 -0.006402 -0.008668 0.000000 -0.004385 0.000000
# 2 -0.006402 0.066642 -0.007306 0.000001 -0.001514 -0.000001
# 3 -0.008668 -0.007306 0.023037 0.000000 0.021884 0.000000
# 4 0.000000 0.000001 0.000000 0.057857 0.000000 0.009014
# 5 -0.004385 -0.001514 0.021884 0.000000 0.065887 0.000000
# 6 0.000000 -0.000001 0.000000 0.009014 0.000000 0.011131
#
#
# Mechanical properties :
#
#
# Convention : Reuss Voigt Hill
#
# Bulk Modulus (GPa) = 17.16871 48.21795 32.69333
# Shear Modulus (GPa) = 16.55401 38.65208 27.60305
#
# Velocity S-wave (km/s) = 3.08047 4.70708 3.97781
# Velocity P-wave (km/s) = 4.74279 7.56189 6.31174
#
# Compressibility (1/GPa) = 0.05824548
#
# Stress axis : x y z
#
# Youngs Moduli (GPa) = 75.07714 15.00556 43.40872
#
# Poissons Ratio (x) = 0.09606 0.37629
# Poissons Ratio (y) = 0.48063 0.31715
# Poissons Ratio (z) = 0.65080 0.10963
#
# Static dielectric constant tensor:
#      x y z
#    x 3.418280 0.000000 -0.220080 
#    y 0.000000 2.978200 0.000000 
#    z -0.220080 0.000000 3.881400 
# 
# 
# High freq. dielectric constant tensor:
#      x y z
#    x 1.657550 0.000000 -0.017320 
#    y 0.000000 1.647720 0.000000 
#    z -0.017320 0.000000 1.685060 
# 
# From -- ./inp_files/287563.got.cif
#   From: 2010.06.25/outbox.cif.g09.slc.cpg/sg12_144_cif.got.tgz:287563.got - 2010.06.28 00:19:55.
