data_PCOD8082315
_publ_section_title
;
Structure prediction by ZEFSAII (Michael W. Deem and Ramdas Pophale) SiO2 
 PCOD8082315
Probable space group: C 2/M
;
_chemical_formula_sum "Si O2"
_cell_formula_units_Z 64
_cell_length_a 24.962720
_cell_length_b 8.625605
_cell_length_c 23.475611
_cell_angle_alpha 90.000000
_cell_angle_beta 133.397978
_cell_angle_gamma 90.000000
_cell_volume 3672.764847
_symmetry_space_group_name_H-M "C 2/M"
_symmetry_group_IT_number 12
_symmetry_cell_setting 'monoclinic'
loop_
_space_group_symop_operation_xyz
x,y,z
-x,y,-z
-x,-y,-z
x,-y,z
1/2+x,1/2+y,z
1/2-x,1/2+y,-z
1/2-x,1/2-y,-z
1/2+x,1/2-y,z
loop_
_atom_site_type_symbol
_atom_site_label
_atom_site_fract_x
_atom_site_fract_y
_atom_site_fract_z
Si Si1 0.385438 0.181200 0.175817
Si Si2 0.095124 0.819748 0.927876
Si Si3 0.189201 0.316499 0.186235
Si Si4 0.835754 0.181481 0.350180
Si Si5 0.270800 0.182771 0.909347
Si Si6 0.474168 0.820315 0.916859
Si Si7 0.447634 0.680290 0.332413
Si Si8 0.442472 0.174739 0.508934
O O1 0.420030 0.274404 0.148321
O O2 0.301032 0.228600 0.122396
O O3 0.434742 0.221629 0.266434
O O4 0.390482 0.000000 0.167116
O O5 0.021953 0.784572 0.910161
O O6 0.114981 0.000000 0.947754
O O7 0.163019 0.716731 0.999301
O O8 0.187683 0.500000 0.179195
O O9 0.252068 0.263712 0.276829
O O10 0.207018 0.251132 0.136494
O O11 0.109854 0.258850 0.150024
O O12 0.884104 0.227530 0.330626
O O13 0.864009 0.264645 0.428228
O O14 0.841474 0.000000 0.365481
O O15 0.253946 0.000000 0.895847
O O16 0.481901 0.000000 0.904681
O O17 0.500000 0.796423 0.000000
O O18 0.444225 0.500000 0.314892
O O19 0.527836 0.722413 0.416893
O O20 0.500000 0.188844 0.500000
O O21 0.433186 0.000000 0.523767
#
# Coordination Sequence:
#
# PCOD8082315 Si02
#       8
#     8   8   8   8   8   8   8   8
#     4  12  24  37  53  77 106 140 177 218 263 315
#     4  12  25  39  53  75 104 139 180 224 264 309
#     4   9  17  31  54  79 103 136 175 213 260 314
#     4   9  16  29  48  73 103 137 174 209 252 310
#     4  11  20  37  57  77 104 139 177 216 262 316
#     4  10  19  36  59  78 100 136 177 220 268 314
#     4  10  18  31  51  74 103 139 174 210 255 311
#     4   9  17  28  43  69 104 139 172 209 253 303
#
# _framework density 17.425564999999999
#
# number of rings (size 3 to 8) (size 9 to 14) (size 15 to 20)
#    0.000    1.750    2.500    3.750    0.000    2.250 
#    0.000    0.625    0.000    0.000    0.000    0.875 
#    0.000    0.000    0.000    0.000    0.000    0.000 
#
# Total GULP energy -396862.174570 kJ/mol
# GULP energy per Si atom -12401.942955 kJ/mol
# Density = 1.738590 g / cm^3
# Si number density = 17.425565 Si / 1000 Ang^3
#
#
#
# Elastic Constant Matrix: (Units=GPa)
#
#
# Indices 1 2 3 4 5 6 
#
# 1 70.9940 24.1854 40.9290 0.0000 -1.4748 0.0000
# 2 24.1854 51.2261 19.0660 0.0000 0.7182 0.0000
# 3 40.9290 19.0660 114.2823 0.0000 15.8401 0.0000
# 4 0.0000 0.0000 0.0000 29.2044 0.0000 -0.4175
# 5 -1.4748 0.7182 15.8401 0.0000 18.0762 0.0000
# 6 0.0000 0.0000 0.0000 -0.4175 0.0000 22.8932
#
#
#
# Elastic Compliance Matrix: (Units=1/GPa)
#
#
# Indices 1 2 3 4 5 6 
#
# 1 0.021083 -0.007272 -0.007531 0.000000 0.008608 0.000000
# 2 -0.007272 0.023423 -0.001243 0.000000 -0.000435 0.000000
# 3 -0.007531 -0.001243 0.013355 0.000000 -0.012268 0.000000
# 4 0.000000 0.000000 0.000000 0.034250 0.000000 0.000625
# 5 0.008608 -0.000435 -0.012268 0.000000 0.066791 0.000000
# 6 0.000000 0.000000 0.000000 0.000625 0.000000 0.043692
#
#
# Mechanical properties :
#
#
# Convention : Reuss Voigt Hill
#
# Bulk Modulus (GPa) = 38.80448 44.98481 41.89464
# Shear Modulus (GPa) = 20.55261 24.18955 22.37108
#
# Velocity S-wave (km/s) = 3.43804 3.72985 3.58691
# Velocity P-wave (km/s) = 6.17067 6.66487 6.42253
#
# Compressibility (1/GPa) = 0.02577022
#
# Stress axis : x y z
#
# Youngs Moduli (GPa) = 47.43062 42.69234 74.87763
#
# Poissons Ratio (x) = 0.31046 0.56388
# Poissons Ratio (y) = 0.34491 0.09309
# Poissons Ratio (z) = 0.35719 0.05307
#
# Static dielectric constant tensor:
#      x y z
#    x 3.097130 0.000000 0.127260 
#    y 0.000000 3.147240 0.000000 
#    z 0.127260 0.000000 3.450790 
# 
# 
# High freq. dielectric constant tensor:
#      x y z
#    x 1.634940 0.000000 0.006840 
#    y 0.000000 1.669940 0.000000 
#    z 0.006840 0.000000 1.681340 
# 
# From -- ./inp_files/324318.got.cif
#   From: 2010.06.25/outbox.cif.g09.slc.cpg/sg12_163_cif.got.tgz:324318.got - 2010.06.28 00:19:55.
