data_PCOD8082665
_publ_section_title
;
Structure prediction by ZEFSAII (Michael W. Deem and Ramdas Pophale) SiO2 
 PCOD8082665
Probable space group: C 2/M
;
_chemical_formula_sum "Si O2"
_cell_formula_units_Z 56
_cell_length_a 15.934900
_cell_length_b 9.461701
_cell_length_c 26.706401
_cell_angle_alpha 90.000000
_cell_angle_beta 134.007008
_cell_angle_gamma 90.000000
_cell_volume 2896.121078
_symmetry_space_group_name_H-M "C 2/M"
_symmetry_group_IT_number 12
_symmetry_cell_setting 'monoclinic'
loop_
_space_group_symop_operation_xyz
x,y,z
-x,y,-z
-x,-y,-z
x,-y,z
1/2+x,1/2+y,z
1/2-x,1/2+y,-z
1/2-x,1/2-y,-z
1/2+x,1/2-y,z
loop_
_atom_site_type_symbol
_atom_site_label
_atom_site_fract_x
_atom_site_fract_y
_atom_site_fract_z
Si Si1 0.011662 0.664264 0.222067
Si Si2 0.257579 0.167146 0.146012
Si Si3 0.330975 0.662715 0.996821
Si Si4 0.927449 0.163937 0.852044
Si Si5 0.953570 0.657119 0.424406
Si Si6 0.842714 0.156730 0.511733
Si Si7 0.245943 0.154754 0.636880
O O1 0.995486 0.500000 0.201215
O O2 0.047082 0.746010 0.186649
O O3 0.116083 0.688281 0.305302
O O4 0.892139 0.722023 0.198016
O O5 0.188769 0.222086 0.167115
O O6 0.255148 0.000000 0.148524
O O7 0.189930 0.217901 0.068235
O O8 0.292674 0.500000 0.985986
O O9 0.466258 0.683317 0.065378
O O10 0.250000 0.750000 0.000000
O O11 0.913838 0.000000 0.830796
O O12 0.954887 0.500000 0.400976
O O13 0.823336 0.719550 0.364172
O O14 0.000000 0.647720 0.500000
O O15 0.034984 0.765412 0.428342
O O16 0.750000 0.250000 0.500000
O O17 0.805950 0.146206 0.439495
O O18 0.850289 0.000000 0.538534
O O19 0.224820 0.000000 0.653439
#
# Coordination Sequence:
#
# PCOD8082665 Si02
#       7
#     8   8   8   8   8   8   8
#     4  10  20  37  57  76 108 148 183 218 268 331
#     4   9  18  34  55  77 106 145 183 221 270 329
#     4  10  18  31  54  79 105 139 180 228 276 323
#     4  10  20  34  54  81 108 139 185 231 273 320
#     4   9  17  31  53  77  99 128 169 213 258 309
#     4  10  19  33  53  79 110 139 174 221 267 316
#     4   9  19  35  54  75 104 142 176 210 263 325
#
# _framework density 19.336207999999999
#
# number of rings (size 3 to 8) (size 9 to 14) (size 15 to 20)
#    0.000    2.429    1.429    1.286    0.000    4.571 
#    2.571    1.429    0.000    1.714    0.000    0.000 
#    0.000    0.000    0.000    0.000    0.000    0.000 
#
# Total GULP energy -346992.685884 kJ/mol
# GULP energy per Si atom -12392.595924 kJ/mol
# Density = 1.929220 g / cm^3
# Si number density = 19.336208 Si / 1000 Ang^3
#
#
#
# Elastic Constant Matrix: (Units=GPa)
#
#
# Indices 1 2 3 4 5 6 
#
# 1 129.7859 50.0847 19.8650 0.0000 31.4294 0.0000
# 2 50.0847 107.3803 20.6866 0.0000 19.2612 0.0000
# 3 19.8650 20.6866 58.6158 0.0000 31.0151 0.0000
# 4 0.0000 0.0000 0.0000 20.4005 0.0000 1.8291
# 5 31.4294 19.2612 31.0151 0.0000 28.3930 0.0000
# 6 0.0000 0.0000 0.0000 1.8291 0.0000 33.6700
#
#
#
# Elastic Compliance Matrix: (Units=1/GPa)
#
#
# Indices 1 2 3 4 5 6 
#
# 1 0.012839 -0.003888 0.007453 0.000000 -0.019716 0.000000
# 2 -0.003888 0.011781 -0.002105 0.000000 -0.001389 0.000000
# 3 0.007453 -0.002105 0.044755 0.000000 -0.055710 0.000000
# 4 0.000000 0.000000 0.000000 0.049258 0.000000 -0.002676
# 5 -0.019716 -0.001389 -0.055710 0.000000 0.118842 0.000000
# 6 0.000000 0.000000 0.000000 -0.002676 0.000000 0.029845
#
#
# Mechanical properties :
#
#
# Convention : Reuss Voigt Hill
#
# Bulk Modulus (GPa) = 13.83218 53.00604 33.41911
# Shear Modulus (GPa) = 17.33113 30.16910 23.75012
#
# Velocity S-wave (km/s) = 2.99708 3.95427 3.50847
# Velocity P-wave (km/s) = 4.37558 6.95131 5.80803
#
# Compressibility (1/GPa) = 0.07229520
#
# Stress axis : x y z
#
# Youngs Moduli (GPa) = 77.88754 84.88486 22.34382
#
# Poissons Ratio (x) = 0.33001 -0.16653
# Poissons Ratio (y) = 0.30280 0.04704
# Poissons Ratio (z) = -0.58052 0.17871
#
# Static dielectric constant tensor:
#      x y z
#    x 5.288630 0.000000 -0.117520 
#    y 0.000000 3.645990 0.000000 
#    z -0.117520 0.000000 3.642730 
# 
# 
# High freq. dielectric constant tensor:
#      x y z
#    x 1.747320 0.000000 0.023580 
#    y 0.000000 1.741190 0.000000 
#    z 0.023580 0.000000 1.742480 
# 
# From -- ./inp_files/337901.got.cif
#   From: 2010.06.25/outbox.cif.g09.slc.cpg/sg12_169_cif.got.tgz:337901.got - 2010.06.28 00:19:55.
