data_PCOD8082993
_publ_section_title
;
Structure prediction by ZEFSAII (Michael W. Deem and Ramdas Pophale) SiO2 
 PCOD8082993
Probable space group: C 2/M
;
_chemical_formula_sum "Si O2"
_cell_formula_units_Z 56
_cell_length_a 25.412081
_cell_length_b 9.155361
_cell_length_c 15.212583
_cell_angle_alpha 90.000000
_cell_angle_beta 53.068924
_cell_angle_gamma 90.000000
_cell_volume 2829.179302
_symmetry_space_group_name_H-M "C 2/M"
_symmetry_group_IT_number 12
_symmetry_cell_setting 'monoclinic'
loop_
_space_group_symop_operation_xyz
x,y,z
-x,y,-z
-x,-y,-z
x,-y,z
1/2+x,1/2+y,z
1/2-x,1/2+y,-z
1/2-x,1/2-y,-z
1/2+x,1/2-y,z
loop_
_atom_site_type_symbol
_atom_site_label
_atom_site_fract_x
_atom_site_fract_y
_atom_site_fract_z
Si Si1 0.510746 0.843186 0.389903
Si Si2 0.076990 0.172590 0.738985
Si Si3 0.368658 0.170504 0.468835
Si Si4 0.217005 0.673650 0.280367
Si Si5 0.866142 0.172781 0.133072
Si Si6 0.367562 0.330209 0.775935
Si Si7 0.928521 0.172140 0.893547
O O1 0.500000 0.881407 0.500000
O O2 0.442431 0.789440 0.420223
O O3 0.561470 0.711129 0.332955
O O4 0.533862 0.000000 0.323394
O O5 0.134936 0.243697 0.620288
O O6 0.093565 0.220322 0.821755
O O7 0.002060 0.231586 0.795562
O O8 0.082261 0.000000 0.721049
O O9 0.320405 0.229735 0.593945
O O10 0.355498 0.000000 0.466351
O O11 0.209814 0.500000 0.280351
O O12 0.291393 0.730098 0.213409
O O13 0.187944 0.739117 0.219087
O O14 0.863851 0.000000 0.126366
O O15 0.902371 0.240551 0.011155
O O16 0.353483 0.500000 0.774827
O O17 0.373876 0.290695 0.873567
O O18 0.936360 0.000000 0.896400
#
# Coordination Sequence:
#
# PCOD8082993 Si02
#       7
#     8   8   8   8   8   8   8
#     4  10  18  32  52  75 106 144 181 214 259 318
#     4  10  19  34  58  85 106 133 178 227 270 310
#     4  10  20  33  52  78 110 142 174 215 264 317
#     4  10  21  38  55  76 107 148 186 211 252 324
#     4   9  19  36  58  77 102 144 187 220 257 314
#     4  11  21  32  52  83 113 137 170 221 276 315
#     4   9  18  33  54  83 110 132 172 228 273 310
#
# _framework density 19.793727000000001
#
# number of rings (size 3 to 8) (size 9 to 14) (size 15 to 20)
#    0.000    2.143    2.857    0.857    0.000    3.714 
#    0.000    0.714    0.000    5.143    0.000    0.000 
#    0.000    0.000    0.000    0.000    0.000    0.000 
#
# Total GULP energy -346939.033727 kJ/mol
# GULP energy per Si atom -12390.679776 kJ/mol
# Density = 1.974868 g / cm^3
# Si number density = 19.793727 Si / 1000 Ang^3
#
#
#
# Elastic Constant Matrix: (Units=GPa)
#
#
# Indices 1 2 3 4 5 6 
#
# 1 78.0345 20.3700 49.9578 0.0000 -1.1633 0.0000
# 2 20.3700 30.8746 25.9170 0.0001 5.0889 -0.0001
# 3 49.9578 25.9170 123.3086 0.0000 13.1760 0.0000
# 4 0.0000 0.0001 0.0000 22.6502 0.0000 3.4675
# 5 -1.1633 5.0889 13.1760 0.0000 28.5872 0.0000
# 6 0.0000 -0.0001 0.0000 3.4675 0.0000 22.9349
#
#
#
# Elastic Compliance Matrix: (Units=1/GPa)
#
#
# Indices 1 2 3 4 5 6 
#
# 1 0.019256 -0.007957 -0.006694 0.000000 0.005285 0.000000
# 2 -0.007957 0.042924 -0.005203 0.000000 -0.005566 0.000000
# 3 -0.006694 -0.005203 0.012459 0.000000 -0.005089 0.000000
# 4 0.000000 0.000000 0.000000 0.045196 0.000000 -0.006833
# 5 0.005285 -0.005566 -0.005089 0.000000 0.038532 0.000000
# 6 0.000000 0.000000 0.000000 -0.006833 0.000000 0.044635
#
#
# Mechanical properties :
#
#
# Convention : Reuss Voigt Hill
#
# Bulk Modulus (GPa) = 28.62753 47.18967 37.90860
# Shear Modulus (GPa) = 19.65771 23.89933 21.77852
#
# Velocity S-wave (km/s) = 3.15481 3.47856 3.32064
# Velocity P-wave (km/s) = 5.26923 6.32664 5.82199
#
# Compressibility (1/GPa) = 0.03493141
#
# Stress axis : x y z
#
# Youngs Moduli (GPa) = 51.93179 23.29702 80.26247
#
# Poissons Ratio (x) = 0.18536 0.53727
# Poissons Ratio (y) = 0.41320 0.41764
# Poissons Ratio (z) = 0.34763 0.12122
#
# Static dielectric constant tensor:
#      x y z
#    x 3.674960 0.000000 0.115520 
#    y 0.000000 3.309500 0.000000 
#    z 0.115520 0.000000 3.794260 
# 
# 
# High freq. dielectric constant tensor:
#      x y z
#    x 1.772960 0.000000 0.012470 
#    y 0.000000 1.732340 0.000000 
#    z 0.012470 0.000000 1.775600 
# 
# From -- ./inp_files/238408.got.cif
#   From: 2010.06.25/outbox.cif.g09.slc.cpg/sg12_120_cif.got.tgz:238408.got - 2010.06.28 00:19:55.
