data_PCOD8082188
_publ_section_title
;
Structure prediction by ZEFSAII (Michael W. Deem and Ramdas Pophale) SiO2 
 PCOD8082188
Probable space group: C 2/M
;
_chemical_formula_sum "Si O2"
_cell_formula_units_Z 56
_cell_length_a 28.012396
_cell_length_b 10.296666
_cell_length_c 25.938008
_cell_angle_alpha 90.000000
_cell_angle_beta 25.542332
_cell_angle_gamma 90.000000
_cell_volume 3225.818542
_symmetry_space_group_name_H-M "C 2/M"
_symmetry_group_IT_number 12
_symmetry_cell_setting 'monoclinic'
loop_
_space_group_symop_operation_xyz
x,y,z
-x,y,-z
-x,-y,-z
x,-y,z
1/2+x,1/2+y,z
1/2-x,1/2+y,-z
1/2-x,1/2-y,-z
1/2+x,1/2-y,z
loop_
_atom_site_type_symbol
_atom_site_label
_atom_site_fract_x
_atom_site_fract_y
_atom_site_fract_z
Si Si1 0.100455 0.653448 0.971475
Si Si2 0.633491 0.141551 0.150407
Si Si3 0.864973 0.771865 0.956130
Si Si4 0.756460 0.150918 0.608658
Si Si5 0.641325 0.848397 0.820944
Si Si6 0.897575 0.856550 0.296618
Si Si7 0.468013 0.353361 0.341536
O O1 0.108458 0.500000 0.969924
O O2 0.161867 0.704865 0.859096
O O3 0.158603 0.714303 0.964514
O O4 0.973317 0.703069 0.092061
O O5 0.623059 0.160664 0.099065
O O6 0.569178 0.252601 0.245096
O O7 0.582872 0.000000 0.212602
O O8 0.761629 0.138592 0.041898
O O9 0.977607 0.854240 0.846787
O O10 0.741139 0.184901 0.684408
O O11 0.676770 0.242498 0.653529
O O12 0.884320 0.175770 0.470172
O O13 0.723595 0.000000 0.629933
O O14 0.624865 0.000000 0.844239
O O15 0.897853 0.836352 0.357795
O O16 0.848928 0.000000 0.330736
O O17 0.516254 0.500000 0.298531
#
# Coordination Sequence:
#
# PCOD8082188 Si02
#       7
#     8   8   8   8   8   8   8
#     4   9  15  26  46  74 100 125 156 198 245 290
#     4  10  21  34  50  73  98 131 169 202 239 288
#     4  10  19  31  50  71  99 130 160 200 244 290
#     4  10  18  31  50  71  97 129 161 198 242 288
#     4   8  15  26  45  73 101 123 156 199 242 287
#     4  10  19  30  45  70 101 129 157 195 242 291
#     4   9  20  34  47  67  98 131 165 203 239 280
#
# _framework density 17.359936000000001
#
# number of rings (size 3 to 8) (size 9 to 14) (size 15 to 20)
#    0.000    2.571    1.429    2.143    0.000    6.857 
#    0.000    0.000    0.000    3.429    0.000    5.000 
#    0.000    0.000    0.000    0.000    0.000    0.000 
#
# Total GULP energy -346987.059142 kJ/mol
# GULP energy per Si atom -12392.394969 kJ/mol
# Density = 1.732042 g / cm^3
# Si number density = 17.359936 Si / 1000 Ang^3
#
#
#
# Elastic Constant Matrix: (Units=GPa)
#
#
# Indices 1 2 3 4 5 6 
#
# 1 56.6101 19.2053 27.5234 -0.0017 16.5064 0.0008
# 2 19.2053 84.9851 41.6354 0.0022 0.0785 -0.0021
# 3 27.5234 41.6354 105.2593 -0.0012 18.9945 0.0012
# 4 -0.0017 0.0022 -0.0012 15.7381 -0.0004 2.3883
# 5 16.5064 0.0785 18.9945 -0.0004 28.4796 0.0002
# 6 0.0008 -0.0021 0.0012 2.3883 0.0002 10.0259
#
#
#
# Elastic Compliance Matrix: (Units=1/GPa)
#
#
# Indices 1 2 3 4 5 6 
#
# 1 0.023799 -0.004215 -0.002352 0.000003 -0.012213 -0.000003
# 2 -0.004215 0.015827 -0.006356 -0.000004 0.006639 0.000005
# 3 -0.002352 -0.006356 0.014074 0.000002 -0.008006 -0.000003
# 4 0.000003 -0.000004 0.000002 0.065923 -0.000002 -0.015703
# 5 -0.012213 0.006639 -0.008006 -0.000002 0.047513 0.000003
# 6 -0.000003 0.000005 -0.000003 -0.015703 0.000003 0.103482
#
#
# Mechanical properties :
#
#
# Convention : Reuss Voigt Hill
#
# Bulk Modulus (GPa) = 35.90053 47.06476 41.48264
# Shear Modulus (GPa) = 16.35323 21.41475 18.88399
#
# Velocity S-wave (km/s) = 3.07255 3.51604 3.30175
# Velocity P-wave (km/s) = 5.77169 6.60707 6.20346
#
# Compressibility (1/GPa) = 0.02785474
#
# Stress axis : x y z
#
# Youngs Moduli (GPa) = 42.01808 63.18253 71.05125
#
# Poissons Ratio (x) = 0.26630 0.16711
# Poissons Ratio (y) = 0.17709 0.45162
# Poissons Ratio (z) = 0.09883 0.40161
#
# Static dielectric constant tensor:
#      x y z
#    x 3.101420 0.000000 0.286510 
#    y 0.000000 3.072330 0.000000 
#    z 0.286510 0.000000 3.311140 
# 
# 
# High freq. dielectric constant tensor:
#      x y z
#    x 1.642410 0.000000 0.017720 
#    y 0.000000 1.652510 0.000000 
#    z 0.017720 0.000000 1.666740 
# 
# From -- ./inp_files/351603.got.cif
#   From: 2010.06.25/outbox.cif.g09.slc.cpg/sg12_176_cif.got.tgz:351603.got - 2010.06.28 00:19:55.
