data_PCOD8082205
_publ_section_title
;
Structure prediction by ZEFSAII (Michael W. Deem and Ramdas Pophale) SiO2 
 PCOD8082205
Probable space group: C 2/M
;
_chemical_formula_sum "Si O2"
_cell_formula_units_Z 48
_cell_length_a 12.769437
_cell_length_b 13.329874
_cell_length_c 20.262654
_cell_angle_alpha 90.000000
_cell_angle_beta 61.337896
_cell_angle_gamma 90.000000
_cell_volume 3026.378413
_symmetry_space_group_name_H-M "C 2/M"
_symmetry_group_IT_number 12
_symmetry_cell_setting 'monoclinic'
loop_
_space_group_symop_operation_xyz
x,y,z
-x,y,-z
-x,-y,-z
x,-y,z
1/2+x,1/2+y,z
1/2-x,1/2+y,-z
1/2-x,1/2-y,-z
1/2+x,1/2-y,z
loop_
_atom_site_type_symbol
_atom_site_label
_atom_site_fract_x
_atom_site_fract_y
_atom_site_fract_z
Si Si1 0.239336 0.737667 0.804301
Si Si2 0.503436 0.743959 0.306180
Si Si3 0.455732 0.615111 0.584525
Si Si4 0.180805 0.615825 0.698392
Si Si5 0.045777 0.115640 0.916216
Si Si6 0.908455 0.884820 0.828926
O O1 0.359433 0.785290 0.735020
O O2 0.167538 0.671266 0.772767
O O3 0.161626 0.825779 0.857714
O O4 0.279557 0.664510 0.852427
O O5 0.478637 0.684586 0.381484
O O6 0.409727 0.834120 0.326734
O O7 0.490541 0.666389 0.248341
O O8 0.500000 0.651752 0.500000
O O9 0.493053 0.500000 0.586361
O O10 0.313532 0.626817 0.630454
O O11 0.144802 0.500000 0.718314
O O12 0.939121 0.130191 0.896280
O O13 0.084007 0.000000 0.910859
O O14 0.000000 0.157565 0.000000
O O15 0.903033 0.000000 0.810078
#
# Coordination Sequence:
#
# PCOD8082205 Si02
#       6
#     8   8   8   8   8   8
#     4   9  17  32  49  71  91 128 163 202 235 285
#     4   9  18  29  51  75  92 127 161 201 241 284
#     4   9  18  32  51  74 100 129 163 201 239 285
#     4  10  18  31  50  72  98 126 162 205 246 284
#     4  10  20  33  49  72 102 130 158 199 248 292
#     4   9  17  31  50  71  93 124 164 199 234 288
#
# _framework density 15.860542000000001
#
# number of rings (size 3 to 8) (size 9 to 14) (size 15 to 20)
#    1.000    1.667    1.667    1.000    0.000    2.000 
#    0.000    0.000    0.000    2.500    0.000    0.000 
#    0.000    0.000    0.000    0.000    0.000    0.000 
#
# Total GULP energy -297432.549377 kJ/mol
# GULP energy per Si atom -12393.022891 kJ/mol
# Density = 1.582444 g / cm^3
# Si number density = 15.860542 Si / 1000 Ang^3
#
#
#
# Elastic Constant Matrix: (Units=GPa)
#
#
# Indices 1 2 3 4 5 6 
#
# 1 74.6179 51.3071 33.0438 0.0000 13.2155 0.0000
# 2 51.3071 85.3968 45.4304 0.0000 5.6614 0.0000
# 3 33.0438 45.4304 104.0560 0.0000 17.8691 0.0000
# 4 0.0000 0.0000 0.0000 24.7701 0.0000 1.3261
# 5 13.2155 5.6614 17.8691 0.0000 19.9362 0.0000
# 6 0.0000 0.0000 0.0000 1.3261 0.0000 32.2628
#
#
#
# Elastic Compliance Matrix: (Units=1/GPa)
#
#
# Indices 1 2 3 4 5 6 
#
# 1 0.025756 -0.014926 0.000640 0.000000 -0.013409 0.000000
# 2 -0.014926 0.023966 -0.007392 0.000000 0.009714 0.000000
# 3 0.000640 -0.007392 0.014593 0.000000 -0.011405 0.000000
# 4 0.000000 0.000000 0.000000 0.040460 0.000000 -0.001663
# 5 -0.013409 0.009714 -0.011405 0.000000 0.066512 0.000000
# 6 0.000000 0.000000 0.000000 -0.001663 0.000000 0.031064
#
#
# Mechanical properties :
#
#
# Convention : Reuss Voigt Hill
#
# Bulk Modulus (GPa) = 47.71084 58.18146 52.94615
# Shear Modulus (GPa) = 19.78688 24.34645 22.06667
#
# Velocity S-wave (km/s) = 3.53590 3.92220 3.73405
# Velocity P-wave (km/s) = 6.84229 7.56798 7.21427
#
# Compressibility (1/GPa) = 0.02095960
#
# Stress axis : x y z
#
# Youngs Moduli (GPa) = 38.82595 41.72561 68.52779
#
# Poissons Ratio (x) = 0.62280 -0.04387
# Poissons Ratio (y) = 0.57952 0.50654
# Poissons Ratio (z) = -0.02486 0.30842
#
# Static dielectric constant tensor:
#      x y z
#    x 2.911840 0.000000 0.163820 
#    y 0.000000 2.909200 0.000000 
#    z 0.163820 0.000000 2.888200 
# 
# 
# High freq. dielectric constant tensor:
#      x y z
#    x 1.602820 0.000000 0.016220 
#    y 0.000000 1.602640 0.000000 
#    z 0.016220 0.000000 1.595340 
# 
# From -- ./inp_files/309268.got.cif
#   From: 2010.06.25/outbox.cif.g09.slc.cpg/sg12_155_cif.got.tgz:309268.got - 2010.06.28 00:19:55.
