data_PCOD8082582
_publ_section_title
;
Structure prediction by ZEFSAII (Michael W. Deem and Ramdas Pophale) SiO2 
 PCOD8082582
Probable space group: C 2/M
;
_chemical_formula_sum "Si O2"
_cell_formula_units_Z 64
_cell_length_a 25.574090
_cell_length_b 9.098720
_cell_length_c 14.917729
_cell_angle_alpha 90.000000
_cell_angle_beta 82.022151
_cell_angle_gamma 90.000000
_cell_volume 3437.633258
_symmetry_space_group_name_H-M "C 2/M"
_symmetry_group_IT_number 12
_symmetry_cell_setting 'monoclinic'
loop_
_space_group_symop_operation_xyz
x,y,z
-x,y,-z
-x,-y,-z
x,-y,z
1/2+x,1/2+y,z
1/2-x,1/2+y,-z
1/2-x,1/2-y,-z
1/2+x,1/2-y,z
loop_
_atom_site_type_symbol
_atom_site_label
_atom_site_fract_x
_atom_site_fract_y
_atom_site_fract_z
Si Si1 0.025107 0.829165 0.905309
Si Si2 0.641055 0.336552 0.836189
Si Si3 0.102118 0.826208 0.572574
Si Si4 0.002793 0.175400 0.713681
Si Si5 0.247393 0.833912 0.908502
Si Si6 0.183713 0.671103 0.664393
Si Si7 0.290861 0.326405 0.728937
Si Si8 0.597182 0.325670 0.371795
O O1 0.087202 0.801172 0.899957
O O2 0.004056 0.763284 0.815544
O O3 0.010165 0.000000 0.908871
O O4 0.000000 0.753151 0.000000
O O5 0.637916 0.500000 0.791604
O O6 0.686064 0.332743 0.899135
O O7 0.649806 0.214331 0.759274
O O8 0.055151 0.770454 0.648625
O O9 0.158817 0.757530 0.586423
O O10 0.088683 0.772101 0.475517
O O11 0.108627 0.000000 0.573802
O O12 0.950398 0.238275 0.677637
O O13 0.002657 0.000000 0.712608
O O14 0.282086 0.753909 0.825081
O O15 0.268551 0.000000 0.914017
O O16 0.250000 0.750000 0.000000
O O17 0.177823 0.500000 0.647079
O O18 0.244888 0.715115 0.668066
O O19 0.290340 0.500000 0.747364
O O20 0.346389 0.268981 0.677356
O O21 0.596146 0.500000 0.367716
#
# Coordination Sequence:
#
# PCOD8082582 Si02
#       8
#     8   8   8   8   8   8   8   8
#     4   9  16  26  45  77 105 122 153 206 262 303
#     4   9  17  32  51  73  99 129 167 212 255 299
#     4  10  18  31  53  78 100 129 173 219 261 312
#     4   9  16  28  49  76 104 130 165 216 264 306
#     4  10  20  33  53  77 102 136 176 214 256 307
#     4  10  19  31  50  73 100 136 171 207 253 308
#     4   9  19  35  51  73 106 137 171 214 258 307
#     4   9  18  31  50  76 104 134 170 216 268 310
#
# _framework density 18.617459
#
# number of rings (size 3 to 8) (size 9 to 14) (size 15 to 20)
#    0.000    2.625    1.250    1.125    0.000    4.000 
#    0.000    4.375    0.000    2.625    0.000    0.000 
#    0.000    0.000    0.000    0.000    0.000    0.000 
#
# Total GULP energy -396673.576963 kJ/mol
# GULP energy per Si atom -12396.049280 kJ/mol
# Density = 1.857509 g / cm^3
# Si number density = 18.617459 Si / 1000 Ang^3
#
#
#
# Elastic Constant Matrix: (Units=GPa)
#
#
# Indices 1 2 3 4 5 6 
#
# 1 123.0212 26.1084 70.0258 0.0000 0.0808 0.0000
# 2 26.1084 34.5246 25.8553 0.0000 3.3078 0.0000
# 3 70.0258 25.8553 146.5009 0.0000 5.4451 0.0000
# 4 0.0000 0.0000 0.0000 19.3969 0.0000 3.6008
# 5 0.0808 3.3078 5.4451 0.0000 28.4361 0.0000
# 6 0.0000 0.0000 0.0000 3.6008 0.0000 20.9604
#
#
#
# Elastic Compliance Matrix: (Units=1/GPa)
#
#
# Indices 1 2 3 4 5 6 
#
# 1 0.012081 -0.005665 -0.004832 0.000000 0.001550 0.000000
# 2 -0.005665 0.036252 -0.003559 0.000000 -0.003519 0.000000
# 3 -0.004832 -0.003559 0.009818 0.000000 -0.001452 0.000000
# 4 0.000000 0.000000 0.000000 0.053253 0.000000 -0.009148
# 5 0.001550 -0.003519 -0.001452 0.000000 0.035850 0.000000
# 6 0.000000 0.000000 0.000000 -0.009148 0.000000 0.049281
#
#
# Mechanical properties :
#
#
# Convention : Reuss Voigt Hill
#
# Bulk Modulus (GPa) = 33.29254 60.89174 47.09214
# Shear Modulus (GPa) = 21.30755 25.89582 23.60169
#
# Velocity S-wave (km/s) = 3.38671 3.73358 3.56437
# Velocity P-wave (km/s) = 5.76318 7.16687 6.50301
#
# Compressibility (1/GPa) = 0.03003676
#
# Stress axis : x y z
#
# Youngs Moduli (GPa) = 82.77787 27.58488 101.85683
#
# Poissons Ratio (x) = 0.15628 0.49218
# Poissons Ratio (y) = 0.46897 0.36252
# Poissons Ratio (z) = 0.39999 0.09818
#
# Static dielectric constant tensor:
#      x y z
#    x 3.727320 0.000000 0.096090 
#    y 0.000000 3.089940 0.000000 
#    z 0.096090 0.000000 3.518320 
# 
# 
# High freq. dielectric constant tensor:
#      x y z
#    x 1.732080 0.000000 0.007550 
#    y 0.000000 1.675090 0.000000 
#    z 0.007550 0.000000 1.723150 
# 
# From -- ./inp_files/243920.got.cif
#   From: 2010.06.25/outbox.cif.g09.slc.cpg/sg12_122_cif.got.tgz:243920.got - 2010.06.28 00:19:55.
