data_PCOD8082591
_publ_section_title
;
Structure prediction by ZEFSAII (Michael W. Deem and Ramdas Pophale) SiO2 
 PCOD8082591
Probable space group: C 2/M
;
_chemical_formula_sum "Si O2"
_cell_formula_units_Z 56
_cell_length_a 28.527803
_cell_length_b 8.899003
_cell_length_c 14.574469
_cell_angle_alpha 90.000000
_cell_angle_beta 119.974592
_cell_angle_gamma 90.000000
_cell_volume 3205.119209
_symmetry_space_group_name_H-M "C 2/M"
_symmetry_group_IT_number 12
_symmetry_cell_setting 'monoclinic'
loop_
_space_group_symop_operation_xyz
x,y,z
-x,y,-z
-x,-y,-z
x,-y,z
1/2+x,1/2+y,z
1/2-x,1/2+y,-z
1/2-x,1/2-y,-z
1/2+x,1/2-y,z
loop_
_atom_site_type_symbol
_atom_site_label
_atom_site_fract_x
_atom_site_fract_y
_atom_site_fract_z
Si Si1 0.414085 0.168391 0.660763
Si Si2 0.445033 0.178740 0.993946
Si Si3 0.537759 0.169243 0.788675
Si Si4 0.368110 0.175775 0.433973
Si Si5 0.949180 0.176946 0.389969
Si Si6 0.751961 0.676963 0.400604
Si Si7 0.649063 0.179545 0.230610
O O1 0.474990 0.168358 0.752975
O O2 0.405536 0.242283 0.553156
O O3 0.377929 0.244898 0.703076
O O4 0.391069 0.000000 0.627185
O O5 0.390348 0.233349 0.889796
O O6 0.449748 0.000000 0.995678
O O7 0.500000 0.244814 0.000000
O O8 0.436389 0.231302 0.091370
O O9 0.548163 0.276560 0.713541
O O10 0.557470 0.000000 0.783954
O O11 0.391205 0.262306 0.368352
O O12 0.306912 0.216174 0.400303
O O13 0.375989 0.000000 0.422338
O O14 0.000000 0.241903 0.500000
O O15 0.949495 0.000000 0.395802
O O16 0.744781 0.500000 0.406842
O O17 0.750000 0.750000 0.500000
O O18 0.707430 0.742381 0.286397
O O19 0.655252 0.000000 0.235602
#
# Coordination Sequence:
#
# PCOD8082591 Si02
#       7
#     8   8   8   8   8   8   8
#     4   9  15  26  49  77 104 135 172 208 245 298
#     4   9  16  28  53  83 107 136 178 220 253 298
#     4  10  18  31  53  78 104 139 178 212 250 303
#     4  10  20  35  53  74 100 137 181 215 248 305
#     4  11  23  35  49  75 108 138 168 212 269 317
#     4  11  22  35  53  78 107 140 177 216 262 312
#     4  10  18  32  52  79 112 141 173 215 259 307
#
# _framework density 17.472048000000001
#
# number of rings (size 3 to 8) (size 9 to 14) (size 15 to 20)
#    0.000    2.000    4.286    0.857    0.000    1.714 
#    0.000    1.429    0.000    1.714    0.000    0.000 
#    0.000    0.000    0.000    0.000    0.000    0.000 
#
# Total GULP energy -346968.051367 kJ/mol
# GULP energy per Si atom -12391.716120 kJ/mol
# Density = 1.743228 g / cm^3
# Si number density = 17.472048 Si / 1000 Ang^3
#
#
#
# Elastic Constant Matrix: (Units=GPa)
#
#
# Indices 1 2 3 4 5 6 
#
# 1 100.0874 37.5347 51.8099 0.0000 -5.0783 0.0000
# 2 37.5347 47.9290 29.3101 0.0000 -0.0794 0.0000
# 3 51.8099 29.3101 124.1740 0.0000 3.0471 0.0000
# 4 0.0000 0.0000 0.0000 18.7634 0.0000 3.1038
# 5 -5.0783 -0.0794 3.0471 0.0000 27.9417 0.0000
# 6 0.0000 0.0000 0.0000 3.1038 0.0000 23.0789
#
#
#
# Elastic Compliance Matrix: (Units=1/GPa)
#
#
# Indices 1 2 3 4 5 6 
#
# 1 0.016227 -0.009947 -0.004507 0.000000 0.003412 0.000000
# 2 -0.009947 0.030494 -0.003014 0.000000 -0.001392 0.000000
# 3 -0.004507 -0.003014 0.010694 0.000000 -0.001994 0.000000
# 4 0.000000 0.000000 0.000000 0.054508 0.000000 -0.007331
# 5 0.003412 -0.001392 -0.001994 0.000000 0.036622 0.000000
# 6 0.000000 0.000000 0.000000 -0.007331 0.000000 0.044316
#
#
# Mechanical properties :
#
#
# Convention : Reuss Voigt Hill
#
# Bulk Modulus (GPa) = 44.48037 56.61107 50.54572
# Shear Modulus (GPa) = 21.25047 24.19253 22.72150
#
# Velocity S-wave (km/s) = 3.49127 3.72511 3.61009
# Velocity P-wave (km/s) = 6.46260 7.13955 6.80950
#
# Compressibility (1/GPa) = 0.02248183
#
# Stress axis : x y z
#
# Youngs Moduli (GPa) = 61.62413 32.79304 93.51212
#
# Poissons Ratio (x) = 0.32618 0.42142
# Poissons Ratio (y) = 0.61295 0.28181
# Poissons Ratio (z) = 0.27772 0.09883
#
# Static dielectric constant tensor:
#      x y z
#    x 3.184530 0.000000 0.028330 
#    y 0.000000 2.915780 0.000000 
#    z 0.028330 0.000000 3.412840 
# 
# 
# High freq. dielectric constant tensor:
#      x y z
#    x 1.666470 0.000000 -0.002110 
#    y 0.000000 1.642130 0.000000 
#    z -0.002110 0.000000 1.673520 
# 
# From -- ./inp_files/244276.got.cif
#   From: 2010.06.25/outbox.cif.g09.slc.cpg/sg12_123_cif.got.tgz:244276.got - 2010.06.28 00:19:55.
