data_PCOD8082651
_publ_section_title
;
Structure prediction by ZEFSAII (Michael W. Deem and Ramdas Pophale) SiO2 
 PCOD8082651
Probable space group: C 2/M
;
_chemical_formula_sum "Si O2"
_cell_formula_units_Z 56
_cell_length_a 20.430286
_cell_length_b 12.573146
_cell_length_c 11.990001
_cell_angle_alpha 90.000000
_cell_angle_beta 93.404817
_cell_angle_gamma 90.000000
_cell_volume 3074.470618
_symmetry_space_group_name_H-M "C 2/M"
_symmetry_group_IT_number 12
_symmetry_cell_setting 'monoclinic'
loop_
_space_group_symop_operation_xyz
x,y,z
-x,y,-z
-x,-y,-z
x,-y,z
1/2+x,1/2+y,z
1/2-x,1/2+y,-z
1/2-x,1/2-y,-z
1/2+x,1/2-y,z
loop_
_atom_site_type_symbol
_atom_site_label
_atom_site_fract_x
_atom_site_fract_y
_atom_site_fract_z
Si Si1 0.751850 0.693444 0.180598
Si Si2 0.882894 0.878835 0.736263
Si Si3 0.496634 0.116867 0.731604
Si Si4 0.430697 0.252597 0.547172
Si Si5 0.692424 0.123412 0.043115
Si Si6 0.057897 0.724609 0.082359
Si Si7 0.132364 0.627965 0.656592
O O1 0.691482 0.637528 0.234477
O O2 0.735124 0.815231 0.142203
O O3 0.807958 0.688703 0.278990
O O4 0.771861 0.627499 0.072453
O O5 0.893167 0.848957 0.605909
O O6 0.929380 0.815501 0.825633
O O7 0.903227 0.000000 0.751244
O O8 0.445278 0.174322 0.648815
O O9 0.473023 0.123434 0.856617
O O10 0.571463 0.155348 0.730596
O O11 0.494773 0.000000 0.683916
O O12 0.500000 0.290316 0.500000
O O13 0.381895 0.188607 0.460828
O O14 0.622628 0.184412 0.024326
O O15 0.684317 0.000000 0.077885
O O16 0.000000 0.771142 0.000000
O O17 0.144418 0.500000 0.642364
#
# Coordination Sequence:
#
# PCOD8082651 Si02
#       7
#     8   8   8   8   8   8   8
#     4  10  21  35  52  76 103 134 175 206 240 303
#     4  10  21  37  53  69  99 139 171 207 254 300
#     4   9  17  30  49  76 108 134 158 199 257 306
#     4   9  19  34  52  75 100 127 169 215 256 302
#     4  10  20  35  54  75 106 140 165 203 254 296
#     4  10  20  32  51  80 105 128 167 211 248 298
#     4  10  18  31  54  78 103 135 168 208 255 301
#
# _framework density 18.214518999999999
#
# number of rings (size 3 to 8) (size 9 to 14) (size 15 to 20)
#    0.000    2.286    0.000    3.000    0.000    5.143 
#    0.000    1.429    0.000   13.714    0.000    0.000 
#    0.000    0.000    0.000    0.000    0.000    0.000 
#
# Total GULP energy -346952.923133 kJ/mol
# GULP energy per Si atom -12391.175826 kJ/mol
# Density = 1.817306 g / cm^3
# Si number density = 18.214519 Si / 1000 Ang^3
#
#
#
# Elastic Constant Matrix: (Units=GPa)
#
#
# Indices 1 2 3 4 5 6 
#
# 1 108.8059 42.8765 63.9900 0.0000 11.7895 0.0000
# 2 42.8765 96.0086 42.4625 0.0000 12.1880 0.0000
# 3 63.9900 42.4625 102.6024 0.0000 -1.6719 0.0000
# 4 0.0000 0.0000 0.0000 19.2339 0.0000 -3.8057
# 5 11.7895 12.1880 -1.6719 0.0000 34.2443 0.0000
# 6 0.0000 0.0000 0.0000 -3.8057 0.0000 18.7528
#
#
#
# Elastic Compliance Matrix: (Units=1/GPa)
#
#
# Indices 1 2 3 4 5 6 
#
# 1 0.016060 -0.002524 -0.009054 0.000000 -0.005073 0.000000
# 2 -0.002524 0.013986 -0.004285 0.000000 -0.004318 0.000000
# 3 -0.009054 -0.004285 0.017256 0.000000 0.005485 0.000000
# 4 0.000000 0.000000 0.000000 0.054167 0.000000 0.010992
# 5 -0.005073 -0.004318 0.005485 0.000000 0.032753 0.000000
# 6 0.000000 0.000000 0.000000 0.010992 0.000000 0.055556
#
#
# Mechanical properties :
#
#
# Convention : Reuss Voigt Hill
#
# Bulk Modulus (GPa) = 64.19913 67.34166 65.77039
# Shear Modulus (GPa) = 22.05614 24.98539 23.52076
#
# Velocity S-wave (km/s) = 3.48359 3.70770 3.59739
# Velocity P-wave (km/s) = 7.17657 7.44185 7.31041
#
# Compressibility (1/GPa) = 0.01557653
#
# Stress axis : x y z
#
# Youngs Moduli (GPa) = 62.26773 71.50052 57.95171
#
# Poissons Ratio (x) = 0.18044 0.52471
# Poissons Ratio (y) = 0.15714 0.24830
# Poissons Ratio (z) = 0.56378 0.30635
#
# Static dielectric constant tensor:
#      x y z
#    x 3.554030 0.000000 -0.312110 
#    y 0.000000 3.302940 0.000000 
#    z -0.312110 0.000000 3.688330 
# 
# 
# High freq. dielectric constant tensor:
#      x y z
#    x 1.711600 0.000000 -0.008630 
#    y 0.000000 1.690530 0.000000 
#    z -0.008630 0.000000 1.707130 
# 
# From -- ./inp_files/164976.got.cif
#   From: 2010.06.25/outbox.cif.g09.slc.cpg/sg12_83_cif.got.tgz:164976.got - 2010.06.28 00:19:55.
