data_PCOD8082580
_publ_section_title
;
Structure prediction by ZEFSAII (Michael W. Deem and Ramdas Pophale) SiO2 
 PCOD8082580
Probable space group: C 2/M
;
_chemical_formula_sum "Si O2"
_cell_formula_units_Z 64
_cell_length_a 12.316033
_cell_length_b 21.158076
_cell_length_c 18.062690
_cell_angle_alpha 90.000000
_cell_angle_beta 128.024086
_cell_angle_gamma 90.000000
_cell_volume 3707.822104
_symmetry_space_group_name_H-M "C 2/M"
_symmetry_group_IT_number 12
_symmetry_cell_setting 'monoclinic'
loop_
_space_group_symop_operation_xyz
x,y,z
-x,y,-z
-x,-y,-z
x,-y,z
1/2+x,1/2+y,z
1/2-x,1/2+y,-z
1/2-x,1/2-y,-z
1/2+x,1/2-y,z
loop_
_atom_site_type_symbol
_atom_site_label
_atom_site_fract_x
_atom_site_fract_y
_atom_site_fract_z
Si Si1 0.321793 0.676734 0.614093
Si Si2 0.339578 0.181281 0.585515
Si Si3 0.185673 0.427917 0.789461
Si Si4 0.565856 0.661387 0.107184
Si Si5 0.992075 0.661022 0.786993
Si Si6 0.119457 0.301250 0.110460
Si Si7 0.420429 0.305935 0.189259
Si Si8 0.078268 0.626790 0.603083
O O1 0.288950 0.750045 0.587876
O O2 0.277920 0.646337 0.515398
O O3 0.479276 0.664708 0.704886
O O4 0.225829 0.654439 0.641351
O O5 0.372129 0.145670 0.676257
O O6 0.481187 0.182722 0.595756
O O7 0.205288 0.500000 0.822110
O O8 0.332354 0.396248 0.835220
O O9 0.111604 0.390817 0.825805
O O10 0.099717 0.424873 0.676573
O O11 0.643741 0.728734 0.144882
O O12 0.449659 0.662309 0.122069
O O13 0.500000 0.651080 0.000000
O O14 0.058445 0.730437 0.803757
O O15 0.925854 0.654952 0.840000
O O16 0.264606 0.326090 0.140992
O O17 0.000000 0.306107 0.000000
O O18 0.000000 0.595215 0.500000
#
# Coordination Sequence:
#
# PCOD8082580 Si02
#       8
#     8   8   8   8   8   8   8   8
#     4   9  15  26  44  70 102 132 161 197 259 310
#     4   8  16  25  43  69 102 136 157 198 254 309
#     4  11  21  35  53  75 104 138 175 213 253 299
#     4  10  21  33  53  77 105 130 171 215 270 311
#     4   9  19  32  49  74 107 132 172 204 255 303
#     4  10  21  33  53  77 102 136 168 215 264 313
#     4  10  18  31  53  77 105 130 165 214 262 314
#     4   9  17  31  47  71 107 136 169 206 245 303
#
# _framework density 17.260805999999999
#
# number of rings (size 3 to 8) (size 9 to 14) (size 15 to 20)
#    0.000    2.500    2.500    0.000    1.750    2.000 
#    0.000    0.625    0.000    1.125    0.000    0.000 
#    0.000    3.500    0.000    0.000    0.000    0.000 
#
# Total GULP energy -396483.796537 kJ/mol
# GULP energy per Si atom -12390.118642 kJ/mol
# Density = 1.722152 g / cm^3
# Si number density = 17.260806 Si / 1000 Ang^3
#
#
#
# Elastic Constant Matrix: (Units=GPa)
#
#
# Indices 1 2 3 4 5 6 
#
# 1 126.6727 38.3339 61.9719 0.0000 1.0629 0.0000
# 2 38.3339 63.4504 25.3423 0.0000 -1.3406 0.0000
# 3 61.9719 25.3423 108.3200 0.0000 -3.1627 0.0000
# 4 0.0000 0.0000 0.0000 11.0708 0.0000 0.1991
# 5 1.0629 -1.3406 -3.1627 0.0000 30.7557 0.0000
# 6 0.0000 0.0000 0.0000 0.1991 0.0000 14.1691
#
#
#
# Elastic Compliance Matrix: (Units=1/GPa)
#
#
# Indices 1 2 3 4 5 6 
#
# 1 0.012342 -0.005127 -0.005898 0.000000 -0.001257 0.000000
# 2 -0.005127 0.019518 -0.001608 0.000000 0.000863 0.000000
# 3 -0.005898 -0.001608 0.013026 0.000000 0.001473 0.000000
# 4 0.000000 0.000000 0.000000 0.090351 0.000000 -0.001270
# 5 -0.001257 0.000863 0.001473 0.000000 0.032747 0.000000
# 6 0.000000 0.000000 0.000000 -0.001270 0.000000 0.070594
#
#
# Mechanical properties :
#
#
# Convention : Reuss Voigt Hill
#
# Bulk Modulus (GPa) = 50.97034 61.08215 56.02625
# Shear Modulus (GPa) = 18.49215 22.71876 20.60546
#
# Velocity S-wave (km/s) = 3.27668 3.63189 3.45885
# Velocity P-wave (km/s) = 6.62640 7.28369 6.96280
#
# Compressibility (1/GPa) = 0.01961925
#
# Stress axis : x y z
#
# Youngs Moduli (GPa) = 81.02312 51.23360 76.77175
#
# Poissons Ratio (x) = 0.26269 0.45282
# Poissons Ratio (y) = 0.41543 0.12344
# Poissons Ratio (z) = 0.47790 0.08238
#
# Static dielectric constant tensor:
#      x y z
#    x 3.202250 0.000000 -0.113080 
#    y 0.000000 2.649060 0.000000 
#    z -0.113080 0.000000 3.591030 
# 
# 
# High freq. dielectric constant tensor:
#      x y z
#    x 1.660950 0.000000 -0.007740 
#    y 0.000000 1.593610 0.000000 
#    z -0.007740 0.000000 1.690580 
# 
# From -- ./inp_files/265565.got.cif
#   From: 2010.06.25/outbox.cif.g09.slc.cpg/sg12_133_cif.got.tgz:265565.got - 2010.06.28 00:19:55.
