data_PCOD8082741
_publ_section_title
;
Structure prediction by ZEFSAII (Michael W. Deem and Ramdas Pophale) SiO2 
 PCOD8082741
Probable space group: C 2/M
;
_chemical_formula_sum "Si O2"
_cell_formula_units_Z 56
_cell_length_a 8.950687
_cell_length_b 18.061682
_cell_length_c 22.270593
_cell_angle_alpha 90.000000
_cell_angle_beta 118.637682
_cell_angle_gamma 90.000000
_cell_volume 3159.923644
_symmetry_space_group_name_H-M "C 2/M"
_symmetry_group_IT_number 12
_symmetry_cell_setting 'monoclinic'
loop_
_space_group_symop_operation_xyz
x,y,z
-x,y,-z
-x,-y,-z
x,-y,z
1/2+x,1/2+y,z
1/2-x,1/2+y,-z
1/2-x,1/2-y,-z
1/2+x,1/2-y,z
loop_
_atom_site_type_symbol
_atom_site_label
_atom_site_fract_x
_atom_site_fract_y
_atom_site_fract_z
Si Si1 0.696702 0.196482 0.043377
Si Si2 0.394485 0.236279 0.743292
Si Si3 0.124294 0.916782 0.468619
Si Si4 0.757596 0.196793 0.836616
Si Si5 0.514804 0.414809 0.932015
Si Si6 0.472279 0.300496 0.348048
Si Si7 0.606338 0.809205 0.461402
O O1 0.720033 0.237398 0.111112
O O2 0.817705 0.124728 0.062829
O O3 0.500000 0.171567 0.000000
O O4 0.750000 0.250000 0.000000
O O5 0.557289 0.183152 0.785655
O O6 0.355293 0.281751 0.795215
O O7 0.441717 0.295938 0.700692
O O8 0.231144 0.186020 0.694455
O O9 0.305077 0.888932 0.530263
O O10 0.000000 0.911212 0.500000
O O11 0.058465 0.867138 0.400818
O O12 0.143915 0.000000 0.448281
O O13 0.840515 0.120346 0.873737
O O14 0.524008 0.500000 0.914113
O O15 0.500000 0.405050 0.000000
O O16 0.495964 0.219248 0.383868
O O17 0.500000 0.814424 0.500000
O O18 0.750000 0.750000 0.500000
#
# Coordination Sequence:
#
# PCOD8082741 Si02
#       7
#     8   8   8   8   8   8   8
#     4  12  19  34  63  88 111 146 188 236 285 334
#     4  10  21  31  57  79 103 143 202 217 265 318
#     4  10  20  34  54  79 110 145 179 225 289 340
#     4  11  19  36  56  83 107 149 190 232 263 343
#     4  11  23  38  58  88 120 145 178 241 303 335
#     4  10  18  34  51  80 108 139 180 239 263 320
#     4  10  18  31  55  79 105 133 172 226 283 320
#
# _framework density 17.721947
#
# number of rings (size 3 to 8) (size 9 to 14) (size 15 to 20)
#    0.000    1.429    4.286    4.286    0.000    0.571 
#    0.000    1.429    0.000    3.429    0.000    0.000 
#    0.000    0.000    0.000    0.000    0.000    0.000 
#
# Total GULP energy -347094.170229 kJ/mol
# GULP energy per Si atom -12396.220365 kJ/mol
# Density = 1.768161 g / cm^3
# Si number density = 17.721947 Si / 1000 Ang^3
#
#
#
# Elastic Constant Matrix: (Units=GPa)
#
#
# Indices 1 2 3 4 5 6 
#
# 1 123.3704 59.2312 47.3122 0.0000 5.2039 0.0000
# 2 59.2312 124.1687 59.2088 0.0000 5.8149 0.0000
# 3 47.3122 59.2088 103.4412 0.0000 2.0549 0.0000
# 4 0.0000 0.0000 0.0000 26.1543 0.0000 7.2908
# 5 5.2039 5.8149 2.0549 0.0000 38.1738 0.0000
# 6 0.0000 0.0000 0.0000 7.2908 0.0000 29.2903
#
#
#
# Elastic Compliance Matrix: (Units=1/GPa)
#
#
# Indices 1 2 3 4 5 6 
#
# 1 0.011099 -0.003913 -0.002821 0.000000 -0.000765 0.000000
# 2 -0.003913 0.012526 -0.005359 0.000000 -0.001086 0.000000
# 3 -0.002821 -0.005359 0.014016 0.000000 0.000446 0.000000
# 4 0.000000 0.000000 0.000000 0.041085 0.000000 -0.010227
# 5 -0.000765 -0.001086 0.000446 0.000000 0.026442 0.000000
# 6 0.000000 0.000000 0.000000 -0.010227 0.000000 0.036687
#
#
# Mechanical properties :
#
#
# Convention : Reuss Voigt Hill
#
# Bulk Modulus (GPa) = 74.32176 75.83163 75.07669
# Shear Modulus (GPa) = 29.32111 31.07220 30.19666
#
# Velocity S-wave (km/s) = 4.07198 4.19181 4.13233
# Velocity P-wave (km/s) = 8.00854 8.14315 8.07613
#
# Compressibility (1/GPa) = 0.01345501
#
# Stress axis : x y z
#
# Youngs Moduli (GPa) = 90.10109 79.83223 71.34694
#
# Poissons Ratio (x) = 0.31240 0.20129
# Poissons Ratio (y) = 0.35258 0.38231
# Poissons Ratio (z) = 0.25420 0.42778
#
# Static dielectric constant tensor:
#      x y z
#    x 3.713740 0.000000 0.228620 
#    y 0.000000 3.379570 0.000000 
#    z 0.228620 0.000000 3.684010 
# 
# 
# High freq. dielectric constant tensor:
#      x y z
#    x 1.710330 0.000000 0.001140 
#    y 0.000000 1.647080 0.000000 
#    z 0.001140 0.000000 1.694960 
# 
# From -- ./inp_files/301463.got.cif
#   From: 2010.06.25/outbox.cif.g09.slc.cpg/sg12_151_cif.got.tgz:301463.got - 2010.06.28 00:19:55.
