data_PCOD8082856
_publ_section_title
;
Structure prediction by ZEFSAII (Michael W. Deem and Ramdas Pophale) SiO2 
 PCOD8082856
Probable space group: C 2/M
;
_chemical_formula_sum "Si O2"
_cell_formula_units_Z 52
_cell_length_a 23.567501
_cell_length_b 27.719151
_cell_length_c 5.293446
_cell_angle_alpha 90.000000
_cell_angle_beta 123.576845
_cell_angle_gamma 90.000000
_cell_volume 2881.060921
_symmetry_space_group_name_H-M "C 2/M"
_symmetry_group_IT_number 12
_symmetry_cell_setting 'monoclinic'
loop_
_space_group_symop_operation_xyz
x,y,z
-x,y,-z
-x,-y,-z
x,-y,z
1/2+x,1/2+y,z
1/2-x,1/2+y,-z
1/2-x,1/2-y,-z
1/2+x,1/2-y,z
loop_
_atom_site_type_symbol
_atom_site_label
_atom_site_fract_x
_atom_site_fract_y
_atom_site_fract_z
Si Si1 0.181074 0.210842 0.059252
Si Si2 0.768019 0.110781 0.915462
Si Si3 0.597649 0.945840 0.094916
Si Si4 0.121361 0.360163 0.527033
Si Si5 0.000000 0.396802 0.500000
Si Si6 0.246871 0.554840 0.342163
Si Si7 0.662625 0.239747 0.510631
O O1 0.177824 0.153172 0.005621
O O2 0.257556 0.229092 0.282659
O O3 0.143203 0.225646 0.226982
O O4 0.142960 0.235412 0.728241
O O5 0.697067 0.135874 0.826926
O O6 0.762806 0.079478 0.649327
O O7 0.788156 0.079124 0.210708
O O8 0.606498 0.908013 0.336450
O O9 0.665395 0.942836 0.084892
O O10 0.591399 0.000000 0.190762
O O11 0.527734 0.932908 0.781872
O O12 0.061822 0.360451 0.587297
O O13 0.119213 0.309727 0.368393
O O14 0.272221 0.500000 0.423434
#
# Coordination Sequence:
#
# PCOD8082856 Si02
#       7
#     8   8   8   8   4   8   8
#     4   9  17  29  49  68  85 107 135 178 233 278
#     4  10  18  32  48  67  89 114 149 188 226 277
#     4  10  22  35  46  60  82 116 159 201 243 278
#     4  10  22  32  47  60  88 108 149 193 244 280
#     4  12  21  34  46  62  78 120 152 204 241 282
#     4  10  19  31  47  66  92 122 151 189 230 270
#     4   9  18  30  47  68  86 105 134 180 238 285
#
# _framework density 18.048908000000001
#
# number of rings (size 3 to 8) (size 9 to 14) (size 15 to 20)
#    0.000    2.154    1.538    2.077    2.154    6.154 
#    0.000    0.000    0.000    0.000    0.000    0.000 
#    0.000    0.000    0.000    0.000    0.000    0.000 
#
# Total GULP energy -322178.914856 kJ/mol
# GULP energy per Si atom -12391.496725 kJ/mol
# Density = 1.800783 g / cm^3
# Si number density = 18.048908 Si / 1000 Ang^3
#
#
#
# Elastic Constant Matrix: (Units=GPa)
#
#
# Indices 1 2 3 4 5 6 
#
# 1 56.7197 55.2587 31.2734 0.0000 -26.0919 0.0000
# 2 55.2587 133.8825 28.4679 0.0000 -14.8054 0.0000
# 3 31.2734 28.4679 45.3615 0.0000 -25.7766 0.0000
# 4 0.0000 0.0000 0.0000 15.1932 0.0000 -21.2094
# 5 -26.0919 -14.8054 -25.7766 0.0000 27.1894 0.0000
# 6 0.0000 0.0000 0.0000 -21.2094 0.0000 12.4178
#
#
#
# Elastic Compliance Matrix: (Units=1/GPa)
#
#
# Indices 1 2 3 4 5 6 
#
# 1 0.055206 -0.017411 -0.005239 0.000000 0.038530 0.000000
# 2 -0.017411 0.014122 -0.004300 0.000000 -0.013095 0.000000
# 3 -0.005239 -0.004300 0.052394 0.000000 0.042303 0.000000
# 4 0.000000 0.000000 0.000000 -0.047546 0.000000 -0.081208
# 5 0.038530 -0.013095 0.042303 0.000000 0.106728 0.000000
# 6 0.000000 0.000000 0.000000 -0.081208 0.000000 -0.058173
#
#
# Mechanical properties :
#
#
# Convention : Reuss Voigt Hill
#
# Bulk Modulus (GPa) = 14.74463 51.77378 33.25920
# Shear Modulus (GPa) = 25.09543 19.02432 22.05987
#
# Velocity S-wave (km/s) = 3.73287 3.25012 3.49983
# Velocity P-wave (km/s) = 5.17359 6.54461 5.89907
#
# Compressibility (1/GPa) = 0.06782131
#
# Stress axis : x y z
#
# Youngs Moduli (GPa) = 18.11390 70.81302 19.08604
#
# Poissons Ratio (x) = 1.23292 0.09999
# Poissons Ratio (y) = 0.31538 0.08208
# Poissons Ratio (z) = 0.09490 0.30452
#
# Static dielectric constant tensor:
#      x y z
#    x 3.242210 0.000000 -0.263750 
#    y 0.000000 3.499640 0.000000 
#    z -0.263750 0.000000 3.047740 
# 
# 
# High freq. dielectric constant tensor:
#      x y z
#    x 1.658420 0.000000 -0.047130 
#    y 0.000000 1.709140 0.000000 
#    z -0.047130 0.000000 1.661370 
# 
# From -- ./inp_files/26244.got.cif
#   From: 2010.06.25/outbox.cif.g09.slc.cpg/sg12_14_cif.got.tgz:26244.got - 2010.06.28 00:19:55.
