data_PCOD8082397
_publ_section_title
;
Structure prediction by ZEFSAII (Michael W. Deem and Ramdas Pophale) SiO2 
 PCOD8082397
Probable space group: C 2/M
;
_chemical_formula_sum "Si O2"
_cell_formula_units_Z 48
_cell_length_a 14.853171
_cell_length_b 9.537166
_cell_length_c 24.277501
_cell_angle_alpha 90.000000
_cell_angle_beta 50.471021
_cell_angle_gamma 90.000000
_cell_volume 2652.573304
_symmetry_space_group_name_H-M "C 2/M"
_symmetry_group_IT_number 12
_symmetry_cell_setting 'monoclinic'
loop_
_space_group_symop_operation_xyz
x,y,z
-x,y,-z
-x,-y,-z
x,-y,z
1/2+x,1/2+y,z
1/2-x,1/2+y,-z
1/2-x,1/2-y,-z
1/2+x,1/2-y,z
loop_
_atom_site_type_symbol
_atom_site_label
_atom_site_fract_x
_atom_site_fract_y
_atom_site_fract_z
Si Si1 0.994039 0.163162 0.262995
Si Si2 0.652522 0.339851 0.509855
Si Si3 0.233946 0.659653 0.647788
Si Si4 0.079699 0.835991 0.345761
Si Si5 0.654800 0.663255 0.101179
Si Si6 0.886027 0.836316 0.008455
O O1 0.077984 0.198665 0.281709
O O2 0.057202 0.211978 0.182647
O O3 0.876202 0.244753 0.320295
O O4 0.962812 0.000000 0.272946
O O5 0.664044 0.500000 0.525940
O O6 0.750000 0.250000 0.500000
O O7 0.668990 0.329983 0.437941
O O8 0.530134 0.273353 0.577785
O O9 0.189621 0.500000 0.671818
O O10 0.298297 0.720373 0.677190
O O11 0.078616 0.000000 0.358171
O O12 0.686663 0.500000 0.095642
O O13 0.598493 0.693069 0.063000
O O14 0.771835 0.749121 0.070175
O O15 0.861798 0.000000 0.029052
O O16 0.000000 0.788569 0.000000
#
# Coordination Sequence:
#
# PCOD8082397 Si02
#       6
#     8   8   8   8   8   8
#     4  10  20  35  52  72 103 135 162 201 252 298
#     4  10  18  31  52  72  94 127 168 210 249 292
#     4  10  20  33  51  74  97 128 172 210 243 294
#     4   9  18  33  51  70  97 133 166 201 252 301
#     4   9  19  34  52  76 103 132 166 201 241 293
#     4   9  18  34  55  77 102 132 165 201 243 289
#
# _framework density 18.095635999999999
#
# number of rings (size 3 to 8) (size 9 to 14) (size 15 to 20)
#    0.000    2.500    1.667    0.500    0.000    4.333 
#    0.000    1.667    0.000    2.000    0.000    0.000 
#    0.000    0.000    0.000    0.000    0.000    0.000 
#
# Total GULP energy -297473.702627 kJ/mol
# GULP energy per Si atom -12394.737609 kJ/mol
# Density = 1.805445 g / cm^3
# Si number density = 18.095636 Si / 1000 Ang^3
#
#
#
# Elastic Constant Matrix: (Units=GPa)
#
#
# Indices 1 2 3 4 5 6 
#
# 1 113.4785 29.5858 17.4038 0.0000 3.5677 0.0000
# 2 29.5858 39.5927 22.3808 0.0000 0.3686 0.0000
# 3 17.4038 22.3808 76.8387 0.0000 14.3373 0.0000
# 4 0.0000 0.0000 0.0000 25.2744 0.0000 -5.2350
# 5 3.5677 0.3686 14.3373 0.0000 21.1186 0.0000
# 6 0.0000 0.0000 0.0000 -5.2350 0.0000 22.8988
#
#
#
# Elastic Compliance Matrix: (Units=1/GPa)
#
#
# Indices 1 2 3 4 5 6 
#
# 1 0.011011 -0.008384 0.000306 0.000000 -0.001922 0.000000
# 2 -0.008384 0.037354 -0.010447 0.000000 0.007857 0.000000
# 3 0.000306 -0.010447 0.018279 0.000000 -0.012279 0.000000
# 4 0.000000 0.000000 0.000000 0.041532 0.000000 0.009495
# 5 -0.001922 0.007857 -0.012279 0.000000 0.055875 0.000000
# 6 0.000000 0.000000 0.000000 0.009495 0.000000 0.045841
#
#
# Mechanical properties :
#
#
# Convention : Reuss Voigt Hill
#
# Bulk Modulus (GPa) = 33.78872 40.96119 37.37496
# Shear Modulus (GPa) = 19.46983 24.56101 22.01542
#
# Velocity S-wave (km/s) = 3.28371 3.68814 3.49178
# Velocity P-wave (km/s) = 5.75238 6.38918 6.07912
#
# Compressibility (1/GPa) = 0.02959568
#
# Stress axis : x y z
#
# Youngs Moduli (GPa) = 90.81464 26.77060 54.70766
#
# Poissons Ratio (x) = 0.22444 -0.01677
# Poissons Ratio (y) = 0.76136 0.57155
# Poissons Ratio (z) = -0.02783 0.27968
#
# Static dielectric constant tensor:
#      x y z
#    x 3.584770 0.000000 0.171050 
#    y 0.000000 3.157240 0.000000 
#    z 0.171050 0.000000 3.385990 
# 
# 
# High freq. dielectric constant tensor:
#      x y z
#    x 1.710840 0.000000 0.008120 
#    y 0.000000 1.678100 0.000000 
#    z 0.008120 0.000000 1.695850 
# 
# From -- ./inp_files/261639.got.cif
#   From: 2010.06.25/outbox.cif.g09.slc.cpg/sg12_131_cif.got.tgz:261639.got - 2010.06.28 00:19:55.
