data_PCOD8082115
_publ_section_title
;
Structure prediction by ZEFSAII (Michael W. Deem and Ramdas Pophale) SiO2 
 PCOD8082115
Probable space group: C 2/M
;
_chemical_formula_sum "Si O2"
_cell_formula_units_Z 48
_cell_length_a 28.022269
_cell_length_b 8.863685
_cell_length_c 31.261605
_cell_angle_alpha 90.000000
_cell_angle_beta 155.861051
_cell_angle_gamma 90.000000
_cell_volume 3175.411776
_symmetry_space_group_name_H-M "C 2/M"
_symmetry_group_IT_number 12
_symmetry_cell_setting 'monoclinic'
loop_
_space_group_symop_operation_xyz
x,y,z
-x,y,-z
-x,-y,-z
x,-y,z
1/2+x,1/2+y,z
1/2-x,1/2+y,-z
1/2-x,1/2-y,-z
1/2+x,1/2-y,z
loop_
_atom_site_type_symbol
_atom_site_label
_atom_site_fract_x
_atom_site_fract_y
_atom_site_fract_z
Si Si1 0.711986 0.178533 0.513075
Si Si2 0.026659 0.828973 0.410829
Si Si3 0.775018 0.821235 0.231993
Si Si4 0.357886 0.322903 0.798999
Si Si5 0.234347 0.671365 0.360303
Si Si6 0.936663 0.334036 0.993250
O O1 0.750000 0.250000 0.500000
O O2 0.577363 0.227430 0.413241
O O3 0.795614 0.246843 0.618926
O O4 0.723840 0.000000 0.520919
O O5 0.123608 0.827534 0.528354
O O6 0.905194 0.761992 0.328821
O O7 0.007561 0.000000 0.378480
O O8 0.730484 0.744716 0.238729
O O9 0.694516 0.777035 0.125019
O O10 0.770981 0.000000 0.236585
O O11 0.345202 0.500000 0.789467
O O12 0.325494 0.262842 0.726165
O O13 0.492970 0.279602 0.918718
O O14 0.186849 0.500000 0.321875
O O15 0.934164 0.500000 0.012920
O O16 0.000000 0.346360 0.000000
#
# Coordination Sequence:
#
# PCOD8082115 Si02
#       6
#     8   8   8   8   8   8
#     4  10  18  31  49  69  92 115 143 179 221 267
#     4   8  17  31  47  67  89 116 150 184 222 265
#     4   9  17  31  47  63  88 122 157 188 220 261
#     4  11  20  28  41  64  94 123 153 189 224 259
#     4   9  18  32  47  65  89 117 152 184 220 266
#     4   8  15  28  45  61  81 117 159 190 218 256
#
# _framework density 15.116149999999999
#
# number of rings (size 3 to 8) (size 9 to 14) (size 15 to 20)
#    1.000    1.833    0.000    4.000    0.000    4.333 
#    0.000    3.333    0.000    0.000    0.000    1.167 
#    0.000    0.000    0.000    0.000    0.000    0.000 
#
# Total GULP energy -297322.700121 kJ/mol
# GULP energy per Si atom -12388.445838 kJ/mol
# Density = 1.508174 g / cm^3
# Si number density = 15.116150 Si / 1000 Ang^3
#
#
#
# Elastic Constant Matrix: (Units=GPa)
#
#
# Indices 1 2 3 4 5 6 
#
# 1 75.6253 44.2240 40.5015 0.0001 -22.0564 0.0000
# 2 44.2240 94.5545 34.7484 0.0003 -11.9572 -0.0002
# 3 40.5015 34.7484 78.3203 0.0005 -19.8712 0.0001
# 4 0.0001 0.0003 0.0005 19.2070 0.0002 -4.1390
# 5 -22.0564 -11.9572 -19.8712 0.0002 9.1328 0.0001
# 6 0.0000 -0.0002 0.0001 -4.1390 0.0001 23.7186
#
#
#
# Elastic Compliance Matrix: (Units=1/GPa)
#
#
# Indices 1 2 3 4 5 6 
#
# 1 0.059178 -0.013274 0.015936 -0.000002 0.160213 -0.000001
# 2 -0.013274 0.016011 -0.006818 0.000000 -0.025931 0.000000
# 3 0.015936 -0.006818 0.033601 -0.000002 0.102670 -0.000001
# 4 -0.000002 0.000000 -0.000002 0.054099 -0.000011 0.009440
# 5 0.160213 -0.025931 0.102670 -0.000011 0.685861 -0.000005
# 6 -0.000001 0.000000 -0.000001 0.009440 -0.000005 0.043808
#
#
# Mechanical properties :
#
#
# Convention : Reuss Voigt Hill
#
# Bulk Modulus (GPa) = 9.95255 54.16088 32.05671
# Shear Modulus (GPa) = 5.35124 19.01342 12.18233
#
# Velocity S-wave (km/s) = 1.88355 3.55043 2.84194
# Velocity P-wave (km/s) = 3.36581 7.26051 5.65878
#
# Compressibility (1/GPa) = 0.10047680
#
# Stress axis : x y z
#
# Youngs Moduli (GPa) = 16.89826 62.45779 29.76061
#
# Poissons Ratio (x) = 0.82907 -0.47426
# Poissons Ratio (y) = 0.22431 0.20292
# Poissons Ratio (z) = -0.26929 0.42585
#
# Static dielectric constant tensor:
#      x y z
#    x 2.623320 0.000000 0.061930 
#    y 0.000000 2.927830 0.000000 
#    z 0.061930 0.000000 3.157680 
# 
# 
# High freq. dielectric constant tensor:
#      x y z
#    x 1.539040 0.000000 -0.005430 
#    y 0.000000 1.584740 0.000000 
#    z -0.005430 0.000000 1.572830 
# 
# From -- ./inp_files/367222.got.cif
#   From: 2010.06.25/outbox.cif.g09.slc.cpg/sg12_184_cif.got.tgz:367222.got - 2010.06.28 00:19:55.
