data_PCOD8082220
_publ_section_title
;
Structure prediction by ZEFSAII (Michael W. Deem and Ramdas Pophale) SiO2 
 PCOD8082220
Probable space group: C 2/M
;
_chemical_formula_sum "Si O2"
_cell_formula_units_Z 48
_cell_length_a 20.136365
_cell_length_b 9.414012
_cell_length_c 28.236341
_cell_angle_alpha 90.000000
_cell_angle_beta 154.170567
_cell_angle_gamma 90.000000
_cell_volume 2332.090283
_symmetry_space_group_name_H-M "C 2/M"
_symmetry_group_IT_number 12
_symmetry_cell_setting 'monoclinic'
loop_
_space_group_symop_operation_xyz
x,y,z
-x,y,-z
-x,-y,-z
x,-y,z
1/2+x,1/2+y,z
1/2-x,1/2+y,-z
1/2-x,1/2-y,-z
1/2+x,1/2-y,z
loop_
_atom_site_type_symbol
_atom_site_label
_atom_site_fract_x
_atom_site_fract_y
_atom_site_fract_z
Si Si1 0.943333 0.162706 0.293390
Si Si2 0.941246 0.161937 0.730267
Si Si3 0.606378 0.834372 0.212292
Si Si4 0.115919 0.332592 0.112744
Si Si5 0.344785 0.837178 0.513760
Si Si6 0.390567 0.152945 0.386142
O O1 0.787763 0.230036 0.215576
O O2 0.928778 0.175480 0.226735
O O3 0.111678 0.234996 0.413342
O O4 0.960164 0.000000 0.320217
O O5 0.986405 0.253987 0.805619
O O6 0.781333 0.215581 0.604729
O O7 0.923543 0.000000 0.736000
O O8 0.548597 0.798448 0.121859
O O9 0.780283 0.784148 0.324905
O O10 0.596615 0.000000 0.216870
O O11 0.128976 0.500000 0.112739
O O12 0.000000 0.265269 0.000000
O O13 0.511055 0.820510 0.597188
O O14 0.310392 0.000000 0.507099
O O15 0.500000 0.140166 0.500000
O O16 0.303193 0.000000 0.325185
#
# Coordination Sequence:
#
# PCOD8082220 Si02
#       6
#     8   8   8   8   8   8
#     4  10  20  35  56  79 105 141 182 220 254 306
#     4  10  21  36  52  76 113 149 175 203 259 324
#     4  11  21  33  54  80 104 135 178 226 261 301
#     4   9  19  37  58  79 102 131 173 224 276 317
#     4  10  19  31  50  76 110 149 175 205 256 311
#     4  10  18  31  50  73 108 148 175 204 257 317
#
# _framework density 20.582393
#
# number of rings (size 3 to 8) (size 9 to 14) (size 15 to 20)
#    0.000    2.000    3.333    1.000    0.000    1.667 
#    0.000    0.833    0.000    4.500    0.000    0.000 
#    0.000    0.000    0.000    0.000    0.000    0.000 
#
# Total GULP energy -297330.731295 kJ/mol
# GULP energy per Si atom -12388.780471 kJ/mol
# Density = 2.053555 g / cm^3
# Si number density = 20.582393 Si / 1000 Ang^3
#
#
#
# Elastic Constant Matrix: (Units=GPa)
#
#
# Indices 1 2 3 4 5 6 
#
# 1 77.8879 31.3193 12.6049 0.0011 -23.6303 0.0003
# 2 31.3193 61.8583 23.5812 0.0008 -18.9200 0.0002
# 3 12.6049 23.5812 74.6048 0.0054 -17.3201 0.0017
# 4 0.0011 0.0008 0.0054 15.8295 0.0012 -4.0953
# 5 -23.6303 -18.9200 -17.3201 0.0012 27.3562 0.0001
# 6 0.0003 0.0002 0.0017 -4.0953 0.0001 30.3326
#
#
#
# Elastic Compliance Matrix: (Units=1/GPa)
#
#
# Indices 1 2 3 4 5 6 
#
# 1 0.019120 -0.006313 0.001859 -0.000003 0.013326 -0.000001
# 2 -0.006313 0.023517 -0.004521 0.000000 0.007949 0.000000
# 3 0.001859 -0.004521 0.016607 -0.000007 0.008993 -0.000002
# 4 -0.000003 0.000000 -0.000007 0.065460 -0.000009 0.008838
# 5 0.013326 0.007949 0.008993 -0.000009 0.059257 -0.000002
# 6 -0.000001 0.000000 -0.000002 0.008838 -0.000002 0.034161
#
#
# Mechanical properties :
#
#
# Convention : Reuss Voigt Hill
#
# Bulk Modulus (GPa) = 24.21736 38.81798 31.51767
# Shear Modulus (GPa) = 20.01303 24.49337 22.25320
#
# Velocity S-wave (km/s) = 3.12162 3.45340 3.29169
# Velocity P-wave (km/s) = 4.97838 5.89933 5.45831
#
# Compressibility (1/GPa) = 0.04129269
#
# Stress axis : x y z
#
# Youngs Moduli (GPa) = 52.30191 42.52207 60.21632
#
# Poissons Ratio (x) = 0.26845 -0.11193
# Poissons Ratio (y) = 0.33019 0.27226
# Poissons Ratio (z) = -0.09722 0.19226
#
# Static dielectric constant tensor:
#      x y z
#    x 4.224560 0.000000 -0.076920 
#    y 0.000000 3.699090 0.000000 
#    z -0.076920 0.000000 3.523420 
# 
# 
# High freq. dielectric constant tensor:
#      x y z
#    x 1.832900 0.000000 -0.008080 
#    y 0.000000 1.777480 0.000000 
#    z -0.008080 0.000000 1.766250 
# 
# From -- ./inp_files/230432.got.cif
#   From: 2010.06.25/outbox.cif.g09.slc.cpg/sg12_116_cif.got.tgz:230432.got - 2010.06.28 00:19:55.
