data_PCOD8082860
_publ_section_title
;
Structure prediction by ZEFSAII (Michael W. Deem and Ramdas Pophale) SiO2 
 PCOD8082860
Probable space group: C 2/M
;
_chemical_formula_sum "Si O2"
_cell_formula_units_Z 56
_cell_length_a 28.643481
_cell_length_b 9.777317
_cell_length_c 17.333472
_cell_angle_alpha 90.000000
_cell_angle_beta 140.552841
_cell_angle_gamma 90.000000
_cell_volume 3084.290277
_symmetry_space_group_name_H-M "C 2/M"
_symmetry_group_IT_number 12
_symmetry_cell_setting 'monoclinic'
loop_
_space_group_symop_operation_xyz
x,y,z
-x,y,-z
-x,-y,-z
x,-y,z
1/2+x,1/2+y,z
1/2-x,1/2+y,-z
1/2-x,1/2-y,-z
1/2+x,1/2-y,z
loop_
_atom_site_type_symbol
_atom_site_label
_atom_site_fract_x
_atom_site_fract_y
_atom_site_fract_z
Si Si1 0.039982 0.148538 0.838445
Si Si2 0.706446 0.148707 0.160601
Si Si3 0.458154 0.156168 0.021291
Si Si4 0.457003 0.342267 0.577698
Si Si5 0.164841 0.340779 0.644549
Si Si6 0.824008 0.282745 0.048563
Si Si7 0.080122 0.352552 0.691046
O O1 0.978866 0.162959 0.694573
O O2 0.018546 0.260995 0.873488
O O3 0.123503 0.156955 0.910945
O O4 0.034147 0.000000 0.869954
O O5 0.754518 0.274776 0.252006
O O6 0.739257 0.000000 0.226962
O O7 0.628655 0.170575 0.102965
O O8 0.697514 0.138019 0.056416
O O9 0.481711 0.000000 0.066257
O O10 0.500000 0.215191 0.000000
O O11 0.446813 0.500000 0.536610
O O12 0.384089 0.251198 0.475106
O O13 0.521526 0.269465 0.610933
O O14 0.168014 0.500000 0.622009
O O15 0.137613 0.325416 0.696937
O O16 0.876033 0.367426 0.172704
O O17 0.750000 0.250000 0.000000
O O18 0.039977 0.500000 0.627768
#
# Coordination Sequence:
#
# PCOD8082860 Si02
#       7
#     8   8   8   8   8   8   8
#     4   9  20  34  53  80 106 134 174 219 262 307
#     4  10  20  33  52  78 105 138 175 211 259 314
#     4   9  19  37  60  84 109 136 167 207 261 324
#     4  10  21  36  51  71 100 138 181 222 258 302
#     4  11  22  34  49  71 102 140 178 222 262 302
#     4  10  18  32  48  74 106 144 175 213 255 309
#     4  10  20  33  48  70  99 139 184 223 259 301
#
# _framework density 18.156527000000001
#
# number of rings (size 3 to 8) (size 9 to 14) (size 15 to 20)
#    0.000    2.143    1.429    1.714    0.000   10.571 
#    0.000    0.000    0.000    0.857    0.000    0.000 
#    0.000    0.000    0.000    0.000    0.000    0.000 
#
# Total GULP energy -346966.949187 kJ/mol
# GULP energy per Si atom -12391.676757 kJ/mol
# Density = 1.811520 g / cm^3
# Si number density = 18.156527 Si / 1000 Ang^3
#
#
#
# Elastic Constant Matrix: (Units=GPa)
#
#
# Indices 1 2 3 4 5 6 
#
# 1 102.1171 41.3355 28.3135 0.0000 5.1747 0.0000
# 2 41.3355 145.9764 54.5170 0.0000 3.2364 0.0000
# 3 28.3135 54.5170 84.1621 0.0000 7.3458 0.0000
# 4 0.0000 0.0000 0.0000 24.6617 0.0000 -0.3164
# 5 5.1747 3.2364 7.3458 0.0000 13.6168 0.0000
# 6 0.0000 0.0000 0.0000 -0.3164 0.0000 19.2245
#
#
#
# Elastic Compliance Matrix: (Units=1/GPa)
#
#
# Indices 1 2 3 4 5 6 
#
# 1 0.011480 -0.002422 -0.002059 0.000000 -0.002676 0.000000
# 2 -0.002422 0.009562 -0.005521 0.000000 0.001626 0.000000
# 3 -0.002059 -0.005521 0.016757 0.000000 -0.006945 0.000000
# 4 0.000000 0.000000 0.000000 0.040557 0.000000 0.000668
# 5 -0.002676 0.001626 -0.006945 0.000000 0.077816 0.000000
# 6 0.000000 0.000000 0.000000 0.000668 0.000000 0.052028
#
#
# Mechanical properties :
#
#
# Convention : Reuss Voigt Hill
#
# Bulk Modulus (GPa) = 56.19963 64.50972 60.35468
# Shear Modulus (GPa) = 21.35502 25.37323 23.36413
#
# Velocity S-wave (km/s) = 3.43324 3.74233 3.59111
# Velocity P-wave (km/s) = 6.83639 7.36752 7.10692
#
# Compressibility (1/GPa) = 0.01779371
#
# Stress axis : x y z
#
# Youngs Moduli (GPa) = 87.10984 104.57852 59.67588
#
# Poissons Ratio (x) = 0.25331 0.12290
# Poissons Ratio (y) = 0.21100 0.32948
# Poissons Ratio (z) = 0.17939 0.57739
#
# Static dielectric constant tensor:
#      x y z
#    x 3.111130 0.000000 0.022040 
#    y 0.000000 3.552680 0.000000 
#    z 0.022040 0.000000 3.376660 
# 
# 
# High freq. dielectric constant tensor:
#      x y z
#    x 1.667110 0.000000 0.000870 
#    y 0.000000 1.714240 0.000000 
#    z 0.000870 0.000000 1.701080 
# 
# From -- ./inp_files/292535.got.cif
#   From: 2010.06.25/outbox.cif.g09.slc.cpg/sg12_147_cif.got.tgz:292535.got - 2010.06.28 00:19:55.
