data_PCOD8082825
_publ_section_title
;
Structure prediction by ZEFSAII (Michael W. Deem and Ramdas Pophale) SiO2 
 PCOD8082825
Probable space group: C 2/M
;
_chemical_formula_sum "Si O2"
_cell_formula_units_Z 48
_cell_length_a 15.338327
_cell_length_b 17.619375
_cell_length_c 22.336309
_cell_angle_alpha 90.000000
_cell_angle_beta 155.518789
_cell_angle_gamma 90.000000
_cell_volume 2501.463757
_symmetry_space_group_name_H-M "C 2/M"
_symmetry_group_IT_number 12
_symmetry_cell_setting 'monoclinic'
loop_
_space_group_symop_operation_xyz
x,y,z
-x,y,-z
-x,-y,-z
x,-y,z
1/2+x,1/2+y,z
1/2-x,1/2+y,-z
1/2-x,1/2-y,-z
1/2+x,1/2-y,z
loop_
_atom_site_type_symbol
_atom_site_label
_atom_site_fract_x
_atom_site_fract_y
_atom_site_fract_z
Si Si1 0.963948 0.208628 0.880293
Si Si2 0.278377 0.914021 0.335034
Si Si3 0.804413 0.352046 0.842766
Si Si4 0.780714 0.088002 0.340771
Si Si5 0.880780 0.334110 0.104997
Si Si6 0.875051 0.912983 0.159759
O O1 0.793838 0.142416 0.763182
O O2 0.865822 0.263818 0.868787
O O3 0.023128 0.252703 0.855360
O O4 0.197656 0.173205 0.041773
O O5 0.500000 0.886484 0.500000
O O6 0.110851 0.909511 0.283240
O O7 0.294468 0.000000 0.319495
O O8 0.747288 0.394296 0.746491
O O9 0.617672 0.362950 0.774263
O O10 0.000000 0.391392 0.000000
O O11 0.582891 0.119725 0.255638
O O12 0.000000 0.125489 0.500000
O O13 0.789251 0.000000 0.358320
O O14 0.792271 0.377806 0.991212
O O15 0.810087 0.000000 0.131807
#
# Coordination Sequence:
#
# PCOD8082825 Si02
#       6
#     8   8   8   8   8   8
#     4   9  18  31  50  77 109 139 179 224 268 328
#     4   9  19  36  58  80 106 144 189 233 271 322
#     4  11  20  33  55  84 114 143 175 230 282 325
#     4  10  20  32  50  79 117 151 181 223 277 331
#     4   9  17  31  51  75 108 149 179 220 266 326
#     4  10  18  31  57  89 109 135 186 236 275 314
#
# _framework density 19.188765
#
# number of rings (size 3 to 8) (size 9 to 14) (size 15 to 20)
#    0.000    2.333    3.333    1.000    0.000    4.000 
#    0.000    0.833    3.667    0.500    0.000    0.000 
#    0.000    0.000    0.000    0.000    0.000    0.167 
#
# Total GULP energy -297320.067863 kJ/mol
# GULP energy per Si atom -12388.336161 kJ/mol
# Density = 1.914509 g / cm^3
# Si number density = 19.188765 Si / 1000 Ang^3
#
#
#
# Elastic Constant Matrix: (Units=GPa)
#
#
# Indices 1 2 3 4 5 6 
#
# 1 41.7898 27.9618 11.1164 0.0189 7.2153 0.0005
# 2 27.9618 92.3486 48.7902 0.0446 10.8593 0.0053
# 3 11.1164 48.7902 136.5706 0.0738 13.1268 0.0020
# 4 0.0189 0.0446 0.0738 27.0101 -0.0112 3.3267
# 5 7.2153 10.8593 13.1268 -0.0112 18.8581 -0.0065
# 6 0.0005 0.0053 0.0020 3.3267 -0.0065 30.6625
#
#
#
# Elastic Compliance Matrix: (Units=1/GPa)
#
#
# Indices 1 2 3 4 5 6 
#
# 1 0.031071 -0.009325 0.001531 -0.000014 -0.007584 0.000001
# 2 -0.009325 0.016543 -0.004907 -0.000008 -0.002543 -0.000002
# 3 0.001531 -0.004907 0.009362 -0.000021 -0.004277 0.000002
# 4 -0.000014 -0.000008 -0.000021 0.037525 0.000045 -0.004071
# 5 -0.007584 -0.002543 -0.004277 0.000045 0.060371 0.000009
# 6 0.000001 -0.000002 0.000002 -0.004071 0.000009 0.033055
#
#
# Mechanical properties :
#
#
# Convention : Reuss Voigt Hill
#
# Bulk Modulus (GPa) = 31.67057 49.60508 40.63783
# Shear Modulus (GPa) = 22.33619 27.49553 24.91586
#
# Velocity S-wave (km/s) = 3.41548 3.78947 3.60733
# Velocity P-wave (km/s) = 5.66521 6.71223 6.21082
#
# Compressibility (1/GPa) = 0.03157505
#
# Stress axis : x y z
#
# Youngs Moduli (GPa) = 32.18456 60.44717 106.81928
#
# Poissons Ratio (x) = 0.56367 -0.16357
# Poissons Ratio (y) = 0.30012 0.52413
# Poissons Ratio (z) = -0.04928 0.29660
#
# Static dielectric constant tensor:
#      x y z
#    x 3.337270 -0.000010 0.377240 
#    y -0.000010 3.742360 -0.000050 
#    z 0.377240 -0.000050 3.752840 
# 
# 
# High freq. dielectric constant tensor:
#      x y z
#    x 1.709360 0.000000 0.027170 
#    y 0.000000 1.752940 -0.000010 
#    z 0.027170 -0.000010 1.740260 
# 
# From -- ./inp_files/364388.got.cif
#   From: 2010.06.25/outbox.cif.g09.slc.cpg/sg12_183_cif.got.tgz:364388.got - 2010.06.28 00:19:55.
