data_PCOD8082646
_publ_section_title
;
Structure prediction by ZEFSAII (Michael W. Deem and Ramdas Pophale) SiO2 
 PCOD8082646
Probable space group: C 2/M
;
_chemical_formula_sum "Si O2"
_cell_formula_units_Z 56
_cell_length_a 15.407234
_cell_length_b 9.316662
_cell_length_c 26.534345
_cell_angle_alpha 90.000000
_cell_angle_beta 53.205922
_cell_angle_gamma 90.000000
_cell_volume 3050.098119
_symmetry_space_group_name_H-M "C 2/M"
_symmetry_group_IT_number 12
_symmetry_cell_setting 'monoclinic'
loop_
_space_group_symop_operation_xyz
x,y,z
-x,y,-z
-x,-y,-z
x,-y,z
1/2+x,1/2+y,z
1/2-x,1/2+y,-z
1/2-x,1/2-y,-z
1/2+x,1/2-y,z
loop_
_atom_site_type_symbol
_atom_site_label
_atom_site_fract_x
_atom_site_fract_y
_atom_site_fract_z
Si Si1 0.470104 0.168496 0.791231
Si Si2 0.549490 0.331356 0.858996
Si Si3 0.773275 0.830578 0.127928
Si Si4 0.585877 0.831346 0.646748
Si Si5 0.157003 0.167282 0.004297
Si Si6 0.491232 0.329934 0.421687
Si Si7 0.169962 0.169654 0.436187
O O1 0.535700 0.245928 0.812399
O O2 0.348306 0.233065 0.830876
O O3 0.529615 0.204197 0.718826
O O4 0.469380 0.000000 0.803211
O O5 0.549722 0.500000 0.846803
O O6 0.662100 0.278255 0.845024
O O7 0.457226 0.292367 0.931582
O O8 0.840817 0.784880 0.054888
O O9 0.764252 0.000000 0.133833
O O10 0.517091 0.751670 0.628029
O O11 0.708291 0.768316 0.606466
O O12 0.585447 0.000000 0.635047
O O13 0.182278 0.000000 0.000696
O O14 0.250000 0.250000 0.000000
O O15 0.490260 0.500000 0.412603
O O16 0.390414 0.281611 0.491826
O O17 0.602413 0.279563 0.410497
O O18 0.173484 0.000000 0.433158
#
# Coordination Sequence:
#
# PCOD8082646 Si02
#       7
#     8   8   8   8   8   8   8
#     4  10  21  36  51  70 101 138 165 198 250 298
#     4  10  20  34  54  76  96 127 171 209 240 287
#     4   9  18  34  53  72  99 132 163 198 248 301
#     4  10  20  33  50  73 102 133 165 201 248 297
#     4  10  18  31  54  77  99 126 160 204 250 292
#     4   9  17  32  54  75  97 130 168 204 244 290
#     4   8  16  32  52  74 101 131 163 201 248 299
#
# _framework density 18.360064000000001
#
# number of rings (size 3 to 8) (size 9 to 14) (size 15 to 20)
#    0.000    2.571    1.429    1.714    0.000    3.429 
#    0.000    3.571    0.000    1.714    0.000    0.000 
#    0.000    0.000    0.000    0.000    0.000    0.000 
#
# Total GULP energy -347140.437626 kJ/mol
# GULP energy per Si atom -12397.872772 kJ/mol
# Density = 1.831828 g / cm^3
# Si number density = 18.360064 Si / 1000 Ang^3
#
#
#
# Elastic Constant Matrix: (Units=GPa)
#
#
# Indices 1 2 3 4 5 6 
#
# 1 118.7946 30.1547 45.7108 0.0000 29.9822 -0.0001
# 2 30.1547 29.2175 33.4108 0.0000 12.9794 -0.0001
# 3 45.7108 33.4108 94.2761 0.0000 23.4059 0.0000
# 4 0.0000 0.0000 0.0000 11.6441 0.0000 3.2733
# 5 29.9822 12.9794 23.4059 0.0000 28.5645 0.0000
# 6 -0.0001 -0.0001 0.0000 3.2733 0.0000 27.3665
#
#
#
# Elastic Compliance Matrix: (Units=1/GPa)
#
#
# Indices 1 2 3 4 5 6 
#
# 1 0.013310 -0.008206 -0.001259 0.000000 -0.009210 0.000000
# 2 -0.008206 0.065988 -0.017703 0.000000 -0.006866 0.000000
# 3 -0.001259 -0.017703 0.019039 0.000000 -0.006236 0.000000
# 4 0.000000 0.000000 0.000000 0.088869 0.000000 -0.010630
# 5 -0.009210 -0.006866 -0.006236 0.000000 0.052905 0.000000
# 6 0.000000 0.000000 0.000000 -0.010630 0.000000 0.037812
#
#
# Mechanical properties :
#
#
# Convention : Reuss Voigt Hill
#
# Bulk Modulus (GPa) = 22.72562 51.20455 36.96508
# Shear Modulus (GPa) = 14.41232 22.38249 18.39741
#
# Velocity S-wave (km/s) = 2.80479 3.49533 3.16893
# Velocity P-wave (km/s) = 4.78474 6.65127 5.79367
#
# Compressibility (1/GPa) = 0.04400321
#
# Stress axis : x y z
#
# Youngs Moduli (GPa) = 75.13307 15.15420 52.52317
#
# Poissons Ratio (x) = 0.12435 0.06611
# Poissons Ratio (y) = 0.61653 0.92979
# Poissons Ratio (z) = 0.09456 0.26827
#
# Static dielectric constant tensor:
#      x y z
#    x 3.756130 0.000000 -0.389290 
#    y 0.000000 2.786830 0.000000 
#    z -0.389290 0.000000 3.747360 
# 
# 
# High freq. dielectric constant tensor:
#      x y z
#    x 1.726710 0.000000 0.001720 
#    y 0.000000 1.673140 0.000000 
#    z 0.001720 0.000000 1.712740 
# 
# From -- ./inp_files/304227.got.cif
#   From: 2010.06.25/outbox.cif.g09.slc.cpg/sg12_153_cif.got.tgz:304227.got - 2010.06.28 00:19:55.
