data_PCOD8082637
_publ_section_title
;
Structure prediction by ZEFSAII (Michael W. Deem and Ramdas Pophale) SiO2 
 PCOD8082637
Probable space group: C 2/M
;
_chemical_formula_sum "Si O2"
_cell_formula_units_Z 44
_cell_length_a 11.416660
_cell_length_b 27.087837
_cell_length_c 15.897783
_cell_angle_alpha 90.000000
_cell_angle_beta 151.858932
_cell_angle_gamma 90.000000
_cell_volume 2318.805458
_symmetry_space_group_name_H-M "C 2/M"
_symmetry_group_IT_number 12
_symmetry_cell_setting 'monoclinic'
loop_
_space_group_symop_operation_xyz
x,y,z
-x,y,-z
-x,-y,-z
x,-y,z
1/2+x,1/2+y,z
1/2-x,1/2+y,-z
1/2-x,1/2-y,-z
1/2+x,1/2-y,z
loop_
_atom_site_type_symbol
_atom_site_label
_atom_site_fract_x
_atom_site_fract_y
_atom_site_fract_z
Si Si1 0.211039 0.852354 0.336418
Si Si2 0.000000 0.209594 0.500000
Si Si3 0.781712 0.218304 0.802394
Si Si4 0.027097 0.945912 0.152182
Si Si5 0.352483 0.157430 0.602110
Si Si6 0.089045 0.445069 0.754307
O O1 0.500000 0.861437 0.500000
O O2 0.096394 0.815809 0.193707
O O3 0.064097 0.904075 0.245473
O O4 0.186607 0.829572 0.414342
O O5 0.884567 0.241157 0.350555
O O6 0.784282 0.175458 0.400942
O O7 0.614991 0.185317 0.759570
O O8 0.000000 0.240848 0.000000
O O9 0.229694 0.935954 0.208831
O O10 0.069153 0.000000 0.219299
O O11 0.750343 0.942244 0.941118
O O12 0.384962 0.098067 0.627548
O O13 0.966121 0.500000 0.670219
#
# Coordination Sequence:
#
# PCOD8082637 Si02
#       6
#     8   4   8   8   8   8
#     4  10  18  31  53  84 115 146 178 233 287 341
#     4  12  26  44  55  82 117 156 202 236 274 342
#     4  11  22  40  64  85 112 147 189 243 300 332
#     4   9  16  28  51  87 118 140 180 234 291 343
#     4  11  22  39  59  83 120 149 191 241 280 344
#     4   9  17  31  54  84 115 148 183 228 285 342
#
# _framework density 18.975287999999999
#
# number of rings (size 3 to 8) (size 9 to 14) (size 15 to 20)
#    0.000    1.818    6.364    2.727    0.000    1.818 
#    3.273    0.455    0.000    0.000    0.000    2.545 
#    0.000    0.000    0.000    0.000    0.000    0.000 
#
# Total GULP energy -272674.060072 kJ/mol
# GULP energy per Si atom -12394.275458 kJ/mol
# Density = 1.893210 g / cm^3
# Si number density = 18.975288 Si / 1000 Ang^3
#
#
#
# Elastic Constant Matrix: (Units=GPa)
#
#
# Indices 1 2 3 4 5 6 
#
# 1 59.1887 35.5486 13.0961 -0.0005 -0.0700 -0.0054
# 2 35.5486 99.5864 30.3550 -0.0001 3.9241 0.0009
# 3 13.0961 30.3550 87.4271 0.0013 -12.9537 -0.0062
# 4 -0.0005 -0.0001 0.0013 21.3188 0.0008 1.3665
# 5 -0.0700 3.9241 -12.9537 0.0008 12.3091 -0.0031
# 6 -0.0054 0.0009 -0.0062 1.3665 -0.0031 5.0612
#
#
#
# Elastic Compliance Matrix: (Units=1/GPa)
#
#
# Indices 1 2 3 4 5 6 
#
# 1 0.021591 -0.007743 -0.000192 -0.000001 0.002389 0.000026
# 2 -0.007743 0.014939 -0.005615 0.000002 -0.010715 -0.000025
# 3 -0.000192 -0.005615 0.016209 -0.000004 0.018846 0.000033
# 4 -0.000001 0.000002 -0.000004 0.047733 -0.000011 -0.012888
# 5 0.002389 -0.010715 0.018846 -0.000011 0.104504 0.000094
# 6 0.000026 -0.000025 0.000033 -0.012888 0.000094 0.201061
#
#
# Mechanical properties :
#
#
# Convention : Reuss Voigt Hill
#
# Bulk Modulus (GPa) = 39.00190 44.91128 41.95659
# Shear Modulus (GPa) = 11.32038 18.88465 15.10251
#
# Velocity S-wave (km/s) = 2.44516 3.15814 2.82424
# Velocity P-wave (km/s) = 5.34513 6.08425 5.72663
#
# Compressibility (1/GPa) = 0.02563978
#
# Stress axis : x y z
#
# Youngs Moduli (GPa) = 46.31640 66.93873 61.69542
#
# Poissons Ratio (x) = 0.51829 0.01184
# Poissons Ratio (y) = 0.35861 0.34640
# Poissons Ratio (z) = 0.00889 0.37584
#
# Static dielectric constant tensor:
#      x y z
#    x 3.042160 0.000000 -0.294480 
#    y 0.000000 3.640620 0.000000 
#    z -0.294480 0.000000 3.493410 
# 
# 
# High freq. dielectric constant tensor:
#      x y z
#    x 1.673770 0.000000 -0.024680 
#    y 0.000000 1.746140 0.000000 
#    z -0.024680 0.000000 1.731810 
# 
# From -- ./inp_files/209227.got.cif
#   From: 2010.06.25/outbox.cif.g09.slc.cpg/sg12_105_cif.got.tgz:209227.got - 2010.06.28 00:19:55.
