data_PCOD8082742
_publ_section_title
;
Structure prediction by ZEFSAII (Michael W. Deem and Ramdas Pophale) SiO2 
 PCOD8082742
Probable space group: C 2/M
;
_chemical_formula_sum "Si O2"
_cell_formula_units_Z 56
_cell_length_a 8.949689
_cell_length_b 18.091918
_cell_length_c 29.209966
_cell_angle_alpha 90.000000
_cell_angle_beta 42.019074
_cell_angle_gamma 90.000000
_cell_volume 3165.884147
_symmetry_space_group_name_H-M "C 2/M"
_symmetry_group_IT_number 12
_symmetry_cell_setting 'monoclinic'
loop_
_space_group_symop_operation_xyz
x,y,z
-x,y,-z
-x,-y,-z
x,-y,z
1/2+x,1/2+y,z
1/2-x,1/2+y,-z
1/2-x,1/2-y,-z
1/2+x,1/2-y,z
loop_
_atom_site_type_symbol
_atom_site_label
_atom_site_fract_x
_atom_site_fract_y
_atom_site_fract_z
Si Si1 0.760763 0.415184 0.431887
Si Si2 0.791253 0.700782 0.152134
Si Si3 0.561500 0.690244 0.038089
Si Si4 0.579457 0.081923 0.033121
Si Si5 0.039980 0.303607 0.543334
Si Si6 0.649893 0.197008 0.662843
Si Si7 0.828771 0.258224 0.243870
O O1 0.500000 0.406856 0.500000
O O2 0.838086 0.500000 0.413138
O O3 0.908868 0.374977 0.437086
O O4 0.792797 0.379875 0.374475
O O5 0.852420 0.695497 0.191711
O O6 0.525513 0.696684 0.203998
O O7 0.861001 0.782204 0.116296
O O8 0.915621 0.633342 0.099747
O O9 0.500000 0.687120 0.000000
O O10 0.750000 0.750000 0.000000
O O11 0.664882 0.610870 0.027411
O O12 0.577514 0.000000 0.055264
O O13 0.500000 0.080064 0.000000
O O14 0.250000 0.250000 0.500000
O O15 0.000000 0.328712 0.500000
O O16 0.817477 0.262747 0.610868
O O17 0.404549 0.216694 0.701253
O O18 0.654848 0.185947 0.716592
#
# Coordination Sequence:
#
# PCOD8082742 Si02
#       7
#     8   8   8   8   8   8   8
#     4  11  23  38  58  88 119 144 179 239 299 335
#     4  10  18  34  51  80 108 138 180 237 261 318
#     4  10  18  31  55  79 105 135 172 226 284 322
#     4  10  20  34  54  79 109 143 177 224 287 337
#     4  12  19  34  63  88 111 146 186 235 286 332
#     4  11  19  36  56  83 107 149 189 230 262 340
#     4  10  21  31  57  79 103 143 200 217 262 316
#
# _framework density 17.688580999999999
#
# number of rings (size 3 to 8) (size 9 to 14) (size 15 to 20)
#    0.000    1.429    4.286    4.286    0.000    0.571 
#    0.000    1.429    0.000    3.429    0.000    0.000 
#    0.000    0.000    0.000    0.000    0.000    0.000 
#
# Total GULP energy -347071.132008 kJ/mol
# GULP energy per Si atom -12395.397572 kJ/mol
# Density = 1.764832 g / cm^3
# Si number density = 17.688581 Si / 1000 Ang^3
#
#
#
# Elastic Constant Matrix: (Units=GPa)
#
#
# Indices 1 2 3 4 5 6 
#
# 1 126.3954 58.2056 46.7215 0.0099 7.2293 -0.0038
# 2 58.2056 132.1505 59.6156 0.0092 5.0012 -0.0009
# 3 46.7215 59.6156 101.6770 0.0368 1.9818 0.0066
# 4 0.0099 0.0092 0.0368 14.2342 -0.0031 4.8154
# 5 7.2293 5.0012 1.9818 -0.0031 38.8459 -0.0014
# 6 -0.0038 -0.0009 0.0066 4.8154 -0.0014 19.4876
#
#
#
# Elastic Compliance Matrix: (Units=1/GPa)
#
#
# Indices 1 2 3 4 5 6 
#
# 1 0.010584 -0.003300 -0.002901 0.000001 -0.001397 0.000002
# 2 -0.003300 0.011358 -0.005132 0.000008 -0.000586 0.000000
# 3 -0.002901 -0.005132 0.014168 -0.000032 0.000478 0.000002
# 4 0.000001 0.000008 -0.000032 0.076662 0.000006 -0.018943
# 5 -0.001397 -0.000586 0.000478 0.000006 0.026054 0.000000
# 6 0.000002 0.000000 0.000002 -0.018943 0.000000 0.055996
#
#
# Mechanical properties :
#
#
# Convention : Reuss Voigt Hill
#
# Bulk Modulus (GPa) = 74.38461 76.58980 75.48720
# Shear Modulus (GPa) = 22.52589 27.55890 25.04240
#
# Velocity S-wave (km/s) = 3.57244 3.95144 3.76671
# Velocity P-wave (km/s) = 7.69156 8.01321 7.85403
#
# Compressibility (1/GPa) = 0.01344364
#
# Stress axis : x y z
#
# Youngs Moduli (GPa) = 94.48575 88.04614 70.58338
#
# Poissons Ratio (x) = 0.29054 0.20478
# Poissons Ratio (y) = 0.31179 0.36220
# Poissons Ratio (z) = 0.27413 0.45181
#
# Static dielectric constant tensor:
#      x y z
#    x 3.731720 -0.000020 -0.066930 
#    y -0.000020 3.441690 0.000020 
#    z -0.066930 0.000020 3.690880 
# 
# 
# High freq. dielectric constant tensor:
#      x y z
#    x 1.708820 0.000000 0.000160 
#    y 0.000000 1.646230 0.000000 
#    z 0.000160 0.000000 1.694140 
# 
# From -- ./inp_files/300434.got.cif
#   From: 2010.06.25/outbox.cif.g09.slc.cpg/sg12_151_cif.got.tgz:300434.got - 2010.06.28 00:19:55.
