data_PCOD8082336
_publ_section_title
;
Structure prediction by ZEFSAII (Michael W. Deem and Ramdas Pophale) SiO2 
 PCOD8082336
Probable space group: C 2/M
;
_chemical_formula_sum "Si O2"
_cell_formula_units_Z 56
_cell_length_a 20.520415
_cell_length_b 9.341499
_cell_length_c 21.156201
_cell_angle_alpha 90.000000
_cell_angle_beta 44.741572
_cell_angle_gamma 90.000000
_cell_volume 2854.681665
_symmetry_space_group_name_H-M "C 2/M"
_symmetry_group_IT_number 12
_symmetry_cell_setting 'monoclinic'
loop_
_space_group_symop_operation_xyz
x,y,z
-x,y,-z
-x,-y,-z
x,-y,z
1/2+x,1/2+y,z
1/2-x,1/2+y,-z
1/2-x,1/2-y,-z
1/2+x,1/2-y,z
loop_
_atom_site_type_symbol
_atom_site_label
_atom_site_fract_x
_atom_site_fract_y
_atom_site_fract_z
Si Si1 0.333345 0.163470 0.080679
Si Si2 0.009503 0.166745 0.262320
Si Si3 0.442538 0.165479 0.887525
Si Si4 0.644949 0.335696 0.275900
Si Si5 0.221189 0.341596 0.329218
Si Si6 0.704214 0.330290 0.589255
Si Si7 0.916322 0.839188 0.127350
O O1 0.228924 0.206095 0.170681
O O2 0.408048 0.266570 0.063845
O O3 0.354325 0.000000 0.086899
O O4 0.349510 0.181622 0.994204
O O5 0.903123 0.215268 0.332950
O O6 0.070429 0.256846 0.170537
O O7 0.050020 0.198819 0.304224
O O8 0.020722 0.000000 0.237249
O O9 0.526475 0.240525 0.865481
O O10 0.467310 0.000000 0.859008
O O11 0.651186 0.500000 0.290790
O O12 0.647281 0.251932 0.340840
O O13 0.178849 0.500000 0.364990
O O14 0.242370 0.279057 0.384318
O O15 0.314731 0.346652 0.225730
O O16 0.712060 0.500000 0.574476
O O17 0.750000 0.250000 0.500000
O O18 0.957831 0.000000 0.093080
#
# Coordination Sequence:
#
# PCOD8082336 Si02
#       7
#     8   8   8   8   8   8   8
#     4   9  19  33  47  74 111 145 185 230 269 311
#     4  10  21  39  58  79 110 144 181 227 271 320
#     4  11  21  31  48  75 111 147 183 229 274 316
#     4   9  19  36  58  79 107 149 188 221 264 317
#     4   9  18  35  57  80 110 142 175 223 271 317
#     4  10  21  39  61  86 111 136 172 222 274 326
#     4  10  18  31  51  75 105 144 188 229 271 317
#
# _framework density 19.616899
#
# number of rings (size 3 to 8) (size 9 to 14) (size 15 to 20)
#    0.000    2.286    1.429    1.286    0.000    5.714 
#    0.000    0.714    0.000    4.286    0.000    0.000 
#    0.000    0.000    0.000    0.000    0.000    0.000 
#
# Total GULP energy -347139.796394 kJ/mol
# GULP energy per Si atom -12397.849871 kJ/mol
# Density = 1.957225 g / cm^3
# Si number density = 19.616899 Si / 1000 Ang^3
#
#
#
# Elastic Constant Matrix: (Units=GPa)
#
#
# Indices 1 2 3 4 5 6 
#
# 1 122.1969 55.1988 44.7207 0.0000 28.4686 0.0001
# 2 55.1988 84.4444 40.7858 -0.0001 15.7710 0.0002
# 3 44.7207 40.7858 75.1460 0.0000 26.6969 0.0000
# 4 0.0000 -0.0001 0.0000 28.9080 0.0000 8.5195
# 5 28.4686 15.7710 26.6969 0.0000 24.8590 0.0000
# 6 0.0001 0.0002 0.0000 8.5195 0.0000 31.5824
#
#
#
# Elastic Compliance Matrix: (Units=1/GPa)
#
#
# Indices 1 2 3 4 5 6 
#
# 1 0.014097 -0.006772 -0.000816 0.000000 -0.010971 0.000000
# 2 -0.006772 0.019330 -0.007858 0.000000 0.003930 0.000000
# 3 -0.000816 -0.007858 0.025797 0.000000 -0.021785 0.000000
# 4 0.000000 0.000000 0.000000 0.037580 0.000000 -0.010137
# 5 -0.010971 0.003930 -0.021785 0.000000 0.073693 0.000000
# 6 0.000000 0.000000 0.000000 -0.010137 0.000000 0.034398
#
#
# Mechanical properties :
#
#
# Convention : Reuss Voigt Hill
#
# Bulk Modulus (GPa) = 35.29471 62.57755 48.93613
# Shear Modulus (GPa) = 20.38899 26.47536 23.43217
#
# Velocity S-wave (km/s) = 3.22741 3.67770 3.45989
# Velocity P-wave (km/s) = 5.64971 7.07128 6.40009
#
# Compressibility (1/GPa) = 0.02833285
#
# Stress axis : x y z
#
# Youngs Moduli (GPa) = 70.93631 51.73418 38.76360
#
# Poissons Ratio (x) = 0.35032 0.03165
# Poissons Ratio (y) = 0.48035 0.30459
# Poissons Ratio (z) = 0.05792 0.40651
#
# Static dielectric constant tensor:
#      x y z
#    x 3.572060 0.000000 0.130820 
#    y 0.000000 3.757920 0.000000 
#    z 0.130820 0.000000 3.429770 
# 
# 
# High freq. dielectric constant tensor:
#      x y z
#    x 1.756090 0.000000 0.013030 
#    y 0.000000 1.762860 0.000000 
#    z 0.013030 0.000000 1.746860 
# 
# From -- ./inp_files/319637.got.cif
#   From: 2010.06.25/outbox.cif.g09.slc.cpg/sg12_160_cif.got.tgz:319637.got - 2010.06.28 00:19:55.
