data_PCOD8082436
_publ_section_title
;
Structure prediction by ZEFSAII (Michael W. Deem and Ramdas Pophale) SiO2 
 PCOD8082436
Probable space group: C 2/M
;
_chemical_formula_sum "Si O2"
_cell_formula_units_Z 56
_cell_length_a 33.803939
_cell_length_b 8.782222
_cell_length_c 12.674545
_cell_angle_alpha 90.000000
_cell_angle_beta 59.442962
_cell_angle_gamma 90.000000
_cell_volume 3240.182922
_symmetry_space_group_name_H-M "C 2/M"
_symmetry_group_IT_number 12
_symmetry_cell_setting 'monoclinic'
loop_
_space_group_symop_operation_xyz
x,y,z
-x,y,-z
-x,-y,-z
x,-y,z
1/2+x,1/2+y,z
1/2-x,1/2+y,-z
1/2-x,1/2-y,-z
1/2+x,1/2-y,z
loop_
_atom_site_type_symbol
_atom_site_label
_atom_site_fract_x
_atom_site_fract_y
_atom_site_fract_z
Si Si1 0.947901 0.319916 0.181176
Si Si2 0.950927 0.680374 0.938049
Si Si3 0.194111 0.820338 0.742700
Si Si4 0.353176 0.180981 0.392775
Si Si5 0.294962 0.819531 0.664659
Si Si6 0.863394 0.821249 0.975056
Si Si7 0.202393 0.680410 0.102251
O O1 0.947194 0.500000 0.176410
O O2 0.905504 0.257224 0.308668
O O3 0.996940 0.270471 0.164075
O O4 0.942166 0.261360 0.069220
O O5 0.943399 0.500000 0.936960
O O6 0.916256 0.767968 0.907824
O O7 0.178446 0.738145 0.658546
O O8 0.244844 0.758561 0.700099
O O9 0.193024 0.000000 0.725766
O O10 0.161392 0.772184 0.883372
O O11 0.332998 0.243106 0.530761
O O12 0.352612 0.000000 0.390779
O O13 0.307479 0.763747 0.764948
O O14 0.293678 0.000000 0.663049
O O15 0.839859 0.736834 0.909753
O O16 0.859940 0.000000 0.960101
O O17 0.206796 0.500000 0.089820
O O18 0.250000 0.750000 0.000000
#
# Coordination Sequence:
#
# PCOD8082436 Si02
#       7
#     8   8   8   8   8   8   8
#     4   8  15  27  48  75 101 125 160 204 245 294
#     4   9  16  30  49  73 101 129 161 203 250 292
#     4  10  19  32  46  69 106 135 156 199 249 289
#     4  10  18  31  52  75  98 131 167 197 241 302
#     4   9  19  34  50  70 100 131 164 206 245 284
#     4  11  21  33  50  74 103 132 166 206 246 292
#     4  11  21  36  54  73  98 132 169 209 250 286
#
# _framework density 17.282975
#
# number of rings (size 3 to 8) (size 9 to 14) (size 15 to 20)
#    0.000    2.286    2.857    2.143    0.000    0.571 
#    0.000    3.571    0.000    0.857    0.000    6.000 
#    0.000    0.000    0.000    0.000    0.000    0.000 
#
# Total GULP energy -347129.850594 kJ/mol
# GULP energy per Si atom -12397.494664 kJ/mol
# Density = 1.724364 g / cm^3
# Si number density = 17.282975 Si / 1000 Ang^3
#
#
#
# Elastic Constant Matrix: (Units=GPa)
#
#
# Indices 1 2 3 4 5 6 
#
# 1 150.5688 26.6544 76.2398 0.0000 -4.2735 0.0000
# 2 26.6544 33.1650 29.0473 0.0000 1.7936 0.0000
# 3 76.2398 29.0473 126.0352 0.0000 3.6967 0.0000
# 4 0.0000 0.0000 0.0000 16.1607 0.0000 1.8920
# 5 -4.2735 1.7936 3.6967 0.0000 27.1173 0.0000
# 6 0.0000 0.0000 0.0000 1.8920 0.0000 27.3181
#
#
#
# Elastic Compliance Matrix: (Units=1/GPa)
#
#
# Indices 1 2 3 4 5 6 
#
# 1 0.010040 -0.003536 -0.005333 0.000000 0.002543 0.000000
# 2 -0.003536 0.039070 -0.006801 0.000000 -0.002214 0.000000
# 3 -0.005333 -0.006801 0.012790 0.000000 -0.002134 0.000000
# 4 0.000000 0.000000 0.000000 0.062384 0.000000 -0.004321
# 5 0.002543 -0.002214 -0.002134 0.000000 0.037715 0.000000
# 6 0.000000 0.000000 0.000000 -0.004321 0.000000 0.036905
#
#
# Mechanical properties :
#
#
# Convention : Reuss Voigt Hill
#
# Bulk Modulus (GPa) = 32.72111 63.73911 48.23011
# Shear Modulus (GPa) = 20.79608 25.97440 23.38524
#
# Velocity S-wave (km/s) = 3.47258 3.88092 3.68241
# Velocity P-wave (km/s) = 5.92048 7.55260 6.78579
#
# Compressibility (1/GPa) = 0.03056131
#
# Stress axis : x y z
#
# Youngs Moduli (GPa) = 99.60296 25.59516 78.18494
#
# Poissons Ratio (x) = 0.09050 0.41695
# Poissons Ratio (y) = 0.35216 0.53171
# Poissons Ratio (z) = 0.53118 0.17407
#
# Static dielectric constant tensor:
#      x y z
#    x 3.430780 0.000000 -0.212080 
#    y 0.000000 2.951930 0.000000 
#    z -0.212080 0.000000 3.499000 
# 
# 
# High freq. dielectric constant tensor:
#      x y z
#    x 1.673200 0.000000 -0.008860 
#    y 0.000000 1.642990 0.000000 
#    z -0.008860 0.000000 1.652980 
# 
# From -- ./inp_files/186374.got.cif
#   From: 2010.06.25/outbox.cif.g09.slc.cpg/sg12_94_cif.got.tgz:186374.got - 2010.06.28 00:19:55.
