data_PCOD8082974
_publ_section_title
;
Structure prediction by ZEFSAII (Michael W. Deem and Ramdas Pophale) SiO2 
 PCOD8082974
Probable space group: C 2/M
;
_chemical_formula_sum "Si O2"
_cell_formula_units_Z 48
_cell_length_a 22.768538
_cell_length_b 13.100482
_cell_length_c 23.069051
_cell_angle_alpha 90.000000
_cell_angle_beta 24.698117
_cell_angle_gamma 90.000000
_cell_volume 2875.141794
_symmetry_space_group_name_H-M "C 2/M"
_symmetry_group_IT_number 12
_symmetry_cell_setting 'monoclinic'
loop_
_space_group_symop_operation_xyz
x,y,z
-x,y,-z
-x,-y,-z
x,-y,z
1/2+x,1/2+y,z
1/2-x,1/2+y,-z
1/2-x,1/2-y,-z
1/2+x,1/2-y,z
loop_
_atom_site_type_symbol
_atom_site_label
_atom_site_fract_x
_atom_site_fract_y
_atom_site_fract_z
Si Si1 0.939553 0.306207 0.377890
Si Si2 0.356836 0.884904 0.896730
Si Si3 0.077364 0.191567 0.099397
Si Si4 0.637635 0.616431 0.623575
Si Si5 0.124788 0.881275 0.930575
Si Si6 0.059815 0.619230 0.383867
O O1 0.803200 0.369348 0.481710
O O2 0.924542 0.188184 0.371738
O O3 0.071062 0.359898 0.229151
O O4 0.971180 0.313164 0.417803
O O5 0.417271 0.812651 0.892931
O O6 0.386130 0.000000 0.890145
O O7 0.191728 0.867682 0.035639
O O8 0.929270 0.146013 0.254025
O O9 0.100550 0.180534 0.010861
O O10 0.605027 0.500000 0.635738
O O11 0.274485 0.854056 0.767575
O O12 0.115610 0.000000 0.954399
O O13 0.000000 0.848067 0.000000
O O14 0.034195 0.500000 0.393570
O O15 0.000000 0.649522 0.500000
#
# Coordination Sequence:
#
# PCOD8082974 Si02
#       6
#     8   8   8   8   8   8
#     4  10  20  33  51  74 101 134 164 199 245 291
#     4  10  18  32  52  73  98 129 163 200 245 296
#     4  10  20  31  49  76 101 127 160 201 250 293
#     4  10  20  32  50  77 104 129 161 202 246 293
#     4  10  20  33  49  70  98 130 162 202 248 290
#     4  10  20  33  50  70  95 131 168 200 240 292
#
# _framework density 16.694828999999999
#
# number of rings (size 3 to 8) (size 9 to 14) (size 15 to 20)
#    0.000    2.000    1.667    3.000    2.333    0.000 
#    0.000    0.000    0.000    1.000    0.000    0.000 
#    0.000    0.000    0.000    0.000    0.000    0.000 
#
# Total GULP energy -297654.348293 kJ/mol
# GULP energy per Si atom -12402.264512 kJ/mol
# Density = 1.665683 g / cm^3
# Si number density = 16.694829 Si / 1000 Ang^3
#
#
#
# Elastic Constant Matrix: (Units=GPa)
#
#
# Indices 1 2 3 4 5 6 
#
# 1 95.3151 47.8018 41.5931 0.0006 15.7455 0.0000
# 2 47.8018 120.6583 33.7374 0.0040 7.2760 -0.0008
# 3 41.5931 33.7374 77.9867 0.0050 14.0951 -0.0010
# 4 0.0006 0.0040 0.0050 17.2760 -0.0024 -0.1252
# 5 15.7455 7.2760 14.0951 -0.0024 30.3989 0.0004
# 6 0.0000 -0.0008 -0.0010 -0.1252 0.0004 18.3274
#
#
#
# Elastic Compliance Matrix: (Units=1/GPa)
#
#
# Indices 1 2 3 4 5 6 
#
# 1 0.015996 -0.004445 -0.005788 0.000002 -0.004538 0.000000
# 2 -0.004445 0.010668 -0.002400 -0.000002 0.000862 0.000000
# 3 -0.005788 -0.002400 0.017793 -0.000005 -0.004678 0.000001
# 4 0.000002 -0.000002 -0.000005 0.057887 0.000007 0.000395
# 5 -0.004538 0.000862 -0.004678 0.000007 0.037209 -0.000001
# 6 0.000000 0.000000 0.000001 0.000395 -0.000001 0.054566
#
#
# Mechanical properties :
#
#
# Convention : Reuss Voigt Hill
#
# Bulk Modulus (GPa) = 52.10817 60.02496 56.06657
# Shear Modulus (GPa) = 22.14513 24.58897 23.36705
#
# Velocity S-wave (km/s) = 3.64602 3.84194 3.74526
# Velocity P-wave (km/s) = 7.00032 7.46411 7.23593
#
# Compressibility (1/GPa) = 0.01919085
#
# Stress axis : x y z
#
# Youngs Moduli (GPa) = 62.51438 93.73766 56.20037
#
# Poissons Ratio (x) = 0.41669 0.32530
# Poissons Ratio (y) = 0.27789 0.13488
# Poissons Ratio (z) = 0.36185 0.22497
#
# Static dielectric constant tensor:
#      x y z
#    x 2.928440 0.000000 -0.074870 
#    y 0.000000 3.058050 0.000000 
#    z -0.074870 0.000000 3.369910 
# 
# 
# High freq. dielectric constant tensor:
#      x y z
#    x 1.620640 0.000000 -0.006220 
#    y 0.000000 1.624680 0.000000 
#    z -0.006220 0.000000 1.666860 
# 
# From -- ./inp_files/94301.got.cif
#   From: 2010.06.25/outbox.cif.g09.slc.cpg/sg12_48_cif.got.tgz:94301.got - 2010.06.28 00:19:55.
