data_PCOD8082326
_publ_section_title
;
Structure prediction by ZEFSAII (Michael W. Deem and Ramdas Pophale) SiO2 
 PCOD8082326
Probable space group: C 2/M
;
_chemical_formula_sum "Si O2"
_cell_formula_units_Z 48
_cell_length_a 13.689362
_cell_length_b 16.174352
_cell_length_c 23.490162
_cell_angle_alpha 90.000000
_cell_angle_beta 148.847097
_cell_angle_gamma 90.000000
_cell_volume 2690.658052
_symmetry_space_group_name_H-M "C 2/M"
_symmetry_group_IT_number 12
_symmetry_cell_setting 'monoclinic'
loop_
_space_group_symop_operation_xyz
x,y,z
-x,y,-z
-x,-y,-z
x,-y,z
1/2+x,1/2+y,z
1/2-x,1/2+y,-z
1/2-x,1/2-y,-z
1/2+x,1/2-y,z
loop_
_atom_site_type_symbol
_atom_site_label
_atom_site_fract_x
_atom_site_fract_y
_atom_site_fract_z
Si Si1 0.545233 0.810795 0.847716
Si Si2 0.261624 0.093650 0.230242
Si Si3 0.736301 0.806941 0.663248
Si Si4 0.856266 0.761055 0.494414
Si Si5 0.471770 0.732130 0.048150
Si Si6 0.377589 0.906701 0.666979
O O1 0.448249 0.728268 0.773958
O O2 0.767417 0.808948 0.950110
O O3 0.460017 0.889184 0.771607
O O4 0.501155 0.807801 0.893683
O O5 0.280067 0.109230 0.307838
O O6 0.462780 0.107632 0.300941
O O7 0.190216 0.000000 0.185228
O O8 0.117062 0.157527 0.130365
O O9 0.695021 0.815299 0.574863
O O10 0.582999 0.741903 0.614717
O O11 0.750000 0.750000 0.500000
O O12 0.796491 0.846764 0.434595
O O13 0.500000 0.771065 0.000000
O O14 0.301809 0.000000 0.628200
#
# Coordination Sequence:
#
# PCOD8082326 Si02
#       6
#     8   8   8   8   8   8
#     4   9  19  32  48  73 101 133 167 204 244 297
#     4  10  19  31  49  76 107 130 158 209 264 302
#     4   9  19  33  50  74  99 134 169 201 250 295
#     4  10  18  33  53  73  99 133 169 205 243 301
#     4  10  18  31  51  75 101 131 171 206 247 298
#     4  10  19  32  51  75 102 131 165 208 255 296
#
# _framework density 17.839503000000001
#
# number of rings (size 3 to 8) (size 9 to 14) (size 15 to 20)
#    0.000    2.333    3.333    0.000    0.000    1.000 
#    0.000    9.167    0.000    0.500    0.000   21.000 
#    0.000    0.000    0.000    0.000    0.000    0.000 
#
# Total GULP energy -297335.973801 kJ/mol
# GULP energy per Si atom -12388.998908 kJ/mol
# Density = 1.779890 g / cm^3
# Si number density = 17.839503 Si / 1000 Ang^3
#
#
#
# Elastic Constant Matrix: (Units=GPa)
#
#
# Indices 1 2 3 4 5 6 
#
# 1 96.6178 19.0456 13.0468 0.0005 -27.7515 -0.0001
# 2 19.0456 55.6143 13.9212 0.0005 -5.1209 -0.0001
# 3 13.0468 13.9212 56.3402 0.0009 -5.0292 -0.0003
# 4 0.0005 0.0005 0.0009 20.6355 0.0000 -0.8317
# 5 -27.7515 -5.1209 -5.0292 0.0000 38.3888 -0.0001
# 6 -0.0001 -0.0001 -0.0003 -0.8317 -0.0001 18.3478
#
#
#
# Elastic Compliance Matrix: (Units=1/GPa)
#
#
# Indices 1 2 3 4 5 6 
#
# 1 0.013957 -0.003532 -0.001518 0.000000 0.009419 0.000000
# 2 -0.003532 0.020207 -0.004212 0.000000 -0.000410 0.000000
# 3 -0.001518 -0.004212 0.019218 -0.000001 0.000858 0.000000
# 4 0.000000 0.000000 -0.000001 0.048549 0.000000 0.002201
# 5 0.009419 -0.000410 0.000858 0.000000 0.032916 0.000000
# 6 0.000000 0.000000 0.000000 0.002201 0.000000 0.054602
#
#
# Mechanical properties :
#
#
# Convention : Reuss Voigt Hill
#
# Bulk Modulus (GPa) = 28.68806 33.39993 31.04400
# Shear Modulus (GPa) = 22.76931 26.31165 24.54048
#
# Velocity S-wave (km/s) = 3.57647 3.84462 3.71297
# Velocity P-wave (km/s) = 5.75942 6.20252 5.98507
#
# Compressibility (1/GPa) = 0.03485770
#
# Stress axis : x y z
#
# Youngs Moduli (GPa) = 71.64893 49.48741 52.03400
#
# Poissons Ratio (x) = 0.17480 0.07901
# Poissons Ratio (y) = 0.25308 0.21915
# Poissons Ratio (z) = 0.10879 0.20842
#
# Static dielectric constant tensor:
#      x y z
#    x 3.557030 0.000000 -0.149950 
#    y 0.000000 2.975710 0.000000 
#    z -0.149950 0.000000 3.568880 
# 
# 
# High freq. dielectric constant tensor:
#      x y z
#    x 1.701380 0.000000 -0.002250 
#    y 0.000000 1.639080 0.000000 
#    z -0.002250 0.000000 1.704840 
# 
# From -- ./inp_files/131049.got.cif
#   From: 2010.06.25/outbox.cif.g09.slc.cpg/sg12_66_cif.got.tgz:131049.got - 2010.06.28 00:19:55.
