data_PCOD8082553
_publ_section_title
;
Structure prediction by ZEFSAII (Michael W. Deem and Ramdas Pophale) SiO2 
 PCOD8082553
Probable space group: C 2/M
;
_chemical_formula_sum "Si O2"
_cell_formula_units_Z 56
_cell_length_a 12.511588
_cell_length_b 19.811089
_cell_length_c 23.489932
_cell_angle_alpha 90.000000
_cell_angle_beta 150.443786
_cell_angle_gamma 90.000000
_cell_volume 2872.060777
_symmetry_space_group_name_H-M "C 2/M"
_symmetry_group_IT_number 12
_symmetry_cell_setting 'monoclinic'
loop_
_space_group_symop_operation_xyz
x,y,z
-x,y,-z
-x,-y,-z
x,-y,z
1/2+x,1/2+y,z
1/2-x,1/2+y,-z
1/2-x,1/2-y,-z
1/2+x,1/2-y,z
loop_
_atom_site_type_symbol
_atom_site_label
_atom_site_fract_x
_atom_site_fract_y
_atom_site_fract_z
Si Si1 0.612424 0.239567 0.779154
Si Si2 0.505121 0.357345 0.362090
Si Si3 0.243004 0.149057 0.922616
Si Si4 0.346697 0.924164 0.862694
Si Si5 0.792083 0.157589 0.765006
Si Si6 0.170664 0.774984 0.623989
Si Si7 0.545643 0.921751 0.455611
O O1 0.531358 0.296628 0.698558
O O2 0.742649 0.277068 0.891225
O O3 0.754472 0.182245 0.812789
O O4 0.398701 0.201215 0.702919
O O5 0.338699 0.417585 0.270483
O O6 0.449086 0.336734 0.400425
O O7 0.751622 0.379729 0.473381
O O8 0.232932 0.089373 0.871053
O O9 0.046342 0.141764 0.875657
O O10 0.467179 0.133930 0.060653
O O11 0.441828 0.000000 0.904765
O O12 0.718871 0.215936 0.689500
O O13 0.653489 0.093112 0.679952
O O14 0.000000 0.745663 0.500000
O O15 0.500000 0.901625 0.500000
O O16 0.601672 0.000000 0.477403
#
# Coordination Sequence:
#
# PCOD8082553 Si02
#       7
#     8   8   8   8   8   8   8
#     4   9  18  32  50  75 103 130 164 208 256 300
#     4  10  20  33  50  77 105 132 170 208 248 298
#     4   9  18  32  51  78 101 126 169 207 246 302
#     4  10  19  34  54  74 102 137 168 204 250 300
#     4  10  19  32  51  76 105 134 164 206 259 304
#     4  10  18  31  53  75 102 137 169 204 249 302
#     4  11  21  31  48  75 105 134 168 213 257 299
#
# _framework density 19.498194999999999
#
# number of rings (size 3 to 8) (size 9 to 14) (size 15 to 20)
#    0.000    2.143    0.000    6.000    0.000    4.571 
#    0.000   19.286    0.000    7.714    0.000    1.000 
#    0.000    0.000    0.000    0.000    0.000    0.000 
#
# Total GULP energy -347019.033615 kJ/mol
# GULP energy per Si atom -12393.536915 kJ/mol
# Density = 1.945382 g / cm^3
# Si number density = 19.498195 Si / 1000 Ang^3
#
#
#
# Elastic Constant Matrix: (Units=GPa)
#
#
# Indices 1 2 3 4 5 6 
#
# 1 102.9625 37.6656 35.3278 0.0049 37.1209 -0.0010
# 2 37.6656 58.5488 13.9080 0.0056 15.0306 -0.0008
# 3 35.3278 13.9080 64.0181 0.0299 25.2975 -0.0132
# 4 0.0049 0.0056 0.0299 23.2427 -0.0007 6.8640
# 5 37.1209 15.0306 25.2975 -0.0007 32.0769 0.0012
# 6 -0.0010 -0.0008 -0.0132 6.8640 0.0012 15.6499
#
#
#
# Elastic Compliance Matrix: (Units=1/GPa)
#
#
# Indices 1 2 3 4 5 6 
#
# 1 0.019455 -0.007564 -0.002319 0.000000 -0.017140 0.000000
# 2 -0.007564 0.022393 -0.000005 -0.000005 -0.001735 0.000003
# 3 -0.002319 -0.000005 0.023011 -0.000041 -0.015462 0.000038
# 4 0.000000 -0.000005 -0.000041 0.049426 0.000036 -0.021678
# 5 -0.017140 -0.001735 -0.015462 0.000036 0.064018 -0.000035
# 6 0.000000 0.000003 0.000038 -0.021678 -0.000035 0.073406
#
#
# Mechanical properties :
#
#
# Convention : Reuss Voigt Hill
#
# Bulk Modulus (GPa) = 22.18200 44.37025 33.27612
# Shear Modulus (GPa) = 17.45117 23.43576 20.44347
#
# Velocity S-wave (km/s) = 2.99493 3.47067 3.24154
# Velocity P-wave (km/s) = 4.83328 6.23428 5.57794
#
# Compressibility (1/GPa) = 0.04508160
#
# Stress axis : x y z
#
# Youngs Moduli (GPa) = 51.40095 44.65735 43.45661
#
# Poissons Ratio (x) = 0.33781 0.10079
# Poissons Ratio (y) = 0.38882 0.00021
# Poissons Ratio (z) = 0.11922 0.00022
#
# Static dielectric constant tensor:
#      x y z
#    x 3.833000 -0.000010 0.138960 
#    y -0.000010 3.432870 -0.000010 
#    z 0.138960 -0.000010 3.638360 
# 
# 
# High freq. dielectric constant tensor:
#      x y z
#    x 1.746070 0.000000 0.021890 
#    y 0.000000 1.729200 0.000000 
#    z 0.021890 0.000000 1.757430 
# 
# From -- ./inp_files/336810.got.cif
#   From: 2010.06.25/outbox.cif.g09.slc.cpg/sg12_169_cif.got.tgz:336810.got - 2010.06.28 00:19:55.
