data_PCOD8082525
_publ_section_title
;
Structure prediction by ZEFSAII (Michael W. Deem and Ramdas Pophale) SiO2 
 PCOD8082525
Probable space group: C 2/M
;
_chemical_formula_sum "Si O2"
_cell_formula_units_Z 44
_cell_length_a 18.609375
_cell_length_b 19.517674
_cell_length_c 8.957859
_cell_angle_alpha 90.000000
_cell_angle_beta 47.556175
_cell_angle_gamma 90.000000
_cell_volume 2400.958995
_symmetry_space_group_name_H-M "C 2/M"
_symmetry_group_IT_number 12
_symmetry_cell_setting 'monoclinic'
loop_
_space_group_symop_operation_xyz
x,y,z
-x,y,-z
-x,-y,-z
x,-y,z
1/2+x,1/2+y,z
1/2-x,1/2+y,-z
1/2-x,1/2-y,-z
1/2+x,1/2-y,z
loop_
_atom_site_type_symbol
_atom_site_label
_atom_site_fract_x
_atom_site_fract_y
_atom_site_fract_z
Si Si1 0.000000 0.242229 0.500000
Si Si2 0.886697 0.198993 0.138331
Si Si3 0.115243 0.146383 0.553054
Si Si4 0.231722 0.077092 0.156217
Si Si5 0.161237 0.291970 0.057045
Si Si6 0.083975 0.923220 0.102713
O O1 0.078718 0.197954 0.477682
O O2 0.062046 0.285566 0.292373
O O3 0.841160 0.189721 0.367786
O O4 0.848664 0.264260 0.099093
O O5 0.862049 0.129336 0.082689
O O6 0.000000 0.210458 0.000000
O O7 0.201049 0.099867 0.365598
O O8 0.028844 0.096712 0.727274
O O9 0.134242 0.081763 0.193304
O O10 0.273897 0.000000 0.098742
O O11 0.315722 0.127232 0.977953
O O12 0.250000 0.250000 0.000000
O O13 0.092180 0.000000 0.026008
#
# Coordination Sequence:
#
# PCOD8082525 Si02
#       6
#     4   8   8   8   8   8
#     4  12  20  36  60  88 110 152 190 244 282 340
#     4  10  20  33  55  88 118 146 188 237 289 340
#     4  11  18  33  54  85 117 146 186 226 299 347
#     4  11  22  36  57  82 115 155 193 231 284 347
#     4  12  21  40  60  85 118 152 193 242 284 339
#     4  10  18  31  52  81 120 153 180 225 289 356
#
# _framework density 18.326011000000001
#
# number of rings (size 3 to 8) (size 9 to 14) (size 15 to 20)
#    0.000    1.091    9.091    0.545    0.000    6.182 
#    0.000    0.455    0.000    0.545    0.000    0.000 
#    0.000    0.000    0.000    0.000    0.000    0.000 
#
# Total GULP energy -272722.334964 kJ/mol
# GULP energy per Si atom -12396.469771 kJ/mol
# Density = 1.828430 g / cm^3
# Si number density = 18.326011 Si / 1000 Ang^3
#
#
#
# Elastic Constant Matrix: (Units=GPa)
#
#
# Indices 1 2 3 4 5 6 
#
# 1 64.1096 35.2877 21.1910 0.0000 19.0292 0.0000
# 2 35.2877 135.2976 44.7853 0.0000 1.6010 0.0000
# 3 21.1910 44.7853 73.8513 0.0000 15.5683 0.0000
# 4 0.0000 0.0000 0.0000 25.4708 0.0000 -1.1261
# 5 19.0292 1.6010 15.5683 0.0000 27.7277 0.0000
# 6 0.0000 0.0000 0.0000 -1.1261 0.0000 25.6197
#
#
#
# Elastic Compliance Matrix: (Units=1/GPa)
#
#
# Indices 1 2 3 4 5 6 
#
# 1 0.023586 -0.006053 0.000274 0.000000 -0.015991 0.000000
# 2 -0.006053 0.011021 -0.006452 0.000000 0.007140 0.000000
# 3 0.000274 -0.006452 0.019663 0.000000 -0.010856 0.000000
# 4 0.000000 0.000000 0.000000 0.039337 0.000000 0.001729
# 5 -0.015991 0.007140 -0.010856 0.000000 0.052722 0.000000
# 6 0.000000 0.000000 0.000000 0.001729 0.000000 0.039108
#
#
# Mechanical properties :
#
#
# Convention : Reuss Voigt Hill
#
# Bulk Modulus (GPa) = 33.54759 52.86517 43.20638
# Shear Modulus (GPa) = 22.74425 27.22995 24.98710
#
# Velocity S-wave (km/s) = 3.52673 3.85887 3.69654
# Velocity P-wave (km/s) = 5.91012 6.98314 6.46892
#
# Compressibility (1/GPa) = 0.02980840
#
# Stress axis : x y z
#
# Youngs Moduli (GPa) = 42.39787 90.73625 50.85688
#
# Poissons Ratio (x) = 0.54923 -0.01393
# Poissons Ratio (y) = 0.25664 0.32811
# Poissons Ratio (z) = -0.01161 0.58540
#
# Static dielectric constant tensor:
#      x y z
#    x 3.551630 0.000000 0.433860 
#    y 0.000000 3.469500 0.000000 
#    z 0.433860 0.000000 3.501160 
# 
# 
# High freq. dielectric constant tensor:
#      x y z
#    x 1.694770 0.000000 0.027120 
#    y 0.000000 1.699790 0.000000 
#    z 0.027120 0.000000 1.699320 
# 
# From -- ./inp_files/61288.got.cif
#   From: 2010.06.25/outbox.cif.g09.slc.cpg/sg12_31_cif.got.tgz:61288.got - 2010.06.28 00:19:55.
