data_PCOD8082975
_publ_section_title
;
Structure prediction by ZEFSAII (Michael W. Deem and Ramdas Pophale) SiO2 
 PCOD8082975
Probable space group: C 2/M
;
_chemical_formula_sum "Si O2"
_cell_formula_units_Z 56
_cell_length_a 19.656214
_cell_length_b 9.101780
_cell_length_c 22.089984
_cell_angle_alpha 90.000000
_cell_angle_beta 47.781697
_cell_angle_gamma 90.000000
_cell_volume 2926.843076
_symmetry_space_group_name_H-M "C 2/M"
_symmetry_group_IT_number 12
_symmetry_cell_setting 'monoclinic'
loop_
_space_group_symop_operation_xyz
x,y,z
-x,y,-z
-x,-y,-z
x,-y,z
1/2+x,1/2+y,z
1/2-x,1/2+y,-z
1/2-x,1/2-y,-z
1/2+x,1/2-y,z
loop_
_atom_site_type_symbol
_atom_site_label
_atom_site_fract_x
_atom_site_fract_y
_atom_site_fract_z
Si Si1 0.102602 0.670236 0.681164
Si Si2 0.575255 0.173835 0.001908
Si Si3 0.283392 0.325264 0.864024
Si Si4 0.704194 0.328937 0.385759
Si Si5 0.089337 0.174072 0.566883
Si Si6 0.925143 0.674230 0.860555
Si Si7 0.880462 0.174315 0.685066
O O1 0.093667 0.500000 0.669531
O O2 0.187191 0.698084 0.675838
O O3 0.126076 0.758710 0.606914
O O4 0.010695 0.727604 0.768620
O O5 0.553952 0.224594 0.083231
O O6 0.570014 0.000000 0.000500
O O7 0.500000 0.241795 0.000000
O O8 0.677750 0.226593 0.923511
O O9 0.291214 0.500000 0.866607
O O10 0.332804 0.251923 0.892189
O O11 0.332471 0.264769 0.774191
O O12 0.679421 0.500000 0.399568
O O13 0.650182 0.261354 0.475539
O O14 0.669577 0.257294 0.343823
O O15 0.985199 0.226362 0.619586
O O16 0.097590 0.000000 0.567043
O O17 0.911021 0.500000 0.865835
O O18 0.872012 0.000000 0.690401
#
# Coordination Sequence:
#
# PCOD8082975 Si02
#       7
#     8   8   8   8   8   8   8
#     4  10  20  32  49  73 101 133 166 202 247 297
#     4   9  19  33  53  81 105 126 161 208 249 287
#     4  10  19  33  55  78 100 130 167 205 243 291
#     4   9  18  30  48  73 100 130 166 209 251 289
#     4  10  18  32  52  73  98 129 167 209 249 292
#     4  10  20  34  52  74 103 135 164 200 246 296
#     4   9  17  29  49  76  99 124 164 210 248 283
#
# _framework density 19.133244000000001
#
# number of rings (size 3 to 8) (size 9 to 14) (size 15 to 20)
#    0.000    2.429    1.429    1.286    2.000    1.714 
#    0.000    0.000    0.000    6.000    0.000    0.000 
#    0.000    0.000    0.000    0.000    0.000    0.000 
#
# Total GULP energy -347177.282769 kJ/mol
# GULP energy per Si atom -12399.188670 kJ/mol
# Density = 1.908970 g / cm^3
# Si number density = 19.133244 Si / 1000 Ang^3
#
#
#
# Elastic Constant Matrix: (Units=GPa)
#
#
# Indices 1 2 3 4 5 6 
#
# 1 140.7970 22.8434 56.8363 0.0000 7.6269 0.0000
# 2 22.8434 16.1547 15.1183 0.0001 0.8196 0.0001
# 3 56.8363 15.1183 112.1546 0.0000 1.4896 0.0000
# 4 0.0000 0.0001 0.0000 15.6691 0.0000 2.7915
# 5 7.6269 0.8196 1.4896 0.0000 36.9028 0.0000
# 6 0.0000 0.0001 0.0000 2.7915 0.0000 22.0700
#
#
#
# Elastic Compliance Matrix: (Units=1/GPa)
#
#
# Indices 1 2 3 4 5 6 
#
# 1 0.010568 -0.011288 -0.003811 0.000000 -0.001780 0.000000
# 2 -0.011288 0.082946 -0.005470 -0.000001 0.000712 0.000000
# 3 -0.003811 -0.005470 0.011579 0.000000 0.000442 0.000000
# 4 0.000000 -0.000001 0.000000 0.065291 0.000000 -0.008258
# 5 -0.001780 0.000712 0.000442 0.000000 0.027432 0.000000
# 6 0.000000 0.000000 0.000000 -0.008258 0.000000 0.046355
#
#
# Mechanical properties :
#
#
# Convention : Reuss Voigt Hill
#
# Bulk Modulus (GPa) = 15.63571 50.96692 33.30132
# Shear Modulus (GPa) = 16.30646 26.54895 21.42771
#
# Velocity S-wave (km/s) = 2.92251 3.72907 3.35015
# Velocity P-wave (km/s) = 4.42469 6.72584 5.69275
#
# Compressibility (1/GPa) = 0.06395615
#
# Stress axis : x y z
#
# Youngs Moduli (GPa) = 94.62164 12.05606 86.36471
#
# Poissons Ratio (x) = 0.13609 0.32909
# Poissons Ratio (y) = 1.06807 0.47243
# Poissons Ratio (z) = 0.36056 0.06595
#
# Static dielectric constant tensor:
#      x y z
#    x 3.684530 0.000000 0.048400 
#    y 0.000000 2.950610 0.000000 
#    z 0.048400 0.000000 3.737150 
# 
# 
# High freq. dielectric constant tensor:
#      x y z
#    x 1.758540 0.000000 -0.000320 
#    y 0.000000 1.682060 0.000000 
#    z -0.000320 0.000000 1.759040 
# 
# From -- ./inp_files/223160.got.cif
#   From: 2010.06.25/outbox.cif.g09.slc.cpg/sg12_112_cif.got.tgz:223160.got - 2010.06.28 00:19:55.
