data_PCOD8082911
_publ_section_title
;
Structure prediction by ZEFSAII (Michael W. Deem and Ramdas Pophale) SiO2 
 PCOD8082911
Probable space group: C 2/M
;
_chemical_formula_sum "Si O2"
_cell_formula_units_Z 60
_cell_length_a 16.651343
_cell_length_b 21.191622
_cell_length_c 23.117780
_cell_angle_alpha 90.000000
_cell_angle_beta 154.548156
_cell_angle_gamma 90.000000
_cell_volume 3505.724966
_symmetry_space_group_name_H-M "C 2/M"
_symmetry_group_IT_number 12
_symmetry_cell_setting 'monoclinic'
loop_
_space_group_symop_operation_xyz
x,y,z
-x,y,-z
-x,-y,-z
x,-y,z
1/2+x,1/2+y,z
1/2-x,1/2+y,-z
1/2-x,1/2-y,-z
1/2+x,1/2-y,z
loop_
_atom_site_type_symbol
_atom_site_label
_atom_site_fract_x
_atom_site_fract_y
_atom_site_fract_z
Si Si1 0.389398 0.572112 0.246488
Si Si2 0.625675 0.320771 0.361746
Si Si3 0.497248 0.245357 0.607715
Si Si4 0.000000 0.831622 0.500000
Si Si5 0.234504 0.069709 0.708434
Si Si6 0.428773 0.270896 0.891725
Si Si7 0.384895 0.308091 0.096160
Si Si8 0.093589 0.631812 0.977954
O O1 0.385967 0.500000 0.222212
O O2 0.572102 0.605970 0.337942
O O3 0.397719 0.575729 0.321230
O O4 0.199325 0.609138 0.104770
O O5 0.526903 0.281165 0.347916
O O6 0.849844 0.312574 0.508257
O O7 0.542733 0.295102 0.247388
O O8 0.452797 0.290264 0.524862
O O9 0.707202 0.220418 0.742063
O O10 0.178181 0.877046 0.625801
O O11 0.212479 0.000000 0.666782
O O12 0.449369 0.078584 0.865325
O O13 0.514088 0.318894 0.899581
O O14 0.500000 0.294436 0.000000
O O15 0.490863 0.198607 0.921465
O O16 0.252214 0.365266 0.030746
O O17 0.250000 0.250000 0.000000
#
# Coordination Sequence:
#
# PCOD8082911 Si02
#       8
#     8   8   8   4   8   8   8   8
#     4  10  19  34  54  76 105 142 175 214 253 300
#     4  10  20  35  48  76 103 137 177 213 259 310
#     4  11  21  32  52  71 105 142 169 216 262 308
#     4  12  21  34  46  72 103 148 172 204 256 306
#     4  11  21  32  48  73 106 142 175 202 247 313
#     4  11  19  33  51  75 103 130 167 213 263 315
#     4   9  19  30  48  72 101 133 166 213 254 307
#     4  10  18  32  50  74 103 132 173 212 253 304
#
# _framework density 17.114861999999999
#
# number of rings (size 3 to 8) (size 9 to 14) (size 15 to 20)
#    0.000    1.600    2.667    5.000    1.867    1.067 
#    0.000    0.000    0.000    0.000    0.000   12.600 
#    0.000   13.867    0.000    0.000    0.000    0.000 
#
# Total GULP energy -371903.982151 kJ/mol
# GULP energy per Si atom -12396.799405 kJ/mol
# Density = 1.707591 g / cm^3
# Si number density = 17.114862 Si / 1000 Ang^3
#
#
#
# Elastic Constant Matrix: (Units=GPa)
#
#
# Indices 1 2 3 4 5 6 
#
# 1 102.6156 18.3402 45.9890 0.0072 -5.2891 0.0003
# 2 18.3402 49.4412 30.8352 0.0331 4.3574 -0.0062
# 3 45.9890 30.8352 102.7383 0.0503 6.7363 -0.0076
# 4 0.0072 0.0331 0.0503 20.6855 0.0109 4.4422
# 5 -5.2891 4.3574 6.7363 0.0109 33.6302 -0.0012
# 6 0.0003 -0.0062 -0.0076 4.4422 -0.0012 15.6562
#
#
#
# Elastic Compliance Matrix: (Units=1/GPa)
#
#
# Indices 1 2 3 4 5 6 
#
# 1 0.012611 -0.001614 -0.005375 0.000011 0.003269 -0.000006
# 2 -0.001614 0.025193 -0.006696 -0.000025 -0.002177 0.000014
# 3 -0.005375 -0.006696 0.014336 -0.000023 -0.002849 0.000011
# 4 0.000011 -0.000025 -0.000023 0.051480 -0.000008 -0.014607
# 5 0.003269 -0.002177 -0.002849 -0.000008 0.031102 0.000002
# 6 -0.000006 0.000014 0.000011 -0.014607 0.000002 0.068017
#
#
# Mechanical properties :
#
#
# Convention : Reuss Voigt Hill
#
# Bulk Modulus (GPa) = 40.37165 49.45821 44.91493
# Shear Modulus (GPa) = 20.97619 24.63641 22.80630
#
# Velocity S-wave (km/s) = 3.50467 3.79816 3.65436
# Velocity P-wave (km/s) = 6.32589 6.94228 6.64124
#
# Compressibility (1/GPa) = 0.02476986
#
# Stress axis : x y z
#
# Youngs Moduli (GPa) = 79.29599 39.69399 69.75420
#
# Poissons Ratio (x) = 0.06406 0.37493
# Poissons Ratio (y) = 0.12797 0.46708
# Poissons Ratio (z) = 0.42622 0.26579
#
# Static dielectric constant tensor:
#      x y z
#    x 3.538210 -0.000030 -0.033150 
#    y -0.000030 3.050090 -0.000060 
#    z -0.033150 -0.000060 3.350790 
# 
# 
# High freq. dielectric constant tensor:
#      x y z
#    x 1.656510 0.000000 -0.007740 
#    y 0.000000 1.621230 0.000000 
#    z -0.007740 0.000000 1.674660 
# 
# From -- ./inp_files/312370.got.cif
#   From: 2010.06.25/outbox.cif.g09.slc.cpg/sg12_157_cif.got.tgz:312370.got - 2010.06.28 00:19:55.
