data_PCOD8082000
_publ_section_title
;
Structure prediction by ZEFSAII (Michael W. Deem and Ramdas Pophale) SiO2 
 PCOD8082000
Probable space group: C 2/M
;
_chemical_formula_sum "Si O2"
_cell_formula_units_Z 52
_cell_length_a 12.808824
_cell_length_b 22.175884
_cell_length_c 10.181427
_cell_angle_alpha 90.000000
_cell_angle_beta 59.677835
_cell_angle_gamma 90.000000
_cell_volume 2496.378526
_symmetry_space_group_name_H-M "C 2/M"
_symmetry_group_IT_number 12
_symmetry_cell_setting 'monoclinic'
loop_
_space_group_symop_operation_xyz
x,y,z
-x,y,-z
-x,-y,-z
x,-y,z
1/2+x,1/2+y,z
1/2-x,1/2+y,-z
1/2-x,1/2-y,-z
1/2+x,1/2-y,z
loop_
_atom_site_type_symbol
_atom_site_label
_atom_site_fract_x
_atom_site_fract_y
_atom_site_fract_z
Si Si1 0.244191 0.933105 0.124527
Si Si2 0.500000 0.241786 0.500000
Si Si3 0.900871 0.777734 0.305669
Si Si4 0.793064 0.662668 0.726121
Si Si5 0.925200 0.566173 0.771714
Si Si6 0.408427 0.850845 0.179421
Si Si7 0.591097 0.645949 0.050645
O O1 0.289711 0.887377 0.208013
O O2 0.123464 0.905910 0.134587
O O3 0.214968 0.000000 0.200704
O O4 0.348075 0.940569 0.951762
O O5 0.415886 0.279343 0.453699
O O6 0.411890 0.204029 0.651140
O O7 0.791062 0.824766 0.347150
O O8 0.866386 0.712858 0.266759
O O9 0.026263 0.798446 0.162081
O O10 0.843830 0.594092 0.704503
O O11 0.711834 0.674363 0.907960
O O12 0.971251 0.500000 0.698104
O O13 0.035264 0.610544 0.736675
O O14 0.500000 0.840495 0.000000
O O15 0.500000 0.617374 0.000000
#
# Coordination Sequence:
#
# PCOD8082000 Si02
#       7
#     8   4   8   8   8   8   8
#     4   9  18  30  53  87 116 145 180 231 287 332
#     4  12  24  38  57  82 117 154 186 234 284 342
#     4  11  23  38  57  86 113 152 187 234 286 336
#     4  10  21  39  57  85 116 145 192 228 285 337
#     4   9  17  33  55  81 115 147 184 232 281 334
#     4  10  18  30  54  84 114 143 181 235 284 330
#     4   9  20  38  58  85 115 149 189 235 279 335
#
# _framework density 20.830175000000001
#
# number of rings (size 3 to 8) (size 9 to 14) (size 15 to 20)
#    0.000    2.154    1.538    2.308    2.154    2.769 
#    0.000    2.692    0.000    0.000    0.000    1.077 
#    0.000    0.000    0.000    0.000    0.000    0.000 
#
# Total GULP energy -322224.634962 kJ/mol
# GULP energy per Si atom -12393.255191 kJ/mol
# Density = 2.078276 g / cm^3
# Si number density = 20.830175 Si / 1000 Ang^3
#
#
#
# Elastic Constant Matrix: (Units=GPa)
#
#
# Indices 1 2 3 4 5 6 
#
# 1 130.4127 72.3402 38.7699 0.0000 24.6190 0.0000
# 2 72.3402 113.2612 21.2002 0.0000 25.5149 0.0000
# 3 38.7699 21.2002 32.9144 0.0000 10.3198 0.0000
# 4 0.0000 0.0000 0.0000 4.4956 0.0000 6.4638
# 5 24.6190 25.5149 10.3198 0.0000 37.6913 0.0000
# 6 0.0000 0.0000 0.0000 6.4638 0.0000 32.5253
#
#
#
# Elastic Compliance Matrix: (Units=1/GPa)
#
#
# Indices 1 2 3 4 5 6 
#
# 1 0.016175 -0.007346 -0.013748 0.000000 -0.001828 0.000000
# 2 -0.007346 0.014538 0.000952 0.000000 -0.005304 0.000000
# 3 -0.013748 0.000952 0.047420 0.000000 -0.004648 0.000000
# 4 0.000000 0.000000 0.000000 0.311423 0.000000 -0.061889
# 5 -0.001828 -0.005304 -0.004648 0.000000 0.032588 0.000000
# 6 0.000000 0.000000 0.000000 -0.061889 0.000000 0.043045
#
#
# Mechanical properties :
#
#
# Convention : Reuss Voigt Hill
#
# Bulk Modulus (GPa) = 26.42108 60.13434 43.27771
# Shear Modulus (GPa) = 9.65089 24.56097 17.10593
#
# Velocity S-wave (km/s) = 2.15481 3.43754 2.86878
# Velocity P-wave (km/s) = 4.34770 6.68484 5.63869
#
# Compressibility (1/GPa) = 0.03784856
#
# Stress axis : x y z
#
# Youngs Moduli (GPa) = 61.82455 68.78756 21.08836
#
# Poissons Ratio (x) = 0.50530 0.28992
# Poissons Ratio (y) = 0.45415 -0.02007
# Poissons Ratio (z) = 0.84995 -0.06547
#
# Static dielectric constant tensor:
#      x y z
#    x 3.973970 0.000000 0.082150 
#    y 0.000000 3.857130 0.000000 
#    z 0.082150 0.000000 3.412910 
# 
# 
# High freq. dielectric constant tensor:
#      x y z
#    x 1.827000 0.000000 0.008170 
#    y 0.000000 1.799840 0.000000 
#    z 0.008170 0.000000 1.777190 
# 
# From -- ./inp_files/134771.got.cif
#   From: 2010.06.25/outbox.cif.g09.slc.cpg/sg12_68_cif.got.tgz:134771.got - 2010.06.28 00:19:55.
