data_PCOD8082948
_publ_section_title
;
Structure prediction by ZEFSAII (Michael W. Deem and Ramdas Pophale) SiO2 
 PCOD8082948
Probable space group: C 2/M
;
_chemical_formula_sum "Si O2"
_cell_formula_units_Z 64
_cell_length_a 27.111865
_cell_length_b 14.221459
_cell_length_c 14.511002
_cell_angle_alpha 90.000000
_cell_angle_beta 139.993736
_cell_angle_gamma 90.000000
_cell_volume 3596.872340
_symmetry_space_group_name_H-M "C 2/M"
_symmetry_group_IT_number 12
_symmetry_cell_setting 'monoclinic'
loop_
_space_group_symop_operation_xyz
x,y,z
-x,y,-z
-x,-y,-z
x,-y,z
1/2+x,1/2+y,z
1/2-x,1/2+y,-z
1/2-x,1/2-y,-z
1/2+x,1/2-y,z
loop_
_atom_site_type_symbol
_atom_site_label
_atom_site_fract_x
_atom_site_fract_y
_atom_site_fract_z
Si Si1 0.778996 0.107728 0.166134
Si Si2 0.240741 0.608104 0.313417
Si Si3 0.912683 0.893049 0.867759
Si Si4 0.304327 0.110145 0.136593
Si Si5 0.335031 0.229009 0.655424
Si Si6 0.588579 0.246102 0.616351
Si Si7 0.156397 0.273731 0.526211
Si Si8 0.721730 0.606337 0.201654
O O1 0.726562 0.118435 0.182789
O O2 0.858559 0.163630 0.289033
O O3 0.802674 0.000000 0.182882
O O4 0.729254 0.145738 0.008838
O O5 0.251060 0.500000 0.357137
O O6 0.168258 0.652000 0.266712
O O7 0.319640 0.663443 0.448885
O O8 0.875470 0.825007 0.740551
O O9 0.868900 0.884090 0.904280
O O10 0.906538 0.000000 0.822307
O O11 0.000000 0.861120 0.000000
O O12 0.383704 0.163413 0.274829
O O13 0.240696 0.136452 0.123848
O O14 0.323001 0.000000 0.160035
O O15 0.250000 0.250000 0.500000
O O16 0.376792 0.191386 0.620650
O O17 0.500000 0.272494 0.500000
O O18 0.595713 0.210469 0.520758
O O19 0.234967 0.328369 0.663208
O O20 0.750489 0.500000 0.258192
#
# Coordination Sequence:
#
# PCOD8082948 Si02
#       8
#     8   8   8   8   8   8   8   8
#     4   9  18  34  53  75 102 134 174 210 247 301
#     4   9  17  29  50  75  97 128 170 214 248 286
#     4  10  20  34  51  75 107 134 161 209 269 310
#     4   9  18  33  55  76  97 130 175 215 249 297
#     4  10  18  32  51  75  98 135 175 210 241 297
#     4  10  20  34  51  77 107 136 164 209 262 306
#     4   9  18  33  49  73 105 132 175 209 249 298
#     4   9  16  30  52  76 100 129 168 213 256 300
#
# _framework density 17.793236
#
# number of rings (size 3 to 8) (size 9 to 14) (size 15 to 20)
#    0.000    2.625    2.500    0.375    0.000    3.000 
#    2.250    0.000    0.000    0.375    0.000    0.000 
#    0.000    0.000    0.000    0.000    0.000    0.000 
#
# Total GULP energy -396488.678461 kJ/mol
# GULP energy per Si atom -12390.271202 kJ/mol
# Density = 1.775274 g / cm^3
# Si number density = 17.793236 Si / 1000 Ang^3
#
#
#
# Elastic Constant Matrix: (Units=GPa)
#
#
# Indices 1 2 3 4 5 6 
#
# 1 101.0273 39.1716 64.9425 0.0000 -16.2152 0.0000
# 2 39.1716 79.3694 45.9530 0.0000 -4.0818 0.0000
# 3 64.9425 45.9530 92.1631 0.0000 -10.0342 0.0000
# 4 0.0000 0.0000 0.0000 21.7688 0.0000 -0.4810
# 5 -16.2152 -4.0818 -10.0342 0.0000 30.8169 0.0000
# 6 0.0000 0.0000 0.0000 -0.4810 0.0000 19.8355
#
#
#
# Elastic Compliance Matrix: (Units=1/GPa)
#
#
# Indices 1 2 3 4 5 6 
#
# 1 0.019393 -0.002431 -0.011795 0.000000 0.006041 0.000000
# 2 -0.002431 0.018026 -0.007417 0.000000 -0.001307 0.000000
# 3 -0.011795 -0.007417 0.022889 0.000000 0.000264 0.000000
# 4 0.000000 0.000000 0.000000 0.045962 0.000000 0.001115
# 5 0.006041 -0.001307 0.000264 0.000000 0.035541 0.000000
# 6 0.000000 0.000000 0.000000 0.001115 0.000000 0.050442
#
#
# Mechanical properties :
#
#
# Convention : Reuss Voigt Hill
#
# Bulk Modulus (GPa) = 58.75132 63.63266 61.19199
# Shear Modulus (GPa) = 20.72852 22.65043 21.68948
#
# Velocity S-wave (km/s) = 3.41686 3.57175 3.49517
# Velocity P-wave (km/s) = 6.97547 7.26979 7.12415
#
# Compressibility (1/GPa) = 0.01702090
#
# Stress axis : x y z
#
# Youngs Moduli (GPa) = 51.56546 55.47434 43.68971
#
# Poissons Ratio (x) = 0.13487 0.51533
# Poissons Ratio (y) = 0.12537 0.32405
# Poissons Ratio (z) = 0.60822 0.41146
#
# Static dielectric constant tensor:
#      x y z
#    x 3.766460 0.000000 -0.463020 
#    y 0.000000 3.398440 0.000000 
#    z -0.463020 0.000000 3.142820 
# 
# 
# High freq. dielectric constant tensor:
#      x y z
#    x 1.692290 0.000000 -0.030510 
#    y 0.000000 1.694820 0.000000 
#    z -0.030510 0.000000 1.645950 
# 
# From -- ./inp_files/246373.got.cif
#   From: 2010.06.25/outbox.cif.g09.slc.cpg/sg12_124_cif.got.tgz:246373.got - 2010.06.28 00:19:55.
