data_PCOD8082416
_publ_section_title
;
Structure prediction by ZEFSAII (Michael W. Deem and Ramdas Pophale) SiO2 
 PCOD8082416
Probable space group: C 2/M
;
_chemical_formula_sum "Si O2"
_cell_formula_units_Z 48
_cell_length_a 14.853419
_cell_length_b 9.505954
_cell_length_c 24.290178
_cell_angle_alpha 90.000000
_cell_angle_beta 129.551488
_cell_angle_gamma 90.000000
_cell_volume 2644.459275
_symmetry_space_group_name_H-M "C 2/M"
_symmetry_group_IT_number 12
_symmetry_cell_setting 'monoclinic'
loop_
_space_group_symop_operation_xyz
x,y,z
-x,y,-z
-x,-y,-z
x,-y,z
1/2+x,1/2+y,z
1/2-x,1/2+y,-z
1/2-x,1/2-y,-z
1/2+x,1/2-y,z
loop_
_atom_site_type_symbol
_atom_site_label
_atom_site_fract_x
_atom_site_fract_y
_atom_site_fract_z
Si Si1 0.577389 0.834779 0.165621
Si Si2 0.994730 0.836012 0.762360
Si Si3 0.746332 0.164987 0.141042
Si Si4 0.157461 0.838444 0.401011
Si Si5 0.886363 0.164808 0.491370
Si Si6 0.849199 0.663475 0.010178
O O1 0.581175 0.748519 0.223169
O O2 0.692378 0.785063 0.177686
O O3 0.471300 0.793058 0.084144
O O4 0.576652 0.000000 0.178807
O O5 0.944178 0.808810 0.682219
O O6 0.124954 0.769509 0.816169
O O7 0.991417 0.000000 0.776724
O O8 0.764445 0.000000 0.151119
O O9 0.656775 0.202551 0.056885
O O10 0.100266 0.801624 0.438175
O O11 0.269674 0.746218 0.427325
O O12 0.198818 0.000000 0.416141
O O13 0.000000 0.215269 0.500000
O O14 0.866388 0.000000 0.472817
O O15 0.823197 0.500000 0.009168
O O16 0.750000 0.750000 0.000000
#
# Coordination Sequence:
#
# PCOD8082416 Si02
#       6
#     8   8   8   8   8   8
#     4  10  20  33  52  76  99 130 176 220 254 298
#     4  10  20  35  52  72 104 140 168 201 253 310
#     4   9  18  33  52  72  99 135 170 209 260 307
#     4   9  19  34  52  77 107 136 166 202 249 302
#     4   9  18  34  57  82 104 130 168 209 245 290
#     4  10  18  31  52  74  97 129 171 217 261 303
#
# _framework density 18.151157999999999
#
# number of rings (size 3 to 8) (size 9 to 14) (size 15 to 20)
#    0.000    2.500    1.667    0.500    0.000    4.333 
#    0.000    5.000    0.000    2.000    0.000    0.000 
#    0.000    0.000    0.000    0.000    0.000    0.000 
#
# Total GULP energy -297488.453398 kJ/mol
# GULP energy per Si atom -12395.352225 kJ/mol
# Density = 1.810984 g / cm^3
# Si number density = 18.151158 Si / 1000 Ang^3
#
#
#
# Elastic Constant Matrix: (Units=GPa)
#
#
# Indices 1 2 3 4 5 6 
#
# 1 125.3917 32.3878 25.0850 0.0000 -8.2768 0.0000
# 2 32.3878 35.1701 25.6308 0.0000 -3.2581 0.0000
# 3 25.0850 25.6308 69.6088 0.0000 -11.7374 0.0000
# 4 0.0000 0.0000 0.0000 24.6765 0.0000 0.2505
# 5 -8.2768 -3.2581 -11.7374 0.0000 22.1603 0.0000
# 6 0.0000 0.0000 0.0000 0.2505 0.0000 28.4923
#
#
#
# Elastic Compliance Matrix: (Units=1/GPa)
#
#
# Indices 1 2 3 4 5 6 
#
# 1 0.010607 -0.009652 0.000176 0.000000 0.002636 0.000000
# 2 -0.009652 0.047729 -0.014847 0.000000 -0.004451 0.000000
# 3 0.000176 -0.014847 0.021316 0.000000 0.009173 0.000000
# 4 0.000000 0.000000 0.000000 0.040528 0.000000 -0.000356
# 5 0.002636 -0.004451 0.009173 0.000000 0.050314 0.000000
# 6 0.000000 0.000000 0.000000 -0.000356 0.000000 0.035100
#
#
# Mechanical properties :
#
#
# Convention : Reuss Voigt Hill
#
# Bulk Modulus (GPa) = 32.25105 44.04197 38.14651
# Shear Modulus (GPa) = 18.89823 24.87028 21.88426
#
# Velocity S-wave (km/s) = 3.23020 3.70560 3.47604
# Velocity P-wave (km/s) = 5.63195 6.52881 6.09689
#
# Compressibility (1/GPa) = 0.03100674
#
# Stress axis : x y z
#
# Youngs Moduli (GPa) = 94.27952 20.95171 46.91285
#
# Poissons Ratio (x) = 0.20222 -0.00825
# Poissons Ratio (y) = 0.90996 0.69650
# Poissons Ratio (z) = -0.01659 0.31106
#
# Static dielectric constant tensor:
#      x y z
#    x 1.228680 0.000000 -5.269640 
#    y 0.000000 3.163660 0.000000 
#    z -5.269640 0.000000 -9.462380 
# 
# 
# High freq. dielectric constant tensor:
#      x y z
#    x 1.710250 0.000000 -0.004850 
#    y 0.000000 1.678610 0.000000 
#    z -0.004850 0.000000 1.702210 
# 
# From -- ./inp_files/261669.got.cif
#   From: 2010.06.25/outbox.cif.g09.slc.cpg/sg12_131_cif.got.tgz:261669.got - 2010.06.28 00:19:55.
