data_PCOD8082043
_publ_section_title
;
Structure prediction by ZEFSAII (Michael W. Deem and Ramdas Pophale) SiO2 
 PCOD8082043
Probable space group: C 2/M
;
_chemical_formula_sum "Si O2"
_cell_formula_units_Z 64
_cell_length_a 9.656593
_cell_length_b 26.379999
_cell_length_c 15.341125
_cell_angle_alpha 90.000000
_cell_angle_beta 96.572700
_cell_angle_gamma 90.000000
_cell_volume 3882.326467
_symmetry_space_group_name_H-M "C 2/M"
_symmetry_group_IT_number 12
_symmetry_cell_setting 'monoclinic'
loop_
_space_group_symop_operation_xyz
x,y,z
-x,y,-z
-x,-y,-z
x,-y,z
1/2+x,1/2+y,z
1/2-x,1/2+y,-z
1/2-x,1/2-y,-z
1/2+x,1/2-y,z
loop_
_atom_site_type_symbol
_atom_site_label
_atom_site_fract_x
_atom_site_fract_y
_atom_site_fract_z
Si Si1 0.827958 0.196958 0.175926
Si Si2 0.285913 0.802156 0.455895
Si Si3 0.591663 0.707704 0.298740
Si Si4 0.130010 0.556959 0.072603
Si Si5 0.857396 0.870235 0.020705
Si Si6 0.936616 0.315707 0.627714
Si Si7 0.226893 0.691049 0.858269
Si Si8 0.943547 0.638691 0.799562
O O1 0.893587 0.158038 0.112680
O O2 0.827957 0.252100 0.131771
O O3 0.670372 0.180801 0.183428
O O4 0.928312 0.196212 0.269284
O O5 0.250000 0.750000 0.500000
O O6 0.151973 0.821670 0.389901
O O7 0.334700 0.835868 0.542523
O O8 0.414742 0.797281 0.398513
O O9 0.619617 0.767281 0.320638
O O10 0.679680 0.689648 0.221789
O O11 0.177011 0.500000 0.099502
O O12 0.249361 0.584804 0.027029
O O13 0.095837 0.584732 0.161533
O O14 0.000000 0.556730 0.000000
O O15 0.809622 0.827791 0.948281
O O16 0.000000 0.896511 0.000000
O O17 0.949069 0.363440 0.694299
O O18 0.094133 0.654648 0.843787
#
# Coordination Sequence:
#
# PCOD8082043 Si02
#       8
#     8   8   8   8   8   8   8   8
#     4  11  21  31  46  71 110 143 180 209 243 298
#     4   9  19  29  45  69 101 144 183 208 246 294
#     4  11  18  30  47  67 103 147 177 207 240 288
#     4  10  22  41  59  76  99 129 174 227 270 313
#     4  11  23  35  50  78 102 137 176 215 256 313
#     4  10  18  31  46  70 104 140 178 215 243 299
#     4  12  19  33  47  72 108 146 171 207 248 300
#     4  11  21  33  55  74  99 140 178 208 260 309
#
# _framework density 16.484960999999998
#
# number of rings (size 3 to 8) (size 9 to 14) (size 15 to 20)
#    0.000    1.375    6.250    0.375    1.750    0.250 
#    0.000    0.000    0.000    0.000    0.000    1.750 
#    0.000    4.000    0.000    0.000    0.000    0.125 
#
# Total GULP energy -396457.390978 kJ/mol
# GULP energy per Si atom -12389.293468 kJ/mol
# Density = 1.644744 g / cm^3
# Si number density = 16.484961 Si / 1000 Ang^3
#
#
#
# Elastic Constant Matrix: (Units=GPa)
#
#
# Indices 1 2 3 4 5 6 
#
# 1 73.9983 23.2757 27.9021 0.0000 3.1175 0.0000
# 2 23.2757 70.4044 29.9678 0.0000 -2.3730 0.0000
# 3 27.9021 29.9678 107.4009 0.0000 10.8051 0.0000
# 4 0.0000 0.0000 0.0000 4.9296 0.0000 7.0377
# 5 3.1175 -2.3730 10.8051 0.0000 35.2462 0.0000
# 6 0.0000 0.0000 0.0000 7.0377 0.0000 7.9208
#
#
#
# Elastic Compliance Matrix: (Units=1/GPa)
#
#
# Indices 1 2 3 4 5 6 
#
# 1 0.015923 -0.004044 -0.002930 0.000000 -0.000782 0.000000
# 2 -0.004044 0.017369 -0.004075 0.000000 0.002776 0.000000
# 3 -0.002930 -0.004075 0.011567 0.000000 -0.003561 0.000000
# 4 0.000000 0.000000 0.000000 -0.755591 0.000000 0.671349
# 5 -0.000782 0.002776 -0.003561 0.000000 0.029720 0.000000
# 6 0.000000 0.000000 0.000000 0.671349 0.000000 -0.470250
#
#
# Mechanical properties :
#
#
# Convention : Reuss Voigt Hill
#
# Bulk Modulus (GPa) = 43.93206 46.01050 44.97128
# Shear Modulus (GPa) = -4.45801 20.99650 8.26924
#
# Velocity S-wave (km/s) = -1.64626 3.57273 2.24212
# Velocity P-wave (km/s) = 4.80563 6.70749 5.83457
#
# Compressibility (1/GPa) = 0.02276242
#
# Stress axis : x y z
#
# Youngs Moduli (GPa) = 62.80071 57.57503 86.44965
#
# Poissons Ratio (x) = 0.23281 0.25328
# Poissons Ratio (y) = 0.25394 0.35230
# Poissons Ratio (z) = 0.18399 0.23463
#
# Static dielectric constant tensor:
#      x y z
#    x 3.299300 0.000000 0.100510 
#    y 0.000000 2.732070 0.000000 
#    z 0.100510 0.000000 3.638880 
# 
# 
# High freq. dielectric constant tensor:
#      x y z
#    x 1.652960 0.000000 0.004370 
#    y 0.000000 1.564500 0.000000 
#    z 0.004370 0.000000 1.652310 
# 
# From -- ./inp_files/199842.got.cif
#   From: 2010.06.25/outbox.cif.g09.slc.cpg/sg12_100_cif.got.tgz:199842.got - 2010.06.28 00:19:55.
