data_PCOD8082468
_publ_section_title
;
Structure prediction by ZEFSAII (Michael W. Deem and Ramdas Pophale) SiO2 
 PCOD8082468
Probable space group: C 2/M
;
_chemical_formula_sum "Si O2"
_cell_formula_units_Z 40
_cell_length_a 27.599616
_cell_length_b 8.735849
_cell_length_c 25.794392
_cell_angle_alpha 90.000000
_cell_angle_beta 159.427247
_cell_angle_gamma 90.000000
_cell_volume 2185.399518
_symmetry_space_group_name_H-M "C 2/M"
_symmetry_group_IT_number 12
_symmetry_cell_setting 'monoclinic'
loop_
_space_group_symop_operation_xyz
x,y,z
-x,y,-z
-x,-y,-z
x,-y,z
1/2+x,1/2+y,z
1/2-x,1/2+y,-z
1/2-x,1/2-y,-z
1/2+x,1/2-y,z
loop_
_atom_site_type_symbol
_atom_site_label
_atom_site_fract_x
_atom_site_fract_y
_atom_site_fract_z
Si Si1 0.277068 0.180521 0.310827
Si Si2 0.241334 0.680745 0.547733
Si Si3 0.043857 0.179983 0.153078
Si Si4 0.256963 0.181318 0.171123
Si Si5 0.031581 0.180420 0.415953
O O1 0.271388 0.227053 0.245586
O O2 0.406123 0.263113 0.467038
O O3 0.136023 0.237391 0.196959
O O4 0.298274 0.000000 0.340150
O O5 0.225022 0.500000 0.528166
O O6 0.250000 0.750000 0.500000
O O7 0.381176 0.727097 0.718371
O O8 0.109316 0.746275 0.445096
O O9 0.029306 0.000000 0.133396
O O10 0.889697 0.247615 0.996018
O O11 0.373157 0.266516 0.254305
O O12 0.271122 0.000000 0.177529
O O13 0.042400 0.000000 0.422402
#
# Coordination Sequence:
#
# PCOD8082468 Si02
#       5
#     8   8   8   8   8
#     4   9  17  31  52  76 103 139 178 211 248 298
#     4  10  20  38  61  80  98 126 167 212 260 310
#     4   8  16  31  53  79 103 130 169 213 254 302
#     4  10  18  31  52  77 106 138 171 210 255 299
#     4  11  22  34  49  74 107 140 174 209 248 298
#
# _framework density 18.303291000000002
#
# number of rings (size 3 to 8) (size 9 to 14) (size 15 to 20)
#    0.000    2.400    0.000    4.800    0.000    5.600 
#    0.000    6.000    0.000    6.000    0.000    0.000 
#    0.000    0.000    0.000    0.000    0.000    0.000 
#
# Total GULP energy -247990.861246 kJ/mol
# GULP energy per Si atom -12399.543062 kJ/mol
# Density = 1.826163 g / cm^3
# Si number density = 18.303291 Si / 1000 Ang^3
#
#
#
# Elastic Constant Matrix: (Units=GPa)
#
#
# Indices 1 2 3 4 5 6 
#
# 1 121.1412 55.4276 70.2064 0.0001 -0.4678 0.0001
# 2 55.4276 66.4466 40.0349 0.0028 3.1960 0.0006
# 3 70.2064 40.0349 145.2270 0.0033 23.4076 0.0010
# 4 0.0001 0.0028 0.0033 10.8846 0.0005 1.3676
# 5 -0.4678 3.1960 23.4076 0.0005 18.9102 0.0000
# 6 0.0001 0.0006 0.0010 1.3676 0.0000 28.5949
#
#
#
# Elastic Compliance Matrix: (Units=1/GPa)
#
#
# Indices 1 2 3 4 5 6 
#
# 1 0.017401 -0.010667 -0.007285 0.000004 0.011251 0.000000
# 2 -0.010667 0.024818 -0.001207 -0.000006 -0.002964 0.000000
# 3 -0.007285 -0.001207 0.013412 -0.000003 -0.016578 0.000000
# 4 0.000004 -0.000006 -0.000003 0.092428 0.000002 -0.004421
# 5 0.011251 -0.002964 -0.016578 0.000002 0.074182 0.000001
# 6 0.000000 0.000000 0.000000 -0.004421 0.000001 0.035183
#
#
# Mechanical properties :
#
#
# Convention : Reuss Voigt Hill
#
# Bulk Modulus (GPa) = 57.76017 73.79473 65.77745
# Shear Modulus (GPa) = 16.58306 22.82099 19.70202
#
# Velocity S-wave (km/s) = 3.01327 3.53487 3.28444
# Velocity P-wave (km/s) = 6.61303 7.55418 7.09922
#
# Compressibility (1/GPa) = 0.01731297
#
# Stress axis : x y z
#
# Youngs Moduli (GPa) = 57.46863 40.29391 74.55908
#
# Poissons Ratio (x) = 0.42982 0.54314
# Poissons Ratio (y) = 0.61303 0.08999
# Poissons Ratio (z) = 0.41864 0.04863
#
# Static dielectric constant tensor:
#      x y z
#    x 3.268290 0.000000 0.073230 
#    y 0.000000 3.130570 -0.000010 
#    z 0.073230 -0.000010 3.688190 
# 
# 
# High freq. dielectric constant tensor:
#      x y z
#    x 1.699410 0.000000 0.009700 
#    y 0.000000 1.687690 0.000000 
#    z 0.009700 0.000000 1.717040 
# 
# From -- ./inp_files/92792.got.cif
#   From: 2010.06.25/outbox.cif.g09.slc.cpg/sg12_47_cif.got.tgz:92792.got - 2010.06.28 00:19:55.
