data_PCOD8082224
_publ_section_title
;
Structure prediction by ZEFSAII (Michael W. Deem and Ramdas Pophale) SiO2 
 PCOD8082224
Probable space group: C 2/M
;
_chemical_formula_sum "Si O2"
_cell_formula_units_Z 64
_cell_length_a 20.121788
_cell_length_b 9.162866
_cell_length_c 22.487100
_cell_angle_alpha 90.000000
_cell_angle_beta 117.168310
_cell_angle_gamma 90.000000
_cell_volume 3688.585383
_symmetry_space_group_name_H-M "C 2/M"
_symmetry_group_IT_number 12
_symmetry_cell_setting 'monoclinic'
loop_
_space_group_symop_operation_xyz
x,y,z
-x,y,-z
-x,-y,-z
x,-y,z
1/2+x,1/2+y,z
1/2-x,1/2+y,-z
1/2-x,1/2-y,-z
1/2+x,1/2-y,z
loop_
_atom_site_type_symbol
_atom_site_label
_atom_site_fract_x
_atom_site_fract_y
_atom_site_fract_z
Si Si1 0.312306 0.168414 0.953799
Si Si2 0.505843 0.327283 0.405720
Si Si3 0.387101 0.671175 0.447560
Si Si4 0.647466 0.670131 0.911751
Si Si5 0.556205 0.829086 0.072165
Si Si6 0.428290 0.171253 0.674520
Si Si7 0.498412 0.172260 0.173474
Si Si8 0.233427 0.328120 0.431940
O O1 0.224681 0.199328 0.907394
O O2 0.358210 0.204665 0.912239
O O3 0.325107 0.000000 0.978001
O O4 0.345457 0.268310 0.019041
O O5 0.508329 0.500000 0.395989
O O6 0.572220 0.270411 0.476144
O O7 0.427519 0.274128 0.403742
O O8 0.513849 0.249372 0.345814
O O9 0.399708 0.500000 0.454389
O O10 0.299815 0.714266 0.412862
O O11 0.628993 0.500000 0.908095
O O12 0.581593 0.751401 0.850031
O O13 0.538538 0.764963 0.130279
O O14 0.541660 0.000000 0.069984
O O15 0.500000 0.761229 0.000000
O O16 0.448785 0.214755 0.750019
O O17 0.343931 0.226342 0.628083
O O18 0.435099 0.000000 0.666691
O O19 0.484943 0.000000 0.164928
O O20 0.232767 0.500000 0.443816
O O21 0.250000 0.250000 0.500000
#
# Coordination Sequence:
#
# PCOD8082224 Si02
#       8
#     8   8   8   8   8   8   8   8
#     4   9  17  31  51  75 100 124 159 205 246 287
#     4   9  16  30  51  72  96 128 161 196 241 292
#     4   8  15  28  49  74  97 123 160 201 241 287
#     4  10  19  30  48  76 103 126 159 203 246 294
#     4   9  15  28  53  75  91 125 173 205 234 286
#     4  10  21  33  48  73 102 130 163 204 253 301
#     4  10  20  35  51  68  98 136 167 203 250 296
#     4  10  18  31  50  74 100 127 164 205 247 293
#
# _framework density 17.350826000000001
#
# number of rings (size 3 to 8) (size 9 to 14) (size 15 to 20)
#    0.000    2.625    2.500    1.125    0.000    1.000 
#    0.000    4.375    0.000    4.500    0.000    0.000 
#    0.000    0.000    0.000    0.000    0.000    0.000 
#
# Total GULP energy -396645.142356 kJ/mol
# GULP energy per Si atom -12395.160699 kJ/mol
# Density = 1.731133 g / cm^3
# Si number density = 17.350826 Si / 1000 Ang^3
#
#
#
# Elastic Constant Matrix: (Units=GPa)
#
#
# Indices 1 2 3 4 5 6 
#
# 1 153.0337 34.3673 78.7621 0.0000 -2.6339 0.0000
# 2 34.3673 32.4280 35.5933 0.0000 2.1402 0.0000
# 3 78.7621 35.5933 121.0820 0.0000 -1.9199 0.0000
# 4 0.0000 0.0000 0.0000 21.6851 0.0000 -0.1158
# 5 -2.6339 2.1402 -1.9199 0.0000 28.7211 0.0000
# 6 0.0000 0.0000 0.0000 -0.1158 0.0000 23.5329
#
#
#
# Elastic Compliance Matrix: (Units=1/GPa)
#
#
# Indices 1 2 3 4 5 6 
#
# 1 0.010438 -0.005454 -0.005170 0.000000 0.001018 0.000000
# 2 -0.005454 0.048912 -0.010907 0.000000 -0.004874 0.000000
# 3 -0.005170 -0.010907 0.014849 0.000000 0.001331 0.000000
# 4 0.000000 0.000000 0.000000 0.046116 0.000000 0.000227
# 5 0.001018 -0.004874 0.001331 0.000000 0.035363 0.000000
# 6 0.000000 0.000000 0.000000 0.000227 0.000000 0.042495
#
#
# Mechanical properties :
#
#
# Convention : Reuss Voigt Hill
#
# Bulk Modulus (GPa) = 32.11798 67.10991 49.61395
# Shear Modulus (GPa) = 19.87157 25.30921 22.59039
#
# Velocity S-wave (km/s) = 3.38787 3.82340 3.61221
# Velocity P-wave (km/s) = 5.81848 7.63239 6.78631
#
# Compressibility (1/GPa) = 0.03113521
#
# Stress axis : x y z
#
# Youngs Moduli (GPa) = 95.80475 20.44488 67.34258
#
# Poissons Ratio (x) = 0.11152 0.34817
# Poissons Ratio (y) = 0.52256 0.73453
# Poissons Ratio (z) = 0.49533 0.22300
#
# Static dielectric constant tensor:
#      x y z
#    x 3.755860 0.000000 0.031900 
#    y 0.000000 2.987000 0.000000 
#    z 0.031900 0.000000 3.080150 
# 
# 
# High freq. dielectric constant tensor:
#      x y z
#    x 1.688440 0.000000 0.001270 
#    y 0.000000 1.641880 0.000000 
#    z 0.001270 0.000000 1.641160 
# 
# From -- ./inp_files/345612.got.cif
#   From: 2010.06.25/outbox.cif.g09.slc.cpg/sg12_173_cif.got.tgz:345612.got - 2010.06.28 00:19:55.
