data_PCOD8082371
_publ_section_title
;
Structure prediction by ZEFSAII (Michael W. Deem and Ramdas Pophale) SiO2 
 PCOD8082371
Probable space group: C 2/M
;
_chemical_formula_sum "Si O2"
_cell_formula_units_Z 48
_cell_length_a 26.254530
_cell_length_b 9.495369
_cell_length_c 19.381837
_cell_angle_alpha 90.000000
_cell_angle_beta 28.398160
_cell_angle_gamma 90.000000
_cell_volume 2297.995575
_symmetry_space_group_name_H-M "C 2/M"
_symmetry_group_IT_number 12
_symmetry_cell_setting 'monoclinic'
loop_
_space_group_symop_operation_xyz
x,y,z
-x,y,-z
-x,-y,-z
x,-y,z
1/2+x,1/2+y,z
1/2-x,1/2+y,-z
1/2-x,1/2-y,-z
1/2+x,1/2-y,z
loop_
_atom_site_type_symbol
_atom_site_label
_atom_site_fract_x
_atom_site_fract_y
_atom_site_fract_z
Si Si1 0.695376 0.836402 0.005209
Si Si2 0.250955 0.662753 0.787890
Si Si3 0.162972 0.838996 0.660543
Si Si4 0.553503 0.651363 0.009076
Si Si5 0.829683 0.660694 0.576558
Si Si6 0.545914 0.838995 0.700162
O O1 0.766730 0.813503 0.851172
O O2 0.691757 0.000000 0.030609
O O3 0.750000 0.750000 0.000000
O O4 0.572901 0.780640 0.140219
O O5 0.258574 0.500000 0.759125
O O6 0.336709 0.745301 0.637748
O O7 0.133372 0.718534 0.911164
O O8 0.229991 0.789431 0.647322
O O9 0.155281 0.734835 0.602504
O O10 0.037136 0.823352 0.826560
O O11 0.193803 0.000000 0.604020
O O12 0.611493 0.500000 0.955639
O O13 0.500000 0.638162 0.000000
O O14 0.812144 0.500000 0.620936
O O15 0.937870 0.676316 0.402174
O O16 0.553824 0.000000 0.714679
#
# Coordination Sequence:
#
# PCOD8082371 Si02
#       6
#     8   8   8   8   8   8
#     4  10  23  42  62  85 106 137 185 237 290 337
#     4  11  22  36  56  83 114 143 184 237 280 326
#     4  10  19  31  52  83 117 155 193 221 261 325
#     4  10  18  31  51  78 115 153 190 224 262 326
#     4  10  21  37  56  82 119 158 188 219 267 334
#     4  10  21  38  58  82 116 150 187 234 277 324
#
# _framework density 20.887768000000001
#
# number of rings (size 3 to 8) (size 9 to 14) (size 15 to 20)
#    0.000    1.833    3.333    1.000    0.000    3.667 
#    0.000    0.833    0.000    5.000    0.000    0.000 
#    0.000    0.000    0.000    0.000    0.000    0.000 
#
# Total GULP energy -297370.151637 kJ/mol
# GULP energy per Si atom -12390.422985 kJ/mol
# Density = 2.084023 g / cm^3
# Si number density = 20.887768 Si / 1000 Ang^3
#
#
#
# Elastic Constant Matrix: (Units=GPa)
#
#
# Indices 1 2 3 4 5 6 
#
# 1 84.8708 51.7752 14.1587 0.0004 9.2326 -0.0001
# 2 51.7752 85.9327 15.7406 0.0017 13.0691 -0.0011
# 3 14.1587 15.7406 43.1065 0.0009 14.9753 -0.0007
# 4 0.0004 0.0017 0.0009 26.8483 -0.0008 5.4091
# 5 9.2326 13.0691 14.9753 -0.0008 31.0302 0.0003
# 6 -0.0001 -0.0011 -0.0007 5.4091 0.0003 36.4010
#
#
#
# Elastic Compliance Matrix: (Units=1/GPa)
#
#
# Indices 1 2 3 4 5 6 
#
# 1 0.018821 -0.010947 -0.002212 0.000001 0.000078 0.000000
# 2 -0.010947 0.019196 -0.002087 -0.000001 -0.003821 0.000001
# 3 -0.002212 -0.002087 0.029018 -0.000001 -0.012467 0.000001
# 4 0.000001 -0.000001 -0.000001 0.038396 0.000002 -0.005706
# 5 0.000078 -0.003821 -0.012467 0.000002 0.039829 -0.000001
# 6 0.000000 0.000001 0.000001 -0.005706 -0.000001 0.028320
#
#
# Mechanical properties :
#
#
# Convention : Reuss Voigt Hill
#
# Bulk Modulus (GPa) = 27.36368 41.91766 34.64067
# Shear Modulus (GPa) = 23.12129 27.67161 25.39645
#
# Velocity S-wave (km/s) = 3.33066 3.64370 3.49069
# Velocity P-wave (km/s) = 5.28393 6.14928 5.73295
#
# Compressibility (1/GPa) = 0.03654479
#
# Stress axis : x y z
#
# Youngs Moduli (GPa) = 53.13210 52.09510 34.46142
#
# Poissons Ratio (x) = 0.57026 0.07622
# Poissons Ratio (y) = 0.58161 0.07191
# Poissons Ratio (z) = 0.11752 0.10870
#
# Static dielectric constant tensor:
#      x y z
#    x 3.545760 0.000000 0.365700 
#    y 0.000000 3.914410 0.000000 
#    z 0.365700 0.000000 4.130130 
# 
# 
# High freq. dielectric constant tensor:
#      x y z
#    x 1.790050 0.000000 0.030310 
#    y 0.000000 1.811100 0.000000 
#    z 0.030310 0.000000 1.829830 
# 
# From -- ./inp_files/320315.got.cif
#   From: 2010.06.25/outbox.cif.g09.slc.cpg/sg12_161_cif.got.tgz:320315.got - 2010.06.28 00:19:55.
