data_PCOD8082354
_publ_section_title
;
Structure prediction by ZEFSAII (Michael W. Deem and Ramdas Pophale) SiO2 
 PCOD8082354
Probable space group: C 2/M
;
_chemical_formula_sum "Si O2"
_cell_formula_units_Z 56
_cell_length_a 30.533730
_cell_length_b 9.582087
_cell_length_c 12.611735
_cell_angle_alpha 90.000000
_cell_angle_beta 126.237832
_cell_angle_gamma 90.000000
_cell_volume 2976.164691
_symmetry_space_group_name_H-M "C 2/M"
_symmetry_group_IT_number 12
_symmetry_cell_setting 'monoclinic'
loop_
_space_group_symop_operation_xyz
x,y,z
-x,y,-z
-x,-y,-z
x,-y,z
1/2+x,1/2+y,z
1/2-x,1/2+y,-z
1/2-x,1/2-y,-z
1/2+x,1/2-y,z
loop_
_atom_site_type_symbol
_atom_site_label
_atom_site_fract_x
_atom_site_fract_y
_atom_site_fract_z
Si Si1 0.147834 0.334902 0.072590
Si Si2 0.382634 0.841326 0.737326
Si Si3 0.295606 0.346492 0.519866
Si Si4 0.371485 0.836295 0.353574
Si Si5 0.070482 0.335757 0.780248
Si Si6 0.047703 0.658997 0.352061
Si Si7 0.729597 0.654830 0.758781
O O1 0.151791 0.500000 0.071122
O O2 0.118383 0.293233 0.141660
O O3 0.209657 0.277963 0.149922
O O4 0.111582 0.270703 0.926325
O O5 0.351007 0.731013 0.621813
O O6 0.440472 0.834406 0.758485
O O7 0.359003 0.000000 0.695036
O O8 0.294919 0.500000 0.572763
O O9 0.250000 0.250000 0.500000
O O10 0.287348 0.364138 0.385262
O O11 0.409309 0.801243 0.307854
O O12 0.403925 0.779342 0.503960
O O13 0.314295 0.757774 0.251372
O O14 0.357658 0.000000 0.342337
O O15 0.067584 0.500000 0.797584
O O16 0.010523 0.268050 0.710008
O O17 0.042682 0.500000 0.383450
O O18 0.728088 0.500000 0.810628
#
# Coordination Sequence:
#
# PCOD8082354 Si02
#       7
#     8   8   8   8   8   8   8
#     4   9  18  32  48  71 106 139 166 202 253 309
#     4  10  18  31  51  77 106 132 165 208 253 303
#     4  11  20  31  50  76 106 136 167 208 257 304
#     4  10  19  32  53  78 102 129 170 218 255 295
#     4   9  18  32  50  74 103 136 170 211 259 296
#     4   9  17  29  50  78 103 128 167 216 257 297
#     4  10  20  33  50  74 105 136 165 205 256 304
#
# _framework density 18.816163
#
# number of rings (size 3 to 8) (size 9 to 14) (size 15 to 20)
#    0.000    2.286    2.857    0.857    0.000    3.429 
#    0.000    2.857    0.000    3.429    0.000    1.000 
#    0.000    0.000    0.000    0.000    0.000    0.000 
#
# Total GULP energy -346898.334832 kJ/mol
# GULP energy per Si atom -12389.226244 kJ/mol
# Density = 1.877334 g / cm^3
# Si number density = 18.816163 Si / 1000 Ang^3
#
#
#
# Elastic Constant Matrix: (Units=GPa)
#
#
# Indices 1 2 3 4 5 6 
#
# 1 138.3490 32.1449 44.4677 0.0000 4.9938 0.0000
# 2 32.1449 52.6467 11.9111 0.0000 3.2130 0.0000
# 3 44.4677 11.9111 89.9354 0.0000 7.2446 0.0000
# 4 0.0000 0.0000 0.0000 12.9677 0.0000 2.5246
# 5 4.9938 3.2130 7.2446 0.0000 20.1790 0.0000
# 6 0.0000 0.0000 0.0000 2.5246 0.0000 19.7194
#
#
#
# Elastic Compliance Matrix: (Units=1/GPa)
#
#
# Indices 1 2 3 4 5 6 
#
# 1 0.009722 -0.004993 -0.004135 0.000000 -0.000126 0.000000
# 2 -0.004993 0.022245 -0.000301 0.000000 -0.002198 0.000000
# 3 -0.004135 -0.000301 0.013508 0.000000 -0.003778 0.000000
# 4 0.000000 0.000000 0.000000 0.079086 0.000000 -0.010125
# 5 -0.000126 -0.002198 -0.003778 0.000000 0.051294 0.000000
# 6 0.000000 0.000000 0.000000 -0.010125 0.000000 0.052008
#
#
# Mechanical properties :
#
#
# Convention : Reuss Voigt Hill
#
# Bulk Modulus (GPa) = 37.56892 50.88650 44.22771
# Shear Modulus (GPa) = 19.56236 23.40037 21.48137
#
# Velocity S-wave (km/s) = 3.22787 3.53034 3.38249
# Velocity P-wave (km/s) = 5.82253 6.61215 6.22986
#
# Compressibility (1/GPa) = 0.02661775
#
# Stress axis : x y z
#
# Youngs Moduli (GPa) = 102.86063 44.95371 74.03019
#
# Poissons Ratio (x) = 0.22444 0.30615
# Poissons Ratio (y) = 0.51354 0.02225
# Poissons Ratio (z) = 0.42538 0.01351
#
# Static dielectric constant tensor:
#      x y z
#    x 1.705380 0.000000 -3.077420 
#    y 0.000000 3.095900 0.000000 
#    z -3.077420 0.000000 -1.904060 
# 
# 
# High freq. dielectric constant tensor:
#      x y z
#    x 1.743450 0.000000 -0.001830 
#    y 0.000000 1.676330 0.000000 
#    z -0.001830 0.000000 1.720760 
# 
# From -- ./inp_files/187749.got.cif
#   From: 2010.06.25/outbox.cif.g09.slc.cpg/sg12_94_cif.got.tgz:187749.got - 2010.06.28 00:19:55.
