data_PCOD8082306
_publ_section_title
;
Structure prediction by ZEFSAII (Michael W. Deem and Ramdas Pophale) SiO2 
 PCOD8082306
Probable space group: C 2/M
;
_chemical_formula_sum "Si O2"
_cell_formula_units_Z 64
_cell_length_a 21.606961
_cell_length_b 20.567747
_cell_length_c 17.280643
_cell_angle_alpha 90.000000
_cell_angle_beta 29.559708
_cell_angle_gamma 90.000000
_cell_volume 3788.594203
_symmetry_space_group_name_H-M "C 2/M"
_symmetry_group_IT_number 12
_symmetry_cell_setting 'monoclinic'
loop_
_space_group_symop_operation_xyz
x,y,z
-x,y,-z
-x,-y,-z
x,-y,z
1/2+x,1/2+y,z
1/2-x,1/2+y,-z
1/2-x,1/2-y,-z
1/2+x,1/2-y,z
loop_
_atom_site_type_symbol
_atom_site_label
_atom_site_fract_x
_atom_site_fract_y
_atom_site_fract_z
Si Si1 0.360621 0.922083 0.368536
Si Si2 0.880798 0.137100 0.299920
Si Si3 0.998363 0.329072 0.675257
Si Si4 0.568445 0.744183 0.118435
Si Si5 0.235939 0.725253 0.344268
Si Si6 0.432128 0.833790 0.152343
Si Si7 0.072353 0.926281 0.994125
Si Si8 0.222441 0.328308 0.192910
O O1 0.219589 0.895813 0.534195
O O2 0.445527 0.894237 0.346399
O O3 0.407670 0.895779 0.234297
O O4 0.366250 0.000000 0.363360
O O5 0.821363 0.167860 0.286725
O O6 0.957458 0.193460 0.260945
O O7 0.980413 0.081802 0.167363
O O8 0.911990 0.291947 0.831154
O O9 0.911866 0.348399 0.696597
O O10 0.105603 0.278337 0.532753
O O11 0.528610 0.783786 0.085707
O O12 0.699273 0.710175 0.957128
O O13 0.300483 0.795990 0.282064
O O14 0.205131 0.714811 0.287869
O O15 0.500000 0.858227 0.000000
O O16 0.104981 0.000000 0.941723
O O17 0.205830 0.893484 0.862116
O O18 0.000000 0.894646 0.000000
#
# Coordination Sequence:
#
# PCOD8082306 Si02
#       8
#     8   8   8   8   8   8   8   8
#     4  10  21  35  50  71 103 139 168 200 243 294
#     4   9  17  31  53  71  96 125 165 206 250 283
#     4  10  21  33  46  72 105 133 164 193 246 306
#     4   9  18  31  52  75  97 125 158 212 254 293
#     4  10  18  31  51  74 100 127 158 206 255 296
#     4  10  18  32  55  77  97 125 164 213 259 290
#     4  10  19  30  47  70  95 126 169 206 233 273
#     4  11  19  31  50  72 100 132 162 199 247 302
#
# _framework density 16.892810000000001
#
# number of rings (size 3 to 8) (size 9 to 14) (size 15 to 20)
#    0.000    2.125    2.500    1.875    0.000    3.750 
#    0.000    0.000    0.000    2.250    0.000    0.000 
#    0.000    3.000    0.000    0.000    0.000    0.000 
#
# Total GULP energy -396639.503394 kJ/mol
# GULP energy per Si atom -12394.984481 kJ/mol
# Density = 1.685436 g / cm^3
# Si number density = 16.892810 Si / 1000 Ang^3
#
#
#
# Elastic Constant Matrix: (Units=GPa)
#
#
# Indices 1 2 3 4 5 6 
#
# 1 81.3564 27.3647 28.3913 -0.0005 -1.5082 0.0003
# 2 27.3647 78.5012 27.9167 -0.0004 5.3588 0.0003
# 3 28.3913 27.9167 66.3181 -0.0023 7.9360 0.0009
# 4 -0.0005 -0.0004 -0.0023 15.9944 0.0005 3.7655
# 5 -1.5082 5.3588 7.9360 0.0005 22.7528 0.0000
# 6 0.0003 0.0003 0.0009 3.7655 0.0000 15.8263
#
#
#
# Elastic Compliance Matrix: (Units=1/GPa)
#
#
# Indices 1 2 3 4 5 6 
#
# 1 0.015548 -0.003706 -0.005556 -0.000001 0.003841 0.000000
# 2 -0.003706 0.015907 -0.004833 0.000000 -0.002306 0.000000
# 3 -0.005556 -0.004833 0.020245 0.000003 -0.006291 -0.000002
# 4 -0.000001 0.000000 0.000003 0.066232 -0.000002 -0.015758
# 5 0.003841 -0.002306 -0.006291 -0.000002 0.046943 0.000001
# 6 0.000000 0.000000 -0.000002 -0.015758 0.000001 0.066935
#
#
# Mechanical properties :
#
#
# Convention : Reuss Voigt Hill
#
# Bulk Modulus (GPa) = 42.53710 43.72457 43.13083
# Shear Modulus (GPa) = 18.66806 20.41490 19.54148
#
# Velocity S-wave (km/s) = 3.32789 3.48011 3.40486
# Velocity P-wave (km/s) = 6.32469 6.48753 6.40663
#
# Compressibility (1/GPa) = 0.02350889
#
# Stress axis : x y z
#
# Youngs Moduli (GPa) = 64.31566 62.86553 49.39551
#
# Poissons Ratio (x) = 0.23301 0.27443
# Poissons Ratio (y) = 0.23838 0.23874
# Poissons Ratio (z) = 0.35732 0.30385
#
# Static dielectric constant tensor:
#      x y z
#    x 3.052760 0.000000 0.018810 
#    y 0.000000 2.883980 0.000000 
#    z 0.018810 0.000000 3.141970 
# 
# 
# High freq. dielectric constant tensor:
#      x y z
#    x 1.640490 0.000000 0.005630 
#    y 0.000000 1.625690 0.000000 
#    z 0.005630 0.000000 1.659020 
# 
# From -- ./inp_files/159243.got.cif
#   From: 2010.06.25/outbox.cif.g09.slc.cpg/sg12_80_cif.got.tgz:159243.got - 2010.06.28 00:19:55.
