data_PCOD8082072
_publ_section_title
;
Structure prediction by ZEFSAII (Michael W. Deem and Ramdas Pophale) SiO2 
 PCOD8082072
Probable space group: C 2/M
;
_chemical_formula_sum "Si O2"
_cell_formula_units_Z 64
_cell_length_a 28.284468
_cell_length_b 8.920904
_cell_length_c 15.497776
_cell_angle_alpha 90.000000
_cell_angle_beta 90.308750
_cell_angle_gamma 90.000000
_cell_volume 3910.388925
_symmetry_space_group_name_H-M "C 2/M"
_symmetry_group_IT_number 12
_symmetry_cell_setting 'monoclinic'
loop_
_space_group_symop_operation_xyz
x,y,z
-x,y,-z
-x,-y,-z
x,-y,z
1/2+x,1/2+y,z
1/2-x,1/2+y,-z
1/2-x,1/2-y,-z
1/2+x,1/2-y,z
loop_
_atom_site_type_symbol
_atom_site_label
_atom_site_fract_x
_atom_site_fract_y
_atom_site_fract_z
Si Si1 0.947517 0.323595 0.321999
Si Si2 0.607508 0.322415 0.834626
Si Si3 0.894589 0.173482 0.825509
Si Si4 0.198952 0.171361 0.083837
Si Si5 0.194640 0.326358 0.905536
Si Si6 0.443383 0.824315 0.668711
Si Si7 0.943939 0.831518 0.495617
Si Si8 0.052889 0.177973 0.002471
O O1 0.939808 0.500000 0.318106
O O2 0.917818 0.245466 0.247829
O O3 0.927527 0.263729 0.412818
O O4 0.002484 0.279417 0.310257
O O5 0.606230 0.500000 0.827200
O O6 0.661584 0.266447 0.840023
O O7 0.580932 0.261700 0.919697
O O8 0.838566 0.197036 0.839888
O O9 0.910032 0.273630 0.745871
O O10 0.921893 0.232782 0.910320
O O11 0.906882 0.000000 0.806878
O O12 0.251086 0.206421 0.120961
O O13 0.195718 0.000000 0.049839
O O14 0.186162 0.277075 0.003894
O O15 0.181824 0.500000 0.897059
O O16 0.424286 0.744398 0.582244
O O17 0.438809 0.000000 0.653956
O O18 0.000000 0.831926 0.500000
O O19 0.923805 0.000000 0.488299
O O20 0.052186 0.000000 0.999440
O O21 0.000000 0.244279 0.000000
#
# Coordination Sequence:
#
# PCOD8082072 Si02
#       8
#     8   8   8   8   8   8   8   8
#     4  10  20  33  48  70 101 131 160 199 244 286
#     4  11  20  32  49  69  95 128 167 202 238 288
#     4  10  18  31  48  67  94 128 168 203 234 281
#     4   9  18  33  50  68  91 125 164 203 245 290
#     4  10  19  31  49  70  94 122 158 205 254 292
#     4  10  20  32  47  71 102 131 159 198 246 287
#     4   9  17  31  51  72  93 124 165 202 237 281
#     4   9  17  28  43  63  90 126 165 200 230 267
#
# _framework density 16.366658999999999
#
# number of rings (size 3 to 8) (size 9 to 14) (size 15 to 20)
#    0.000    2.250    1.250    2.625    0.000    5.000 
#    0.000    0.000    0.000    2.625    0.000    0.875 
#    0.000    0.000    0.000    0.000    0.000    0.000 
#
# Total GULP energy -396838.447312 kJ/mol
# GULP energy per Si atom -12401.201479 kJ/mol
# Density = 1.632941 g / cm^3
# Si number density = 16.366659 Si / 1000 Ang^3
#
#
#
# Elastic Constant Matrix: (Units=GPa)
#
#
# Indices 1 2 3 4 5 6 
#
# 1 90.7510 36.5240 50.9267 0.0000 -0.7872 0.0000
# 2 36.5240 74.1447 46.0289 0.0000 3.0602 0.0000
# 3 50.9267 46.0289 116.1280 0.0000 -7.1694 0.0000
# 4 0.0000 0.0000 0.0000 29.4872 0.0000 1.7274
# 5 -0.7872 3.0602 -7.1694 0.0000 10.6401 0.0000
# 6 0.0000 0.0000 0.0000 1.7274 0.0000 21.8627
#
#
#
# Elastic Compliance Matrix: (Units=1/GPa)
#
#
# Indices 1 2 3 4 5 6 
#
# 1 0.015723 -0.004486 -0.005181 0.000000 -0.001038 0.000000
# 2 -0.004486 0.020333 -0.006755 0.000000 -0.010731 0.000000
# 3 -0.005181 -0.006755 0.014250 0.000000 0.011161 0.000000
# 4 0.000000 0.000000 0.000000 0.034071 0.000000 -0.002692
# 5 -0.001038 -0.010731 0.011161 0.000000 0.104514 0.000000
# 6 0.000000 0.000000 0.000000 -0.002692 0.000000 0.045953
#
#
# Mechanical properties :
#
#
# Convention : Reuss Voigt Hill
#
# Bulk Modulus (GPa) = 57.26576 60.88700 59.07638
# Shear Modulus (GPa) = 18.28104 22.23429 20.25766
#
# Velocity S-wave (km/s) = 3.34573 3.68980 3.52197
# Velocity P-wave (km/s) = 7.07039 7.44550 7.26037
#
# Compressibility (1/GPa) = 0.01746244
#
# Stress axis : x y z
#
# Youngs Moduli (GPa) = 63.60058 49.18100 70.17728
#
# Poissons Ratio (x) = 0.22062 0.36360
# Poissons Ratio (y) = 0.28531 0.47401
# Poissons Ratio (z) = 0.32953 0.33219
#
# Static dielectric constant tensor:
#      x y z
#    x 3.112410 0.000000 -0.006820 
#    y 0.000000 3.087240 0.000000 
#    z -0.006820 0.000000 3.040420 
# 
# 
# High freq. dielectric constant tensor:
#      x y z
#    x 1.611520 0.000000 -0.000150 
#    y 0.000000 1.631810 0.000000 
#    z -0.000150 0.000000 1.617420 
# 
# From -- ./inp_files/244056.got.cif
#   From: 2010.06.25/outbox.cif.g09.slc.cpg/sg12_123_cif.got.tgz:244056.got - 2010.06.28 00:19:55.
