data_PCOD8082985
_publ_section_title
;
Structure prediction by ZEFSAII (Michael W. Deem and Ramdas Pophale) SiO2 
 PCOD8082985
Probable space group: C 2/M
;
_chemical_formula_sum "Si O2"
_cell_formula_units_Z 48
_cell_length_a 25.098311
_cell_length_b 8.489821
_cell_length_c 12.302844
_cell_angle_alpha 90.000000
_cell_angle_beta 94.059673
_cell_angle_gamma 90.000000
_cell_volume 2614.914369
_symmetry_space_group_name_H-M "C 2/M"
_symmetry_group_IT_number 12
_symmetry_cell_setting 'monoclinic'
loop_
_space_group_symop_operation_xyz
x,y,z
-x,y,-z
-x,-y,-z
x,-y,z
1/2+x,1/2+y,z
1/2-x,1/2+y,-z
1/2-x,1/2-y,-z
1/2+x,1/2-y,z
loop_
_atom_site_type_symbol
_atom_site_label
_atom_site_fract_x
_atom_site_fract_y
_atom_site_fract_z
Si Si1 0.937756 0.826710 0.968408
Si Si2 0.959294 0.318721 0.756539
Si Si3 0.153715 0.683127 0.636430
Si Si4 0.925576 0.184224 0.204715
Si Si5 0.260794 0.813050 0.621219
Si Si6 0.869673 0.184632 0.600766
O O1 0.927279 0.711512 0.865299
O O2 0.915369 0.000000 0.934784
O O3 0.911683 0.766741 0.077811
O O4 0.000000 0.839464 0.000000
O O5 0.975201 0.500000 0.750598
O O6 0.922301 0.271791 0.650613
O O7 0.012813 0.216196 0.757728
O O8 0.156740 0.500000 0.606857
O O9 0.111834 0.710499 0.725733
O O10 0.211977 0.744513 0.686321
O O11 0.135761 0.778545 0.527363
O O12 0.914395 0.000000 0.222109
O O13 0.250000 0.750000 0.500000
O O14 0.318772 0.746728 0.663571
O O15 0.261100 0.000000 0.626340
O O16 0.875804 0.000000 0.619487
#
# Coordination Sequence:
#
# PCOD8082985 Si02
#       6
#     8   8   8   8   8   8
#     4   8  16  32  52  72  97 131 170 207 244 293
#     4  11  21  33  51  77 105 133 168 209 253 300
#     4  11  21  34  52  77 105 133 168 208 252 299
#     4  10  20  35  53  75 103 136 171 206 249 299
#     4  10  18  32  52  74  99 130 169 208 247 293
#     4  11  21  35  53  74 102 136 171 207 251 299
#
# _framework density 18.356242000000002
#
# number of rings (size 3 to 8) (size 9 to 14) (size 15 to 20)
#    0.000    1.833    0.000    9.500    0.000    4.333 
#    0.000    3.333    0.000    1.000    0.000    0.000 
#    0.000    0.000    0.000    0.000    0.000    0.000 
#
# Total GULP energy -297527.472416 kJ/mol
# GULP energy per Si atom -12396.978017 kJ/mol
# Density = 1.831446 g / cm^3
# Si number density = 18.356242 Si / 1000 Ang^3
#
#
#
# Elastic Constant Matrix: (Units=GPa)
#
#
# Indices 1 2 3 4 5 6 
#
# 1 71.6823 10.2599 23.4146 0.0000 -18.6555 0.0000
# 2 10.2599 85.8838 11.6595 0.0000 -0.4320 0.0000
# 3 23.4146 11.6595 48.6695 0.0000 -21.5852 0.0000
# 4 0.0000 0.0000 0.0000 24.7360 0.0000 -0.5912
# 5 -18.6555 -0.4320 -21.5852 0.0000 12.8970 0.0000
# 6 0.0000 0.0000 0.0000 -0.5912 0.0000 31.0082
#
#
#
# Elastic Compliance Matrix: (Units=1/GPa)
#
#
# Indices 1 2 3 4 5 6 
#
# 1 0.027552 -0.005935 0.022326 0.000000 0.077022 0.000000
# 2 -0.005935 0.014379 -0.016231 0.000000 -0.035269 0.000000
# 3 0.022326 -0.016231 0.107774 0.000000 0.212127 0.000000
# 4 0.000000 0.000000 0.000000 0.040445 0.000000 0.000771
# 5 0.077022 -0.035269 0.212127 0.000000 0.542797 0.000000
# 6 0.000000 0.000000 0.000000 0.000771 0.000000 0.032264
#
#
# Mechanical properties :
#
#
# Convention : Reuss Voigt Hill
#
# Bulk Modulus (GPa) = 6.66558 32.98929 19.82743
# Shear Modulus (GPa) = 6.13572 24.45500 15.29536
#
# Velocity S-wave (km/s) = 1.83026 3.65395 2.88974
# Velocity P-wave (km/s) = 2.84703 5.98436 4.68605
#
# Compressibility (1/GPa) = 0.15002449
#
# Stress axis : x y z
#
# Youngs Moduli (GPa) = 36.29436 69.54673 9.27871
#
# Poissons Ratio (x) = 0.41276 -0.20716
# Poissons Ratio (y) = 0.21541 0.15061
# Poissons Ratio (z) = -0.81032 1.12884
#
# Static dielectric constant tensor:
#      x y z
#    x 3.760850 0.000000 -0.176410 
#    y 0.000000 3.415400 0.000000 
#    z -0.176410 0.000000 3.357640 
# 
# 
# High freq. dielectric constant tensor:
#      x y z
#    x 1.700760 0.000000 -0.008910 
#    y 0.000000 1.726320 0.000000 
#    z -0.008910 0.000000 1.685720 
# 
# From -- ./inp_files/172450.got.cif
#   From: 2010.06.25/outbox.cif.g09.slc.cpg/sg12_87_cif.got.tgz:172450.got - 2010.06.28 00:19:55.
