data_PCOD8082196
_publ_section_title
;
Structure prediction by ZEFSAII (Michael W. Deem and Ramdas Pophale) SiO2 
 PCOD8082196
Probable space group: C 2/M
;
_chemical_formula_sum "Si O2"
_cell_formula_units_Z 48
_cell_length_a 27.177771
_cell_length_b 8.685005
_cell_length_c 11.932224
_cell_angle_alpha 90.000000
_cell_angle_beta 74.061774
_cell_angle_gamma 90.000000
_cell_volume 2708.201253
_symmetry_space_group_name_H-M "C 2/M"
_symmetry_group_IT_number 12
_symmetry_cell_setting 'monoclinic'
loop_
_space_group_symop_operation_xyz
x,y,z
-x,y,-z
-x,-y,-z
x,-y,z
1/2+x,1/2+y,z
1/2-x,1/2+y,-z
1/2-x,1/2-y,-z
1/2+x,1/2-y,z
loop_
_atom_site_type_symbol
_atom_site_label
_atom_site_fract_x
_atom_site_fract_y
_atom_site_fract_z
Si Si1 0.065530 0.324801 0.727219
Si Si2 0.533082 0.327338 0.125700
Si Si3 0.116821 0.171286 0.258075
Si Si4 0.806265 0.815665 0.970826
Si Si5 0.114783 0.678863 0.919927
Si Si6 0.943986 0.182413 0.501976
O O1 0.062634 0.500000 0.688074
O O2 0.112192 0.300936 0.786343
O O3 0.072899 0.220383 0.613377
O O4 0.014277 0.284364 0.825902
O O5 0.514211 0.500000 0.108707
O O6 0.565462 0.331568 0.218211
O O7 0.565865 0.264060 0.002268
O O8 0.162317 0.250761 0.157384
O O9 0.099775 0.251738 0.385996
O O10 0.136364 0.000000 0.272125
O O11 0.806712 0.000000 0.972759
O O12 0.750000 0.750000 0.000000
O O13 0.832984 0.755100 0.067532
O O14 0.113450 0.500000 0.954832
O O15 0.000000 0.250202 0.500000
O O16 0.945449 0.000000 0.516806
#
# Coordination Sequence:
#
# PCOD8082196 Si02
#       6
#     8   8   8   8   8   8
#     4  11  22  32  45  71 108 144 174 211 257 304
#     4  10  18  31  50  72 101 138 179 215 253 305
#     4   8  16  31  50  75 102 131 168 212 255 298
#     4  10  20  36  59  82 103 129 167 214 268 317
#     4  10  21  35  49  72 106 137 170 214 264 311
#     4  10  18  32  52  72 101 141 181 213 246 299
#
# _framework density 17.723941
#
# number of rings (size 3 to 8) (size 9 to 14) (size 15 to 20)
#    0.000    2.167    1.667    3.500    0.000    5.000 
#    0.000    1.667    0.000    1.000    0.000    0.000 
#    0.000    0.000    0.000    0.000    0.000    0.000 
#
# Total GULP energy -297435.720428 kJ/mol
# GULP energy per Si atom -12393.155018 kJ/mol
# Density = 1.768360 g / cm^3
# Si number density = 17.723941 Si / 1000 Ang^3
#
#
#
# Elastic Constant Matrix: (Units=GPa)
#
#
# Indices 1 2 3 4 5 6 
#
# 1 88.4152 15.5551 62.5038 0.0000 -6.1139 0.0000
# 2 15.5551 46.0755 26.7962 0.0000 0.4219 0.0000
# 3 62.5038 26.7962 108.7247 0.0000 12.9821 0.0000
# 4 0.0000 0.0000 0.0000 21.9173 0.0000 2.5787
# 5 -6.1139 0.4219 12.9821 0.0000 18.9787 0.0000
# 6 0.0000 0.0000 0.0000 2.5787 0.0000 25.0712
#
#
#
# Elastic Compliance Matrix: (Units=1/GPa)
#
#
# Indices 1 2 3 4 5 6 
#
# 1 0.023922 0.001234 -0.016305 0.000000 0.018832 0.000000
# 2 0.001234 0.025686 -0.007644 0.000000 0.005055 0.000000
# 3 -0.016305 -0.007644 0.022935 0.000000 -0.020771 0.000000
# 4 0.000000 0.000000 0.000000 0.046185 0.000000 -0.004750
# 5 0.018832 0.005055 -0.020771 0.000000 0.072853 0.000000
# 6 0.000000 0.000000 0.000000 -0.004750 0.000000 0.040375
#
#
# Mechanical properties :
#
#
# Convention : Reuss Voigt Hill
#
# Bulk Modulus (GPa) = 36.88167 50.32506 43.60337
# Shear Modulus (GPa) = 17.45667 22.41747 19.93707
#
# Velocity S-wave (km/s) = 3.14175 3.56028 3.35754
# Velocity P-wave (km/s) = 5.83223 6.73471 6.29965
#
# Compressibility (1/GPa) = 0.02711374
#
# Stress axis : x y z
#
# Youngs Moduli (GPa) = 41.80231 38.93195 43.60135
#
# Poissons Ratio (x) = -0.04805 0.71093
# Poissons Ratio (y) = -0.05159 0.33327
# Poissons Ratio (z) = 0.68159 0.29758
#
# Static dielectric constant tensor:
#      x y z
#    x 3.130140 0.000000 0.049150 
#    y 0.000000 3.218620 0.000000 
#    z 0.049150 0.000000 3.589200 
# 
# 
# High freq. dielectric constant tensor:
#      x y z
#    x 1.655350 0.000000 0.012040 
#    y 0.000000 1.677190 0.000000 
#    z 0.012040 0.000000 1.688080 
# 
# From -- ./inp_files/172328.got.cif
#   From: 2010.06.25/outbox.cif.g09.slc.cpg/sg12_87_cif.got.tgz:172328.got - 2010.06.28 00:19:55.
