data_PCOD8082037
_publ_section_title
;
Structure prediction by ZEFSAII (Michael W. Deem and Ramdas Pophale) SiO2 
 PCOD8082037
Probable space group: C 2/M
;
_chemical_formula_sum "Si O2"
_cell_formula_units_Z 56
_cell_length_a 26.852727
_cell_length_b 8.837602
_cell_length_c 14.430558
_cell_angle_alpha 90.000000
_cell_angle_beta 102.158016
_cell_angle_gamma 90.000000
_cell_volume 3347.757873
_symmetry_space_group_name_H-M "C 2/M"
_symmetry_group_IT_number 12
_symmetry_cell_setting 'monoclinic'
loop_
_space_group_symop_operation_xyz
x,y,z
-x,y,-z
-x,-y,-z
x,-y,z
1/2+x,1/2+y,z
1/2-x,1/2+y,-z
1/2-x,1/2-y,-z
1/2+x,1/2-y,z
loop_
_atom_site_type_symbol
_atom_site_label
_atom_site_fract_x
_atom_site_fract_y
_atom_site_fract_z
Si Si1 0.286111 0.326984 0.399867
Si Si2 0.701921 0.822815 0.099009
Si Si3 0.556177 0.821488 0.539011
Si Si4 0.642356 0.820438 0.432819
Si Si5 0.377605 0.669984 0.293177
Si Si6 0.683637 0.678021 0.904928
Si Si7 0.685271 0.320733 0.281961
O O1 0.272162 0.500000 0.420334
O O2 0.305739 0.238641 0.498370
O O3 0.328767 0.322224 0.338702
O O4 0.238258 0.242683 0.339380
O O5 0.761399 0.778717 0.115871
O O6 0.676064 0.734826 0.173877
O O7 0.694228 0.000000 0.111584
O O8 0.673278 0.770669 0.994485
O O9 0.500000 0.752937 0.500000
O O10 0.593289 0.763496 0.471543
O O11 0.576901 0.770797 0.647605
O O12 0.554143 0.000000 0.538278
O O13 0.640333 0.746216 0.329893
O O14 0.643910 0.000000 0.426137
O O15 0.398467 0.500000 0.294796
O O16 0.360263 0.727126 0.184815
O O17 0.681931 0.500000 0.925538
O O18 0.684522 0.500000 0.285268
#
# Coordination Sequence:
#
# PCOD8082037 Si02
#       7
#     8   8   8   8   8   8   8
#     4  10  18  31  46  65  94 127 162 197 230 274
#     4  10  19  31  46  66  94 130 166 201 233 272
#     4   9  19  35  53  74  97 120 153 198 243 287
#     4  10  20  33  48  67  92 124 158 194 237 286
#     4   9  17  30  49  71  97 127 159 195 235 280
#     4   9  17  31  46  67  96 127 162 200 235 273
#     4  12  22  31  44  65  94 130 165 197 233 276
#
# _framework density 16.727613000000002
#
# number of rings (size 3 to 8) (size 9 to 14) (size 15 to 20)
#    0.000    2.143    1.429    3.000    0.000    2.571 
#    0.000    0.000    0.000    0.000    0.000    1.000 
#    0.000    8.000    0.000    0.000    0.000    0.000 
#
# Total GULP energy -347194.449658 kJ/mol
# GULP energy per Si atom -12399.801774 kJ/mol
# Density = 1.668954 g / cm^3
# Si number density = 16.727613 Si / 1000 Ang^3
#
#
#
# Elastic Constant Matrix: (Units=GPa)
#
#
# Indices 1 2 3 4 5 6 
#
# 1 59.0747 22.6571 45.8457 0.0000 9.6485 0.0000
# 2 22.6571 76.8166 46.2918 0.0000 -5.3777 0.0000
# 3 45.8457 46.2918 125.0813 0.0000 -1.6175 0.0000
# 4 0.0000 0.0000 0.0000 33.1685 0.0000 -0.5267
# 5 9.6485 -5.3777 -1.6175 0.0000 17.7919 0.0000
# 6 0.0000 0.0000 0.0000 -0.5267 0.0000 16.4778
#
#
#
# Elastic Compliance Matrix: (Units=1/GPa)
#
#
# Indices 1 2 3 4 5 6 
#
# 1 0.028451 -0.004114 -0.009132 0.000000 -0.017502 0.000000
# 2 -0.004114 0.017718 -0.004957 0.000000 0.007136 0.000000
# 3 -0.009132 -0.004957 0.013237 0.000000 0.004657 0.000000
# 4 0.000000 0.000000 0.000000 0.030164 0.000000 0.000964
# 5 -0.017502 0.007136 0.004657 0.000000 0.068277 0.000000
# 6 0.000000 0.000000 0.000000 0.000964 0.000000 0.060719
#
#
# Mechanical properties :
#
#
# Convention : Reuss Voigt Hill
#
# Bulk Modulus (GPa) = 43.47814 54.50685 48.99249
# Shear Modulus (GPa) = 19.03753 23.23284 21.13519
#
# Velocity S-wave (km/s) = 3.37722 3.73083 3.55842
# Velocity P-wave (km/s) = 6.42306 7.15643 6.79964
#
# Compressibility (1/GPa) = 0.02300007
#
# Stress axis : x y z
#
# Youngs Moduli (GPa) = 35.14803 56.43857 75.54689
#
# Poissons Ratio (x) = 0.23218 0.68989
# Poissons Ratio (y) = 0.14459 0.37451
# Poissons Ratio (z) = 0.32097 0.27979
#
# Static dielectric constant tensor:
#      x y z
#    x 3.011330 0.000000 -0.112690 
#    y 0.000000 3.179930 0.000000 
#    z -0.112690 0.000000 3.413040 
# 
# 
# High freq. dielectric constant tensor:
#      x y z
#    x 1.597580 0.000000 -0.008910 
#    y 0.000000 1.651330 0.000000 
#    z -0.008910 0.000000 1.650130 
# 
# From -- ./inp_files/247888.got.cif
#   From: 2010.06.25/outbox.cif.g09.slc.cpg/sg12_124_cif.got.tgz:247888.got - 2010.06.28 00:19:55.
