data_PCOD8082659
_publ_section_title
;
Structure prediction by ZEFSAII (Michael W. Deem and Ramdas Pophale) SiO2 
 PCOD8082659
Probable space group: C 2/M
;
_chemical_formula_sum "Si O2"
_cell_formula_units_Z 56
_cell_length_a 21.107444
_cell_length_b 11.058492
_cell_length_c 25.534085
_cell_angle_alpha 90.000000
_cell_angle_beta 151.301282
_cell_angle_gamma 90.000000
_cell_volume 2862.051935
_symmetry_space_group_name_H-M "C 2/M"
_symmetry_group_IT_number 12
_symmetry_cell_setting 'monoclinic'
loop_
_space_group_symop_operation_xyz
x,y,z
-x,y,-z
-x,-y,-z
x,-y,z
1/2+x,1/2+y,z
1/2-x,1/2+y,-z
1/2-x,1/2-y,-z
1/2+x,1/2-y,z
loop_
_atom_site_type_symbol
_atom_site_label
_atom_site_fract_x
_atom_site_fract_y
_atom_site_fract_z
Si Si1 0.855793 0.777411 0.905851
Si Si2 0.734587 0.362945 0.726720
Si Si3 0.910808 0.371710 0.264062
Si Si4 0.022712 0.138759 0.397498
Si Si5 0.932660 0.701348 0.168823
Si Si6 0.287112 0.142333 0.650276
Si Si7 0.706856 0.864942 0.035159
O O1 0.834780 0.686464 0.842546
O O2 0.735711 0.872361 0.816682
O O3 0.848470 0.712423 0.956779
O O4 0.000000 0.837094 0.000000
O O5 0.775767 0.500000 0.750411
O O6 0.581834 0.348112 0.631569
O O7 0.751863 0.304027 0.681969
O O8 0.976313 0.500000 0.331127
O O9 0.896577 0.384572 0.191308
O O10 0.990463 0.246802 0.333020
O O11 0.166563 0.165200 0.523742
O O12 0.013144 0.000000 0.367120
O O13 0.850791 0.824816 0.118132
O O14 0.090382 0.720799 0.282454
O O15 0.895393 0.639765 0.086824
O O16 0.322339 0.000000 0.676697
O O17 0.722005 0.000000 0.067191
#
# Coordination Sequence:
#
# PCOD8082659 Si02
#       7
#     8   8   8   8   8   8   8
#     4  10  20  32  52  81 106 132 171 216 261 312
#     4   9  17  30  50  78 109 135 164 212 272 319
#     4  10  21  37  54  73 106 147 179 212 261 318
#     4   9  19  35  56  81 105 133 175 226 272 310
#     4  10  21  34  51  75 104 141 181 213 255 315
#     4  10  18  31  54  79 104 135 174 220 264 311
#     4  10  20  35  53  75 108 142 172 215 266 311
#
# _framework density 19.566382000000001
#
# number of rings (size 3 to 8) (size 9 to 14) (size 15 to 20)
#    0.000    2.286    0.000    3.000    0.000    8.286 
#    0.000    0.714    0.000   15.429    0.000    0.000 
#    0.000    0.000    0.000    0.000    0.000    0.000 
#
# Total GULP energy -346869.379330 kJ/mol
# GULP energy per Si atom -12388.192119 kJ/mol
# Density = 1.952185 g / cm^3
# Si number density = 19.566382 Si / 1000 Ang^3
#
#
#
# Elastic Constant Matrix: (Units=GPa)
#
#
# Indices 1 2 3 4 5 6 
#
# 1 65.7290 29.2192 39.9294 -0.0001 -3.9497 0.0000
# 2 29.2192 90.3387 33.1586 -0.0001 -7.9570 0.0000
# 3 39.9294 33.1586 113.3358 -0.0001 11.0821 0.0000
# 4 -0.0001 -0.0001 -0.0001 17.2384 0.0000 0.4138
# 5 -3.9497 -7.9570 11.0821 0.0000 34.3060 0.0000
# 6 0.0000 0.0000 0.0000 0.4138 0.0000 11.9429
#
#
#
# Elastic Compliance Matrix: (Units=1/GPa)
#
#
# Indices 1 2 3 4 5 6 
#
# 1 0.021313 -0.004129 -0.006657 0.000000 0.003647 0.000000
# 2 -0.004129 0.013810 -0.002946 0.000000 0.003679 0.000000
# 3 -0.006657 -0.002946 0.012569 0.000000 -0.005510 0.000000
# 4 0.000000 0.000000 0.000000 0.058058 0.000000 -0.002012
# 5 0.003647 0.003679 -0.005510 0.000000 0.032203 0.000000
# 6 0.000000 0.000000 0.000000 -0.002012 0.000000 0.083801
#
#
# Mechanical properties :
#
#
# Convention : Reuss Voigt Hill
#
# Bulk Modulus (GPa) = 49.43411 52.66865 51.05138
# Shear Modulus (GPa) = 19.53426 23.83722 21.68574
#
# Velocity S-wave (km/s) = 3.16311 3.49417 3.33275
# Velocity P-wave (km/s) = 6.21772 6.57688 6.39982
#
# Compressibility (1/GPa) = 0.02022895
#
# Stress axis : x y z
#
# Youngs Moduli (GPa) = 46.92037 72.41087 79.55843
#
# Poissons Ratio (x) = 0.29896 0.52965
# Poissons Ratio (y) = 0.19372 0.23435
# Poissons Ratio (z) = 0.31237 0.21330
#
# Static dielectric constant tensor:
#      x y z
#    x 3.666600 0.000000 0.001010 
#    y 0.000000 3.369690 0.000000 
#    z 0.001010 0.000000 3.550830 
# 
# 
# High freq. dielectric constant tensor:
#      x y z
#    x 1.770560 0.000000 0.001900 
#    y 0.000000 1.729580 0.000000 
#    z 0.001900 0.000000 1.760440 
# 
# From -- ./inp_files/347052.got.cif
#   From: 2010.06.25/outbox.cif.g09.slc.cpg/sg12_174_cif.got.tgz:347052.got - 2010.06.28 00:19:55.
