data_PCOD8082285
_publ_section_title
;
Structure prediction by ZEFSAII (Michael W. Deem and Ramdas Pophale) SiO2 
 PCOD8082285
Probable space group: C 2/M
;
_chemical_formula_sum "Si O2"
_cell_formula_units_Z 48
_cell_length_a 14.943245
_cell_length_b 9.089844
_cell_length_c 20.764125
_cell_angle_alpha 90.000000
_cell_angle_beta 67.336007
_cell_angle_gamma 90.000000
_cell_volume 2602.635537
_symmetry_space_group_name_H-M "C 2/M"
_symmetry_group_IT_number 12
_symmetry_cell_setting 'monoclinic'
loop_
_space_group_symop_operation_xyz
x,y,z
-x,y,-z
-x,-y,-z
x,-y,z
1/2+x,1/2+y,z
1/2-x,1/2+y,-z
1/2-x,1/2-y,-z
1/2+x,1/2-y,z
loop_
_atom_site_type_symbol
_atom_site_label
_atom_site_fract_x
_atom_site_fract_y
_atom_site_fract_z
Si Si1 0.055704 0.674238 0.895712
Si Si2 0.987120 0.828245 0.341318
Si Si3 0.152600 0.325465 0.999478
Si Si4 0.619763 0.824671 0.739494
Si Si5 0.652918 0.326457 0.506891
Si Si6 0.326196 0.327727 0.640571
O O1 0.054765 0.500000 0.897371
O O2 0.128525 0.725798 0.932675
O O3 0.096782 0.736227 0.817086
O O4 0.943502 0.725709 0.934368
O O5 0.960956 0.734074 0.286600
O O6 0.930439 0.776150 0.421055
O O7 0.099239 0.791235 0.323308
O O8 0.969283 0.000000 0.332458
O O9 0.168716 0.500000 0.999365
O O10 0.250000 0.250000 0.000000
O O11 0.722674 0.757175 0.687711
O O12 0.618222 0.000000 0.739334
O O13 0.666429 0.500000 0.506268
O O14 0.750000 0.250000 0.500000
O O15 0.631108 0.272864 0.439909
O O16 0.309973 0.500000 0.639349
#
# Coordination Sequence:
#
# PCOD8082285 Si02
#       6
#     8   8   8   8   8   8
#     4   8  17  33  52  73 102 137 164 194 241 299
#     4  10  20  33  50  73 100 129 164 210 256 292
#     4   9  17  33  55  78 102 130 166 201 240 288
#     4  10  19  34  53  72  98 133 170 201 239 297
#     4  10  18  31  51  71  94 127 167 209 251 293
#     4   9  18  32  50  70  95 130 167 200 245 303
#
# _framework density 18.442844000000001
#
# number of rings (size 3 to 8) (size 9 to 14) (size 15 to 20)
#    0.000    2.667    1.667    1.500    0.000    3.333 
#    0.000    6.667    0.000    2.000    0.000    0.000 
#    0.000    0.000    0.000    0.000    0.000    0.000 
#
# Total GULP energy -297417.395263 kJ/mol
# GULP energy per Si atom -12392.391469 kJ/mol
# Density = 1.840087 g / cm^3
# Si number density = 18.442844 Si / 1000 Ang^3
#
#
#
# Elastic Constant Matrix: (Units=GPa)
#
#
# Indices 1 2 3 4 5 6 
#
# 1 125.7369 19.4305 55.7199 0.0000 16.5646 0.0000
# 2 19.4305 16.3187 22.2733 0.0000 2.9619 0.0000
# 3 55.7199 22.2733 139.9482 0.0000 23.1034 0.0000
# 4 0.0000 0.0000 0.0000 18.0697 0.0000 4.1558
# 5 16.5646 2.9619 23.1034 0.0000 18.9716 0.0000
# 6 0.0000 0.0000 0.0000 4.1558 0.0000 31.9967
#
#
#
# Elastic Compliance Matrix: (Units=1/GPa)
#
#
# Indices 1 2 3 4 5 6 
#
# 1 0.011034 -0.009449 -0.001930 0.000000 -0.005808 0.000000
# 2 -0.009449 0.086584 -0.011450 0.000000 0.008676 0.000000
# 3 -0.001930 -0.011450 0.011469 0.000000 -0.010493 0.000000
# 4 0.000000 0.000000 0.000000 0.057045 0.000000 -0.007409
# 5 -0.005808 0.008676 -0.010493 0.000000 0.069205 0.000000
# 6 0.000000 0.000000 0.000000 -0.007409 0.000000 0.032216
#
#
# Mechanical properties :
#
#
# Convention : Reuss Voigt Hill
#
# Bulk Modulus (GPa) = 15.76620 52.98346 34.37483
# Shear Modulus (GPa) = 14.95418 26.11294 20.53356
#
# Velocity S-wave (km/s) = 2.85061 3.76691 3.34033
# Velocity P-wave (km/s) = 4.40476 6.90726 5.79276
#
# Compressibility (1/GPa) = 0.06342682
#
# Stress axis : x y z
#
# Youngs Moduli (GPa) = 90.62975 11.54951 87.19314
#
# Poissons Ratio (x) = 0.10913 0.16833
# Poissons Ratio (y) = 0.85635 0.99840
# Poissons Ratio (z) = 0.17496 0.13225
#
# Static dielectric constant tensor:
#      x y z
#    x 3.528380 0.000000 -0.259210 
#    y 0.000000 2.947130 0.000000 
#    z -0.259210 0.000000 4.307540 
# 
# 
# High freq. dielectric constant tensor:
#      x y z
#    x 1.724720 0.000000 0.002640 
#    y 0.000000 1.668340 0.000000 
#    z 0.002640 0.000000 1.721660 
# 
# From -- ./inp_files/261724.got.cif
#   From: 2010.06.25/outbox.cif.g09.slc.cpg/sg12_131_cif.got.tgz:261724.got - 2010.06.28 00:19:55.
