data_PCOD8082695
_publ_section_title
;
Structure prediction by ZEFSAII (Michael W. Deem and Ramdas Pophale) SiO2 
 PCOD8082695
Probable space group: C 2/M
;
_chemical_formula_sum "Si O2"
_cell_formula_units_Z 64
_cell_length_a 15.275810
_cell_length_b 9.380077
_cell_length_c 24.096911
_cell_angle_alpha 90.000000
_cell_angle_beta 88.467759
_cell_angle_gamma 90.000000
_cell_volume 3451.570190
_symmetry_space_group_name_H-M "C 2/M"
_symmetry_group_IT_number 12
_symmetry_cell_setting 'monoclinic'
loop_
_space_group_symop_operation_xyz
x,y,z
-x,y,-z
-x,-y,-z
x,-y,z
1/2+x,1/2+y,z
1/2-x,1/2+y,-z
1/2-x,1/2-y,-z
1/2+x,1/2-y,z
loop_
_atom_site_type_symbol
_atom_site_label
_atom_site_fract_x
_atom_site_fract_y
_atom_site_fract_z
Si Si1 0.587179 0.331017 0.373254
Si Si2 0.161410 0.834000 0.005149
Si Si3 0.235636 0.665679 0.183269
Si Si4 0.589721 0.667703 0.125529
Si Si5 0.101153 0.167913 0.888005
Si Si6 0.114448 0.169160 0.612572
Si Si7 0.267485 0.834225 0.688538
Si Si8 0.096842 0.168600 0.493781
O O1 0.594075 0.500000 0.363226
O O2 0.485168 0.281029 0.371791
O O3 0.643114 0.249842 0.326011
O O4 0.631589 0.285724 0.432284
O O5 0.111858 0.791648 0.061900
O O6 0.184181 0.000000 0.003299
O O7 0.250000 0.750000 0.000000
O O8 0.103206 0.790205 0.952922
O O9 0.221062 0.500000 0.169618
O O10 0.148405 0.749000 0.168300
O O11 0.316637 0.732476 0.147071
O O12 0.256209 0.689944 0.247202
O O13 0.601195 0.500000 0.135794
O O14 0.490112 0.720547 0.136885
O O15 0.105316 0.000000 0.881165
O O16 0.185163 0.229352 0.655079
O O17 0.145368 0.221001 0.549581
O O18 0.114704 0.000000 0.615338
O O19 0.283148 0.000000 0.674690
O O20 0.000000 0.232021 0.500000
O O21 0.092337 0.000000 0.495176
#
# Coordination Sequence:
#
# PCOD8082695 Si02
#       8
#     8   8   8   8   8   8   8   8
#     4   9  17  31  53  77  98 126 166 209 250 295
#     4  10  18  31  54  81 108 134 160 198 249 300
#     4  10  21  37  52  69  99 137 172 207 250 297
#     4  10  20  34  56  82 102 127 168 212 250 291
#     4   9  18  34  55  76 102 135 167 201 246 300
#     4   8  15  30  51  73  99 132 167 201 243 305
#     4  10  21  34  49  71  99 133 171 207 248 298
#     4   7  11  23  46  74  99 123 157 202 248 294
#
# _framework density 18.542286000000001
#
# number of rings (size 3 to 8) (size 9 to 14) (size 15 to 20)
#    0.000    2.875    1.250    1.875    0.000    3.500 
#    0.000    4.375    0.000    4.875    0.000    0.000 
#    0.000    0.000    0.000    0.000    0.000    0.000 
#
# Total GULP energy -396470.583161 kJ/mol
# GULP energy per Si atom -12389.705724 kJ/mol
# Density = 1.850008 g / cm^3
# Si number density = 18.542286 Si / 1000 Ang^3
#
#
#
# Elastic Constant Matrix: (Units=GPa)
#
#
# Indices 1 2 3 4 5 6 
#
# 1 101.1633 23.4542 28.4926 0.0000 15.2439 0.0000
# 2 23.4542 25.9384 22.1121 0.0000 2.2954 0.0000
# 3 28.4926 22.1121 79.7881 0.0000 12.8119 0.0000
# 4 0.0000 0.0000 0.0000 21.8479 0.0000 0.0967
# 5 15.2439 2.2954 12.8119 0.0000 28.6695 0.0000
# 6 0.0000 0.0000 0.0000 0.0967 0.0000 23.9943
#
#
#
# Elastic Compliance Matrix: (Units=1/GPa)
#
#
# Indices 1 2 3 4 5 6 
#
# 1 0.013578 -0.011041 -0.000831 0.000000 -0.005964 0.000000
# 2 -0.011041 0.059608 -0.013739 0.000000 0.007238 0.000000
# 3 -0.000831 -0.013739 0.017657 0.000000 -0.006349 0.000000
# 4 0.000000 0.000000 0.000000 0.045772 0.000000 -0.000184
# 5 -0.005964 0.007238 -0.006349 0.000000 0.040309 0.000000
# 6 0.000000 0.000000 0.000000 -0.000184 0.000000 0.041677
#
#
# Mechanical properties :
#
#
# Convention : Reuss Voigt Hill
#
# Bulk Modulus (GPa) = 25.23931 39.44530 32.34231
# Shear Modulus (GPa) = 17.66596 23.75772 20.71184
#
# Velocity S-wave (km/s) = 3.09000 3.58337 3.34579
# Velocity P-wave (km/s) = 5.13537 6.20000 5.69263
#
# Compressibility (1/GPa) = 0.03962073
#
# Stress axis : x y z
#
# Youngs Moduli (GPa) = 73.65090 16.77617 56.63473
#
# Poissons Ratio (x) = 0.18522 0.04707
# Poissons Ratio (y) = 0.81317 0.77811
# Poissons Ratio (z) = 0.06121 0.23049
#
# Static dielectric constant tensor:
#      x y z
#    x 3.678380 0.000000 -0.375980 
#    y 0.000000 2.875870 0.000000 
#    z -0.375980 0.000000 4.371330 
# 
# 
# High freq. dielectric constant tensor:
#      x y z
#    x 1.718140 0.000000 0.003560 
#    y 0.000000 1.669780 0.000000 
#    z 0.003560 0.000000 1.729430 
# 
# From -- ./inp_files/335236.got.cif
#   From: 2010.06.25/outbox.cif.g09.slc.cpg/sg12_168_cif.got.tgz:335236.got - 2010.06.28 00:19:55.
