data_PCOD8082138
_publ_section_title
;
Structure prediction by ZEFSAII (Michael W. Deem and Ramdas Pophale) SiO2 
 PCOD8082138
Probable space group: C 2/M
;
_chemical_formula_sum "Si O2"
_cell_formula_units_Z 64
_cell_length_a 28.792609
_cell_length_b 8.840721
_cell_length_c 14.369946
_cell_angle_alpha 90.000000
_cell_angle_beta 86.917526
_cell_angle_gamma 90.000000
_cell_volume 3652.540445
_symmetry_space_group_name_H-M "C 2/M"
_symmetry_group_IT_number 12
_symmetry_cell_setting 'monoclinic'
loop_
_space_group_symop_operation_xyz
x,y,z
-x,y,-z
-x,-y,-z
x,-y,z
1/2+x,1/2+y,z
1/2-x,1/2+y,-z
1/2-x,1/2-y,-z
1/2+x,1/2-y,z
loop_
_atom_site_type_symbol
_atom_site_label
_atom_site_fract_x
_atom_site_fract_y
_atom_site_fract_z
Si Si1 0.847816 0.678103 0.339756
Si Si2 0.818718 0.822582 0.717370
Si Si3 0.278892 0.823098 0.189947
Si Si4 0.349322 0.321829 0.060618
Si Si5 0.078111 0.321068 0.808379
Si Si6 0.201318 0.320782 0.475469
Si Si7 0.611829 0.321549 0.137576
Si Si8 0.989989 0.820296 0.895984
O O1 0.844309 0.500000 0.339292
O O2 0.807016 0.738442 0.276636
O O3 0.898218 0.727164 0.293323
O O4 0.837806 0.735181 0.445609
O O5 0.774926 0.786254 0.788203
O O6 0.816312 0.731774 0.622395
O O7 0.864127 0.766102 0.769257
O O8 0.820122 0.000000 0.693477
O O9 0.298171 0.732840 0.098129
O O10 0.287592 0.000000 0.171842
O O11 0.355375 0.500000 0.075499
O O12 0.389431 0.236700 0.112481
O O13 0.355671 0.275373 0.952552
O O14 0.073037 0.500000 0.817134
O O15 0.027691 0.245769 0.820494
O O16 0.207276 0.500000 0.475267
O O17 0.250000 0.250000 0.500000
O O18 0.607700 0.500000 0.141006
O O19 0.559918 0.254894 0.131564
O O20 0.991993 0.000000 0.891324
O O21 0.000000 0.764349 0.000000
#
# Coordination Sequence:
#
# PCOD8082138 Si02
#       8
#     8   8   8   8   8   8   8   8
#     4   8  16  31  49  71 101 131 160 202 256 304
#     4  10  20  36  53  72 103 142 176 210 259 311
#     4   9  17  31  48  70 102 139 169 205 254 301
#     4  10  18  31  49  73 102 138 177 210 246 303
#     4  10  19  32  51  77 103 132 167 209 261 310
#     4  11  20  34  55  79 103 134 172 214 259 305
#     4   9  19  34  52  72 102 142 174 208 263 313
#     4  10  18  33  54  76 102 134 173 215 258 304
#
# _framework density 17.522051999999999
#
# number of rings (size 3 to 8) (size 9 to 14) (size 15 to 20)
#    0.000    2.375    2.500    1.875    0.000    1.250 
#    0.000    3.750    0.000    0.750    0.000    5.250 
#    0.000    0.000    0.000    0.000    0.000    0.000 
#
# Total GULP energy -396638.595445 kJ/mol
# GULP energy per Si atom -12394.956108 kJ/mol
# Density = 1.748217 g / cm^3
# Si number density = 17.522052 Si / 1000 Ang^3
#
#
#
# Elastic Constant Matrix: (Units=GPa)
#
#
# Indices 1 2 3 4 5 6 
#
# 1 124.3259 34.4149 77.1212 0.0000 -5.7733 0.0000
# 2 34.4149 33.5133 33.3905 0.0000 -3.7228 0.0000
# 3 77.1212 33.3905 128.7327 0.0000 -6.5123 0.0000
# 4 0.0000 0.0000 0.0000 25.2389 0.0000 -6.2523
# 5 -5.7733 -3.7228 -6.5123 0.0000 27.2282 0.0000
# 6 0.0000 0.0000 0.0000 -6.2523 0.0000 21.9079
#
#
#
# Elastic Compliance Matrix: (Units=1/GPa)
#
#
# Indices 1 2 3 4 5 6 
#
# 1 0.014337 -0.008283 -0.006422 0.000000 0.000371 0.000000
# 2 -0.008283 0.045274 -0.006637 0.000000 0.002846 0.000000
# 3 -0.006422 -0.006637 0.013384 0.000000 0.000932 0.000000
# 4 0.000000 0.000000 0.000000 0.042636 0.000000 0.012168
# 5 0.000371 0.002846 0.000932 0.000000 0.037418 0.000000
# 6 0.000000 0.000000 0.000000 0.012168 0.000000 0.049118
#
#
# Mechanical properties :
#
#
# Convention : Reuss Voigt Hill
#
# Bulk Modulus (GPa) = 32.99133 64.04723 48.51928
# Shear Modulus (GPa) = 19.61148 24.31801 21.96475
#
# Velocity S-wave (km/s) = 3.34914 3.72943 3.54439
# Velocity P-wave (km/s) = 5.81593 7.42809 6.67089
#
# Compressibility (1/GPa) = 0.03031099
#
# Stress axis : x y z
#
# Youngs Moduli (GPa) = 69.74947 22.08795 74.71764
#
# Poissons Ratio (x) = 0.18296 0.47982
# Poissons Ratio (y) = 0.57775 0.49588
# Poissons Ratio (z) = 0.44791 0.14659
#
# Static dielectric constant tensor:
#      x y z
#    x 3.461240 0.000000 -0.217310 
#    y 0.000000 3.080370 0.000000 
#    z -0.217310 0.000000 3.462430 
# 
# 
# High freq. dielectric constant tensor:
#      x y z
#    x 1.670330 0.000000 -0.018370 
#    y 0.000000 1.658620 0.000000 
#    z -0.018370 0.000000 1.668270 
# 
# From -- ./inp_files/248426.got.cif
#   From: 2010.06.25/outbox.cif.g09.slc.cpg/sg12_125_cif.got.tgz:248426.got - 2010.06.28 00:19:55.
