data_PCOD8082803
_publ_section_title
;
Structure prediction by ZEFSAII (Michael W. Deem and Ramdas Pophale) SiO2 
 PCOD8082803
Probable space group: C 2/M
;
_chemical_formula_sum "Si O2"
_cell_formula_units_Z 64
_cell_length_a 20.806890
_cell_length_b 8.875189
_cell_length_c 24.333492
_cell_angle_alpha 90.000000
_cell_angle_beta 128.572174
_cell_angle_gamma 90.000000
_cell_volume 3513.159497
_symmetry_space_group_name_H-M "C 2/M"
_symmetry_group_IT_number 12
_symmetry_cell_setting 'monoclinic'
loop_
_space_group_symop_operation_xyz
x,y,z
-x,y,-z
-x,-y,-z
x,-y,z
1/2+x,1/2+y,z
1/2-x,1/2+y,-z
1/2-x,1/2-y,-z
1/2+x,1/2-y,z
loop_
_atom_site_type_symbol
_atom_site_label
_atom_site_fract_x
_atom_site_fract_y
_atom_site_fract_z
Si Si1 0.117208 0.826657 0.673765
Si Si2 0.795658 0.823745 0.473745
Si Si3 0.242238 0.824679 0.832909
Si Si4 0.469353 0.176904 0.543570
Si Si5 0.266534 0.825576 0.677115
Si Si6 0.787944 0.178938 0.966505
Si Si7 0.133467 0.175043 0.183157
Si Si8 0.031015 0.175680 0.959286
O O1 0.156980 0.798916 0.754742
O O2 0.181881 0.777906 0.661345
O O3 0.037112 0.723113 0.624874
O O4 0.091387 0.000000 0.652092
O O5 0.750000 0.750000 0.500000
O O6 0.885514 0.757331 0.514285
O O7 0.740229 0.789701 0.390729
O O8 0.804657 0.000000 0.488775
O O9 0.236116 0.733073 0.886151
O O10 0.318127 0.767002 0.837224
O O11 0.256159 0.000000 0.852721
O O12 0.500000 0.230669 0.500000
O O13 0.454390 0.000000 0.537526
O O14 0.341291 0.729102 0.742424
O O15 0.284756 0.000000 0.698894
O O16 0.784064 0.000000 0.968730
O O17 0.750000 0.250000 0.000000
O O18 0.881152 0.242985 0.011448
O O19 0.036283 0.205650 0.124063
O O20 0.154534 0.000000 0.186530
O O21 0.044882 0.000000 0.977092
O O22 0.000000 0.249364 0.000000
#
# Coordination Sequence:
#
# PCOD8082803 Si02
#       8
#     8   8   8   8   8   8   8   8
#     4   9  18  34  56  81 111 147 184 225 281 338
#     4  11  23  40  60  81 114 155 191 231 286 343
#     4  10  20  35  54  82 115 146 184 229 281 333
#     4  11  22  35  56  88 117 143 188 241 280 329
#     4   9  19  35  54  80 114 148 180 225 282 333
#     4  11  22  38  58  80 112 150 188 229 280 337
#     4  10  18  31  56  84 109 143 185 229 275 325
#     4   9  17  33  55  81 110 142 182 226 272 326
#
# _framework density 18.217220999999999
#
# number of rings (size 3 to 8) (size 9 to 14) (size 15 to 20)
#    0.000    2.000    2.500    2.625    0.000    4.000 
#    0.000    4.375    0.000    4.500    0.000    0.000 
#    0.000    0.000    0.000    0.000    0.000    0.000 
#
# Total GULP energy -396840.741026 kJ/mol
# GULP energy per Si atom -12401.273157 kJ/mol
# Density = 1.817576 g / cm^3
# Si number density = 18.217221 Si / 1000 Ang^3
#
#
#
# Elastic Constant Matrix: (Units=GPa)
#
#
# Indices 1 2 3 4 5 6 
#
# 1 122.0558 49.7258 70.7200 0.0000 -5.0811 0.0000
# 2 49.7258 81.0955 59.5860 0.0000 -0.3525 0.0000
# 3 70.7200 59.5860 130.4147 0.0000 0.4590 0.0000
# 4 0.0000 0.0000 0.0000 34.5029 0.0000 -1.7733
# 5 -5.0811 -0.3525 0.4590 0.0000 26.8704 0.0000
# 6 0.0000 0.0000 0.0000 -1.7733 0.0000 27.6956
#
#
#
# Elastic Compliance Matrix: (Units=1/GPa)
#
#
# Indices 1 2 3 4 5 6 
#
# 1 0.012972 -0.004167 -0.005139 0.000000 0.002486 0.000000
# 2 -0.004167 0.019906 -0.006834 0.000000 -0.000410 0.000000
# 3 -0.005139 -0.006834 0.013581 0.000000 -0.001293 0.000000
# 4 0.000000 0.000000 0.000000 0.029079 0.000000 0.001862
# 5 0.002486 -0.000410 -0.001293 0.000000 0.037703 0.000000
# 6 0.000000 0.000000 0.000000 0.001862 0.000000 0.036226
#
#
# Mechanical properties :
#
#
# Convention : Reuss Voigt Hill
#
# Bulk Modulus (GPa) = 70.52596 77.06996 73.79796
# Shear Modulus (GPa) = 26.81366 28.04939 27.43152
#
# Velocity S-wave (km/s) = 3.84068 3.92818 3.88468
# Velocity P-wave (km/s) = 7.64629 7.93550 7.79223
#
# Compressibility (1/GPa) = 0.01417918
#
# Stress axis : x y z
#
# Youngs Moduli (GPa) = 77.09059 50.23680 73.63044
#
# Poissons Ratio (x) = 0.20935 0.37838
# Poissons Ratio (y) = 0.32126 0.50316
# Poissons Ratio (z) = 0.39616 0.34330
#
# Static dielectric constant tensor:
#      x y z
#    x 3.095370 0.000000 0.050200 
#    y 0.000000 3.352640 0.000000 
#    z 0.050200 0.000000 3.647050 
# 
# 
# High freq. dielectric constant tensor:
#      x y z
#    x 1.678210 0.000000 0.004360 
#    y 0.000000 1.704990 0.000000 
#    z 0.004360 0.000000 1.720210 
# 
# From -- ./inp_files/346222.got.cif
#   From: 2010.06.25/outbox.cif.g09.slc.cpg/sg12_174_cif.got.tgz:346222.got - 2010.06.28 00:19:55.
