data_PCOD8082350
_publ_section_title
;
Structure prediction by ZEFSAII (Michael W. Deem and Ramdas Pophale) SiO2 
 PCOD8082350
Probable space group: C 2/M
;
_chemical_formula_sum "Si O2"
_cell_formula_units_Z 56
_cell_length_a 19.898645
_cell_length_b 8.971642
_cell_length_c 27.935653
_cell_angle_alpha 90.000000
_cell_angle_beta 145.677636
_cell_angle_gamma 90.000000
_cell_volume 2812.008702
_symmetry_space_group_name_H-M "C 2/M"
_symmetry_group_IT_number 12
_symmetry_cell_setting 'monoclinic'
loop_
_space_group_symop_operation_xyz
x,y,z
-x,y,-z
-x,-y,-z
x,-y,z
1/2+x,1/2+y,z
1/2-x,1/2+y,-z
1/2-x,1/2-y,-z
1/2+x,1/2-y,z
loop_
_atom_site_type_symbol
_atom_site_label
_atom_site_fract_x
_atom_site_fract_y
_atom_site_fract_z
Si Si1 0.499867 0.833215 0.079129
Si Si2 0.720426 0.670845 0.243346
Si Si3 0.254809 0.824618 0.901241
Si Si4 0.395995 0.172142 0.267640
Si Si5 0.919614 0.330179 0.138721
Si Si6 0.848366 0.176779 0.694377
Si Si7 0.331274 0.823924 0.587389
O O1 0.617687 0.734056 0.147976
O O2 0.431430 0.819911 0.089213
O O3 0.545500 0.000000 0.096529
O O4 0.397493 0.788820 0.980201
O O5 0.687423 0.500000 0.229264
O O6 0.849005 0.697025 0.294533
O O7 0.718241 0.735964 0.296267
O O8 0.186045 0.774131 0.813655
O O9 0.207223 0.734230 0.919392
O O10 0.237008 0.000000 0.899404
O O11 0.532783 0.220947 0.344953
O O12 0.379832 0.000000 0.243002
O O13 0.935804 0.500000 0.166285
O O14 0.015002 0.227403 0.222384
O O15 0.790472 0.257530 0.614539
O O16 0.838523 0.000000 0.681625
O O17 0.250000 0.750000 0.500000
O O18 0.312423 0.000000 0.576301
#
# Coordination Sequence:
#
# PCOD8082350 Si02
#       7
#     8   8   8   8   8   8   8
#     4   9  20  34  49  76 113 153 194 237 282 328
#     4   9  20  38  59  82 112 153 195 232 273 331
#     4  11  21  32  50  78 113 151 194 240 284 329
#     4  10  22  40  59  82 113 150 189 230 283 339
#     4  10  18  31  51  76 110 150 192 235 282 332
#     4  10  19  35  60  87 114 145 186 231 280 335
#     4  11  23  40  64  90 116 144 181 229 283 342
#
# _framework density 19.91459
#
# number of rings (size 3 to 8) (size 9 to 14) (size 15 to 20)
#    0.000    2.000    1.429    2.143    0.000    4.000 
#    0.000    3.571    0.000    4.286    0.000    0.000 
#    0.000    0.000    0.000    0.000    0.000    0.000 
#
# Total GULP energy -347114.286325 kJ/mol
# GULP energy per Si atom -12396.938797 kJ/mol
# Density = 1.986926 g / cm^3
# Si number density = 19.914590 Si / 1000 Ang^3
#
#
#
# Elastic Constant Matrix: (Units=GPa)
#
#
# Indices 1 2 3 4 5 6 
#
# 1 76.5911 33.2633 42.0424 0.0000 8.0745 0.0000
# 2 33.2633 72.9606 38.2130 0.0000 -5.3830 0.0002
# 3 42.0424 38.2130 107.4522 0.0000 -15.2863 0.0000
# 4 0.0000 0.0000 0.0000 32.1890 0.0000 -2.9002
# 5 8.0745 -5.3830 -15.2863 0.0000 20.1828 0.0000
# 6 0.0000 0.0002 0.0000 -2.9002 0.0000 25.1116
#
#
#
# Elastic Compliance Matrix: (Units=1/GPa)
#
#
# Indices 1 2 3 4 5 6 
#
# 1 0.022963 -0.007066 -0.009018 0.000000 -0.017902 0.000000
# 2 -0.007066 0.019018 -0.003222 0.000000 0.005459 0.000000
# 3 -0.009018 -0.003222 0.016107 0.000000 0.014948 0.000000
# 4 0.000000 0.000000 0.000000 0.031393 0.000000 0.003626
# 5 -0.017902 0.005459 0.014948 0.000000 0.069486 0.000000
# 6 0.000000 0.000000 0.000000 0.003626 0.000000 0.040241
#
#
# Mechanical properties :
#
#
# Convention : Reuss Voigt Hill
#
# Bulk Modulus (GPa) = 51.34786 53.78235 52.56511
# Shear Modulus (GPa) = 20.46553 25.06239 22.76396
#
# Velocity S-wave (km/s) = 3.20920 3.55137 3.38461
# Velocity P-wave (km/s) = 6.29063 6.62431 6.45962
#
# Compressibility (1/GPa) = 0.01947501
#
# Stress axis : x y z
#
# Youngs Moduli (GPa) = 43.54861 52.58222 62.08359
#
# Poissons Ratio (x) = 0.37157 0.55989
# Poissons Ratio (y) = 0.30773 0.20002
# Poissons Ratio (z) = 0.39273 0.16941
#
# Static dielectric constant tensor:
#      x y z
#    x 3.836030 0.000000 -0.049850 
#    y 0.000000 3.607570 0.000000 
#    z -0.049850 0.000000 3.444250 
# 
# 
# High freq. dielectric constant tensor:
#      x y z
#    x 1.786190 0.000000 -0.006150 
#    y 0.000000 1.776820 0.000000 
#    z -0.006150 0.000000 1.752680 
# 
# From -- ./inp_files/348620.got.cif
#   From: 2010.06.25/outbox.cif.g09.slc.cpg/sg12_175_cif.got.tgz:348620.got - 2010.06.28 00:19:55.
