data_PCOD8082154
_publ_section_title
;
Structure prediction by ZEFSAII (Michael W. Deem and Ramdas Pophale) SiO2 
 PCOD8082154
Probable space group: C 2/M
;
_chemical_formula_sum "Si O2"
_cell_formula_units_Z 56
_cell_length_a 26.847486
_cell_length_b 14.677338
_cell_length_c 9.346254
_cell_angle_alpha 90.000000
_cell_angle_beta 123.724077
_cell_angle_gamma 90.000000
_cell_volume 3063.134801
_symmetry_space_group_name_H-M "C 2/M"
_symmetry_group_IT_number 12
_symmetry_cell_setting 'monoclinic'
loop_
_space_group_symop_operation_xyz
x,y,z
-x,y,-z
-x,-y,-z
x,-y,z
1/2+x,1/2+y,z
1/2-x,1/2+y,-z
1/2-x,1/2-y,-z
1/2+x,1/2-y,z
loop_
_atom_site_type_symbol
_atom_site_label
_atom_site_fract_x
_atom_site_fract_y
_atom_site_fract_z
Si Si1 0.613756 0.396317 0.348387
Si Si2 0.718241 0.395670 0.296134
Si Si3 0.831735 0.396646 0.649910
Si Si4 0.566780 0.237804 0.111186
Si Si5 0.850397 0.896217 0.278260
Si Si6 0.355224 0.274628 0.028626
Si Si7 0.288386 0.898206 0.896784
O O1 0.591462 0.500000 0.297105
O O2 0.676756 0.381725 0.368677
O O3 0.564378 0.331205 0.198279
O O4 0.621412 0.369044 0.525400
O O5 0.714674 0.500000 0.236305
O O6 0.786118 0.370255 0.449389
O O7 0.697688 0.330201 0.135737
O O8 0.854168 0.500000 0.667709
O O9 0.889665 0.332614 0.738297
O O10 0.795139 0.384422 0.737926
O O11 0.588513 0.258237 0.985038
O O12 0.500000 0.196723 0.000000
O O13 0.779524 0.882592 0.167864
O O14 0.866891 0.000000 0.266382
O O15 0.878410 0.830736 0.202271
O O16 0.329189 0.177341 0.040394
O O17 0.309615 0.000000 0.975462
#
# Coordination Sequence:
#
# PCOD8082154 Si02
#       7
#     8   8   8   8   8   8   8
#     4   9  18  32  53  74 101 134 159 196 252 305
#     4   9  16  29  49  78 106 128 155 195 250 304
#     4   9  17  31  53  77 102 129 162 201 246 299
#     4  10  22  36  51  71  97 133 177 212 240 278
#     4  10  18  31  49  76 105 128 157 195 250 311
#     4  10  20  30  51  75 103 131 164 205 244 284
#     4   9  17  29  46  72 105 134 158 188 241 307
#
# _framework density 18.281924
#
# number of rings (size 3 to 8) (size 9 to 14) (size 15 to 20)
#    0.000    2.571    1.429    0.857    2.000    2.857 
#    0.000    0.714    0.000    1.714    0.000    0.000 
#    0.000    5.714    0.000    0.000    0.000    0.000 
#
# Total GULP energy -347178.226273 kJ/mol
# GULP energy per Si atom -12399.222367 kJ/mol
# Density = 1.824031 g / cm^3
# Si number density = 18.281924 Si / 1000 Ang^3
#
#
#
# Elastic Constant Matrix: (Units=GPa)
#
#
# Indices 1 2 3 4 5 6 
#
# 1 52.4122 22.9232 21.0230 0.0000 9.8885 0.0000
# 2 22.9232 78.2760 21.8283 0.0000 -1.0789 0.0000
# 3 21.0230 21.8283 43.4663 0.0000 -1.2551 0.0000
# 4 0.0000 0.0000 0.0000 25.9675 0.0000 -3.0603
# 5 9.8885 -1.0789 -1.2551 0.0000 25.2773 0.0000
# 6 0.0000 0.0000 0.0000 -3.0603 0.0000 17.1502
#
#
#
# Elastic Compliance Matrix: (Units=1/GPa)
#
#
# Indices 1 2 3 4 5 6 
#
# 1 0.028138 -0.005248 -0.011315 0.000000 -0.011793 0.000000
# 2 -0.005248 0.015836 -0.005344 0.000000 0.002463 0.000000
# 3 -0.011315 -0.005344 0.031328 0.000000 0.005754 0.000000
# 4 0.000000 0.000000 0.000000 0.039337 0.000000 0.007019
# 5 -0.011793 0.002463 0.005754 0.000000 0.044566 0.000000
# 6 0.000000 0.000000 0.000000 0.007019 0.000000 0.059561
#
#
# Mechanical properties :
#
#
# Convention : Reuss Voigt Hill
#
# Bulk Modulus (GPa) = 31.75495 33.96707 32.86101
# Shear Modulus (GPa) = 18.31000 20.90432 19.60716
#
# Velocity S-wave (km/s) = 3.16814 3.38515 3.27844
# Velocity P-wave (km/s) = 5.54888 5.82228 5.68722
#
# Compressibility (1/GPa) = 0.03149116
#
# Stress axis : x y z
#
# Youngs Moduli (GPa) = 35.53901 63.14669 31.91993
#
# Poissons Ratio (x) = 0.33137 0.36116
# Poissons Ratio (y) = 0.18649 0.17057
# Poissons Ratio (z) = 0.40211 0.33743
#
# Static dielectric constant tensor:
#      x y z
#    x 3.006630 0.000000 -0.111730 
#    y 0.000000 3.672980 0.000000 
#    z -0.111730 0.000000 3.176460 
# 
# 
# High freq. dielectric constant tensor:
#      x y z
#    x 1.671890 0.000000 -0.013790 
#    y 0.000000 1.722300 0.000000 
#    z -0.013790 0.000000 1.684310 
# 
# From -- ./inp_files/86314.got.cif
#   From: 2010.06.25/outbox.cif.g09.slc.cpg/sg12_44_cif.got.tgz:86314.got - 2010.06.28 00:19:55.
