data_PCOD8082297
_publ_section_title
;
Structure prediction by ZEFSAII (Michael W. Deem and Ramdas Pophale) SiO2 
 PCOD8082297
Probable space group: C 2/M
;
_chemical_formula_sum "Si O2"
_cell_formula_units_Z 64
_cell_length_a 30.032199
_cell_length_b 8.766262
_cell_length_c 30.760507
_cell_angle_alpha 90.000000
_cell_angle_beta 151.501731
_cell_angle_gamma 90.000000
_cell_volume 3863.970517
_symmetry_space_group_name_H-M "C 2/M"
_symmetry_group_IT_number 12
_symmetry_cell_setting 'monoclinic'
loop_
_space_group_symop_operation_xyz
x,y,z
-x,y,-z
-x,-y,-z
x,-y,z
1/2+x,1/2+y,z
1/2-x,1/2+y,-z
1/2-x,1/2-y,-z
1/2+x,1/2-y,z
loop_
_atom_site_type_symbol
_atom_site_label
_atom_site_fract_x
_atom_site_fract_y
_atom_site_fract_z
Si Si1 0.077207 0.177732 0.888206
Si Si2 0.376554 0.674331 0.756324
Si Si3 0.277915 0.323109 0.586834
Si Si4 0.882085 0.180946 0.934716
Si Si5 0.415272 0.320520 0.204179
Si Si6 0.920249 0.679373 0.879286
Si Si7 0.102705 0.677158 0.383474
Si Si8 0.779617 0.320242 0.923779
O O1 0.085662 0.238293 0.846229
O O2 0.972865 0.207891 0.814533
O O3 0.104526 0.000000 0.915976
O O4 0.146745 0.278383 0.976090
O O5 0.372086 0.500000 0.768484
O O6 0.292969 0.711062 0.650818
O O7 0.363384 0.782797 0.786729
O O8 0.299217 0.500000 0.594819
O O9 0.172142 0.279907 0.482868
O O10 0.351445 0.226321 0.622498
O O11 0.863502 0.256998 0.871916
O O12 0.800334 0.231677 0.896872
O O13 0.884679 0.000000 0.932222
O O14 0.980021 0.237762 0.038426
O O15 0.422515 0.500000 0.210054
O O16 0.504116 0.258142 0.306689
O O17 0.322188 0.265055 0.148456
O O18 0.935559 0.500000 0.897509
O O19 0.082718 0.500000 0.364402
O O20 0.784011 0.500000 0.918967
#
# Coordination Sequence:
#
# PCOD8082297 Si02
#       8
#     8   8   8   8   8   8   8   8
#     4  10  19  32  49  68  97 137 172 201 237 286
#     4  10  18  31  51  72  99 134 166 195 242 299
#     4   9  18  33  50  69  99 132 162 201 249 296
#     4  11  21  35  52  70  96 130 165 199 246 296
#     4  10  21  36  50  67  98 138 170 203 248 291
#     4  11  21  33  51  74 100 124 160 206 246 289
#     4  10  19  30  49  74  96 126 168 210 245 284
#     4  11  22  34  50  71  97 131 171 210 246 282
#
# _framework density 16.563275000000001
#
# number of rings (size 3 to 8) (size 9 to 14) (size 15 to 20)
#    0.000    1.750    2.500    4.125    0.000    2.500 
#    0.000    0.000    0.000    0.000    0.000    0.875 
#    0.000    7.000    0.000    0.000    0.000    0.000 
#
# Total GULP energy -396866.744424 kJ/mol
# GULP energy per Si atom -12402.085763 kJ/mol
# Density = 1.652558 g / cm^3
# Si number density = 16.563275 Si / 1000 Ang^3
#
#
#
# Elastic Constant Matrix: (Units=GPa)
#
#
# Indices 1 2 3 4 5 6 
#
# 1 106.3812 33.1279 50.4615 0.0000 -12.1143 0.0000
# 2 33.1279 54.0421 21.8693 0.0001 -6.0059 0.0010
# 3 50.4615 21.8693 82.0761 0.0000 -12.1713 0.0000
# 4 0.0000 0.0001 0.0000 25.5320 -0.0001 -1.6098
# 5 -12.1143 -6.0059 -12.1713 -0.0001 22.4596 0.0000
# 6 0.0000 0.0010 0.0000 -1.6098 0.0000 23.8740
#
#
#
# Elastic Compliance Matrix: (Units=1/GPa)
#
#
# Indices 1 2 3 4 5 6 
#
# 1 0.014987 -0.005971 -0.007243 0.000000 0.002562 0.000000
# 2 -0.005971 0.023280 -0.002268 0.000000 0.001775 -0.000001
# 3 -0.007243 -0.002268 0.018020 0.000000 0.005252 0.000000
# 4 0.000000 0.000000 0.000000 0.039334 0.000000 0.002652
# 5 0.002562 0.001775 0.005252 0.000000 0.049227 0.000000
# 6 0.000000 -0.000001 0.000000 0.002652 0.000000 0.042065
#
#
# Mechanical properties :
#
#
# Convention : Reuss Voigt Hill
#
# Bulk Modulus (GPa) = 39.49274 50.37964 44.93619
# Shear Modulus (GPa) = 22.09256 23.50916 22.80086
#
# Velocity S-wave (km/s) = 3.65612 3.77152 3.71427
# Velocity P-wave (km/s) = 6.45897 7.03195 6.75154
#
# Compressibility (1/GPa) = 0.02532111
#
# Stress axis : x y z
#
# Youngs Moduli (GPa) = 66.72323 42.95574 55.49252
#
# Poissons Ratio (x) = 0.25650 0.40196
# Poissons Ratio (y) = 0.39843 0.12588
# Poissons Ratio (z) = 0.48330 0.09744
#
# Static dielectric constant tensor:
#      x y z
#    x 3.139740 0.000000 -0.087850 
#    y 0.000000 3.123780 0.000000 
#    z -0.087850 0.000000 3.193940 
# 
# 
# High freq. dielectric constant tensor:
#      x y z
#    x 1.620920 0.000000 -0.013790 
#    y 0.000000 1.644980 0.000000 
#    z -0.013790 0.000000 1.624080 
# 
# From -- ./inp_files/384581.got.cif
#   From: 2010.06.25/outbox.cif.g09.slc.cpg/sg12_193_cif.got.tgz:384581.got - 2010.06.28 00:19:55.
