data_PCOD8082966
_publ_section_title
;
Structure prediction by ZEFSAII (Michael W. Deem and Ramdas Pophale) SiO2 
 PCOD8082966
Probable space group: C 2/M
;
_chemical_formula_sum "Si O2"
_cell_formula_units_Z 64
_cell_length_a 24.338735
_cell_length_b 8.954509
_cell_length_c 15.396522
_cell_angle_alpha 90.000000
_cell_angle_beta 86.352088
_cell_angle_gamma 90.000000
_cell_volume 3348.741141
_symmetry_space_group_name_H-M "C 2/M"
_symmetry_group_IT_number 12
_symmetry_cell_setting 'monoclinic'
loop_
_space_group_symop_operation_xyz
x,y,z
-x,y,-z
-x,-y,-z
x,-y,z
1/2+x,1/2+y,z
1/2-x,1/2+y,-z
1/2-x,1/2-y,-z
1/2+x,1/2-y,z
loop_
_atom_site_type_symbol
_atom_site_label
_atom_site_fract_x
_atom_site_fract_y
_atom_site_fract_z
Si Si1 0.345039 0.322840 0.355089
Si Si2 0.261251 0.676684 0.698391
Si Si3 0.723402 0.172794 0.129569
Si Si4 0.834109 0.173540 0.019524
Si Si5 0.966845 0.821917 0.586896
Si Si6 0.454051 0.322395 0.071317
Si Si7 0.039835 0.177413 0.735080
Si Si8 0.348125 0.677269 0.550523
O O1 0.338468 0.500000 0.351292
O O2 0.298402 0.248780 0.301839
O O3 0.402118 0.268567 0.308720
O O4 0.340725 0.261700 0.453854
O O5 0.256815 0.500000 0.700374
O O6 0.289550 0.732676 0.783453
O O7 0.297688 0.733999 0.613805
O O8 0.680174 0.228432 0.062589
O O9 0.712265 0.000000 0.148970
O O10 0.786794 0.200226 0.095736
O O11 0.836486 0.000000 0.992177
O O12 0.892759 0.229793 0.050337
O O13 0.904684 0.761564 0.586486
O O14 0.000000 0.760923 0.500000
O O15 0.992701 0.761187 0.674692
O O16 0.969460 0.000000 0.586270
O O17 0.455848 0.500000 0.072072
O O18 0.468053 0.259732 0.166341
O O19 0.500000 0.259135 0.000000
O O20 0.038360 0.000000 0.737606
O O21 0.351098 0.500000 0.547543
#
# Coordination Sequence:
#
# PCOD8082966 Si02
#       8
#     8   8   8   8   8   8   8   8
#     4  10  18  32  52  72  99 134 174 214 254 302
#     4  11  22  33  47  74 108 136 167 207 258 309
#     4  10  20  35  55  77 100 133 174 210 253 307
#     4   9  18  34  55  77 103 132 168 213 258 302
#     4   9  14  25  45  71 100 128 164 214 262 301
#     4   9  17  28  44  72 107 136 163 203 258 310
#     4   9  16  26  46  73 100 132 169 208 252 301
#     4   9  18  30  46  72 104 135 167 213 263 305
#
# _framework density 19.111657999999998
#
# number of rings (size 3 to 8) (size 9 to 14) (size 15 to 20)
#    0.000    2.500    1.250    1.875    0.000    3.500 
#    0.000    4.375    0.000    0.375    0.000    7.000 
#    0.000    0.000    0.000    0.000    0.000    0.000 
#
# Total GULP energy -396764.619428 kJ/mol
# GULP energy per Si atom -12398.894357 kJ/mol
# Density = 1.906816 g / cm^3
# Si number density = 19.111658 Si / 1000 Ang^3
#
#
#
# Elastic Constant Matrix: (Units=GPa)
#
#
# Indices 1 2 3 4 5 6 
#
# 1 73.4691 15.4584 40.2710 0.0000 16.2047 0.0000
# 2 15.4584 23.3269 19.4183 0.0000 -1.1332 0.0000
# 3 40.2710 19.4183 142.4908 0.0000 4.7557 0.0000
# 4 0.0000 0.0000 0.0000 19.5943 0.0000 3.4218
# 5 16.2047 -1.1332 4.7557 0.0000 31.2386 0.0000
# 6 0.0000 0.0000 0.0000 3.4218 0.0000 17.2643
#
#
#
# Elastic Compliance Matrix: (Units=1/GPa)
#
#
# Indices 1 2 3 4 5 6 
#
# 1 0.020288 -0.010669 -0.003936 0.000000 -0.010312 0.000000
# 2 -0.010669 0.054205 -0.004646 0.000000 0.008208 0.000000
# 3 -0.003936 -0.004646 0.008745 0.000000 0.000542 0.000000
# 4 0.000000 0.000000 0.000000 0.052865 0.000000 -0.010478
# 5 -0.010312 0.008208 0.000542 0.000000 0.037576 0.000000
# 6 0.000000 0.000000 0.000000 -0.010478 0.000000 0.060000
#
#
# Mechanical properties :
#
#
# Convention : Reuss Voigt Hill
#
# Bulk Modulus (GPa) = 22.35256 43.28690 32.81973
# Shear Modulus (GPa) = 17.41600 24.56205 20.98903
#
# Velocity S-wave (km/s) = 3.02201 3.58884 3.31755
# Velocity P-wave (km/s) = 4.88855 6.31440 5.64666
#
# Compressibility (1/GPa) = 0.04473760
#
# Stress axis : x y z
#
# Youngs Moduli (GPa) = 49.29091 18.44840 114.34722
#
# Poissons Ratio (x) = 0.19683 0.45003
# Poissons Ratio (y) = 0.52589 0.53121
# Poissons Ratio (z) = 0.19399 0.08570
#
# Static dielectric constant tensor:
#      x y z
#    x 3.614470 0.000000 0.027670 
#    y 0.000000 2.911690 0.000000 
#    z 0.027670 0.000000 3.764070 
# 
# 
# High freq. dielectric constant tensor:
#      x y z
#    x 1.747520 0.000000 0.007080 
#    y 0.000000 1.682940 0.000000 
#    z 0.007080 0.000000 1.757810 
# 
# From -- ./inp_files/238792.got.cif
#   From: 2010.06.25/outbox.cif.g09.slc.cpg/sg12_120_cif.got.tgz:238792.got - 2010.06.28 00:19:55.
