data_PCOD8082572
_publ_section_title
;
Structure prediction by ZEFSAII (Michael W. Deem and Ramdas Pophale) SiO2 
 PCOD8082572
Probable space group: C 2/M
;
_chemical_formula_sum "Si O2"
_cell_formula_units_Z 56
_cell_length_a 21.984498
_cell_length_b 12.614654
_cell_length_c 11.225622
_cell_angle_alpha 90.000000
_cell_angle_beta 100.342881
_cell_angle_gamma 90.000000
_cell_volume 3062.580216
_symmetry_space_group_name_H-M "C 2/M"
_symmetry_group_IT_number 12
_symmetry_cell_setting 'monoclinic'
loop_
_space_group_symop_operation_xyz
x,y,z
-x,y,-z
-x,-y,-z
x,-y,z
1/2+x,1/2+y,z
1/2-x,1/2+y,-z
1/2-x,1/2-y,-z
1/2+x,1/2-y,z
loop_
_atom_site_type_symbol
_atom_site_label
_atom_site_fract_x
_atom_site_fract_y
_atom_site_fract_z
Si Si1 0.826873 0.192617 0.420166
Si Si2 0.694685 0.622223 0.839759
Si Si3 0.402776 0.695971 0.009452
Si Si4 0.020533 0.878352 0.169257
Si Si5 0.808098 0.379055 0.581160
Si Si6 0.949715 0.120373 0.566187
Si Si7 0.334962 0.122213 0.859634
O O1 0.828637 0.197520 0.276801
O O2 0.834833 0.308640 0.482544
O O3 0.765515 0.134165 0.442449
O O4 0.882722 0.122199 0.485760
O O5 0.685773 0.500000 0.797180
O O6 0.766866 0.644103 0.890168
O O7 0.656170 0.645773 0.945118
O O8 0.423126 0.624190 0.904758
O O9 0.384714 0.811694 0.953064
O O10 0.462817 0.698558 0.116365
O O11 0.047574 0.830322 0.300985
O O12 0.996728 0.000000 0.168048
O O13 0.824948 0.500000 0.557794
O O14 0.835644 0.345500 0.719715
O O15 0.000000 0.179441 0.500000
O O16 0.970893 0.000000 0.589636
O O17 0.353448 0.000000 0.880684
#
# Coordination Sequence:
#
# PCOD8082572 Si02
#       7
#     8   8   8   8   8   8   8
#     4  10  18  31  53  77 102 133 165 202 249 307
#     4  10  19  32  52  77 104 134 165 202 252 303
#     4  11  19  33  51  69  99 137 171 203 246 296
#     4  10  21  33  48  73 101 131 168 211 254 298
#     4   9  18  33  53  77 103 131 164 206 256 302
#     4  10  19  31  49  74 102 130 164 206 252 302
#     4   9  19  34  52  74  99 130 171 213 250 295
#
# _framework density 18.285235
#
# number of rings (size 3 to 8) (size 9 to 14) (size 15 to 20)
#    0.000    2.143    0.000    6.000    0.000    1.143 
#    0.000    2.143    0.000    9.857    0.000    0.000 
#    0.000    0.000    0.000    0.000    0.000    0.000 
#
# Total GULP energy -347060.187632 kJ/mol
# GULP energy per Si atom -12395.006701 kJ/mol
# Density = 1.824362 g / cm^3
# Si number density = 18.285235 Si / 1000 Ang^3
#
#
#
# Elastic Constant Matrix: (Units=GPa)
#
#
# Indices 1 2 3 4 5 6 
#
# 1 72.5207 34.1800 47.2553 0.0000 2.3048 0.0000
# 2 34.1800 76.9581 36.1810 0.0000 3.1732 0.0000
# 3 47.2553 36.1810 90.9708 0.0000 2.7069 0.0000
# 4 0.0000 0.0000 0.0000 31.7097 0.0000 4.9522
# 5 2.3048 3.1732 2.7069 0.0000 31.3081 0.0000
# 6 0.0000 0.0000 0.0000 4.9522 0.0000 24.8488
#
#
#
# Elastic Compliance Matrix: (Units=1/GPa)
#
#
# Indices 1 2 3 4 5 6 
#
# 1 0.022632 -0.005556 -0.009538 0.000000 -0.000278 0.000000
# 2 -0.005556 0.017383 -0.003997 0.000000 -0.001007 0.000000
# 3 -0.009538 -0.003997 0.017549 0.000000 -0.000410 0.000000
# 4 0.000000 0.000000 0.000000 0.032549 0.000000 -0.006487
# 5 -0.000278 -0.001007 -0.000410 0.000000 0.032099 0.000000
# 6 0.000000 0.000000 0.000000 -0.006487 0.000000 0.041536
#
#
# Mechanical properties :
#
#
# Convention : Reuss Voigt Hill
#
# Bulk Modulus (GPa) = 51.59806 52.85359 52.22582
# Shear Modulus (GPa) = 23.99338 25.76220 24.87779
#
# Velocity S-wave (km/s) = 3.62632 3.75761 3.69255
# Velocity P-wave (km/s) = 6.76855 6.91332 6.84132
#
# Compressibility (1/GPa) = 0.01938057
#
# Stress axis : x y z
#
# Youngs Moduli (GPa) = 44.18560 57.52905 56.98232
#
# Poissons Ratio (x) = 0.31962 0.54351
# Poissons Ratio (y) = 0.24549 0.22778
# Poissons Ratio (z) = 0.42145 0.22997
#
# Static dielectric constant tensor:
#      x y z
#    x 3.302110 0.000000 -0.128490 
#    y 0.000000 3.148330 0.000000 
#    z -0.128490 0.000000 3.569680 
# 
# 
# High freq. dielectric constant tensor:
#      x y z
#    x 1.704330 0.000000 -0.002680 
#    y 0.000000 1.677640 0.000000 
#    z -0.002680 0.000000 1.716830 
# 
# From -- ./inp_files/165045.got.cif
#   From: 2010.06.25/outbox.cif.g09.slc.cpg/sg12_83_cif.got.tgz:165045.got - 2010.06.28 00:19:55.
