data_PCOD8082375
_publ_section_title
;
Structure prediction by ZEFSAII (Michael W. Deem and Ramdas Pophale) SiO2 
 PCOD8082375
Probable space group: C 2/M
;
_chemical_formula_sum "Si O2"
_cell_formula_units_Z 64
_cell_length_a 17.716695
_cell_length_b 14.291858
_cell_length_c 14.360402
_cell_angle_alpha 90.000000
_cell_angle_beta 127.208475
_cell_angle_gamma 90.000000
_cell_volume 2895.951763
_symmetry_space_group_name_H-M "C 2/M"
_symmetry_group_IT_number 12
_symmetry_cell_setting 'monoclinic'
loop_
_space_group_symop_operation_xyz
x,y,z
-x,y,-z
-x,-y,-z
x,-y,z
1/2+x,1/2+y,z
1/2-x,1/2+y,-z
1/2-x,1/2-y,-z
1/2+x,1/2-y,z
loop_
_atom_site_type_symbol
_atom_site_label
_atom_site_fract_x
_atom_site_fract_y
_atom_site_fract_z
Si Si1 0.430346 0.107964 0.313342
Si Si2 0.348951 0.104565 0.557823
Si Si3 0.682264 0.776163 0.625931
Si Si4 0.275704 0.832741 0.842208
Si Si5 0.903976 0.710103 0.104379
Si Si6 0.914353 0.106446 0.213800
Si Si7 0.588274 0.105232 0.201152
Si Si8 0.426711 0.601325 0.526169
O O1 0.542909 0.114486 0.394885
O O2 0.398585 0.165516 0.380230
O O3 0.385800 0.155529 0.187596
O O4 0.396088 0.000000 0.294356
O O5 0.283186 0.164454 0.438318
O O6 0.345418 0.139515 0.662731
O O7 0.310711 0.000000 0.521368
O O8 0.765246 0.755352 0.762773
O O9 0.648818 0.678785 0.556265
O O10 0.173579 0.880978 0.779709
O O11 0.351719 0.900341 0.849093
O O12 0.313393 0.803468 0.970958
O O13 0.909637 0.821466 0.124877
O O14 0.998079 0.672879 0.122833
O O15 0.012735 0.130914 0.338209
O O16 0.912885 0.000000 0.175189
O O17 0.551171 0.000000 0.196966
O O18 0.500000 0.586493 0.500000
O O19 0.375742 0.500000 0.505367
#
# Coordination Sequence:
#
# PCOD8082375 Si02
#       8
#     8   8   8   8   8   8   8   8
#     4  10  20  34  59  90 118 158 205 251 304 361
#     4   9  19  36  59  86 117 157 205 245 296 369
#     4  12  21  34  57  87 128 160 194 251 307 366
#     4  12  25  37  59  94 129 159 204 253 313 363
#     4  11  22  43  61  89 122 162 211 255 306 367
#     4  11  23  39  63  92 124 161 205 257 308 359
#     4  10  23  43  67  91 119 159 206 258 313 368
#     4  10  18  31  51  79 113 154 194 234 292 357
#
# _framework density 22.099813999999999
#
# number of rings (size 3 to 8) (size 9 to 14) (size 15 to 20)
#    0.000    1.375    2.500    5.250    0.000    4.500 
#    0.000    0.625    0.000    4.500    0.000    0.000 
#    0.000    0.000    0.000    0.000    0.000    0.000 
#
# Total GULP energy -396692.592602 kJ/mol
# GULP energy per Si atom -12396.643519 kJ/mol
# Density = 2.204951 g / cm^3
# Si number density = 22.099814 Si / 1000 Ang^3
#
#
#
# Elastic Constant Matrix: (Units=GPa)
#
#
# Indices 1 2 3 4 5 6 
#
# 1 53.4253 18.4587 7.7223 0.0000 -4.0924 0.0000
# 2 18.4587 125.1441 53.9527 0.0000 -2.3275 0.0000
# 3 7.7223 53.9527 126.7217 0.0000 -14.3196 0.0000
# 4 0.0000 0.0000 0.0000 21.2005 0.0000 -11.9328
# 5 -4.0924 -2.3275 -14.3196 0.0000 23.8411 0.0000
# 6 0.0000 0.0000 0.0000 -11.9328 0.0000 12.8934
#
#
#
# Elastic Compliance Matrix: (Units=1/GPa)
#
#
# Indices 1 2 3 4 5 6 
#
# 1 0.019978 -0.003092 0.000486 0.000000 0.003419 0.000000
# 2 -0.003092 0.010328 -0.004457 0.000000 -0.002200 0.000000
# 3 0.000486 -0.004457 0.010427 0.000000 0.005911 0.000000
# 4 0.000000 0.000000 0.000000 0.098456 0.000000 0.091120
# 5 0.003419 -0.002200 0.005911 0.000000 0.045867 0.000000
# 6 0.000000 0.000000 0.000000 0.091120 0.000000 0.161890
#
#
# Mechanical properties :
#
#
# Convention : Reuss Voigt Hill
#
# Bulk Modulus (GPa) = 37.58736 51.72873 44.65805
# Shear Modulus (GPa) = 13.51563 26.59750 20.05657
#
# Velocity S-wave (km/s) = 2.47568 3.47294 3.01582
# Velocity P-wave (km/s) = 5.02165 6.28804 5.69018
#
# Compressibility (1/GPa) = 0.02660469
#
# Stress axis : x y z
#
# Youngs Moduli (GPa) = 50.05530 96.82782 95.90155
#
# Poissons Ratio (x) = 0.29944 -0.04657
# Poissons Ratio (y) = 0.15479 0.42745
# Poissons Ratio (z) = -0.02430 0.43158
#
# Static dielectric constant tensor:
#      x y z
#    x 3.726700 0.000000 -0.132730 
#    y 0.000000 4.298010 0.000000 
#    z -0.132730 0.000000 4.061820 
# 
# 
# High freq. dielectric constant tensor:
#      x y z
#    x 1.845510 0.000000 -0.013770 
#    y 0.000000 1.871970 0.000000 
#    z -0.013770 0.000000 1.867940 
# 
# From -- ./inp_files/225750.got.cif
#   From: 2010.06.25/outbox.cif.g09.slc.cpg/sg12_113_cif.got.tgz:225750.got - 2010.06.28 00:19:55.
