data_PCOD8082998
_publ_section_title
;
Structure prediction by ZEFSAII (Michael W. Deem and Ramdas Pophale) SiO2 
 PCOD8082998
Probable space group: C 2/M
;
_chemical_formula_sum "Si O2"
_cell_formula_units_Z 44
_cell_length_a 24.618479
_cell_length_b 18.037171
_cell_length_c 16.815735
_cell_angle_alpha 90.000000
_cell_angle_beta 159.984078
_cell_angle_gamma 90.000000
_cell_volume 2555.810323
_symmetry_space_group_name_H-M "C 2/M"
_symmetry_group_IT_number 12
_symmetry_cell_setting 'monoclinic'
loop_
_space_group_symop_operation_xyz
x,y,z
-x,y,-z
-x,-y,-z
x,-y,z
1/2+x,1/2+y,z
1/2-x,1/2+y,-z
1/2-x,1/2-y,-z
1/2+x,1/2-y,z
loop_
_atom_site_type_symbol
_atom_site_label
_atom_site_fract_x
_atom_site_fract_y
_atom_site_fract_z
Si Si1 0.835073 0.344659 0.462870
Si Si2 0.955419 0.247535 0.354166
Si Si3 0.065767 0.738132 0.257384
Si Si4 0.359875 0.340330 0.076168
Si Si5 0.241549 0.500000 0.885519
Si Si6 0.500000 0.271260 0.000000
Si Si7 0.897527 0.500000 0.479807
O O1 0.946446 0.327626 0.693916
O O2 0.651551 0.323666 0.221967
O O3 0.846680 0.430852 0.462624
O O4 0.900425 0.297856 0.478604
O O5 0.922013 0.179296 0.249696
O O6 0.000000 0.211693 0.500000
O O7 0.808709 0.301901 0.167277
O O8 0.250000 0.750000 0.500000
O O9 0.986784 0.720372 0.062057
O O10 0.982347 0.811630 0.177894
O O11 0.347221 0.428471 0.050884
O O12 0.197592 0.500000 0.732882
O O13 0.085340 0.500000 0.724690
#
# Coordination Sequence:
#
# PCOD8082998 Si02
#       7
#     8   8   8   8   4   4   4
#     4  10  20  32  49  77 106 132 170 210 256 303
#     4  10  18  32  52  76 102 134 176 214 253 299
#     4   9  19  34  51  74 100 130 172 214 248 297
#     4  10  20  32  52  78 104 135 170 213 257 306
#     4  11  20  32  49  78 108 139 165 202 266 315
#     4  10  18  33  54  73  98 136 174 214 254 299
#     4  11  20  31  50  73 110 139 159 211 261 312
#
# _framework density 17.215675000000001
#
# number of rings (size 3 to 8) (size 9 to 14) (size 15 to 20)
#    0.000    2.000    1.818    3.273    0.000    0.364 
#    0.000    4.091    0.000    0.545    0.000    0.000 
#    0.000    0.000    0.000    0.000    0.000    0.000 
#
# Total GULP energy -272708.292934 kJ/mol
# GULP energy per Si atom -12395.831497 kJ/mol
# Density = 1.717649 g / cm^3
# Si number density = 17.215675 Si / 1000 Ang^3
#
#
#
# Elastic Constant Matrix: (Units=GPa)
#
#
# Indices 1 2 3 4 5 6 
#
# 1 118.5085 45.2685 50.5375 0.0000 -22.6781 0.0000
# 2 45.2685 110.0856 46.0611 0.0000 -8.6231 0.0000
# 3 50.5375 46.0611 79.1021 0.0000 -8.7483 0.0000
# 4 0.0000 0.0000 0.0000 20.1477 0.0000 1.5481
# 5 -22.6781 -8.6231 -8.7483 0.0000 48.2660 0.0000
# 6 0.0000 0.0000 0.0000 1.5481 0.0000 14.5611
#
#
#
# Elastic Compliance Matrix: (Units=1/GPa)
#
#
# Indices 1 2 3 4 5 6 
#
# 1 0.012905 -0.002265 -0.006429 0.000000 0.004494 0.000000
# 2 -0.002265 0.012445 -0.005788 0.000000 0.000110 0.000000
# 3 -0.006429 -0.005788 0.020074 0.000000 -0.000416 0.000000
# 4 0.000000 0.000000 0.000000 0.050042 0.000000 -0.005320
# 5 0.004494 0.000110 -0.000416 0.000000 0.022774 0.000000
# 6 0.000000 0.000000 0.000000 -0.005320 0.000000 0.069242
#
#
# Mechanical properties :
#
#
# Convention : Reuss Voigt Hill
#
# Bulk Modulus (GPa) = 60.75113 65.71448 63.23281
# Shear Modulus (GPa) = 22.52943 27.65024 25.08984
#
# Velocity S-wave (km/s) = 3.62146 4.01198 3.82171
# Velocity P-wave (km/s) = 7.26991 7.72758 7.50223
#
# Compressibility (1/GPa) = 0.01646060
#
# Stress axis : x y z
#
# Youngs Moduli (GPa) = 77.49039 80.35054 49.81657
#
# Poissons Ratio (x) = 0.18196 0.32028
# Poissons Ratio (y) = 0.17549 0.28834
# Poissons Ratio (z) = 0.49819 0.46506
#
# Static dielectric constant tensor:
#      x y z
#    x 3.742370 0.000000 -0.155460 
#    y 0.000000 2.959310 0.000000 
#    z -0.155460 0.000000 3.360650 
# 
# 
# High freq. dielectric constant tensor:
#      x y z
#    x 1.688320 0.000000 0.001770 
#    y 0.000000 1.625210 0.000000 
#    z 0.001770 0.000000 1.667390 
# 
# From -- ./inp_files/183403.got.cif
#   From: 2010.06.25/outbox.cif.g09.slc.cpg/sg12_92_cif.got.tgz:183403.got - 2010.06.28 00:19:55.
