data_PCOD8082684
_publ_section_title
;
Structure prediction by ZEFSAII (Michael W. Deem and Ramdas Pophale) SiO2 
 PCOD8082684
Probable space group: C 2/M
;
_chemical_formula_sum "Si O2"
_cell_formula_units_Z 64
_cell_length_a 15.374117
_cell_length_b 9.468661
_cell_length_c 32.680393
_cell_angle_alpha 90.000000
_cell_angle_beta 133.655372
_cell_angle_gamma 90.000000
_cell_volume 3441.974056
_symmetry_space_group_name_H-M "C 2/M"
_symmetry_group_IT_number 12
_symmetry_cell_setting 'monoclinic'
loop_
_space_group_symop_operation_xyz
x,y,z
-x,y,-z
-x,-y,-z
x,-y,z
1/2+x,1/2+y,z
1/2-x,1/2+y,-z
1/2-x,1/2-y,-z
1/2+x,1/2-y,z
loop_
_atom_site_type_symbol
_atom_site_label
_atom_site_fract_x
_atom_site_fract_y
_atom_site_fract_z
Si Si1 0.783687 0.165203 0.126861
Si Si2 0.832413 0.663618 0.996817
Si Si3 0.194988 0.336174 0.393672
Si Si4 0.100866 0.335563 0.500589
Si Si5 0.924939 0.666522 0.884984
Si Si6 0.479776 0.166562 0.812571
Si Si7 0.975414 0.662330 0.375971
Si Si8 0.742548 0.165387 0.316744
O O1 0.703212 0.196655 0.060998
O O2 0.703074 0.218175 0.138976
O O3 0.903720 0.255771 0.166776
O O4 0.816857 0.000000 0.140439
O O5 0.815208 0.500000 0.002014
O O6 0.750000 0.750000 0.000000
O O7 0.969650 0.711277 0.049439
O O8 0.228916 0.500000 0.409110
O O9 0.278672 0.250380 0.451684
O O10 0.056284 0.311585 0.361821
O O11 0.214059 0.282952 0.353523
O O12 0.131596 0.500000 0.514730
O O13 0.054971 0.294985 0.440872
O O14 0.000000 0.288497 0.500000
O O15 0.919205 0.500000 0.879640
O O16 0.948959 0.728234 0.847549
O O17 0.370785 0.205228 0.747580
O O18 0.506044 0.000000 0.822033
O O19 0.934322 0.500000 0.366161
O O20 0.857225 0.756870 0.335089
O O21 0.769745 0.000000 0.324400
#
# Coordination Sequence:
#
# PCOD8082684 Si02
#       8
#     8   8   8   8   8   8   8   8
#     4  10  20  34  55  82 106 134 179 221 257 312
#     4  10  18  31  54  80 107 139 172 211 262 316
#     4  10  21  36  55  80 109 140 174 214 264 316
#     4  10  19  33  55  82 109 137 172 215 263 314
#     4   9  18  34  55  77 106 142 173 210 264 317
#     4  10  21  38  56  75 105 142 178 218 266 311
#     4  10  21  37  56  79 108 140 174 216 265 314
#     4  10  22  38  55  77 105 140 181 219 258 313
#
# _framework density 18.593982
#
# number of rings (size 3 to 8) (size 9 to 14) (size 15 to 20)
#    0.000    2.125    2.500    0.750    0.000    4.250 
#    0.000    1.250    0.000    1.500    0.000    0.000 
#    0.000    0.000    0.000    0.000    0.000    0.000 
#
# Total GULP energy -396838.770020 kJ/mol
# GULP energy per Si atom -12401.211563 kJ/mol
# Density = 1.855166 g / cm^3
# Si number density = 18.593982 Si / 1000 Ang^3
#
#
#
# Elastic Constant Matrix: (Units=GPa)
#
#
# Indices 1 2 3 4 5 6 
#
# 1 127.3722 39.7341 42.3479 0.0000 23.2812 0.0000
# 2 39.7341 42.9318 39.9170 0.0000 15.8397 0.0000
# 3 42.3479 39.9170 98.5818 0.0000 25.4365 0.0000
# 4 0.0000 0.0000 0.0000 23.4476 0.0000 6.7002
# 5 23.2812 15.8397 25.4365 0.0000 23.2659 0.0000
# 6 0.0000 0.0000 0.0000 6.7002 0.0000 31.7446
#
#
#
# Elastic Compliance Matrix: (Units=1/GPa)
#
#
# Indices 1 2 3 4 5 6 
#
# 1 0.011583 -0.008590 -0.000022 0.000000 -0.005718 0.000000
# 2 -0.008590 0.046481 -0.012792 0.000000 -0.009063 0.000000
# 3 -0.000022 -0.012792 0.018220 0.000000 -0.011189 0.000000
# 4 0.000000 0.000000 0.000000 0.045386 0.000000 -0.009579
# 5 -0.005718 -0.009063 -0.011189 0.000000 0.067107 0.000000
# 6 0.000000 0.000000 0.000000 -0.009579 0.000000 0.033523
#
#
# Mechanical properties :
#
#
# Convention : Reuss Voigt Hill
#
# Bulk Modulus (GPa) = 29.87254 56.98707 43.42980
# Shear Modulus (GPa) = 18.09848 25.48407 21.79128
#
# Velocity S-wave (km/s) = 3.12324 3.70612 3.42709
# Velocity P-wave (km/s) = 5.39507 7.00203 6.25041
#
# Compressibility (1/GPa) = 0.03347556
#
# Stress axis : x y z
#
# Youngs Moduli (GPa) = 86.33123 21.51433 54.88491
#
# Poissons Ratio (x) = 0.18481 0.00121
# Poissons Ratio (y) = 0.74160 0.70208
# Poissons Ratio (z) = 0.00191 0.27521
#
# Static dielectric constant tensor:
#      x y z
#    x 3.502560 0.000000 -0.317930 
#    y 0.000000 3.191540 0.000000 
#    z -0.317930 0.000000 3.825020 
# 
# 
# High freq. dielectric constant tensor:
#      x y z
#    x 1.735390 0.000000 -0.002390 
#    y 0.000000 1.700000 0.000000 
#    z -0.002390 0.000000 1.719630 
# 
# From -- ./inp_files/359900.got.cif
#   From: 2010.06.25/outbox.cif.g09.slc.cpg/sg12_180_cif.got.tgz:359900.got - 2010.06.28 00:19:55.
