data_PCOD8082045
_publ_section_title
;
Structure prediction by ZEFSAII (Michael W. Deem and Ramdas Pophale) SiO2 
 PCOD8082045
Probable space group: C 2/M
;
_chemical_formula_sum "Si O2"
_cell_formula_units_Z 64
_cell_length_a 17.808361
_cell_length_b 14.308748
_cell_length_c 15.565596
_cell_angle_alpha 90.000000
_cell_angle_beta 94.242983
_cell_angle_gamma 90.000000
_cell_volume 3955.482023
_symmetry_space_group_name_H-M "C 2/M"
_symmetry_group_IT_number 12
_symmetry_cell_setting 'monoclinic'
loop_
_space_group_symop_operation_xyz
x,y,z
-x,y,-z
-x,-y,-z
x,-y,z
1/2+x,1/2+y,z
1/2-x,1/2+y,-z
1/2-x,1/2-y,-z
1/2+x,1/2-y,z
loop_
_atom_site_type_symbol
_atom_site_label
_atom_site_fract_x
_atom_site_fract_y
_atom_site_fract_z
Si Si1 0.582189 0.389017 0.998478
Si Si2 0.153960 0.891825 0.517793
Si Si3 0.073600 0.395451 0.562051
Si Si4 0.178827 0.604413 0.415740
Si Si5 0.440441 0.711776 0.351977
Si Si6 0.883097 0.787648 0.652086
Si Si7 0.925734 0.894821 0.186366
Si Si8 0.605053 0.395000 0.182511
O O1 0.573564 0.500000 0.999712
O O2 0.630048 0.360138 0.088042
O O3 0.500000 0.342178 0.000000
O O4 0.615191 0.361597 0.906686
O O5 0.232249 0.878885 0.574324
O O6 0.088600 0.845183 0.568412
O O7 0.161293 0.841255 0.426678
O O8 0.134296 0.000000 0.501038
O O9 0.068155 0.500000 0.600337
O O10 0.146932 0.383786 0.509290
O O11 0.079199 0.321597 0.640191
O O12 0.000000 0.371522 0.500000
O O13 0.159798 0.500000 0.380036
O O14 0.139354 0.678436 0.349198
O O15 0.529151 0.696077 0.355892
O O16 0.401768 0.674210 0.261346
O O17 0.858645 0.828190 0.742576
O O18 0.014867 0.893218 0.178846
O O19 0.900251 0.000000 0.209363
O O20 0.634363 0.500000 0.202403
#
# Coordination Sequence:
#
# PCOD8082045 Si02
#       8
#     8   8   8   8   8   8   8   8
#     4   7  10  20  36  55  83 117 141 166 206 253
#     4  11  22  32  43  62  93 123 144 172 218 269
#     4  10  18  31  47  61  80 111 153 195 221 242
#     4  10  21  35  47  59  82 119 160 191 211 245
#     4  11  19  28  44  68  89 116 144 178 221 261
#     4  11  19  29  44  66  89 116 147 181 220 258
#     4   8  14  23  37  60  91 117 140 168 208 267
#     4   8  14  23  38  61  88 114 141 173 214 260
#
# _framework density 16.180076
#
# number of rings (size 3 to 8) (size 9 to 14) (size 15 to 20)
#    0.000    2.500    2.500    3.000    0.000    2.000 
#    0.000    0.000    0.000    0.000    0.000    1.750 
#    0.000    5.000    0.000    0.000    0.000    0.000 
#
# Total GULP energy -396526.556150 kJ/mol
# GULP energy per Si atom -12391.454880 kJ/mol
# Density = 1.614325 g / cm^3
# Si number density = 16.180076 Si / 1000 Ang^3
#
#
#
# Elastic Constant Matrix: (Units=GPa)
#
#
# Indices 1 2 3 4 5 6 
#
# 1 31.1188 16.6024 7.7139 0.0000 3.9347 0.0000
# 2 16.6024 112.3909 71.8917 0.0000 -1.5675 0.0000
# 3 7.7139 71.8917 137.1432 0.0000 -0.1892 0.0000
# 4 0.0000 0.0000 0.0000 16.2307 0.0000 -2.7768
# 5 3.9347 -1.5675 -0.1892 0.0000 6.2593 0.0000
# 6 0.0000 0.0000 0.0000 -2.7768 0.0000 16.5965
#
#
#
# Elastic Compliance Matrix: (Units=1/GPa)
#
#
# Indices 1 2 3 4 5 6 
#
# 1 0.038831 -0.007041 0.001471 0.000000 -0.026129 0.000000
# 2 -0.007041 0.014725 -0.007312 0.000000 0.007893 0.000000
# 3 0.001471 -0.007312 0.011039 0.000000 -0.002422 0.000000
# 4 0.000000 0.000000 0.000000 0.063427 0.000000 0.010612
# 5 -0.026129 0.007893 -0.002422 0.000000 0.178090 0.000000
# 6 0.000000 0.000000 0.000000 0.010612 0.000000 0.062029
#
#
# Mechanical properties :
#
#
# Convention : Reuss Voigt Hill
#
# Bulk Modulus (GPa) = 25.75368 52.56321 39.15845
# Shear Modulus (GPa) = 12.28957 20.11364 16.20161
#
# Velocity S-wave (km/s) = 2.75898 3.52960 3.16781
# Velocity P-wave (km/s) = 5.10889 7.01197 6.13468
#
# Compressibility (1/GPa) = 0.03882940
#
# Stress axis : x y z
#
# Youngs Moduli (GPa) = 25.75280 67.91193 90.59131
#
# Poissons Ratio (x) = 0.47820 -0.13326
# Poissons Ratio (y) = 0.18134 0.66240
# Poissons Ratio (z) = -0.03788 0.49657
#
# Static dielectric constant tensor:
#      x y z
#    x 2.723510 0.000000 -0.071960 
#    y 0.000000 3.120060 0.000000 
#    z -0.071960 0.000000 3.395340 
# 
# 
# High freq. dielectric constant tensor:
#      x y z
#    x 1.582120 0.000000 -0.005760 
#    y 0.000000 1.613400 0.000000 
#    z -0.005760 0.000000 1.610670 
# 
# From -- ./inp_files/224845.got.cif
#   From: 2010.06.25/outbox.cif.g09.slc.cpg/sg12_113_cif.got.tgz:224845.got - 2010.06.28 00:19:55.
