data_PCOD8082681
_publ_section_title
;
Structure prediction by ZEFSAII (Michael W. Deem and Ramdas Pophale) SiO2 
 PCOD8082681
Probable space group: C 2/M
;
_chemical_formula_sum "Si O2"
_cell_formula_units_Z 64
_cell_length_a 12.028706
_cell_length_b 23.594360
_cell_length_c 13.954646
_cell_angle_alpha 90.000000
_cell_angle_beta 116.320581
_cell_angle_gamma 90.000000
_cell_volume 3549.870583
_symmetry_space_group_name_H-M "C 2/M"
_symmetry_group_IT_number 12
_symmetry_cell_setting 'monoclinic'
loop_
_space_group_symop_operation_xyz
x,y,z
-x,y,-z
-x,-y,-z
x,-y,z
1/2+x,1/2+y,z
1/2-x,1/2+y,-z
1/2-x,1/2-y,-z
1/2+x,1/2-y,z
loop_
_atom_site_type_symbol
_atom_site_label
_atom_site_fract_x
_atom_site_fract_y
_atom_site_fract_z
Si Si1 0.868286 0.754918 0.433138
Si Si2 0.144834 0.064722 0.903477
Si Si3 0.590424 0.269480 0.763670
Si Si4 0.647839 0.326785 0.393792
Si Si5 0.712272 0.065109 0.854063
Si Si6 0.962837 0.658577 0.142909
Si Si7 0.808885 0.657267 0.895082
Si Si8 0.129219 0.066063 0.269294
O O1 0.849885 0.773420 0.318168
O O2 0.771386 0.706587 0.417474
O O3 0.870449 0.812082 0.500740
O O4 0.000000 0.724168 0.500000
O O5 0.241965 0.096519 0.872078
O O6 0.003316 0.081710 0.827938
O O7 0.166692 0.000000 0.886779
O O8 0.178315 0.078046 0.027261
O O9 0.462324 0.303947 0.716143
O O10 0.561800 0.206812 0.788725
O O11 0.699625 0.296875 0.866975
O O12 0.657767 0.393995 0.373009
O O13 0.587862 0.100885 0.828289
O O14 0.766579 0.079559 0.770384
O O15 0.670995 0.000000 0.844354
O O16 0.109411 0.657146 0.171695
O O17 0.893359 0.670558 0.017957
O O18 0.134119 0.000000 0.303083
#
# Coordination Sequence:
#
# PCOD8082681 Si02
#       8
#     8   8   8   8   8   8   8   8
#     4   9  20  34  54  76  99 128 172 217 265 320
#     4   9  17  31  50  74 104 142 181 217 256 304
#     4  11  19  34  52  73 103 138 174 220 261 309
#     4  10  19  34  54  79 101 131 170 217 267 315
#     4   9  18  31  48  73 106 142 182 219 255 306
#     4  10  21  32  49  74 109 145 182 213 260 311
#     4  10  20  34  48  75 108 145 178 217 258 312
#     4  10  18  31  54  80 106 136 172 217 267 312
#
# _framework density 18.028825999999999
#
# number of rings (size 3 to 8) (size 9 to 14) (size 15 to 20)
#    0.000    2.250    1.250    2.250    0.000    2.000 
#    0.000    3.750    0.000    4.500    0.000   10.500 
#    0.000    0.000    0.000    0.000    0.000    0.000 
#
# Total GULP energy -396518.240918 kJ/mol
# GULP energy per Si atom -12391.195029 kJ/mol
# Density = 1.798779 g / cm^3
# Si number density = 18.028826 Si / 1000 Ang^3
#
#
#
# Elastic Constant Matrix: (Units=GPa)
#
#
# Indices 1 2 3 4 5 6 
#
# 1 111.5692 48.9466 35.5044 0.0000 -7.4257 0.0000
# 2 48.9466 110.5215 48.0579 0.0000 -12.8247 0.0000
# 3 35.5044 48.0579 53.2922 0.0000 -11.5706 0.0000
# 4 0.0000 0.0000 0.0000 32.1309 0.0000 1.4940
# 5 -7.4257 -12.8247 -11.5706 0.0000 21.5802 0.0000
# 6 0.0000 0.0000 0.0000 1.4940 0.0000 27.0135
#
#
#
# Elastic Compliance Matrix: (Units=1/GPa)
#
#
# Indices 1 2 3 4 5 6 
#
# 1 0.011961 -0.003034 -0.005354 0.000000 -0.000558 0.000000
# 2 -0.003034 0.015721 -0.011718 0.000000 0.002016 0.000000
# 3 -0.005354 -0.011718 0.035069 0.000000 0.009997 0.000000
# 4 0.000000 0.000000 0.000000 0.031203 0.000000 -0.001726
# 5 -0.000558 0.002016 0.009997 0.000000 0.052705 0.000000
# 6 0.000000 0.000000 0.000000 -0.001726 0.000000 0.037114
#
#
# Mechanical properties :
#
#
# Convention : Reuss Voigt Hill
#
# Bulk Modulus (GPa) = 44.36685 60.04453 52.20569
# Shear Modulus (GPa) = 21.59869 25.66984 23.63427
#
# Velocity S-wave (km/s) = 3.46498 3.77745 3.62458
# Velocity P-wave (km/s) = 6.37733 7.23896 6.82176
#
# Compressibility (1/GPa) = 0.02253935
#
# Stress axis : x y z
#
# Youngs Moduli (GPa) = 83.60819 63.61020 28.51549
#
# Poissons Ratio (x) = 0.19298 0.15266
# Poissons Ratio (y) = 0.25365 0.33414
# Poissons Ratio (z) = 0.44761 0.74538
#
# Static dielectric constant tensor:
#      x y z
#    x 3.552160 0.000000 -0.018290 
#    y 0.000000 3.249590 0.000000 
#    z -0.018290 0.000000 3.273730 
# 
# 
# High freq. dielectric constant tensor:
#      x y z
#    x 1.711900 0.000000 -0.000260 
#    y 0.000000 1.687630 0.000000 
#    z -0.000260 0.000000 1.678420 
# 
# From -- ./inp_files/136005.got.cif
#   From: 2010.06.25/outbox.cif.g09.slc.cpg/sg12_69_cif.got.tgz:136005.got - 2010.06.28 00:19:55.
