data_PCOD8082894
_publ_section_title
;
Structure prediction by ZEFSAII (Michael W. Deem and Ramdas Pophale) SiO2 
 PCOD8082894
Probable space group: C 2/M
;
_chemical_formula_sum "Si O2"
_cell_formula_units_Z 44
_cell_length_a 14.908198
_cell_length_b 19.651321
_cell_length_c 8.394376
_cell_angle_alpha 90.000000
_cell_angle_beta 89.004660
_cell_angle_gamma 90.000000
_cell_volume 2458.893874
_symmetry_space_group_name_H-M "C 2/M"
_symmetry_group_IT_number 12
_symmetry_cell_setting 'monoclinic'
loop_
_space_group_symop_operation_xyz
x,y,z
-x,y,-z
-x,-y,-z
x,-y,z
1/2+x,1/2+y,z
1/2-x,1/2+y,-z
1/2-x,1/2-y,-z
1/2+x,1/2-y,z
loop_
_atom_site_type_symbol
_atom_site_label
_atom_site_fract_x
_atom_site_fract_y
_atom_site_fract_z
Si Si1 0.440007 0.302939 0.344053
Si Si2 0.256138 0.818761 0.593929
Si Si3 0.673976 0.797983 0.068476
Si Si4 0.500000 0.715348 0.000000
Si Si5 0.903522 0.422973 0.075539
Si Si6 0.585958 0.855367 0.602046
O O1 0.500000 0.319769 0.500000
O O2 0.345465 0.344172 0.366852
O O3 0.481834 0.326280 0.168949
O O4 0.420804 0.222183 0.332463
O O5 0.250000 0.750000 0.500000
O O6 0.315165 0.804499 0.745814
O O7 0.319162 0.869402 0.490884
O O8 0.750000 0.750000 0.000000
O O9 0.581417 0.763596 0.033152
O O10 0.673661 0.873386 0.992108
O O11 0.872680 0.500000 0.042077
O O12 0.913444 0.410849 0.261436
O O13 0.000000 0.406935 0.000000
O O14 0.500000 0.872529 0.500000
#
# Coordination Sequence:
#
# PCOD8082894 Si02
#       6
#     8   8   8   4   8   8
#     4  10  19  31  49  76 114 144 183 242 286 343
#     4  10  19  32  49  77 106 147 190 239 284 340
#     4  12  20  34  57  82 117 152 195 236 287 349
#     4  12  18  32  53  82 113 152 184 230 304 336
#     4  11  22  36  53  81 120 158 194 233 288 358
#     4  10  18  32  50  70 106 152 190 227 275 335
#
# _framework density 17.894226
#
# number of rings (size 3 to 8) (size 9 to 14) (size 15 to 20)
#    0.000    1.273    4.545    5.455    0.000    0.364 
#    0.000    0.909    0.000    0.000    0.000    0.636 
#    0.000    2.909    0.000    0.000    0.000    0.000 
#
# Total GULP energy -272572.324259 kJ/mol
# GULP energy per Si atom -12389.651103 kJ/mol
# Density = 1.785350 g / cm^3
# Si number density = 17.894226 Si / 1000 Ang^3
#
#
#
# Elastic Constant Matrix: (Units=GPa)
#
#
# Indices 1 2 3 4 5 6 
#
# 1 129.7156 38.8096 60.5707 0.0000 -3.1479 0.0000
# 2 38.8096 65.6554 29.4484 0.0000 -2.3903 0.0000
# 3 60.5707 29.4484 156.7813 0.0000 -2.3341 0.0000
# 4 0.0000 0.0000 0.0000 8.4170 0.0000 1.5396
# 5 -3.1479 -2.3903 -2.3341 0.0000 38.7972 0.0000
# 6 0.0000 0.0000 0.0000 1.5396 0.0000 15.3724
#
#
#
# Elastic Compliance Matrix: (Units=1/GPa)
#
#
# Indices 1 2 3 4 5 6 
#
# 1 0.010667 -0.004855 -0.003204 0.000000 0.000374 0.000000
# 2 -0.004855 0.018869 -0.001659 0.000000 0.000669 0.000000
# 3 -0.003204 -0.001659 0.007929 0.000000 0.000115 0.000000
# 4 0.000000 0.000000 0.000000 0.121024 0.000000 -0.012121
# 5 0.000374 0.000669 0.000115 0.000000 0.025854 0.000000
# 6 0.000000 0.000000 0.000000 -0.012121 0.000000 0.066266
#
#
# Mechanical properties :
#
#
# Convention : Reuss Voigt Hill
#
# Bulk Modulus (GPa) = 55.45968 67.75662 61.60815
# Shear Modulus (GPa) = 18.11253 27.40555 22.75904
#
# Velocity S-wave (km/s) = 3.18496 3.91772 3.57019
# Velocity P-wave (km/s) = 6.67725 7.64278 7.17627
#
# Compressibility (1/GPa) = 0.01803112
#
# Stress axis : x y z
#
# Youngs Moduli (GPa) = 93.75077 52.99699 126.11593
#
# Poissons Ratio (x) = 0.25728 0.40401
# Poissons Ratio (y) = 0.45513 0.20919
# Poissons Ratio (z) = 0.30033 0.08790
#
# Static dielectric constant tensor:
#      x y z
#    x 3.578400 0.000000 -0.151540 
#    y 0.000000 2.806050 0.000000 
#    z -0.151540 0.000000 3.906870 
# 
# 
# High freq. dielectric constant tensor:
#      x y z
#    x 1.703960 0.000000 -0.000130 
#    y 0.000000 1.614270 0.000000 
#    z -0.000130 0.000000 1.724230 
# 
# From -- ./inp_files/61069.got.cif
#   From: 2010.06.25/outbox.cif.g09.slc.cpg/sg12_31_cif.got.tgz:61069.got - 2010.06.28 00:19:55.
