data_PCOD8082598
_publ_section_title
;
Structure prediction by ZEFSAII (Michael W. Deem and Ramdas Pophale) SiO2 
 PCOD8082598
Probable space group: C 2/M
;
_chemical_formula_sum "Si O2"
_cell_formula_units_Z 48
_cell_length_a 20.739218
_cell_length_b 8.770425
_cell_length_c 14.156153
_cell_angle_alpha 90.000000
_cell_angle_beta 89.747182
_cell_angle_gamma 90.000000
_cell_volume 2574.862461
_symmetry_space_group_name_H-M "C 2/M"
_symmetry_group_IT_number 12
_symmetry_cell_setting 'monoclinic'
loop_
_space_group_symop_operation_xyz
x,y,z
-x,y,-z
-x,-y,-z
x,-y,z
1/2+x,1/2+y,z
1/2-x,1/2+y,-z
1/2-x,1/2-y,-z
1/2+x,1/2-y,z
loop_
_atom_site_type_symbol
_atom_site_label
_atom_site_fract_x
_atom_site_fract_y
_atom_site_fract_z
Si Si1 0.250841 0.680668 0.603939
Si Si2 0.124334 0.819355 0.288254
Si Si3 0.434532 0.176806 0.098970
Si Si4 0.380310 0.823971 0.296699
Si Si5 0.500039 0.680387 0.605184
Si Si6 0.072415 0.179955 0.092551
O O1 0.254946 0.500000 0.594019
O O2 0.250000 0.750000 0.500000
O O3 0.311653 0.746468 0.662444
O O4 0.188261 0.731622 0.663401
O O5 0.120515 0.773958 0.177611
O O6 0.061698 0.749651 0.340643
O O7 0.123912 0.000000 0.298022
O O8 0.383621 0.203102 0.183786
O O9 0.500185 0.267960 0.119358
O O10 0.452236 0.000000 0.087508
O O11 0.402360 0.237939 0.002497
O O12 0.434431 0.724339 0.344981
O O13 0.392480 0.000000 0.321447
O O14 0.500000 0.748334 0.500000
O O15 0.495058 0.500000 0.603514
O O16 0.071373 0.000000 0.076064
#
# Coordination Sequence:
#
# PCOD8082598 Si02
#       6
#     8   8   8   8   8   8
#     4  10  21  39  57  76 105 142 180 215 260 315
#     4   9  18  33  53  77 104 136 175 218 261 305
#     4  10  19  32  50  77 109 139 168 210 266 317
#     4  10  21  35  53  77 107 141 172 211 266 318
#     4  10  19  32  53  78 102 132 175 223 263 304
#     4  10  18  31  53  79 103 135 175 217 261 307
#
# _framework density 18.641772
#
# number of rings (size 3 to 8) (size 9 to 14) (size 15 to 20)
#    0.000    2.167    1.667    3.000    0.000    3.000 
#    0.000    3.333    0.000    0.000    0.000    0.000 
#    0.000    0.000    0.000    0.000    0.000    0.000 
#
# Total GULP energy -297564.774668 kJ/mol
# GULP energy per Si atom -12398.532278 kJ/mol
# Density = 1.859934 g / cm^3
# Si number density = 18.641772 Si / 1000 Ang^3
#
#
#
# Elastic Constant Matrix: (Units=GPa)
#
#
# Indices 1 2 3 4 5 6 
#
# 1 129.8131 14.5337 81.4543 0.0000 3.4668 0.0000
# 2 14.5337 26.3253 28.8158 0.0000 -1.7527 0.0000
# 3 81.4543 28.8158 175.3843 0.0000 2.7689 0.0000
# 4 0.0000 0.0000 0.0000 30.2018 0.0000 0.5214
# 5 3.4668 -1.7527 2.7689 0.0000 38.7119 0.0000
# 6 0.0000 0.0000 0.0000 0.5214 0.0000 18.9222
#
#
#
# Elastic Compliance Matrix: (Units=1/GPa)
#
#
# Indices 1 2 3 4 5 6 
#
# 1 0.010895 -0.000647 -0.004943 0.000000 -0.000651 0.000000
# 2 -0.000647 0.046626 -0.007403 0.000000 0.002698 0.000000
# 3 -0.004943 -0.007403 0.009223 0.000000 -0.000552 0.000000
# 4 0.000000 0.000000 0.000000 0.033126 0.000000 -0.000913
# 5 -0.000651 0.002698 -0.000552 0.000000 0.026052 0.000000
# 6 0.000000 0.000000 0.000000 -0.000913 0.000000 0.052873
#
#
# Mechanical properties :
#
#
# Convention : Reuss Voigt Hill
#
# Bulk Modulus (GPa) = 24.53554 64.57003 44.55278
# Shear Modulus (GPa) = 22.89712 31.34843 27.12277
#
# Velocity S-wave (km/s) = 3.50847 4.10521 3.81851
# Velocity P-wave (km/s) = 5.44083 7.56193 6.58731
#
# Compressibility (1/GPa) = 0.04075721
#
# Stress axis : x y z
#
# Youngs Moduli (GPa) = 91.78424 21.44714 108.42875
#
# Poissons Ratio (x) = 0.01388 0.53601
# Poissons Ratio (y) = 0.05941 0.80267
# Poissons Ratio (z) = 0.45373 0.15877
#
# Static dielectric constant tensor:
#      x y z
#    x 3.438620 0.000000 -0.060220 
#    y 0.000000 3.222560 0.000000 
#    z -0.060220 0.000000 3.825560 
# 
# 
# High freq. dielectric constant tensor:
#      x y z
#    x 1.704830 0.000000 -0.001160 
#    y 0.000000 1.705360 0.000000 
#    z -0.001160 0.000000 1.744440 
# 
# From -- ./inp_files/229309.got.cif
#   From: 2010.06.25/outbox.cif.g09.slc.cpg/sg12_115_cif.got.tgz:229309.got - 2010.06.28 00:19:55.
