data_PCOD8082013
_publ_section_title
;
Structure prediction by ZEFSAII (Michael W. Deem and Ramdas Pophale) SiO2 
 PCOD8082013
Probable space group: C 2/M
;
_chemical_formula_sum "Si O2"
_cell_formula_units_Z 52
_cell_length_a 14.644896
_cell_length_b 10.686811
_cell_length_c 21.821499
_cell_angle_alpha 90.000000
_cell_angle_beta 49.406323
_cell_angle_gamma 90.000000
_cell_volume 2593.325700
_symmetry_space_group_name_H-M "C 2/M"
_symmetry_group_IT_number 12
_symmetry_cell_setting 'monoclinic'
loop_
_space_group_symop_operation_xyz
x,y,z
-x,y,-z
-x,-y,-z
x,-y,z
1/2+x,1/2+y,z
1/2-x,1/2+y,-z
1/2-x,1/2-y,-z
1/2+x,1/2-y,z
loop_
_atom_site_type_symbol
_atom_site_label
_atom_site_fract_x
_atom_site_fract_y
_atom_site_fract_z
Si Si1 0.330517 0.359118 0.301400
Si Si2 0.917403 0.749051 0.814977
Si Si3 0.108301 0.500000 0.094049
Si Si4 0.857447 0.500000 0.146000
Si Si5 0.484096 0.634255 0.433875
Si Si6 0.378561 0.135489 0.512884
Si Si7 0.297465 0.279614 0.740597
Si Si8 0.211700 0.000000 0.089412
O O1 0.379723 0.500000 0.281853
O O2 0.441129 0.264425 0.259646
O O3 0.237546 0.333567 0.396379
O O4 0.261641 0.338333 0.267474
O O5 0.894154 0.625464 0.864573
O O6 0.855667 0.727642 0.776758
O O7 0.868273 0.874735 0.869062
O O8 0.000525 0.500000 0.091826
O O9 0.232767 0.500000 0.002529
O O10 0.807255 0.377357 0.200456
O O11 0.819748 0.500000 0.091396
O O12 0.500000 0.630765 0.500000
O O13 0.429497 0.500000 0.436084
O O14 0.394449 0.750403 0.457036
O O15 0.608635 0.651728 0.344648
O O16 0.500000 0.130762 0.500000
O O17 0.363937 0.000000 0.486399
#
# Coordination Sequence:
#
# PCOD8082013 Si02
#       8
#     8   8   4   4   8   8   8   4
#     4  11  21  38  63  83 122 171 209 245 298 375
#     4  11  25  41  64  95 124 161 203 248 313 368
#     4  12  23  42  67  99 125 150 200 266 306 359
#     4  10  21  38  67  92 118 164 208 240 307 374
#     4  10  18  30  55  85 117 161 204 253 309 342
#     4   9  17  31  52  80 111 159 206 246 299 347
#     4  11  21  38  61  89 127 162 207 255 299 365
#     4  10  23  46  67  89 127 166 194 244 314 387
#
# _framework density 20.051473000000001
#
# number of rings (size 3 to 8) (size 9 to 14) (size 15 to 20)
#    0.000    1.538    6.154    0.692    1.077    0.000 
#    1.385    0.769    0.000    0.923    0.000    0.000 
#    0.000    0.000    0.000    0.000    0.000    0.000 
#
# Total GULP energy -322229.821650 kJ/mol
# GULP energy per Si atom -12393.454679 kJ/mol
# Density = 2.000583 g / cm^3
# Si number density = 20.051473 Si / 1000 Ang^3
#
#
#
# Elastic Constant Matrix: (Units=GPa)
#
#
# Indices 1 2 3 4 5 6 
#
# 1 61.8295 22.4239 14.8074 0.0000 -11.7325 0.0000
# 2 22.4239 129.9866 25.9895 0.0000 -9.2873 0.0000
# 3 14.8074 25.9895 80.2010 0.0000 -18.8418 0.0000
# 4 0.0000 0.0000 0.0000 12.4073 0.0000 -12.4946
# 5 -11.7325 -9.2873 -18.8418 0.0000 19.8882 0.0000
# 6 0.0000 0.0000 0.0000 -12.4946 0.0000 29.7549
#
#
#
# Elastic Compliance Matrix: (Units=1/GPa)
#
#
# Indices 1 2 3 4 5 6 
#
# 1 0.019014 -0.002505 -0.000435 0.000000 0.009635 0.000000
# 2 -0.002505 0.008601 -0.002223 0.000000 0.000433 0.000000
# 3 -0.000435 -0.002223 0.016677 0.000000 0.014505 0.000000
# 4 0.000000 0.000000 0.000000 0.139653 0.000000 0.058643
# 5 0.009635 0.000433 0.014505 0.000000 0.069908 0.000000
# 6 0.000000 0.000000 0.000000 0.058643 0.000000 0.058233
#
#
# Mechanical properties :
#
#
# Convention : Reuss Voigt Hill
#
# Bulk Modulus (GPa) = 29.44129 44.27319 36.85724
# Shear Modulus (GPa) = 14.98194 26.32983 20.65588
#
# Velocity S-wave (km/s) = 2.73641 3.62762 3.21307
# Velocity P-wave (km/s) = 4.96978 6.29872 5.67329
#
# Compressibility (1/GPa) = 0.03396590
#
# Stress axis : x y z
#
# Youngs Moduli (GPa) = 52.59151 116.27149 59.96272
#
# Poissons Ratio (x) = 0.29123 0.02611
# Poissons Ratio (y) = 0.13173 0.13329
# Poissons Ratio (z) = 0.02290 0.25847
#
# Static dielectric constant tensor:
#      x y z
#    x 3.423910 0.000000 -0.075680 
#    y 0.000000 4.626780 0.000000 
#    z -0.075680 0.000000 3.585930 
# 
# 
# High freq. dielectric constant tensor:
#      x y z
#    x 1.761310 0.000000 -0.012500 
#    y 0.000000 1.800100 0.000000 
#    z -0.012500 0.000000 1.780350 
# 
# From -- ./inp_files/309801.got.cif
#   From: 2010.06.25/outbox.cif.g09.slc.cpg/sg12_155_cif.got.tgz:309801.got - 2010.06.28 00:19:55.
