data_PCOD8082007
_publ_section_title
;
Structure prediction by ZEFSAII (Michael W. Deem and Ramdas Pophale) SiO2 
 PCOD8082007
Probable space group: C 2/M
;
_chemical_formula_sum "Si O2"
_cell_formula_units_Z 56
_cell_length_a 21.447649
_cell_length_b 14.285296
_cell_length_c 17.664316
_cell_angle_alpha 90.000000
_cell_angle_beta 150.013466
_cell_angle_gamma 90.000000
_cell_volume 2704.948043
_symmetry_space_group_name_H-M "C 2/M"
_symmetry_group_IT_number 12
_symmetry_cell_setting 'monoclinic'
loop_
_space_group_symop_operation_xyz
x,y,z
-x,y,-z
-x,-y,-z
x,-y,z
1/2+x,1/2+y,z
1/2-x,1/2+y,-z
1/2-x,1/2-y,-z
1/2+x,1/2-y,z
loop_
_atom_site_type_symbol
_atom_site_label
_atom_site_fract_x
_atom_site_fract_y
_atom_site_fract_z
Si Si1 0.980172 0.389645 0.288228
Si Si2 0.617803 0.604976 0.525529
Si Si3 0.735358 0.605129 0.127823
Si Si4 0.724725 0.223669 0.559496
Si Si5 0.339649 0.225892 0.026960
Si Si6 0.341761 0.395657 0.255186
Si Si7 0.869152 0.107016 0.825253
O O1 0.996074 0.500000 0.288540
O O2 0.873185 0.372740 0.239233
O O3 0.108884 0.346069 0.452563
O O4 0.952603 0.335195 0.179673
O O5 0.639699 0.500000 0.517249
O O6 0.707826 0.675249 0.578259
O O7 0.650377 0.607779 0.647228
O O8 0.474563 0.636029 0.359993
O O9 0.694130 0.500000 0.062822
O O10 0.629526 0.673590 0.979448
O O11 0.736935 0.617691 0.220561
O O12 0.750000 0.250000 0.500000
O O13 0.840393 0.173414 0.723228
O O14 0.269302 0.169261 0.887996
O O15 0.250000 0.250000 0.000000
O O16 0.311771 0.500000 0.195187
O O17 0.875694 0.000000 0.803286
O O18 0.000000 0.137290 0.000000
#
# Coordination Sequence:
#
# PCOD8082007 Si02
#       7
#     8   8   8   8   8   8   8
#     4  10  22  39  59  91 127 158 202 257 317 369
#     4   9  19  36  58  86 114 151 200 249 299 359
#     4   9  19  36  62  93 122 157 207 260 305 362
#     4  12  26  41  61  87 124 166 205 254 316 372
#     4  10  18  30  54  87 127 162 192 236 306 370
#     4   9  17  33  58  86 117 150 196 249 299 358
#     4  10  23  44  68  91 121 165 213 258 306 371
#
# _framework density 20.7028
#
# number of rings (size 3 to 8) (size 9 to 14) (size 15 to 20)
#    0.000    2.143    0.000    4.286    2.000    3.429 
#    0.000    2.857    0.000    0.429    0.000    0.000 
#    0.000    0.000    0.000    0.000    0.000    0.000 
#
# Total GULP energy -347020.330267 kJ/mol
# GULP energy per Si atom -12393.583224 kJ/mol
# Density = 2.065568 g / cm^3
# Si number density = 20.702800 Si / 1000 Ang^3
#
#
#
# Elastic Constant Matrix: (Units=GPa)
#
#
# Indices 1 2 3 4 5 6 
#
# 1 75.4799 44.6931 27.7902 0.0000 -5.1695 0.0000
# 2 44.6931 125.2696 54.9687 0.0000 -9.0684 0.0000
# 3 27.7902 54.9687 105.0145 0.0000 -9.2471 0.0000
# 4 0.0000 0.0000 0.0000 32.3499 0.0000 -4.9844
# 5 -5.1695 -9.0684 -9.2471 0.0000 22.7816 0.0000
# 6 0.0000 0.0000 0.0000 -4.9844 0.0000 24.8034
#
#
#
# Elastic Compliance Matrix: (Units=1/GPa)
#
#
# Indices 1 2 3 4 5 6 
#
# 1 0.017060 -0.005282 -0.001653 0.000000 0.001098 0.000000
# 2 -0.005282 0.012086 -0.004782 0.000000 0.001672 0.000000
# 3 -0.001653 -0.004782 0.012717 0.000000 0.002883 0.000000
# 4 0.000000 0.000000 0.000000 0.031900 0.000000 0.006410
# 5 0.001098 0.001672 0.002883 0.000000 0.045980 0.000000
# 6 0.000000 0.000000 0.000000 0.006410 0.000000 0.041605
#
#
# Mechanical properties :
#
#
# Convention : Reuss Voigt Hill
#
# Bulk Modulus (GPa) = 54.25956 62.29643 58.27799
# Shear Modulus (GPa) = 26.18844 27.87445 27.03145
#
# Velocity S-wave (km/s) = 3.56050 3.67333 3.61735
# Velocity P-wave (km/s) = 6.57028 6.93882 6.75706
#
# Compressibility (1/GPa) = 0.01842993
#
# Stress axis : x y z
#
# Youngs Moduli (GPa) = 58.61748 82.73835 78.63640
#
# Poissons Ratio (x) = 0.43699 0.13001
# Poissons Ratio (y) = 0.30959 0.37600
# Poissons Ratio (z) = 0.09691 0.39562
#
# Static dielectric constant tensor:
#      x y z
#    x 5.080540 0.000000 0.539940 
#    y 0.000000 3.860260 0.000000 
#    z 0.539940 0.000000 4.007950 
# 
# 
# High freq. dielectric constant tensor:
#      x y z
#    x 1.794370 0.000000 -0.013230 
#    y 0.000000 1.830600 0.000000 
#    z -0.013230 0.000000 1.792730 
# 
# From -- ./inp_files/284596.got.cif
#   From: 2010.06.25/outbox.cif.g09.slc.cpg/sg12_143_cif.got.tgz:284596.got - 2010.06.28 00:19:55.
