data_PCOD8082025
_publ_section_title
;
Structure prediction by ZEFSAII (Michael W. Deem and Ramdas Pophale) SiO2 
 PCOD8082025
Probable space group: C 2/M
;
_chemical_formula_sum "Si O2"
_cell_formula_units_Z 56
_cell_length_a 26.244455
_cell_length_b 18.333491
_cell_length_c 9.186962
_cell_angle_alpha 90.000000
_cell_angle_beta 39.333220
_cell_angle_gamma 90.000000
_cell_volume 2801.734989
_symmetry_space_group_name_H-M "C 2/M"
_symmetry_group_IT_number 12
_symmetry_cell_setting 'monoclinic'
loop_
_space_group_symop_operation_xyz
x,y,z
-x,y,-z
-x,-y,-z
x,-y,z
1/2+x,1/2+y,z
1/2-x,1/2+y,-z
1/2-x,1/2-y,-z
1/2+x,1/2-y,z
loop_
_atom_site_type_symbol
_atom_site_label
_atom_site_fract_x
_atom_site_fract_y
_atom_site_fract_z
Si Si1 0.857269 0.417350 0.544904
Si Si2 0.404418 0.698927 0.986923
Si Si3 0.480334 0.845127 0.876659
Si Si4 0.820101 0.418582 0.289922
Si Si5 0.329624 0.676424 0.464424
Si Si6 0.245270 0.709527 0.161576
Si Si7 0.526166 0.418611 0.776501
O O1 0.856281 0.500000 0.606080
O O2 0.826258 0.413886 0.448972
O O3 0.795593 0.369139 0.775857
O O4 0.946743 0.385579 0.364088
O O5 0.462038 0.768685 0.837375
O O6 0.457331 0.626358 0.843688
O O7 0.368468 0.703677 0.228814
O O8 0.334782 0.698528 0.022517
O O9 0.500000 0.828039 0.000000
O O10 0.404360 0.898479 0.030044
O O11 0.796139 0.500000 0.294828
O O12 0.753674 0.363486 0.380225
O O13 0.311910 0.747621 0.599155
O O14 0.388745 0.622760 0.421928
O O15 0.250000 0.750000 0.000000
O O16 0.533557 0.500000 0.692383
O O17 0.500000 0.424937 0.000000
#
# Coordination Sequence:
#
# PCOD8082025 Si02
#       7
#     8   8   8   8   8   8   8
#     4  10  21  38  59  86 120 155 192 240 297 353
#     4  11  20  36  62  86 117 154 195 247 296 351
#     4  10  18  32  56  90 119 147 192 241 295 353
#     4  10  18  30  58  93 122 149 188 244 301 351
#     4  11  19  37  60  89 120 153 197 246 296 352
#     4  12  25  40  60  86 117 159 206 243 287 349
#     4   9  19  33  57  94 124 148 188 247 307 357
#
# _framework density 19.987614000000001
#
# number of rings (size 3 to 8) (size 9 to 14) (size 15 to 20)
#    0.000    1.571    2.857    5.143    0.000    2.857 
#    0.000    4.286    0.000    1.714    0.000    0.000 
#    0.000    0.000    0.000    0.000    0.000    0.000 
#
# Total GULP energy -347285.357324 kJ/mol
# GULP energy per Si atom -12403.048476 kJ/mol
# Density = 1.994212 g / cm^3
# Si number density = 19.987614 Si / 1000 Ang^3
#
#
#
# Elastic Constant Matrix: (Units=GPa)
#
#
# Indices 1 2 3 4 5 6 
#
# 1 89.8782 55.4464 53.3419 0.0000 -27.3014 0.0000
# 2 55.4464 160.7483 49.2502 0.0000 -18.6789 0.0000
# 3 53.3419 49.2502 53.7205 0.0000 -20.7196 0.0000
# 4 0.0000 0.0000 0.0000 26.8387 0.0000 -7.7391
# 5 -27.3014 -18.6789 -20.7196 0.0000 28.6975 0.0000
# 6 0.0000 0.0000 0.0000 -7.7391 0.0000 24.6332
#
#
#
# Elastic Compliance Matrix: (Units=1/GPa)
#
#
# Indices 1 2 3 4 5 6 
#
# 1 0.029117 -0.001674 -0.023718 0.000000 0.009486 0.000000
# 2 -0.001674 0.008747 -0.006619 0.000000 -0.000678 0.000000
# 3 -0.023718 -0.006619 0.052485 0.000000 0.011022 0.000000
# 4 0.000000 0.000000 0.000000 0.040971 0.000000 0.012872
# 5 0.009486 -0.000678 0.011022 0.000000 0.051388 0.000000
# 6 0.000000 0.000000 0.000000 0.012872 0.000000 0.044640
#
#
# Mechanical properties :
#
#
# Convention : Reuss Voigt Hill
#
# Bulk Modulus (GPa) = 37.98334 68.93600 53.45967
# Shear Modulus (GPa) = 16.65857 25.78777 21.22317
#
# Velocity S-wave (km/s) = 2.89008 3.59581 3.26209
# Velocity P-wave (km/s) = 5.49376 7.19751 6.40256
#
# Compressibility (1/GPa) = 0.02632733
#
# Stress axis : x y z
#
# Youngs Moduli (GPa) = 34.34405 114.31954 19.05317
#
# Poissons Ratio (x) = 0.19139 0.45191
# Poissons Ratio (y) = 0.05750 0.12610
# Poissons Ratio (z) = 0.81458 0.75663
#
# Static dielectric constant tensor:
#      x y z
#    x 3.558340 0.000000 -0.487220 
#    y 0.000000 3.977700 0.000000 
#    z -0.487220 0.000000 3.432150 
# 
# 
# High freq. dielectric constant tensor:
#      x y z
#    x 1.762040 0.000000 -0.045010 
#    y 0.000000 1.799890 0.000000 
#    z -0.045010 0.000000 1.748730 
# 
# From -- ./inp_files/105941.got.cif
#   From: 2010.06.25/outbox.cif.g09.slc.cpg/sg12_53_cif.got.tgz:105941.got - 2010.06.28 00:19:55.
