data_PCOD8082585
_publ_section_title
;
Structure prediction by ZEFSAII (Michael W. Deem and Ramdas Pophale) SiO2 
 PCOD8082585
Probable space group: C 2/M
;
_chemical_formula_sum "Si O2"
_cell_formula_units_Z 56
_cell_length_a 20.768580
_cell_length_b 8.894157
_cell_length_c 22.447546
_cell_angle_alpha 90.000000
_cell_angle_beta 132.057922
_cell_angle_gamma 90.000000
_cell_volume 3078.635032
_symmetry_space_group_name_H-M "C 2/M"
_symmetry_group_IT_number 12
_symmetry_cell_setting 'monoclinic'
loop_
_space_group_symop_operation_xyz
x,y,z
-x,y,-z
-x,-y,-z
x,-y,z
1/2+x,1/2+y,z
1/2-x,1/2+y,-z
1/2-x,1/2-y,-z
1/2+x,1/2-y,z
loop_
_atom_site_type_symbol
_atom_site_label
_atom_site_fract_x
_atom_site_fract_y
_atom_site_fract_z
Si Si1 0.008758 0.178423 0.171578
Si Si2 0.933570 0.676764 0.009737
Si Si3 0.503250 0.678250 0.413621
Si Si4 0.699377 0.325934 0.259675
Si Si5 0.427992 0.321999 0.242836
Si Si6 0.759307 0.677252 0.838717
Si Si7 0.124985 0.675439 0.573679
O O1 0.108068 0.233968 0.228340
O O2 0.952327 0.239240 0.082396
O O3 0.969467 0.245377 0.208424
O O4 0.003578 0.000000 0.168100
O O5 0.943555 0.500000 0.026358
O O6 0.836773 0.723735 0.930807
O O7 0.000000 0.731779 0.000000
O O8 0.506268 0.500000 0.424198
O O9 0.488591 0.724226 0.335975
O O10 0.423953 0.743469 0.402551
O O11 0.593664 0.751269 0.491969
O O12 0.692985 0.500000 0.238490
O O13 0.723928 0.238193 0.216094
O O14 0.772220 0.298325 0.355336
O O15 0.422677 0.500000 0.234743
O O16 0.330732 0.256902 0.191164
O O17 0.753778 0.500000 0.828578
O O18 0.101277 0.500000 0.559828
#
# Coordination Sequence:
#
# PCOD8082585 Si02
#       7
#     8   8   8   8   8   8   8
#     4  10  21  37  55  75 105 140 175 212 258 312
#     4  10  20  34  53  79 107 135 170 217 266 306
#     4  10  18  31  53  78 102 134 175 211 251 304
#     4  10  20  33  52  78 104 136 174 213 256 307
#     4   9  19  35  54  77 104 138 174 214 257 305
#     4  10  19  34  56  76 102 137 175 215 257 306
#     4  10  19  31  49  77 108 133 166 214 263 300
#
# _framework density 18.189879999999999
#
# number of rings (size 3 to 8) (size 9 to 14) (size 15 to 20)
#    0.000    2.143    2.857    1.714    0.000    2.000 
#    0.000    2.857    0.000    0.000    0.000    0.000 
#    0.000    0.000    0.000    0.000    0.000    0.000 
#
# Total GULP energy -347182.464219 kJ/mol
# GULP energy per Si atom -12399.373722 kJ/mol
# Density = 1.814848 g / cm^3
# Si number density = 18.189880 Si / 1000 Ang^3
#
#
#
# Elastic Constant Matrix: (Units=GPa)
#
#
# Indices 1 2 3 4 5 6 
#
# 1 133.3236 20.2637 95.4492 0.0000 -0.7534 0.0000
# 2 20.2637 34.6615 41.1181 0.0000 3.8393 0.0000
# 3 95.4492 41.1181 164.4445 0.0000 3.0760 0.0000
# 4 0.0000 0.0000 0.0000 29.0472 0.0000 -0.3086
# 5 -0.7534 3.8393 3.0760 0.0000 34.2093 0.0000
# 6 0.0000 0.0000 0.0000 -0.3086 0.0000 16.1692
#
#
#
# Elastic Compliance Matrix: (Units=1/GPa)
#
#
# Indices 1 2 3 4 5 6 
#
# 1 0.012943 0.001812 -0.007981 0.000000 0.000799 0.000000
# 2 0.001812 0.041740 -0.011421 0.000000 -0.003618 0.000000
# 3 -0.007981 -0.011421 0.013571 0.000000 -0.000114 0.000000
# 4 0.000000 0.000000 0.000000 0.034434 0.000000 0.000657
# 5 0.000799 -0.003618 -0.000114 0.000000 0.029666 0.000000
# 6 0.000000 0.000000 0.000000 0.000657 0.000000 0.061858
#
#
# Mechanical properties :
#
#
# Convention : Reuss Voigt Hill
#
# Bulk Modulus (GPa) = 30.23404 71.78797 51.01100
# Shear Modulus (GPa) = 20.79723 27.59172 24.19448
#
# Velocity S-wave (km/s) = 3.38500 3.89893 3.65102
# Velocity P-wave (km/s) = 5.65111 7.73437 6.77331
#
# Compressibility (1/GPa) = 0.03307531
#
# Stress axis : x y z
#
# Youngs Moduli (GPa) = 77.26048 23.95778 73.68554
#
# Poissons Ratio (x) = -0.04341 0.58806
# Poissons Ratio (y) = -0.13999 0.84155
# Poissons Ratio (z) = 0.61659 0.27362
#
# Static dielectric constant tensor:
#      x y z
#    x 3.504490 0.000000 0.168730 
#    y 0.000000 3.204070 0.000000 
#    z 0.168730 0.000000 3.682060 
# 
# 
# High freq. dielectric constant tensor:
#      x y z
#    x 1.690040 0.000000 0.011120 
#    y 0.000000 1.689930 0.000000 
#    z 0.011120 0.000000 1.720970 
# 
# From -- ./inp_files/320249.got.cif
#   From: 2010.06.25/outbox.cif.g09.slc.cpg/sg12_161_cif.got.tgz:320249.got - 2010.06.28 00:19:55.
