data_PCOD8082611
_publ_section_title
;
Structure prediction by ZEFSAII (Michael W. Deem and Ramdas Pophale) SiO2 
 PCOD8082611
Probable space group: C 2/M
;
_chemical_formula_sum "Si O2"
_cell_formula_units_Z 44
_cell_length_a 22.242686
_cell_length_b 15.092305
_cell_length_c 8.066198
_cell_angle_alpha 90.000000
_cell_angle_beta 58.240718
_cell_angle_gamma 90.000000
_cell_volume 2302.326908
_symmetry_space_group_name_H-M "C 2/M"
_symmetry_group_IT_number 12
_symmetry_cell_setting 'monoclinic'
loop_
_space_group_symop_operation_xyz
x,y,z
-x,y,-z
-x,-y,-z
x,-y,z
1/2+x,1/2+y,z
1/2-x,1/2+y,-z
1/2-x,1/2-y,-z
1/2+x,1/2-y,z
loop_
_atom_site_type_symbol
_atom_site_label
_atom_site_fract_x
_atom_site_fract_y
_atom_site_fract_z
Si Si1 0.847919 0.399008 0.273414
Si Si2 0.727002 0.189260 0.182357
Si Si3 0.883908 0.761591 0.428544
Si Si4 0.000000 0.282029 0.500000
Si Si5 0.304808 0.398481 0.347621
Si Si6 0.111051 0.600439 0.157612
O O1 0.872907 0.500000 0.273517
O O2 0.895132 0.331005 0.312486
O O3 0.765441 0.388122 0.438291
O O4 0.859688 0.372863 0.065436
O O5 0.687977 0.254943 0.363976
O O6 0.791605 0.141395 0.182965
O O7 0.674354 0.112306 0.196777
O O8 0.750000 0.250000 0.000000
O O9 0.950052 0.778469 0.455571
O O10 0.871647 0.845632 0.326994
O O11 0.045280 0.340173 0.306764
O O12 0.328234 0.500000 0.298578
O O13 0.084977 0.500000 0.198391
#
# Coordination Sequence:
#
# PCOD8082611 Si02
#       6
#     8   8   8   4   8   8
#     4   9  18  32  54  81 106 132 166 209 263 316
#     4  10  18  31  53  80 105 130 162 210 267 317
#     4  10  20  35  50  71 103 138 174 214 253 302
#     4  10  23  34  47  70 102 144 182 212 250 298
#     4  10  19  33  54  79 104 133 169 214 262 306
#     4  10  19  32  50  76 108 139 169 208 256 314
#
# _framework density 19.1111
#
# number of rings (size 3 to 8) (size 9 to 14) (size 15 to 20)
#    0.000    2.182    0.000    5.182    0.000    5.818 
#    0.000    3.182    0.000    0.000    0.000   12.727 
#    0.000    0.000    0.000    0.000    0.000    0.000 
#
# Total GULP energy -272737.693249 kJ/mol
# GULP energy per Si atom -12397.167875 kJ/mol
# Density = 1.906760 g / cm^3
# Si number density = 19.111100 Si / 1000 Ang^3
#
#
#
# Elastic Constant Matrix: (Units=GPa)
#
#
# Indices 1 2 3 4 5 6 
#
# 1 125.1706 73.0615 15.4074 0.0000 25.3583 0.0000
# 2 73.0615 115.2400 41.4244 0.0000 15.6722 0.0000
# 3 15.4074 41.4244 82.5694 0.0000 19.4053 0.0000
# 4 0.0000 0.0000 0.0000 26.4166 0.0000 8.7006
# 5 25.3583 15.6722 19.4053 0.0000 23.2568 0.0000
# 6 0.0000 0.0000 0.0000 8.7006 0.0000 19.0071
#
#
#
# Elastic Compliance Matrix: (Units=1/GPa)
#
#
# Indices 1 2 3 4 5 6 
#
# 1 0.016627 -0.010494 0.005922 0.000000 -0.015999 0.000000
# 2 -0.010494 0.017426 -0.008351 0.000000 0.006668 0.000000
# 3 0.005922 -0.008351 0.019145 0.000000 -0.016804 0.000000
# 4 0.000000 0.000000 0.000000 0.044575 0.000000 -0.020405
# 5 -0.015999 0.006668 -0.016804 0.000000 0.069971 0.000000
# 6 0.000000 0.000000 0.000000 -0.020405 0.000000 0.061952
#
#
# Mechanical properties :
#
#
# Convention : Reuss Voigt Hill
#
# Bulk Modulus (GPa) = 36.56133 64.75184 50.65659
# Shear Modulus (GPa) = 18.89215 26.60856 22.75036
#
# Velocity S-wave (km/s) = 3.14752 3.73541 3.45400
# Velocity P-wave (km/s) = 5.69049 7.24981 6.51696
#
# Compressibility (1/GPa) = 0.02735130
#
# Stress axis : x y z
#
# Youngs Moduli (GPa) = 60.14351 57.38497 52.23288
#
# Poissons Ratio (x) = 0.60222 -0.30935
# Poissons Ratio (y) = 0.63117 0.43622
# Poissons Ratio (z) = -0.35620 0.47924
#
# Static dielectric constant tensor:
#      x y z
#    x 3.462670 0.000000 0.341180 
#    y 0.000000 3.388700 0.000000 
#    z 0.341180 0.000000 3.617240 
# 
# 
# High freq. dielectric constant tensor:
#      x y z
#    x 1.730680 0.000000 0.027600 
#    y 0.000000 1.729930 0.000000 
#    z 0.027600 0.000000 1.739150 
# 
# From -- ./inp_files/85254.got.cif
#   From: 2010.06.25/outbox.cif.g09.slc.cpg/sg12_43_cif.got.tgz:85254.got - 2010.06.28 00:19:55.
