data_PCOD8082824
_publ_section_title
;
Structure prediction by ZEFSAII (Michael W. Deem and Ramdas Pophale) SiO2 
 PCOD8082824
Probable space group: C 2/M
;
_chemical_formula_sum "Si O2"
_cell_formula_units_Z 40
_cell_length_a 12.664803
_cell_length_b 17.855018
_cell_length_c 11.047063
_cell_angle_alpha 90.000000
_cell_angle_beta 58.213538
_cell_angle_gamma 90.000000
_cell_volume 2123.407100
_symmetry_space_group_name_H-M "C 2/M"
_symmetry_group_IT_number 12
_symmetry_cell_setting 'monoclinic'
loop_
_space_group_symop_operation_xyz
x,y,z
-x,y,-z
-x,-y,-z
x,-y,z
1/2+x,1/2+y,z
1/2-x,1/2+y,-z
1/2-x,1/2-y,-z
1/2+x,1/2-y,z
loop_
_atom_site_type_symbol
_atom_site_label
_atom_site_fract_x
_atom_site_fract_y
_atom_site_fract_z
Si Si1 0.895039 0.145183 0.150310
Si Si2 0.445063 0.415714 0.373137
Si Si3 0.179989 0.290719 0.155587
Si Si4 0.172454 0.152504 0.329977
Si Si5 0.946769 0.681259 0.157278
O O1 0.889928 0.095776 0.273576
O O2 0.765488 0.142499 0.155705
O O3 0.924483 0.230346 0.166792
O O4 0.000000 0.111064 0.000000
O O5 0.412912 0.500000 0.434088
O O6 0.383926 0.354953 0.500940
O O7 0.595390 0.404030 0.288448
O O8 0.154777 0.234037 0.281415
O O9 0.051228 0.330663 0.196672
O O10 0.250000 0.250000 0.000000
O O11 0.319522 0.135228 0.256036
O O12 0.000000 0.650405 0.000000
#
# Coordination Sequence:
#
# PCOD8082824 Si02
#       5
#     8   8   8   8   8
#     4  10  19  33  56  83 112 141 184 225 285 336
#     4  11  23  40  55  75 110 156 202 232 257 319
#     4  11  17  32  55  89 122 137 166 226 298 349
#     4  10  20  34  55  80 113 147 186 221 280 327
#     4  10  18  31  57  88 116 141 166 232 292 343
#
# _framework density 18.83765
#
# number of rings (size 3 to 8) (size 9 to 14) (size 15 to 20)
#    0.000    1.600    8.000    1.200    0.000    3.600 
#    0.000    0.000    0.000    6.000    0.000    0.000 
#    0.000    0.000    0.000    0.000    0.000    0.000 
#
# Total GULP energy -247809.556302 kJ/mol
# GULP energy per Si atom -12390.477815 kJ/mol
# Density = 1.879477 g / cm^3
# Si number density = 18.837650 Si / 1000 Ang^3
#
#
#
# Elastic Constant Matrix: (Units=GPa)
#
#
# Indices 1 2 3 4 5 6 
#
# 1 206.7171 27.2539 62.7695 0.0000 -8.4585 0.0000
# 2 27.2539 38.8613 38.1053 0.0000 -0.9134 0.0000
# 3 62.7695 38.1053 106.5347 0.0000 2.8079 0.0000
# 4 0.0000 0.0000 0.0000 8.6200 0.0000 1.5095
# 5 -8.4585 -0.9134 2.8079 0.0000 36.4577 0.0000
# 6 0.0000 0.0000 0.0000 1.5095 0.0000 12.4062
#
#
#
# Elastic Compliance Matrix: (Units=1/GPa)
#
#
# Indices 1 2 3 4 5 6 
#
# 1 0.006017 -0.001022 -0.003222 0.000000 0.001619 0.000000
# 2 -0.001022 0.039966 -0.013741 0.000000 0.001822 0.000000
# 3 -0.003222 -0.013741 0.016262 0.000000 -0.002344 0.000000
# 4 0.000000 0.000000 0.000000 0.118534 0.000000 -0.014422
# 5 0.001619 0.001822 -0.002344 0.000000 0.028031 0.000000
# 6 0.000000 0.000000 0.000000 -0.014422 0.000000 0.082360
#
#
# Mechanical properties :
#
#
# Convention : Reuss Voigt Hill
#
# Bulk Modulus (GPa) = 38.06027 67.59673 52.82850
# Shear Modulus (GPa) = 14.88550 26.42908 20.65729
#
# Velocity S-wave (km/s) = 2.81410 3.74972 3.31508
# Velocity P-wave (km/s) = 5.55041 7.39655 6.53896
#
# Compressibility (1/GPa) = 0.02627412
#
# Stress axis : x y z
#
# Youngs Moduli (GPa) = 166.19755 25.02151 61.49446
#
# Poissons Ratio (x) = 0.02558 0.19815
# Poissons Ratio (y) = 0.16989 0.84497
# Poissons Ratio (z) = 0.53552 0.34381
#
# Static dielectric constant tensor:
#      x y z
#    x 4.100800 0.000000 -0.092900 
#    y 0.000000 2.918950 0.000000 
#    z -0.092900 0.000000 3.441300 
# 
# 
# High freq. dielectric constant tensor:
#      x y z
#    x 1.758410 0.000000 0.004530 
#    y 0.000000 1.665210 0.000000 
#    z 0.004530 0.000000 1.724470 
# 
# From -- ./inp_files/146481.got.cif
#   From: 2010.06.25/outbox.cif.g09.slc.cpg/sg12_74_cif.got.tgz:146481.got - 2010.06.28 00:19:55.
