data_PCOD8082649
_publ_section_title
;
Structure prediction by ZEFSAII (Michael W. Deem and Ramdas Pophale) SiO2 
 PCOD8082649
Probable space group: C 2/M
;
_chemical_formula_sum "Si O2"
_cell_formula_units_Z 64
_cell_length_a 22.852999
_cell_length_b 9.261501
_cell_length_c 21.237566
_cell_angle_alpha 90.000000
_cell_angle_beta 128.507627
_cell_angle_gamma 90.000000
_cell_volume 3517.448103
_symmetry_space_group_name_H-M "C 2/M"
_symmetry_group_IT_number 12
_symmetry_cell_setting 'monoclinic'
loop_
_space_group_symop_operation_xyz
x,y,z
-x,y,-z
-x,-y,-z
x,-y,z
1/2+x,1/2+y,z
1/2-x,1/2+y,-z
1/2-x,1/2-y,-z
1/2+x,1/2-y,z
loop_
_atom_site_type_symbol
_atom_site_label
_atom_site_fract_x
_atom_site_fract_y
_atom_site_fract_z
Si Si1 0.411941 0.163258 0.944803
Si Si2 0.668649 0.835208 0.877107
Si Si3 0.360896 0.668380 0.552989
Si Si4 0.501381 0.331214 0.570382
Si Si5 0.207827 0.331482 0.381510
Si Si6 0.154103 0.831113 0.741884
Si Si7 0.155504 0.835681 0.988455
Si Si8 0.797713 0.331357 0.763306
O O1 0.373927 0.203345 0.852347
O O2 0.387660 0.000000 0.947316
O O3 0.500000 0.176364 0.000000
O O4 0.385871 0.275782 0.978721
O O5 0.640756 0.754251 0.796895
O O6 0.631141 0.757877 0.911914
O O7 0.641157 0.000000 0.857165
O O8 0.757159 0.823280 0.940672
O O9 0.368408 0.500000 0.573956
O O10 0.435677 0.732565 0.570518
O O11 0.292677 0.698086 0.459669
O O12 0.349676 0.750207 0.611330
O O13 0.500000 0.260266 0.500000
O O14 0.484519 0.500000 0.553086
O O15 0.582444 0.299066 0.651904
O O16 0.187998 0.500000 0.370987
O O17 0.197511 0.266649 0.304017
O O18 0.226739 0.768655 0.754242
O O19 0.163641 0.000000 0.764249
O O20 0.130696 0.000000 0.960381
O O21 0.783165 0.500000 0.745538
#
# Coordination Sequence:
#
# PCOD8082649 Si02
#       8
#     8   8   8   8   8   8   8   8
#     4  10  20  35  54  76 106 139 173 215 263 310
#     4  10  20  34  54  79 105 135 172 215 263 312
#     4   9  17  31  50  74 103 130 166 212 255 298
#     4   9  17  30  51  79 107 134 168 212 260 305
#     4   9  17  31  52  73  97 135 175 208 248 300
#     4  10  18  31  54  78 102 134 174 218 261 306
#     4  10  20  35  56  78 103 135 173 215 264 314
#     4   9  17  31  52  75  97 129 175 213 246 303
#
# _framework density 18.195008000000001
#
# number of rings (size 3 to 8) (size 9 to 14) (size 15 to 20)
#    0.000    2.500    1.250    1.500    0.000    4.250 
#    2.250    1.875    0.000    3.000    0.000    0.000 
#    0.000    0.000    0.000    0.000    0.000    0.000 
#
# Total GULP energy -396799.254937 kJ/mol
# GULP energy per Si atom -12399.976717 kJ/mol
# Density = 1.815360 g / cm^3
# Si number density = 18.195008 Si / 1000 Ang^3
#
#
#
# Elastic Constant Matrix: (Units=GPa)
#
#
# Indices 1 2 3 4 5 6 
#
# 1 98.0924 36.4313 56.8320 0.0000 -11.5494 0.0000
# 2 36.4313 70.7987 46.0444 0.0000 -11.6119 0.0000
# 3 56.8320 46.0444 112.4053 0.0000 -20.5255 0.0000
# 4 0.0000 0.0000 0.0000 19.6871 0.0000 -7.0113
# 5 -11.5494 -11.6119 -20.5255 0.0000 33.8867 0.0000
# 6 0.0000 0.0000 0.0000 -7.0113 0.0000 26.5069
#
#
#
# Elastic Compliance Matrix: (Units=1/GPa)
#
#
# Indices 1 2 3 4 5 6 
#
# 1 0.015146 -0.003824 -0.006058 0.000000 0.000182 0.000000
# 2 -0.003824 0.020346 -0.006033 0.000000 0.002014 0.000000
# 3 -0.006058 -0.006033 0.015377 0.000000 0.005182 0.000000
# 4 0.000000 0.000000 0.000000 0.056077 0.000000 0.014833
# 5 0.000182 0.002014 0.005182 0.000000 0.033401 0.000000
# 6 0.000000 0.000000 0.000000 0.014833 0.000000 0.041649
#
#
# Mechanical properties :
#
#
# Convention : Reuss Voigt Hill
#
# Bulk Modulus (GPa) = 52.52439 62.21244 57.36842
# Shear Modulus (GPa) = 22.70928 25.48205 24.09566
#
# Velocity S-wave (km/s) = 3.53669 3.74638 3.64304
# Velocity P-wave (km/s) = 6.75335 7.27874 7.02096
#
# Compressibility (1/GPa) = 0.01903877
#
# Stress axis : x y z
#
# Youngs Moduli (GPa) = 66.02377 49.14865 65.03230
#
# Poissons Ratio (x) = 0.18794 0.39398
# Poissons Ratio (y) = 0.25247 0.39236
# Poissons Ratio (z) = 0.39998 0.29653
#
# Static dielectric constant tensor:
#      x y z
#    x 3.465770 0.000000 -0.099160 
#    y 0.000000 3.165420 0.000000 
#    z -0.099160 0.000000 3.461770 
# 
# 
# High freq. dielectric constant tensor:
#      x y z
#    x 1.704800 0.000000 -0.012020 
#    y 0.000000 1.675280 0.000000 
#    z -0.012020 0.000000 1.707790 
# 
# From -- ./inp_files/324283.got.cif
#   From: 2010.06.25/outbox.cif.g09.slc.cpg/sg12_163_cif.got.tgz:324283.got - 2010.06.28 00:19:55.
