data_PCOD8082997
_publ_section_title
;
Structure prediction by ZEFSAII (Michael W. Deem and Ramdas Pophale) SiO2 
 PCOD8082997
Probable space group: C 2/M
;
_chemical_formula_sum "Si O2"
_cell_formula_units_Z 56
_cell_length_a 20.767628
_cell_length_b 9.083470
_cell_length_c 23.134942
_cell_angle_alpha 90.000000
_cell_angle_beta 46.388164
_cell_angle_gamma 90.000000
_cell_volume 3159.826889
_symmetry_space_group_name_H-M "C 2/M"
_symmetry_group_IT_number 12
_symmetry_cell_setting 'monoclinic'
loop_
_space_group_symop_operation_xyz
x,y,z
-x,y,-z
-x,-y,-z
x,-y,z
1/2+x,1/2+y,z
1/2-x,1/2+y,-z
1/2-x,1/2-y,-z
1/2+x,1/2-y,z
loop_
_atom_site_type_symbol
_atom_site_label
_atom_site_fract_x
_atom_site_fract_y
_atom_site_fract_z
Si Si1 0.004660 0.325221 0.341618
Si Si2 0.936871 0.674645 0.259185
Si Si3 0.243795 0.669157 0.919187
Si Si4 0.191358 0.171183 0.242466
Si Si5 0.574108 0.327446 0.501486
Si Si6 0.751661 0.325411 0.328679
Si Si7 0.886638 0.327371 0.905208
O O1 0.009766 0.500000 0.342642
O O2 0.102967 0.261742 0.285530
O O3 0.961247 0.271913 0.308361
O O4 0.942460 0.263827 0.430558
O O5 0.929585 0.500000 0.262459
O O6 0.842586 0.743829 0.297866
O O7 0.012774 0.729924 0.166916
O O8 0.264582 0.500000 0.920723
O O9 0.238863 0.695081 0.853366
O O10 0.324429 0.761941 0.894336
O O11 0.150429 0.715014 0.007882
O O12 0.238437 0.230411 0.271194
O O13 0.164350 0.000000 0.265837
O O14 0.500000 0.288896 0.500000
O O15 0.572749 0.500000 0.516979
O O16 0.669122 0.273808 0.418752
O O17 0.757130 0.500000 0.325242
O O18 0.885040 0.500000 0.895711
#
# Coordination Sequence:
#
# PCOD8082997 Si02
#       7
#     8   8   8   8   8   8   8
#     4  11  21  32  51  76 101 128 162 205 250 292
#     4   9  18  32  49  72 102 135 163 195 247 300
#     4   9  17  27  47  76 100 124 163 207 239 278
#     4  10  18  32  52  75  98 128 170 206 239 286
#     4  10  19  34  54  75  96 128 169 204 243 291
#     4   9  18  33  52  70  97 134 167 199 243 298
#     4   9  16  29  47  71 102 131 159 196 245 293
#
# _framework density 17.722491000000002
#
# number of rings (size 3 to 8) (size 9 to 14) (size 15 to 20)
#    0.000    2.429    2.857    0.429    0.000    0.857 
#    0.000    0.714    0.000    8.571    0.000    0.000 
#    0.000    5.714    0.000    0.000    0.000    0.000 
#
# Total GULP energy -347089.264620 kJ/mol
# GULP energy per Si atom -12396.045165 kJ/mol
# Density = 1.768215 g / cm^3
# Si number density = 17.722491 Si / 1000 Ang^3
#
#
#
# Elastic Constant Matrix: (Units=GPa)
#
#
# Indices 1 2 3 4 5 6 
#
# 1 144.3350 27.7665 93.3905 0.0000 -5.1618 0.0002
# 2 27.7665 29.2757 31.2734 -0.0002 2.3204 0.0006
# 3 93.3905 31.2734 172.9733 0.0000 0.4237 0.0000
# 4 0.0000 -0.0002 0.0000 22.0861 0.0000 1.6413
# 5 -5.1618 2.3204 0.4237 0.0000 32.6214 0.0000
# 6 0.0002 0.0006 0.0000 1.6413 0.0000 16.1375
#
#
#
# Elastic Compliance Matrix: (Units=1/GPa)
#
#
# Indices 1 2 3 4 5 6 
#
# 1 0.011412 -0.005472 -0.005178 0.000000 0.002262 0.000000
# 2 -0.005472 0.045237 -0.005214 0.000000 -0.004016 -0.000002
# 3 -0.005178 -0.005214 0.009521 0.000000 -0.000572 0.000000
# 4 0.000000 0.000000 0.000000 0.045622 0.000000 -0.004640
# 5 0.002262 -0.004016 -0.000572 0.000000 0.031306 0.000000
# 6 0.000000 -0.000002 0.000000 -0.004640 0.000000 0.062440
#
#
# Mechanical properties :
#
#
# Convention : Reuss Voigt Hill
#
# Bulk Modulus (GPa) = 29.03505 72.38277 50.70891
# Shear Modulus (GPa) = 20.10080 27.11255 23.60668
#
# Velocity S-wave (km/s) = 3.37144 3.91556 3.65364
# Velocity P-wave (km/s) = 5.61909 7.83410 6.81716
#
# Compressibility (1/GPa) = 0.03444113
#
# Stress axis : x y z
#
# Youngs Moduli (GPa) = 87.62596 22.10598 105.03159
#
# Poissons Ratio (x) = 0.12097 0.54383
# Poissons Ratio (y) = 0.47950 0.54768
# Poissons Ratio (z) = 0.45371 0.11527
#
# Static dielectric constant tensor:
#      x y z
#    x 3.391890 0.000000 -0.018380 
#    y 0.000000 3.017760 0.000000 
#    z -0.018380 0.000000 3.747120 
# 
# 
# High freq. dielectric constant tensor:
#      x y z
#    x 1.666930 0.000000 0.004970 
#    y 0.000000 1.653320 0.000000 
#    z 0.004970 0.000000 1.708040 
# 
# From -- ./inp_files/280366.got.cif
#   From: 2010.06.25/outbox.cif.g09.slc.cpg/sg12_141_cif.got.tgz:280366.got - 2010.06.28 00:19:55.
