data_PCOD8082829
_publ_section_title
;
Structure prediction by ZEFSAII (Michael W. Deem and Ramdas Pophale) SiO2 
 PCOD8082829
Probable space group: C 2/M
;
_chemical_formula_sum "Si O2"
_cell_formula_units_Z 48
_cell_length_a 26.616260
_cell_length_b 10.301397
_cell_length_c 30.137915
_cell_angle_alpha 90.000000
_cell_angle_beta 19.296097
_cell_angle_gamma 90.000000
_cell_volume 2730.626158
_symmetry_space_group_name_H-M "C 2/M"
_symmetry_group_IT_number 12
_symmetry_cell_setting 'monoclinic'
loop_
_space_group_symop_operation_xyz
x,y,z
-x,y,-z
-x,-y,-z
x,-y,z
1/2+x,1/2+y,z
1/2-x,1/2+y,-z
1/2-x,1/2-y,-z
1/2+x,1/2-y,z
loop_
_atom_site_type_symbol
_atom_site_label
_atom_site_fract_x
_atom_site_fract_y
_atom_site_fract_z
Si Si1 0.569593 0.846969 0.395982
Si Si2 0.982864 0.236477 0.153169
Si Si3 0.267666 0.000000 0.427877
Si Si4 0.209277 0.000000 0.580031
Si Si5 0.929956 0.500000 0.874722
Si Si6 0.096555 0.000000 0.112241
Si Si7 0.585662 0.652591 0.884274
Si Si8 0.182283 0.735783 0.455760
O O1 0.500000 0.798828 0.500000
O O2 0.742807 0.801996 0.250900
O O3 0.483638 0.777448 0.427249
O O4 0.549266 0.000000 0.406815
O O5 0.046356 0.375492 0.114176
O O6 0.991439 0.225510 0.092887
O O7 0.807913 0.215763 0.312831
O O8 0.084993 0.126939 0.091300
O O9 0.190064 0.875848 0.470944
O O10 0.228003 0.000000 0.512142
O O11 0.449368 0.000000 0.266690
O O12 0.294057 0.127610 0.526574
O O13 0.032001 0.000000 0.742173
O O14 0.760876 0.500000 0.997262
O O15 0.577000 0.500000 0.881556
O O16 0.500000 0.693292 0.000000
#
# Coordination Sequence:
#
# PCOD8082829 Si02
#       8
#     8   8   4   4   4   4   8   8
#     4  10  18  31  58  82 103 134 183 219 249 323
#     4  10  19  36  58  78 108 142 176 219 264 316
#     4  10  22  38  52  77 118 138 168 229 269 308
#     4  10  20  36  58  79 106 138 182 225 261 304
#     4  10  22  38  54  78 108 144 180 214 265 322
#     4  10  20  36  60  78 100 144 188 216 255 318
#     4  10  20  35  54  83 112 135 173 224 270 303
#     4  10  19  35  57  82 105 143 178 212 269 315
#
# _framework density 17.578386999999999
#
# number of rings (size 3 to 8) (size 9 to 14) (size 15 to 20)
#    0.000    2.000    3.333    1.000    0.000    0.000 
#    6.000    1.667    0.000    0.000    0.000    0.000 
#    0.000    0.000    0.000    0.000    0.000    0.000 
#
# Total GULP energy -297668.505240 kJ/mol
# GULP energy per Si atom -12402.854385 kJ/mol
# Density = 1.753838 g / cm^3
# Si number density = 17.578387 Si / 1000 Ang^3
#
#
#
# Elastic Constant Matrix: (Units=GPa)
#
#
# Indices 1 2 3 4 5 6 
#
# 1 152.7439 58.2407 84.1301 -0.0163 -0.5159 -0.0615
# 2 58.2407 112.8337 39.0918 0.0103 -3.2446 -0.0076
# 3 84.1301 39.0918 112.5488 0.0224 -6.4437 0.0595
# 4 -0.0163 0.0103 0.0224 7.1462 -0.0040 -24.2822
# 5 -0.5159 -3.2446 -6.4437 -0.0040 33.9831 0.0338
# 6 -0.0615 -0.0076 0.0595 -24.2822 0.0338 -78.0866
#
#
#
# Elastic Compliance Matrix: (Units=1/GPa)
#
#
# Indices 1 2 3 4 5 6 
#
# 1 0.012385 -0.003638 -0.008091 0.000001 -0.001693 -0.000017
# 2 -0.003638 0.011147 -0.001106 -0.000008 0.000799 0.000004
# 3 -0.008091 -0.001106 0.015472 0.000001 0.002705 0.000019
# 4 0.000001 -0.000008 0.000001 0.068040 0.000029 -0.021158
# 5 -0.001693 0.000799 0.002705 0.000029 0.029990 0.000007
# 6 -0.000017 0.000004 0.000019 -0.021158 0.000007 -0.006227
#
#
# Mechanical properties :
#
#
# Convention : Reuss Voigt Hill
#
# Bulk Modulus (GPa) = 75.00276 82.33906 78.67091
# Shear Modulus (GPa) = 31.07086 5.71948 18.39517
#
# Velocity S-wave (km/s) = 4.20880 1.80576 3.23842
# Velocity P-wave (km/s) = 8.14732 7.16174 7.67038
#
# Compressibility (1/GPa) = 0.01333284
#
# Stress axis : x y z
#
# Youngs Moduli (GPa) = 80.74396 89.71209 64.63223
#
# Poissons Ratio (x) = 0.32639 0.52294
# Poissons Ratio (y) = 0.29376 0.07151
# Poissons Ratio (z) = 0.65330 0.09925
#
# Static dielectric constant tensor:
#      x y z
#    x 3.188670 -0.000010 -0.021890 
#    y -0.000010 3.210490 0.000040 
#    z -0.021890 0.000040 3.231210 
# 
# 
# High freq. dielectric constant tensor:
#      x y z
#    x 1.686200 0.000000 -0.004870 
#    y 0.000000 1.673230 0.000010 
#    z -0.004870 0.000010 1.670130 
# 
# From -- ./inp_files/321224.got.cif
#   From: 2010.06.25/outbox.cif.g09.slc.cpg/sg12_161_cif.got.tgz:321224.got - 2010.06.28 00:19:55.
