data_PCOD8082497
_publ_section_title
;
Structure prediction by ZEFSAII (Michael W. Deem and Ramdas Pophale) SiO2 
 PCOD8082497
Probable space group: C 2/M
;
_chemical_formula_sum "Si O2"
_cell_formula_units_Z 40
_cell_length_a 25.326276
_cell_length_b 12.733454
_cell_length_c 7.694212
_cell_angle_alpha 90.000000
_cell_angle_beta 66.797289
_cell_angle_gamma 90.000000
_cell_volume 2280.617035
_symmetry_space_group_name_H-M "C 2/M"
_symmetry_group_IT_number 12
_symmetry_cell_setting 'monoclinic'
loop_
_space_group_symop_operation_xyz
x,y,z
-x,y,-z
-x,-y,-z
x,-y,z
1/2+x,1/2+y,z
1/2-x,1/2+y,-z
1/2-x,1/2-y,-z
1/2+x,1/2-y,z
loop_
_atom_site_type_symbol
_atom_site_label
_atom_site_fract_x
_atom_site_fract_y
_atom_site_fract_z
Si Si1 0.193640 0.807745 0.251041
Si Si2 0.118449 0.201017 0.036081
Si Si3 0.000854 0.878231 0.295774
Si Si4 0.624492 0.621729 0.656298
Si Si5 0.307971 0.880379 0.971355
O O1 0.149197 0.854151 0.163187
O O2 0.166912 0.813576 0.476775
O O3 0.206475 0.684716 0.187586
O O4 0.252528 0.874003 0.169175
O O5 0.137310 0.324183 0.006034
O O6 0.049994 0.191202 0.141806
O O7 0.141019 0.144526 0.833109
O O8 0.940835 0.841952 0.291681
O O9 0.000000 0.855331 0.500000
O O10 0.013794 0.000000 0.238123
O O11 0.631773 0.500000 0.601228
O O12 0.323754 0.000000 0.907239
#
# Coordination Sequence:
#
# PCOD8082497 Si02
#       5
#     8   8   8   8   8
#     4   9  20  37  54  78 106 137 176 217 261 309
#     4  10  20  34  52  77 111 139 173 210 262 311
#     4  10  18  31  52  78 108 140 169 212 268 314
#     4  11  21  32  54  83 110 138 171 214 267 317
#     4   9  19  38  57  74 105 141 177 220 260 304
#
# _framework density 17.539111999999999
#
# number of rings (size 3 to 8) (size 9 to 14) (size 15 to 20)
#    1.200    1.000    2.000    1.800    0.000    4.800 
#    0.000    1.000    0.000    7.800    0.000    0.000 
#    0.000    0.000    0.000    0.000    0.000    0.000 
#
# Total GULP energy -247893.460219 kJ/mol
# GULP energy per Si atom -12394.673011 kJ/mol
# Density = 1.749919 g / cm^3
# Si number density = 17.539112 Si / 1000 Ang^3
#
#
#
# Elastic Constant Matrix: (Units=GPa)
#
#
# Indices 1 2 3 4 5 6 
#
# 1 34.0662 22.8649 28.6495 0.0000 -11.4186 0.0000
# 2 22.8649 83.4188 31.2592 0.0000 -16.5942 0.0000
# 3 28.6495 31.2592 124.4266 0.0000 -12.0894 0.0000
# 4 0.0000 0.0000 0.0000 15.3932 0.0000 -1.8120
# 5 -11.4186 -16.5942 -12.0894 0.0000 33.5083 0.0000
# 6 0.0000 0.0000 0.0000 -1.8120 0.0000 26.3697
#
#
#
# Elastic Compliance Matrix: (Units=1/GPa)
#
#
# Indices 1 2 3 4 5 6 
#
# 1 0.043315 -0.007467 -0.007278 0.000000 0.008437 0.000000
# 2 -0.007467 0.015597 -0.001757 0.000000 0.004546 0.000000
# 3 -0.007278 -0.001757 0.010186 0.000000 0.000324 0.000000
# 4 0.000000 0.000000 0.000000 0.065493 0.000000 0.004500
# 5 0.008437 0.004546 0.000324 0.000000 0.035087 0.000000
# 6 0.000000 0.000000 0.000000 0.004500 0.000000 0.038232
#
#
# Mechanical properties :
#
#
# Convention : Reuss Voigt Hill
#
# Bulk Modulus (GPa) = 27.70604 45.27319 36.48962
# Shear Modulus (GPa) = 19.76718 25.66344 22.71531
#
# Velocity S-wave (km/s) = 3.36078 3.82935 3.60269
# Velocity P-wave (km/s) = 5.55795 6.73948 6.17703
#
# Compressibility (1/GPa) = 0.03609321
#
# Stress axis : x y z
#
# Youngs Moduli (GPa) = 23.08680 64.11401 98.17760
#
# Poissons Ratio (x) = 0.47874 0.71451
# Poissons Ratio (y) = 0.17239 0.17254
# Poissons Ratio (z) = 0.16802 0.11268
#
# Static dielectric constant tensor:
#      x y z
#    x 3.218930 0.000000 -0.082340 
#    y 0.000000 2.905400 0.000000 
#    z -0.082340 0.000000 3.159670 
# 
# 
# High freq. dielectric constant tensor:
#      x y z
#    x 1.671660 0.000000 -0.009750 
#    y 0.000000 1.638980 0.000000 
#    z -0.009750 0.000000 1.683470 
# 
# From -- ./inp_files/95274.got.cif
#   From: 2010.06.25/outbox.cif.g09.slc.cpg/sg12_48_cif.got.tgz:95274.got - 2010.06.28 00:19:55.
