data_PCOD8082140
_publ_section_title
;
Structure prediction by ZEFSAII (Michael W. Deem and Ramdas Pophale) SiO2 
 PCOD8082140
Probable space group: C 2/M
;
_chemical_formula_sum "Si O2"
_cell_formula_units_Z 56
_cell_length_a 20.420199
_cell_length_b 8.787226
_cell_length_c 16.920418
_cell_angle_alpha 90.000000
_cell_angle_beta 89.827581
_cell_angle_gamma 90.000000
_cell_volume 3036.133666
_symmetry_space_group_name_H-M "C 2/M"
_symmetry_group_IT_number 12
_symmetry_cell_setting 'monoclinic'
loop_
_space_group_symop_operation_xyz
x,y,z
-x,y,-z
-x,-y,-z
x,-y,z
1/2+x,1/2+y,z
1/2-x,1/2+y,-z
1/2-x,1/2-y,-z
1/2+x,1/2-y,z
loop_
_atom_site_type_symbol
_atom_site_label
_atom_site_fract_x
_atom_site_fract_y
_atom_site_fract_z
Si Si1 0.679079 0.321548 0.506084
Si Si2 0.007470 0.818633 0.911139
Si Si3 0.829954 0.319723 0.337469
Si Si4 0.636617 0.319703 0.820489
Si Si5 0.116713 0.823435 0.179099
Si Si6 0.252921 0.676638 0.915013
Si Si7 0.319447 0.321650 0.666200
O O1 0.684149 0.500000 0.522929
O O2 0.750000 0.250000 0.500000
O O3 0.640828 0.240756 0.578571
O O4 0.646657 0.290371 0.419579
O O5 0.949162 0.749680 0.856823
O O6 0.076298 0.764398 0.874764
O O7 0.002726 0.000000 0.913462
O O8 0.000000 0.753624 0.000000
O O9 0.835493 0.500000 0.334995
O O10 0.872799 0.248162 0.267096
O O11 0.755060 0.259186 0.329852
O O12 0.639389 0.500000 0.815606
O O13 0.703430 0.257834 0.856283
O O14 0.174191 0.797877 0.116350
O O15 0.136504 0.748193 0.263874
O O16 0.102994 0.000000 0.193228
O O17 0.234545 0.500000 0.919777
O O18 0.250000 0.750000 0.000000
O O19 0.313095 0.500000 0.682503
#
# Coordination Sequence:
#
# PCOD8082140 Si02
#       7
#     8   8   8   8   8   8   8
#     4   9  16  26  44  73 106 136 168 211 262 316
#     4   9  18  32  50  74 102 134 174 216 257 308
#     4  10  18  31  49  73 104 138 174 211 259 311
#     4  11  21  33  52  79 106 133 171 217 262 313
#     4   9  16  30  52  74  99 133 172 214 257 304
#     4  11  21  34  54  77 103 134 169 214 265 313
#     4   8  14  26  46  73 100 128 167 211 255 301
#
# _framework density 18.444510999999999
#
# number of rings (size 3 to 8) (size 9 to 14) (size 15 to 20)
#    0.000    2.429    1.429    3.429    0.000    2.286 
#    0.000    0.000    0.000   10.286    0.000    6.000 
#    0.000    0.000    0.000    0.000    0.000    0.000 
#
# Total GULP energy -347028.695884 kJ/mol
# GULP energy per Si atom -12393.881996 kJ/mol
# Density = 1.840253 g / cm^3
# Si number density = 18.444511 Si / 1000 Ang^3
#
#
#
# Elastic Constant Matrix: (Units=GPa)
#
#
# Indices 1 2 3 4 5 6 
#
# 1 53.2597 19.6630 22.3115 0.0000 4.1600 0.0000
# 2 19.6630 61.1935 39.5714 0.0000 -5.4528 0.0000
# 3 22.3115 39.5714 154.9168 0.0000 1.9582 0.0000
# 4 0.0000 0.0000 0.0000 30.0664 0.0000 -1.7806
# 5 4.1600 -5.4528 1.9582 0.0000 27.0459 0.0000
# 6 0.0000 0.0000 0.0000 -1.7806 0.0000 13.1892
#
#
#
# Elastic Compliance Matrix: (Units=1/GPa)
#
#
# Indices 1 2 3 4 5 6 
#
# 1 0.022184 -0.006604 -0.001449 0.000000 -0.004639 0.000000
# 2 -0.006604 0.022057 -0.004756 0.000000 0.005807 0.000000
# 3 -0.001449 -0.004756 0.007895 0.000000 -0.001308 0.000000
# 4 0.000000 0.000000 0.000000 0.033528 0.000000 0.004526
# 5 -0.004639 0.005807 -0.001308 0.000000 0.038953 0.000000
# 6 0.000000 0.000000 0.000000 0.004526 0.000000 0.076431
#
#
# Mechanical properties :
#
#
# Convention : Reuss Voigt Hill
#
# Bulk Modulus (GPa) = 37.71323 48.05130 42.88227
# Shear Modulus (GPa) = 21.23087 26.58191 23.90639
#
# Velocity S-wave (km/s) = 3.39642 3.80041 3.60408
# Velocity P-wave (km/s) = 5.98933 6.73542 6.37330
#
# Compressibility (1/GPa) = 0.02651589
#
# Stress axis : x y z
#
# Youngs Moduli (GPa) = 45.07834 45.33722 126.65762
#
# Poissons Ratio (x) = 0.29942 0.18357
# Poissons Ratio (y) = 0.29771 0.60243
# Poissons Ratio (z) = 0.06533 0.21564
#
# Static dielectric constant tensor:
#      x y z
#    x 3.322560 0.000000 0.280660 
#    y 0.000000 3.159210 0.000000 
#    z 0.280660 0.000000 4.156250 
# 
# 
# High freq. dielectric constant tensor:
#      x y z
#    x 1.675840 0.000000 0.006740 
#    y 0.000000 1.684410 0.000000 
#    z 0.006740 0.000000 1.743760 
# 
# From -- ./inp_files/280259.got.cif
#   From: 2010.06.25/outbox.cif.g09.slc.cpg/sg12_141_cif.got.tgz:280259.got - 2010.06.28 00:19:55.
