data_PCOD8082001
_publ_section_title
;
Structure prediction by ZEFSAII (Michael W. Deem and Ramdas Pophale) SiO2 
 PCOD8082001
Probable space group: C 2/M
;
_chemical_formula_sum "Si O2"
_cell_formula_units_Z 48
_cell_length_a 10.759082
_cell_length_b 29.045070
_cell_length_c 14.127836
_cell_angle_alpha 90.000000
_cell_angle_beta 32.152022
_cell_angle_gamma 90.000000
_cell_volume 2349.479421
_symmetry_space_group_name_H-M "C 2/M"
_symmetry_group_IT_number 12
_symmetry_cell_setting 'monoclinic'
loop_
_space_group_symop_operation_xyz
x,y,z
-x,y,-z
-x,-y,-z
x,-y,z
1/2+x,1/2+y,z
1/2-x,1/2+y,-z
1/2-x,1/2-y,-z
1/2+x,1/2-y,z
loop_
_atom_site_type_symbol
_atom_site_label
_atom_site_fract_x
_atom_site_fract_y
_atom_site_fract_z
Si Si1 0.727371 0.500000 0.418443
Si Si2 0.624542 0.403301 0.517230
Si Si3 0.131984 0.311215 0.638805
Si Si4 0.639011 0.663556 0.998135
Si Si5 0.759060 0.219529 0.358045
Si Si6 0.264845 0.900467 0.088094
Si Si7 0.134665 0.500000 0.009667
O O1 0.500000 0.500000 0.500000
O O2 0.733699 0.453028 0.477603
O O3 0.961260 0.500000 0.208117
O O4 0.500000 0.414173 0.500000
O O5 0.815709 0.364478 0.371836
O O6 0.450588 0.384639 0.708966
O O7 0.213221 0.275171 0.667729
O O8 0.284515 0.297093 0.449410
O O9 0.849864 0.307173 0.814012
O O10 0.457954 0.697397 0.165556
O O11 0.758704 0.629385 0.996451
O O12 0.500000 0.638996 0.000000
O O13 0.500000 0.202933 0.500000
O O14 0.500000 0.894474 0.000000
O O15 0.216840 0.953007 0.085554
O O16 0.000000 0.500000 0.000000
#
# Coordination Sequence:
#
# PCOD8082001 Si02
#       7
#     4   8   8   8   8   8   4
#     4  10  18  30  54  84 125 164 200 251 327 374
#     4  11  20  36  58  92 125 165 206 263 317 379
#     4  11  23  40  64  88 124 164 216 258 316 376
#     4  12  24  43  65  94 128 173 211 262 324 387
#     4  11  23  43  62  89 123 169 210 267 316 380
#     4  11  22  38  62  95 128 166 219 266 323 379
#     4  10  18  34  57  90 127 164 207 270 321 377
#
# _framework density 20.430057000000001
#
# number of rings (size 3 to 8) (size 9 to 14) (size 15 to 20)
#    0.000    1.000    3.333    7.500    0.000    0.000 
#    0.000    0.417    0.000    0.000    0.000    4.667 
#    0.000    0.000    0.000    0.000    0.000    0.000 
#
# Total GULP energy -297328.983602 kJ/mol
# GULP energy per Si atom -12388.707650 kJ/mol
# Density = 2.038356 g / cm^3
# Si number density = 20.430057 Si / 1000 Ang^3
#
#
#
# Elastic Constant Matrix: (Units=GPa)
#
#
# Indices 1 2 3 4 5 6 
#
# 1 78.1069 37.7205 21.8792 0.0000 3.3597 0.0000
# 2 37.7205 148.3323 34.5666 0.0000 -7.0065 0.0000
# 3 21.8792 34.5666 137.0542 0.0000 -1.2920 0.0000
# 4 0.0000 0.0000 0.0000 43.4821 0.0000 -1.2547
# 5 3.3597 -7.0065 -1.2920 0.0000 26.9466 0.0000
# 6 0.0000 0.0000 0.0000 -1.2547 0.0000 18.4459
#
#
#
# Elastic Compliance Matrix: (Units=1/GPa)
#
#
# Indices 1 2 3 4 5 6 
#
# 1 0.015104 -0.003622 -0.001525 0.000000 -0.002898 0.000000
# 2 -0.003622 0.008117 -0.001446 0.000000 0.002493 0.000000
# 3 -0.001525 -0.001446 0.007906 0.000000 0.000193 0.000000
# 4 0.000000 0.000000 0.000000 0.023043 0.000000 0.001567
# 5 -0.002898 0.002493 0.000193 0.000000 0.038129 0.000000
# 6 0.000000 0.000000 0.000000 0.001567 0.000000 0.054319
#
#
# Mechanical properties :
#
#
# Convention : Reuss Voigt Hill
#
# Bulk Modulus (GPa) = 55.73508 61.31399 58.52454
# Shear Modulus (GPa) = 30.15936 35.73005 32.94471
#
# Velocity S-wave (km/s) = 3.84634 4.18652 4.02003
# Velocity P-wave (km/s) = 6.86046 7.31068 7.08914
#
# Compressibility (1/GPa) = 0.01794202
#
# Stress axis : x y z
#
# Youngs Moduli (GPa) = 66.20666 123.19182 126.48275
#
# Poissons Ratio (x) = 0.44626 0.19287
# Poissons Ratio (y) = 0.23983 0.18283
# Poissons Ratio (z) = 0.10096 0.17808
#
# Static dielectric constant tensor:
#      x y z
#    x 3.358610 0.000000 0.471110 
#    y 0.000000 5.141970 0.000000 
#    z 0.471110 0.000000 0.763980 
# 
# 
# High freq. dielectric constant tensor:
#      x y z
#    x 1.753380 0.000000 0.009140 
#    y 0.000000 1.805670 0.000000 
#    z 0.009140 0.000000 1.823010 
# 
# From -- ./inp_files/209325.got.cif
#   From: 2010.06.25/outbox.cif.g09.slc.cpg/sg12_105_cif.got.tgz:209325.got - 2010.06.28 00:19:55.
