data_PCOD8082452
_publ_section_title
;
Structure prediction by ZEFSAII (Michael W. Deem and Ramdas Pophale) SiO2 
 PCOD8082452
Probable space group: C 2/M
;
_chemical_formula_sum "Si O2"
_cell_formula_units_Z 64
_cell_length_a 12.328598
_cell_length_b 18.909848
_cell_length_c 15.189965
_cell_angle_alpha 90.000000
_cell_angle_beta 93.464939
_cell_angle_gamma 90.000000
_cell_volume 3534.792074
_symmetry_space_group_name_H-M "C 2/M"
_symmetry_group_IT_number 12
_symmetry_cell_setting 'monoclinic'
loop_
_space_group_symop_operation_xyz
x,y,z
-x,y,-z
-x,-y,-z
x,-y,z
1/2+x,1/2+y,z
1/2-x,1/2+y,-z
1/2-x,1/2-y,-z
1/2+x,1/2-y,z
loop_
_atom_site_type_symbol
_atom_site_label
_atom_site_fract_x
_atom_site_fract_y
_atom_site_fract_z
Si Si1 0.599576 0.578127 0.571082
Si Si2 0.769401 0.579372 0.054827
Si Si3 0.397229 0.169521 0.931251
Si Si4 0.991264 0.814231 0.680331
Si Si5 0.160836 0.187930 0.165162
Si Si6 0.858635 0.320183 0.302530
Si Si7 0.474939 0.921730 0.189395
Si Si8 0.288814 0.320482 0.546901
O O1 0.500000 0.572126 0.500000
O O2 0.641747 0.500000 0.598612
O O3 0.562454 0.616855 0.659190
O O4 0.696425 0.620145 0.527222
O O5 0.730526 0.500000 0.025912
O O6 0.674594 0.617391 0.106608
O O7 0.878528 0.572182 0.115457
O O8 0.797856 0.627630 0.971871
O O9 0.356292 0.246139 0.899999
O O10 0.428610 0.124921 0.846447
O O11 0.500000 0.179757 0.000000
O O12 0.941751 0.823488 0.775402
O O13 0.899951 0.803246 0.602443
O O14 0.068050 0.747240 0.677062
O O15 0.270693 0.201563 0.224789
O O16 0.801136 0.347050 0.388443
O O17 0.933297 0.385245 0.276255
O O18 0.519050 0.000000 0.214226
O O19 0.250000 0.250000 0.500000
#
# Coordination Sequence:
#
# PCOD8082452 Si02
#       8
#     8   8   8   8   8   8   8   8
#     4   9  18  32  51  77 104 130 167 209 245 286
#     4   9  18  31  48  73 101 127 165 212 253 292
#     4  10  18  31  52  76  98 131 166 209 252 297
#     4  10  19  33  52  75 102 134 164 204 249 295
#     4  10  20  32  51  78  99 131 171 205 249 297
#     4  10  19  32  51  75 104 132 164 204 249 297
#     4   9  17  30  49  74 102 128 161 207 254 295
#     4  10  19  31  53  78  99 131 168 204 247 294
#
# _framework density 18.105730999999999
#
# number of rings (size 3 to 8) (size 9 to 14) (size 15 to 20)
#    0.000    2.375    2.500    0.750    0.000    2.500 
#    0.000    5.000    0.000    4.125    0.000    1.750 
#    0.000    0.000    0.000    0.000    0.000    0.000 
#
# Total GULP energy -396747.369672 kJ/mol
# GULP energy per Si atom -12398.355302 kJ/mol
# Density = 1.806452 g / cm^3
# Si number density = 18.105731 Si / 1000 Ang^3
#
#
#
# Elastic Constant Matrix: (Units=GPa)
#
#
# Indices 1 2 3 4 5 6 
#
# 1 61.9830 43.3392 37.7625 0.0000 -30.2485 0.0000
# 2 43.3392 152.7080 58.9846 0.0000 -25.3122 0.0000
# 3 37.7625 58.9846 86.4323 0.0000 -34.4950 0.0000
# 4 0.0000 0.0000 0.0000 28.9304 0.0000 -6.2724
# 5 -30.2485 -25.3122 -34.4950 0.0000 30.2422 0.0000
# 6 0.0000 0.0000 0.0000 -6.2724 0.0000 24.0272
#
#
#
# Elastic Compliance Matrix: (Units=1/GPa)
#
#
# Indices 1 2 3 4 5 6 
#
# 1 0.034200 -0.004855 0.000737 0.000000 0.030984 0.000000
# 2 -0.004855 0.009597 -0.005801 0.000000 -0.003441 0.000000
# 3 0.000737 -0.005801 0.024896 0.000000 0.024279 0.000000
# 4 0.000000 0.000000 0.000000 0.036639 0.000000 0.009565
# 5 0.030984 -0.003441 0.024279 0.000000 0.088870 0.000000
# 6 0.000000 0.000000 0.000000 0.009565 0.000000 0.044116
#
#
# Mechanical properties :
#
#
# Convention : Reuss Voigt Hill
#
# Bulk Modulus (GPa) = 20.46905 64.58842 42.52873
# Shear Modulus (GPa) = 18.21881 27.37577 22.79729
#
# Velocity S-wave (km/s) = 3.17558 3.89266 3.55226
# Velocity P-wave (km/s) = 4.97751 7.48024 6.35333
#
# Compressibility (1/GPa) = 0.04885425
#
# Stress axis : x y z
#
# Youngs Moduli (GPa) = 29.24018 104.20206 40.16632
#
# Poissons Ratio (x) = 0.50589 -0.02959
# Poissons Ratio (y) = 0.14196 0.23301
# Poissons Ratio (z) = -0.02154 0.60449
#
# Static dielectric constant tensor:
#      x y z
#    x 3.312830 0.000000 -0.444610 
#    y 0.000000 3.610980 0.000000 
#    z -0.444610 0.000000 3.492600 
# 
# 
# High freq. dielectric constant tensor:
#      x y z
#    x 1.680640 0.000000 -0.034450 
#    y 0.000000 1.705420 0.000000 
#    z -0.034450 0.000000 1.693140 
# 
# From -- ./inp_files/206677.got.cif
#   From: 2010.06.25/outbox.cif.g09.slc.cpg/sg12_104_cif.got.tgz:206677.got - 2010.06.28 00:19:55.
