data_PCOD8082502
_publ_section_title
;
Structure prediction by ZEFSAII (Michael W. Deem and Ramdas Pophale) SiO2 
 PCOD8082502
Probable space group: C 2/M
;
_chemical_formula_sum "Si O2"
_cell_formula_units_Z 56
_cell_length_a 24.395420
_cell_length_b 9.300256
_cell_length_c 13.640718
_cell_angle_alpha 90.000000
_cell_angle_beta 70.078077
_cell_angle_gamma 90.000000
_cell_volume 2909.652979
_symmetry_space_group_name_H-M "C 2/M"
_symmetry_group_IT_number 12
_symmetry_cell_setting 'monoclinic'
loop_
_space_group_symop_operation_xyz
x,y,z
-x,y,-z
-x,-y,-z
x,-y,z
1/2+x,1/2+y,z
1/2-x,1/2+y,-z
1/2-x,1/2-y,-z
1/2+x,1/2-y,z
loop_
_atom_site_type_symbol
_atom_site_label
_atom_site_fract_x
_atom_site_fract_y
_atom_site_fract_z
Si Si1 0.093266 0.341991 0.067980
Si Si2 0.662621 0.667716 0.298488
Si Si3 0.285876 0.159072 0.901333
Si Si4 0.691707 0.329847 0.503171
Si Si5 0.436883 0.667710 0.083636
Si Si6 0.919846 0.168300 0.314818
Si Si7 0.454694 0.333063 0.733557
O O1 0.066576 0.500000 0.062309
O O2 0.151250 0.361463 0.092970
O O3 0.049671 0.250179 0.161373
O O4 0.107182 0.257620 0.958406
O O5 0.672876 0.500000 0.270985
O O6 0.708325 0.756381 0.204803
O O7 0.676076 0.708557 0.401302
O O8 0.594825 0.709271 0.315637
O O9 0.258013 0.000000 0.900450
O O10 0.250000 0.250000 0.000000
O O11 0.700411 0.500000 0.511836
O O12 0.750000 0.250000 0.500000
O O13 0.637749 0.265789 0.599655
O O14 0.422251 0.500000 0.085381
O O15 0.428308 0.726083 0.199050
O O16 0.500000 0.703838 0.000000
O O17 0.978880 0.200737 0.343012
O O18 0.909480 0.000000 0.317563
O O19 0.449050 0.500000 0.765029
#
# Coordination Sequence:
#
# PCOD8082502 Si02
#       7
#     8   8   8   8   8   8   8
#     4  10  20  32  48  76 112 143 172 218 273 325
#     4   9  19  35  58  83 109 141 179 229 283 331
#     4  10  21  36  55  80 110 144 185 228 273 328
#     4  10  22  40  58  80 110 145 188 234 275 327
#     4  10  18  31  52  78 109 145 181 216 262 329
#     4   9  18  33  55  81 108 141 185 228 271 326
#     4   9  16  32  56  80 106 137 174 221 277 334
#
# _framework density 19.246281
#
# number of rings (size 3 to 8) (size 9 to 14) (size 15 to 20)
#    0.000    2.429    1.429    0.857    0.000    4.286 
#    0.000    7.143    0.000    0.000    0.000    5.000 
#    0.000    0.000    0.000    0.000    0.000    0.000 
#
# Total GULP energy -346987.974956 kJ/mol
# GULP energy per Si atom -12392.427677 kJ/mol
# Density = 1.920248 g / cm^3
# Si number density = 19.246281 Si / 1000 Ang^3
#
#
#
# Elastic Constant Matrix: (Units=GPa)
#
#
# Indices 1 2 3 4 5 6 
#
# 1 93.7378 37.2782 74.4734 0.0000 -0.3615 0.0000
# 2 37.2782 72.8326 56.4474 0.0000 1.8104 0.0000
# 3 74.4734 56.4474 153.3676 0.0000 -2.9288 0.0000
# 4 0.0000 0.0000 0.0000 19.8710 0.0000 -0.0615
# 5 -0.3615 1.8104 -2.9288 0.0000 34.6131 0.0000
# 6 0.0000 0.0000 0.0000 -0.0615 0.0000 24.8596
#
#
#
# Elastic Compliance Matrix: (Units=1/GPa)
#
#
# Indices 1 2 3 4 5 6 
#
# 1 0.017955 -0.003389 -0.007476 0.000000 -0.000268 0.000000
# 2 -0.003389 0.019939 -0.005723 0.000000 -0.001563 0.000000
# 3 -0.007476 -0.005723 0.012281 0.000000 0.001260 0.000000
# 4 0.000000 0.000000 0.000000 0.050325 0.000000 0.000124
# 5 -0.000268 -0.001563 0.001260 0.000000 0.029076 0.000000
# 6 0.000000 0.000000 0.000000 0.000124 0.000000 0.040226
#
#
# Mechanical properties :
#
#
# Convention : Reuss Voigt Hill
#
# Bulk Modulus (GPa) = 58.82848 72.92623 65.87736
# Shear Modulus (GPa) = 23.96423 25.98465 24.97444
#
# Velocity S-wave (km/s) = 3.53248 3.67837 3.60616
# Velocity P-wave (km/s) = 6.87534 7.48424 7.18625
#
# Compressibility (1/GPa) = 0.01699857
#
# Stress axis : x y z
#
# Youngs Moduli (GPa) = 55.69611 50.15343 81.42559
#
# Poissons Ratio (x) = 0.16995 0.60877
# Poissons Ratio (y) = 0.18873 0.46599
# Poissons Ratio (z) = 0.41641 0.28702
#
# Static dielectric constant tensor:
#      x y z
#    x 3.946340 0.000000 -0.344530 
#    y 0.000000 3.652170 0.000000 
#    z -0.344530 0.000000 3.929890 
# 
# 
# High freq. dielectric constant tensor:
#      x y z
#    x 1.747880 0.000000 0.004260 
#    y 0.000000 1.731690 0.000000 
#    z 0.004260 0.000000 1.740240 
# 
# From -- ./inp_files/237419.got.cif
#   From: 2010.06.25/outbox.cif.g09.slc.cpg/sg12_119_cif.got.tgz:237419.got - 2010.06.28 00:19:55.
