data_PCOD8082384
_publ_section_title
;
Structure prediction by ZEFSAII (Michael W. Deem and Ramdas Pophale) SiO2 
 PCOD8082384
Probable space group: C 2/M
;
_chemical_formula_sum "Si O2"
_cell_formula_units_Z 40
_cell_length_a 16.899636
_cell_length_b 13.840413
_cell_length_c 15.334687
_cell_angle_alpha 90.000000
_cell_angle_beta 36.416126
_cell_angle_gamma 90.000000
_cell_volume 2129.258671
_symmetry_space_group_name_H-M "C 2/M"
_symmetry_group_IT_number 12
_symmetry_cell_setting 'monoclinic'
loop_
_space_group_symop_operation_xyz
x,y,z
-x,y,-z
-x,-y,-z
x,-y,z
1/2+x,1/2+y,z
1/2-x,1/2+y,-z
1/2-x,1/2-y,-z
1/2+x,1/2-y,z
loop_
_atom_site_type_symbol
_atom_site_label
_atom_site_fract_x
_atom_site_fract_y
_atom_site_fract_z
Si Si1 0.570654 0.614541 0.025024
Si Si2 0.658360 0.806829 0.267166
Si Si3 0.056364 0.106742 0.353967
Si Si4 0.123565 0.614805 0.489919
Si Si5 0.612247 0.387375 0.659467
O O1 0.575783 0.500000 0.020827
O O2 0.721828 0.652142 0.896347
O O3 0.500000 0.653067 0.000000
O O4 0.491127 0.657692 0.178506
O O5 0.667732 0.689927 0.251154
O O6 0.517058 0.842467 0.353078
O O7 0.668118 0.841947 0.357778
O O8 0.000000 0.104442 0.500000
O O9 0.934986 0.134674 0.396603
O O10 0.115072 0.000000 0.277466
O O11 0.111147 0.500000 0.491111
O O12 0.235874 0.648704 0.459944
O O13 0.613896 0.500000 0.678200
#
# Coordination Sequence:
#
# PCOD8082384 Si02
#       5
#     8   8   8   8   8
#     4  10  18  31  53  83 114 137 160 204 271 335
#     4  11  19  31  52  83 106 139 169 212 271 309
#     4  10  21  38  54  71 102 144 191 224 244 290
#     4  10  18  31  51  83 113 132 163 215 270 321
#     4   9  19  34  54  78 106 142 175 209 258 315
#
# _framework density 18.785879999999999
#
# number of rings (size 3 to 8) (size 9 to 14) (size 15 to 20)
#    0.000    2.000    4.000    2.400    0.000    1.600 
#    0.000    0.000    0.000    0.600    0.000    0.000 
#    0.000    0.000    0.000    0.000    0.000    0.000 
#
# Total GULP energy -247894.023991 kJ/mol
# GULP energy per Si atom -12394.701200 kJ/mol
# Density = 1.874312 g / cm^3
# Si number density = 18.785880 Si / 1000 Ang^3
#
#
#
# Elastic Constant Matrix: (Units=GPa)
#
#
# Indices 1 2 3 4 5 6 
#
# 1 108.8488 27.7859 60.3800 0.0000 7.1219 0.0000
# 2 27.7859 76.2347 8.0507 0.0000 -4.3779 0.0000
# 3 60.3800 8.0507 98.9614 0.0000 -18.1732 0.0000
# 4 0.0000 0.0000 0.0000 12.4449 0.0000 -7.7442
# 5 7.1219 -4.3779 -18.1732 0.0000 20.7112 0.0000
# 6 0.0000 0.0000 0.0000 -7.7442 0.0000 8.3239
#
#
#
# Elastic Compliance Matrix: (Units=1/GPa)
#
#
# Indices 1 2 3 4 5 6 
#
# 1 0.022737 -0.007846 -0.017851 0.000000 -0.025141 0.000000
# 2 -0.007846 0.016024 0.005485 0.000000 0.010898 0.000000
# 3 -0.017851 0.005485 0.026096 0.000000 0.030196 0.000000
# 4 0.000000 0.000000 0.000000 0.190838 0.000000 0.177548
# 5 -0.025141 0.010898 0.030196 0.000000 0.085727 0.000000
# 6 0.000000 0.000000 0.000000 0.177548 0.000000 0.285320
#
#
# Mechanical properties :
#
#
# Convention : Reuss Voigt Hill
#
# Bulk Modulus (GPa) = 40.93080 52.94202 46.93641
# Shear Modulus (GPa) = 7.40401 20.81789 14.11095
#
# Velocity S-wave (km/s) = 1.98741 3.33253 2.74368
# Velocity P-wave (km/s) = 5.20594 6.56130 5.92252
#
# Compressibility (1/GPa) = 0.02443148
#
# Stress axis : x y z
#
# Youngs Moduli (GPa) = 43.98066 62.40787 38.32048
#
# Poissons Ratio (x) = 0.48964 0.68408
# Poissons Ratio (y) = 0.34506 -0.21018
# Poissons Ratio (z) = 0.78512 -0.34229
#
# Static dielectric constant tensor:
#      x y z
#    x 3.588750 0.000000 -0.148800 
#    y 0.000000 3.653490 0.000000 
#    z -0.148800 0.000000 3.315040 
# 
# 
# High freq. dielectric constant tensor:
#      x y z
#    x 1.731750 0.000000 -0.005510 
#    y 0.000000 1.722160 0.000000 
#    z -0.005510 0.000000 1.704060 
# 
# From -- ./inp_files/166939.got.cif
#   From: 2010.06.25/outbox.cif.g09.slc.cpg/sg12_84_cif.got.tgz:166939.got - 2010.06.28 00:19:55.
