data_PCOD8082955
_publ_section_title
;
Structure prediction by ZEFSAII (Michael W. Deem and Ramdas Pophale) SiO2 
 PCOD8082955
Probable space group: C 2/M
;
_chemical_formula_sum "Si O2"
_cell_formula_units_Z 64
_cell_length_a 24.727098
_cell_length_b 9.274805
_cell_length_c 17.526957
_cell_angle_alpha 90.000000
_cell_angle_beta 76.674090
_cell_angle_gamma 90.000000
_cell_volume 3911.385831
_symmetry_space_group_name_H-M "C 2/M"
_symmetry_group_IT_number 12
_symmetry_cell_setting 'monoclinic'
loop_
_space_group_symop_operation_xyz
x,y,z
-x,y,-z
-x,-y,-z
x,-y,z
1/2+x,1/2+y,z
1/2-x,1/2+y,-z
1/2-x,1/2-y,-z
1/2+x,1/2-y,z
loop_
_atom_site_type_symbol
_atom_site_label
_atom_site_fract_x
_atom_site_fract_y
_atom_site_fract_z
Si Si1 0.462074 0.665313 0.350546
Si Si2 0.763184 0.667749 0.072456
Si Si3 0.929759 0.831326 0.919666
Si Si4 0.051923 0.166441 0.818578
Si Si5 0.088512 0.832369 0.349334
Si Si6 0.935644 0.662850 0.499849
Si Si7 0.886542 0.329539 0.076381
Si Si8 0.348370 0.668913 0.816042
O O1 0.449560 0.500000 0.374674
O O2 0.442495 0.704693 0.272181
O O3 0.527513 0.695643 0.335532
O O4 0.426843 0.761776 0.420931
O O5 0.761412 0.500000 0.052824
O O6 0.822328 0.714428 0.086500
O O7 0.716343 0.706263 0.150718
O O8 0.750000 0.750000 0.000000
O O9 0.884369 0.769055 0.874835
O O10 0.989885 0.800292 0.866046
O O11 0.920635 0.000000 0.940342
O O12 0.924214 0.743647 0.999555
O O13 0.095119 0.268451 0.847963
O O14 0.066833 0.000000 0.829129
O O15 0.099145 0.745361 0.423805
O O16 0.131554 0.770096 0.272151
O O17 0.098282 0.000000 0.364358
O O18 0.913770 0.500000 0.501751
O O19 0.000000 0.670421 0.500000
O O20 0.895418 0.500000 0.070922
O O21 0.360964 0.500000 0.810293
#
# Coordination Sequence:
#
# PCOD8082955 Si02
#       8
#     8   8   8   8   8   8   8   8
#     4   9  16  28  46  68  91 118 156 193 225 269
#     4  10  20  34  51  69  91 122 161 201 241 284
#     4  10  18  32  52  70  90 123 165 201 235 276
#     4  10  20  33  50  71  93 124 166 202 232 275
#     4   9  15  27  47  69  91 117 153 195 232 268
#     4   9  17  27  40  64  98 130 151 173 221 285
#     4  11  23  34  45  68  98 128 160 195 241 290
#     4   9  16  29  51  72  90 118 158 202 239 270
#
# _framework density 16.362486000000001
#
# number of rings (size 3 to 8) (size 9 to 14) (size 15 to 20)
#    0.000    2.375    2.500    1.125    0.000    4.500 
#    0.000    1.250    0.000    0.000    0.000    0.875 
#    0.000    0.000    0.000    0.000    0.000    0.000 
#
# Total GULP energy -396809.218442 kJ/mol
# GULP energy per Si atom -12400.288076 kJ/mol
# Density = 1.632524 g / cm^3
# Si number density = 16.362486 Si / 1000 Ang^3
#
#
#
# Elastic Constant Matrix: (Units=GPa)
#
#
# Indices 1 2 3 4 5 6 
#
# 1 63.5110 33.6077 38.3851 0.0000 7.6576 0.0000
# 2 33.6077 69.8371 57.5519 0.0000 4.3165 0.0000
# 3 38.3851 57.5519 136.9927 0.0000 2.4797 0.0000
# 4 0.0000 0.0000 0.0000 19.8807 0.0000 3.7988
# 5 7.6576 4.3165 2.4797 0.0000 17.7643 0.0000
# 6 0.0000 0.0000 0.0000 3.7988 0.0000 17.7089
#
#
#
# Elastic Compliance Matrix: (Units=1/GPa)
#
#
# Indices 1 2 3 4 5 6 
#
# 1 0.022625 -0.008133 -0.002789 0.000000 -0.007387 0.000000
# 2 -0.008133 0.025119 -0.008248 0.000000 -0.001447 0.000000
# 3 -0.002789 -0.008248 0.011517 0.000000 0.001599 0.000000
# 4 0.000000 0.000000 0.000000 0.052450 0.000000 -0.011251
# 5 -0.007387 -0.001447 0.001599 0.000000 0.059605 0.000000
# 6 0.000000 0.000000 0.000000 -0.011251 0.000000 0.058882
#
#
# Mechanical properties :
#
#
# Convention : Reuss Voigt Hill
#
# Bulk Modulus (GPa) = 47.79647 58.82557 53.31102
# Shear Modulus (GPa) = 18.14796 20.45719 19.30257
#
# Velocity S-wave (km/s) = 3.33396 3.53972 3.43838
# Velocity P-wave (km/s) = 6.64039 7.26194 6.95811
#
# Compressibility (1/GPa) = 0.02092205
#
# Stress axis : x y z
#
# Youngs Moduli (GPa) = 44.19819 39.81032 86.82671
#
# Poissons Ratio (x) = 0.32377 0.24217
# Poissons Ratio (y) = 0.35946 0.71613
# Poissons Ratio (z) = 0.12328 0.32835
#
# Static dielectric constant tensor:
#      x y z
#    x 2.909510 0.000000 -0.031370 
#    y 0.000000 3.002350 0.000000 
#    z -0.031370 0.000000 3.267370 
# 
# 
# High freq. dielectric constant tensor:
#      x y z
#    x 1.594370 0.000000 -0.002230 
#    y 0.000000 1.618900 0.000000 
#    z -0.002230 0.000000 1.637180 
# 
# From -- ./inp_files/281300.got.cif
#   From: 2010.06.25/outbox.cif.g09.slc.cpg/sg12_141_cif.got.tgz:281300.got - 2010.06.28 00:19:55.
