data_PCOD8082237
_publ_section_title
;
Structure prediction by ZEFSAII (Michael W. Deem and Ramdas Pophale) SiO2 
 PCOD8082237
Probable space group: C 2/M
;
_chemical_formula_sum "Si O2"
_cell_formula_units_Z 56
_cell_length_a 19.232684
_cell_length_b 9.001584
_cell_length_c 31.273334
_cell_angle_alpha 90.000000
_cell_angle_beta 34.668091
_cell_angle_gamma 90.000000
_cell_volume 3079.704685
_symmetry_space_group_name_H-M "C 2/M"
_symmetry_group_IT_number 12
_symmetry_cell_setting 'monoclinic'
loop_
_space_group_symop_operation_xyz
x,y,z
-x,y,-z
-x,-y,-z
x,-y,z
1/2+x,1/2+y,z
1/2-x,1/2+y,-z
1/2-x,1/2-y,-z
1/2+x,1/2-y,z
loop_
_atom_site_type_symbol
_atom_site_label
_atom_site_fract_x
_atom_site_fract_y
_atom_site_fract_z
Si Si1 0.353845 0.830128 0.921452
Si Si2 0.308832 0.171953 0.760247
Si Si3 0.161320 0.824018 0.688245
Si Si4 0.725437 0.327596 0.445440
Si Si5 0.370994 0.824227 0.208260
Si Si6 0.068526 0.671029 0.590381
Si Si7 0.411132 0.828903 0.798396
O O1 0.488146 0.772234 0.866962
O O2 0.334138 0.804240 0.880690
O O3 0.341759 0.000000 0.940023
O O4 0.250000 0.750000 0.000000
O O5 0.199085 0.273653 0.798821
O O6 0.431465 0.212602 0.672646
O O7 0.324675 0.210155 0.802282
O O8 0.274753 0.000000 0.771120
O O9 0.263834 0.763530 0.603936
O O10 0.189823 0.755419 0.720206
O O11 0.028717 0.775638 0.738352
O O12 0.169339 0.000000 0.687019
O O13 0.709859 0.500000 0.442635
O O14 0.845927 0.294954 0.412393
O O15 0.606011 0.271946 0.531251
O O16 0.362595 0.000000 0.219095
O O17 0.081378 0.500000 0.570290
O O18 0.457739 0.000000 0.771620
#
# Coordination Sequence:
#
# PCOD8082237 Si02
#       7
#     8   8   8   8   8   8   8
#     4   9  19  36  59  82 108 139 174 215 260 312
#     4  10  19  35  56  79 109 142 178 220 268 318
#     4  11  20  32  53  79 104 138 186 229 265 316
#     4  10  18  31  50  74 106 142 179 226 274 314
#     4  10  22  38  55  78 110 143 175 217 270 320
#     4   9  18  31  49  75 106 140 177 223 270 315
#     4   9  18  35  56  80 109 142 176 218 266 313
#
# _framework density 18.183561000000001
#
# number of rings (size 3 to 8) (size 9 to 14) (size 15 to 20)
#    0.000    2.286    1.429    3.000    0.000    4.571 
#    0.000    1.429    0.000    8.571    0.000    0.000 
#    0.000    0.000    0.000    0.000    0.000    0.000 
#
# Total GULP energy -347248.439777 kJ/mol
# GULP energy per Si atom -12401.729992 kJ/mol
# Density = 1.814217 g / cm^3
# Si number density = 18.183561 Si / 1000 Ang^3
#
#
#
# Elastic Constant Matrix: (Units=GPa)
#
#
# Indices 1 2 3 4 5 6 
#
# 1 109.6248 40.2950 45.1784 0.0028 4.9486 0.0207
# 2 40.2950 82.7791 39.0468 0.0040 6.2509 0.0121
# 3 45.1784 39.0468 93.5593 -0.0026 8.1068 0.0013
# 4 0.0028 0.0040 -0.0026 33.7606 -0.0011 2.1054
# 5 4.9486 6.2509 8.1068 -0.0011 19.5857 0.0012
# 6 0.0207 0.0121 0.0013 2.1054 0.0012 29.8618
#
#
#
# Elastic Compliance Matrix: (Units=1/GPa)
#
#
# Indices 1 2 3 4 5 6 
#
# 1 0.012362 -0.003983 -0.004301 0.000000 -0.000072 -0.000007
# 2 -0.003983 0.016424 -0.004734 -0.000002 -0.002276 -0.000003
# 3 -0.004301 -0.004734 0.015056 0.000002 -0.003634 0.000004
# 4 0.000000 -0.000002 0.000002 0.029751 0.000002 -0.002098
# 5 -0.000072 -0.002276 -0.003634 0.000002 0.053306 -0.000001
# 6 -0.000007 -0.000003 0.000004 -0.002098 -0.000001 0.033636
#
#
# Mechanical properties :
#
#
# Convention : Reuss Voigt Hill
#
# Bulk Modulus (GPa) = 56.16117 59.44486 57.80302
# Shear Modulus (GPa) = 25.97320 27.40448 26.68884
#
# Velocity S-wave (km/s) = 3.78350 3.88635 3.83527
# Velocity P-wave (km/s) = 7.07384 7.27330 7.17426
#
# Compressibility (1/GPa) = 0.01780590
#
# Stress axis : x y z
#
# Youngs Moduli (GPa) = 80.89405 60.88567 66.41998
#
# Poissons Ratio (x) = 0.24253 0.28565
# Poissons Ratio (y) = 0.32224 0.31442
# Poissons Ratio (z) = 0.34790 0.28822
#
# Static dielectric constant tensor:
#      x y z
#    x 3.313250 -0.000010 0.165120 
#    y -0.000010 3.300740 -0.000010 
#    z 0.165120 -0.000010 3.279350 
# 
# 
# High freq. dielectric constant tensor:
#      x y z
#    x 1.691980 0.000000 0.015400 
#    y 0.000000 1.705040 0.000000 
#    z 0.015400 0.000000 1.694530 
# 
# From -- ./inp_files/377629.got.cif
#   From: 2010.06.25/outbox.cif.g09.slc.cpg/sg12_189_cif.got.tgz:377629.got - 2010.06.28 00:19:55.
