data_PCOD8082501
_publ_section_title
;
Structure prediction by ZEFSAII (Michael W. Deem and Ramdas Pophale) SiO2 
 PCOD8082501
Probable space group: C 2/M
;
_chemical_formula_sum "Si O2"
_cell_formula_units_Z 40
_cell_length_a 25.116450
_cell_length_b 8.504138
_cell_length_c 12.094253
_cell_angle_alpha 90.000000
_cell_angle_beta 120.624670
_cell_angle_gamma 90.000000
_cell_volume 2222.951408
_symmetry_space_group_name_H-M "C 2/M"
_symmetry_group_IT_number 12
_symmetry_cell_setting 'monoclinic'
loop_
_space_group_symop_operation_xyz
x,y,z
-x,y,-z
-x,-y,-z
x,-y,z
1/2+x,1/2+y,z
1/2-x,1/2+y,-z
1/2-x,1/2-y,-z
1/2+x,1/2-y,z
loop_
_atom_site_type_symbol
_atom_site_label
_atom_site_fract_x
_atom_site_fract_y
_atom_site_fract_z
Si Si1 0.462595 0.819231 0.607321
Si Si2 0.788689 0.316979 0.141239
Si Si3 0.582026 0.681985 0.664928
Si Si4 0.159828 0.317943 0.415790
Si Si5 0.246905 0.680322 0.317548
O O1 0.524458 0.715042 0.687331
O O2 0.428126 0.784755 0.455312
O O3 0.413573 0.782089 0.653565
O O4 0.482828 0.000000 0.630935
O O5 0.800534 0.500000 0.137135
O O6 0.854212 0.228635 0.210328
O O7 0.750715 0.288799 0.213941
O O8 0.750000 0.250000 0.000000
O O9 0.583105 0.500000 0.633496
O O10 0.173553 0.500000 0.460387
O O11 0.183406 0.280862 0.316564
O O12 0.195262 0.209508 0.540731
O O13 0.249010 0.500000 0.280904
#
# Coordination Sequence:
#
# PCOD8082501 Si02
#       5
#     8   8   8   8   8
#     4  10  18  31  52  78 109 143 173 214 263 313
#     4  12  24  39  56  76 104 141 180 221 265 316
#     4  11  21  33  50  77 107 139 177 219 264 314
#     4   9  18  31  51  78 110 142 172 212 263 314
#     4  10  19  32  51  78 108 139 176 216 261 313
#
# _framework density 17.994097
#
# number of rings (size 3 to 8) (size 9 to 14) (size 15 to 20)
#    0.000    1.600    2.000    6.000    0.000    1.600 
#    0.000    0.000    0.000    1.200    0.000    8.400 
#    0.000    0.000    0.000    0.000    0.000    0.000 
#
# Total GULP energy -248000.488310 kJ/mol
# GULP energy per Si atom -12400.024415 kJ/mol
# Density = 1.795314 g / cm^3
# Si number density = 17.994097 Si / 1000 Ang^3
#
#
#
# Elastic Constant Matrix: (Units=GPa)
#
#
# Indices 1 2 3 4 5 6 
#
# 1 152.9237 25.6342 43.1339 0.0000 7.2359 0.0000
# 2 25.6342 63.8811 12.5203 0.0000 -1.1664 0.0000
# 3 43.1339 12.5203 72.3118 0.0000 6.6796 0.0000
# 4 0.0000 0.0000 0.0000 25.3660 0.0000 1.4222
# 5 7.2359 -1.1664 6.6796 0.0000 20.9404 0.0000
# 6 0.0000 0.0000 0.0000 1.4222 0.0000 29.0790
#
#
#
# Elastic Compliance Matrix: (Units=1/GPa)
#
#
# Indices 1 2 3 4 5 6 
#
# 1 0.008259 -0.002492 -0.004347 0.000000 -0.001606 0.000000
# 2 -0.002492 0.017026 -0.001678 0.000000 0.002345 0.000000
# 3 -0.004347 -0.001678 0.017086 0.000000 -0.004042 0.000000
# 4 0.000000 0.000000 0.000000 0.039531 0.000000 -0.001933
# 5 -0.001606 0.002345 -0.004042 0.000000 0.049729 0.000000
# 6 0.000000 0.000000 0.000000 -0.001933 0.000000 0.034484
#
#
# Mechanical properties :
#
#
# Convention : Reuss Voigt Hill
#
# Bulk Modulus (GPa) = 39.46750 50.18814 44.82782
# Shear Modulus (GPa) = 26.09696 28.93228 27.51462
#
# Velocity S-wave (km/s) = 3.81242 4.01418 3.91460
# Velocity P-wave (km/s) = 6.43122 7.03114 6.73786
#
# Compressibility (1/GPa) = 0.02533730
#
# Stress axis : x y z
#
# Youngs Moduli (GPa) = 121.08175 58.73498 58.52853
#
# Poissons Ratio (x) = 0.14634 0.25440
# Poissons Ratio (y) = 0.30168 0.09823
# Poissons Ratio (z) = 0.52630 0.09857
#
# Static dielectric constant tensor:
#      x y z
#    x 3.880650 0.000000 0.011350 
#    y 0.000000 3.430270 0.000000 
#    z 0.011350 0.000000 2.863250 
# 
# 
# High freq. dielectric constant tensor:
#      x y z
#    x 1.718400 0.000000 0.005830 
#    y 0.000000 1.710500 0.000000 
#    z 0.005830 0.000000 1.637000 
# 
# From -- ./inp_files/179417.got.cif
#   From: 2010.06.25/outbox.cif.g09.slc.cpg/sg12_90_cif.got.tgz:179417.got - 2010.06.28 00:19:55.
