data_PCOD8082561
_publ_section_title
;
Structure prediction by ZEFSAII (Michael W. Deem and Ramdas Pophale) SiO2 
 PCOD8082561
Probable space group: C 2/M
;
_chemical_formula_sum "Si O2"
_cell_formula_units_Z 56
_cell_length_a 19.379126
_cell_length_b 8.654875
_cell_length_c 24.754839
_cell_angle_alpha 90.000000
_cell_angle_beta 43.159976
_cell_angle_gamma 90.000000
_cell_volume 2840.109873
_symmetry_space_group_name_H-M "C 2/M"
_symmetry_group_IT_number 12
_symmetry_cell_setting 'monoclinic'
loop_
_space_group_symop_operation_xyz
x,y,z
-x,y,-z
-x,-y,-z
x,-y,z
1/2+x,1/2+y,z
1/2-x,1/2+y,-z
1/2-x,1/2-y,-z
1/2+x,1/2-y,z
loop_
_atom_site_type_symbol
_atom_site_label
_atom_site_fract_x
_atom_site_fract_y
_atom_site_fract_z
Si Si1 0.292254 0.683079 0.768977
Si Si2 0.745588 0.322133 0.687412
Si Si3 0.418105 0.178584 0.508944
Si Si4 0.064334 0.316839 0.914136
Si Si5 0.360427 0.816454 0.428386
Si Si6 0.534012 0.820158 0.812683
Si Si7 0.524690 0.681524 0.260122
O O1 0.297089 0.500000 0.757084
O O2 0.312678 0.769434 0.700623
O O3 0.181028 0.735050 0.853061
O O4 0.376207 0.738813 0.764131
O O5 0.711749 0.500000 0.714032
O O6 0.807875 0.299498 0.597172
O O7 0.651001 0.210787 0.734043
O O8 0.500000 0.265158 0.500000
O O9 0.421514 0.243458 0.446311
O O10 0.447576 0.000000 0.488716
O O11 0.059237 0.500000 0.919408
O O12 0.014679 0.262378 0.885420
O O13 0.000000 0.243227 0.000000
O O14 0.250000 0.750000 0.500000
O O15 0.421115 0.753923 0.342185
O O16 0.352677 0.000000 0.429098
O O17 0.464402 0.731021 0.808957
O O18 0.510903 0.000000 0.819664
O O19 0.514252 0.500000 0.269738
#
# Coordination Sequence:
#
# PCOD8082561 Si02
#       7
#     8   8   8   8   8   8   8
#     4   9  19  34  53  78 107 141 178 218 266 317
#     4  10  18  31  53  76 100 133 173 217 266 318
#     4   9  18  31  47  69  95 125 165 212 258 302
#     4   8  15  32  58  83 105 133 172 215 261 319
#     4  11  22  36  54  75 103 140 181 225 274 322
#     4  10  20  34  54  78 103 135 175 215 261 319
#     4  11  22  36  52  74 108 144 181 224 268 314
#
# _framework density 19.717548000000001
#
# number of rings (size 3 to 8) (size 9 to 14) (size 15 to 20)
#    0.000    2.286    0.000    4.286    0.000    3.429 
#    0.000    2.857    0.000   15.857    0.000    0.000 
#    0.000    0.000    0.000    0.000    0.000    0.000 
#
# Total GULP energy -347068.519836 kJ/mol
# GULP energy per Si atom -12395.304280 kJ/mol
# Density = 1.967267 g / cm^3
# Si number density = 19.717548 Si / 1000 Ang^3
#
#
#
# Elastic Constant Matrix: (Units=GPa)
#
#
# Indices 1 2 3 4 5 6 
#
# 1 105.8521 15.5337 34.4648 -0.0001 18.4782 -0.0003
# 2 15.5337 44.7520 18.8746 -0.0003 4.1180 -0.0009
# 3 34.4648 18.8746 79.7475 0.0000 17.6622 0.0000
# 4 -0.0001 -0.0003 0.0000 18.1661 0.0000 3.6832
# 5 18.4782 4.1180 17.6622 0.0000 28.8168 0.0000
# 6 -0.0003 -0.0009 0.0000 3.6832 0.0000 27.6152
#
#
#
# Elastic Compliance Matrix: (Units=1/GPa)
#
#
# Indices 1 2 3 4 5 6 
#
# 1 0.011782 -0.002165 -0.003442 0.000000 -0.005136 0.000000
# 2 -0.002165 0.025221 -0.005256 0.000000 0.001006 0.000001
# 3 -0.003442 -0.005256 0.016912 0.000000 -0.007407 0.000000
# 4 0.000000 0.000000 0.000000 0.056577 0.000000 -0.007546
# 5 -0.005136 0.001006 -0.007407 0.000000 0.042392 0.000000
# 6 0.000000 0.000001 0.000000 -0.007546 0.000000 0.037218
#
#
# Mechanical properties :
#
#
# Convention : Reuss Voigt Hill
#
# Bulk Modulus (GPa) = 31.06763 40.89974 35.98369
# Shear Modulus (GPa) = 22.46594 25.68486 24.07540
#
# Velocity S-wave (km/s) = 3.37914 3.61313 3.49809
# Velocity P-wave (km/s) = 5.56914 6.18014 5.88258
#
# Compressibility (1/GPa) = 0.03218784
#
# Stress axis : x y z
#
# Youngs Moduli (GPa) = 84.87410 39.64900 59.13077
#
# Poissons Ratio (x) = 0.08586 0.20352
# Poissons Ratio (y) = 0.18378 0.31081
# Poissons Ratio (z) = 0.29213 0.20841
#
# Static dielectric constant tensor:
#      x y z
#    x 4.049480 0.000000 0.260020 
#    y 0.000000 3.324440 0.000000 
#    z 0.260020 0.000000 3.674410 
# 
# 
# High freq. dielectric constant tensor:
#      x y z
#    x 1.781450 0.000000 0.015360 
#    y 0.000000 1.744530 0.000000 
#    z 0.015360 0.000000 1.752220 
# 
# From -- ./inp_files/342260.got.cif
#   From: 2010.06.25/outbox.cif.g09.slc.cpg/sg12_172_cif.got.tgz:342260.got - 2010.06.28 00:19:55.
