data_PCOD8082512
_publ_section_title
;
Structure prediction by ZEFSAII (Michael W. Deem and Ramdas Pophale) SiO2 
 PCOD8082512
Probable space group: C 2/M
;
_chemical_formula_sum "Si O2"
_cell_formula_units_Z 48
_cell_length_a 24.667385
_cell_length_b 9.027556
_cell_length_c 11.640009
_cell_angle_alpha 90.000000
_cell_angle_beta 110.666345
_cell_angle_gamma 90.000000
_cell_volume 2425.273583
_symmetry_space_group_name_H-M "C 2/M"
_symmetry_group_IT_number 12
_symmetry_cell_setting 'monoclinic'
loop_
_space_group_symop_operation_xyz
x,y,z
-x,y,-z
-x,-y,-z
x,-y,z
1/2+x,1/2+y,z
1/2-x,1/2+y,-z
1/2-x,1/2-y,-z
1/2+x,1/2-y,z
loop_
_atom_site_type_symbol
_atom_site_label
_atom_site_fract_x
_atom_site_fract_y
_atom_site_fract_z
Si Si1 0.860923 0.176314 0.398388
Si Si2 0.375905 0.825119 0.639437
Si Si3 0.729793 0.824993 0.294923
Si Si4 0.301658 0.827403 0.975783
Si Si5 0.986392 0.325473 0.863644
Si Si6 0.908797 0.325952 0.210441
O O1 0.891779 0.237093 0.535884
O O2 0.794881 0.240080 0.349134
O O3 0.896378 0.236570 0.316831
O O4 0.862709 0.000000 0.397513
O O5 0.311842 0.771937 0.632581
O O6 0.422025 0.783402 0.773316
O O7 0.377962 0.000000 0.615895
O O8 0.734363 0.000000 0.301697
O O9 0.697972 0.772163 0.155100
O O10 0.361745 0.785028 0.079105
O O11 0.289279 0.000000 0.973042
O O12 0.250000 0.750000 0.000000
O O13 0.994519 0.500000 0.880843
O O14 0.030973 0.269751 0.799109
O O15 0.000000 0.255218 0.000000
O O16 0.908969 0.500000 0.240107
#
# Coordination Sequence:
#
# PCOD8082512 Si02
#       6
#     8   8   8   8   8   8
#     4  11  22  36  53  77 113 148 180 219 267 322
#     4  10  20  36  58  80 105 140 183 226 267 316
#     4   9  18  33  54  79 108 142 177 220 270 317
#     4  10  18  31  52  79 109 137 171 214 264 318
#     4   9  18  35  60  86 107 133 176 228 274 315
#     4  10  20  34  56  84 110 139 179 224 266 317
#
# _framework density 19.791581999999998
#
# number of rings (size 3 to 8) (size 9 to 14) (size 15 to 20)
#    0.000    2.167    1.667    2.000    0.000    4.667 
#    0.000    5.833    0.000    4.000    0.000    0.000 
#    0.000    0.000    0.000    0.000    0.000    0.000 
#
# Total GULP energy -297544.208379 kJ/mol
# GULP energy per Si atom -12397.675349 kJ/mol
# Density = 1.974654 g / cm^3
# Si number density = 19.791582 Si / 1000 Ang^3
#
#
#
# Elastic Constant Matrix: (Units=GPa)
#
#
# Indices 1 2 3 4 5 6 
#
# 1 126.2588 25.3077 44.9700 0.0000 -13.5025 0.0000
# 2 25.3077 31.5780 32.7727 0.0000 -5.4747 0.0000
# 3 44.9700 32.7727 129.1660 0.0000 -21.4058 0.0000
# 4 0.0000 0.0000 0.0000 20.4341 0.0000 -2.0095
# 5 -13.5025 -5.4747 -21.4058 0.0000 29.6405 0.0000
# 6 0.0000 0.0000 0.0000 -2.0095 0.0000 23.2780
#
#
#
# Elastic Compliance Matrix: (Units=1/GPa)
#
#
# Indices 1 2 3 4 5 6 
#
# 1 0.009910 -0.005916 -0.001570 0.000000 0.002288 0.000000
# 2 -0.005916 0.046519 -0.009958 0.000000 -0.001294 0.000000
# 3 -0.001570 -0.009958 0.011805 0.000000 0.005971 0.000000
# 4 0.000000 0.000000 0.000000 0.049357 0.000000 0.004261
# 5 0.002288 -0.001294 0.005971 0.000000 0.038853 0.000000
# 6 0.000000 0.000000 0.000000 0.004261 0.000000 0.043327
#
#
# Mechanical properties :
#
#
# Convention : Reuss Voigt Hill
#
# Bulk Modulus (GPa) = 29.98875 54.78928 42.38901
# Shear Modulus (GPa) = 20.34395 26.93403 23.63899
#
# Velocity S-wave (km/s) = 3.20958 3.69302 3.45975
# Velocity P-wave (km/s) = 5.37777 6.77700 6.11752
#
# Compressibility (1/GPa) = 0.03334584
#
# Stress axis : x y z
#
# Youngs Moduli (GPa) = 100.90874 21.49647 84.71267
#
# Poissons Ratio (x) = 0.12718 0.13300
# Poissons Ratio (y) = 0.59699 0.84356
# Poissons Ratio (z) = 0.15842 0.21406
#
# Static dielectric constant tensor:
#      x y z
#    x 3.720350 0.000000 -0.025190 
#    y 0.000000 3.157510 0.000000 
#    z -0.025190 0.000000 3.707650 
# 
# 
# High freq. dielectric constant tensor:
#      x y z
#    x 1.779530 0.000000 -0.005010 
#    y 0.000000 1.724250 0.000000 
#    z -0.005010 0.000000 1.785190 
# 
# From -- ./inp_files/173033.got.cif
#   From: 2010.06.25/outbox.cif.g09.slc.cpg/sg12_87_cif.got.tgz:173033.got - 2010.06.28 00:19:55.
