data_PCOD8082924
_publ_section_title
;
Structure prediction by ZEFSAII (Michael W. Deem and Ramdas Pophale) SiO2 
 PCOD8082924
Probable space group: C 2/M
;
_chemical_formula_sum "Si O2"
_cell_formula_units_Z 56
_cell_length_a 29.176298
_cell_length_b 8.649907
_cell_length_c 17.408571
_cell_angle_alpha 90.000000
_cell_angle_beta 130.220664
_cell_angle_gamma 90.000000
_cell_volume 3354.669436
_symmetry_space_group_name_H-M "C 2/M"
_symmetry_group_IT_number 12
_symmetry_cell_setting 'monoclinic'
loop_
_space_group_symop_operation_xyz
x,y,z
-x,y,-z
-x,-y,-z
x,-y,z
1/2+x,1/2+y,z
1/2-x,1/2+y,-z
1/2-x,1/2-y,-z
1/2+x,1/2-y,z
loop_
_atom_site_type_symbol
_atom_site_label
_atom_site_fract_x
_atom_site_fract_y
_atom_site_fract_z
Si Si1 0.840741 0.318543 0.087107
Si Si2 0.082665 0.679124 0.226650
Si Si3 0.768202 0.182185 0.134627
Si Si4 0.708230 0.318144 0.389874
Si Si5 0.452908 0.178256 0.114379
Si Si6 0.724550 0.819576 0.246588
Si Si7 0.599577 0.319234 0.087731
O O1 0.835199 0.500000 0.089510
O O2 0.827355 0.246807 0.156422
O O3 0.907957 0.269546 0.133904
O O4 0.792080 0.253836 0.972842
O O5 0.096523 0.500000 0.224950
O O6 0.141194 0.752075 0.329670
O O7 0.067189 0.766597 0.130783
O O8 0.022916 0.698149 0.215113
O O9 0.769559 0.230881 0.226251
O O10 0.767891 0.000000 0.128360
O O11 0.705501 0.500000 0.395171
O O12 0.750000 0.250000 0.500000
O O13 0.736190 0.275121 0.337135
O O14 0.439825 0.000000 0.077951
O O15 0.442903 0.285585 0.029863
O O16 0.659036 0.783115 0.142707
O O17 0.730501 0.000000 0.272252
O O18 0.615508 0.500000 0.109945
#
# Coordination Sequence:
#
# PCOD8082924 Si02
#       7
#     8   8   8   8   8   8   8
#     4   9  17  29  44  64  94 130 168 203 233 272
#     4  10  20  33  50  68  92 126 162 196 238 287
#     4   9  17  29  45  66  94 128 165 202 238 277
#     4  11  22  37  55  76  99 121 154 196 244 291
#     4  10  19  32  46  64  93 133 168 196 234 282
#     4  10  18  32  51  70  97 129 163 199 241 287
#     4  11  20  28  42  66  96 128 164 201 236 277
#
# _framework density 16.693148999999998
#
# number of rings (size 3 to 8) (size 9 to 14) (size 15 to 20)
#    0.000    2.000    1.429    5.571    0.000    4.571 
#    0.000    0.000    0.000    0.000    0.000    1.000 
#    0.000    8.000    0.000    0.000    0.000    0.000 
#
# Total GULP energy -347062.278038 kJ/mol
# GULP energy per Si atom -12395.081359 kJ/mol
# Density = 1.665515 g / cm^3
# Si number density = 16.693149 Si / 1000 Ang^3
#
#
#
# Elastic Constant Matrix: (Units=GPa)
#
#
# Indices 1 2 3 4 5 6 
#
# 1 144.0763 31.5652 58.1634 0.0000 4.5913 0.0000
# 2 31.5652 54.2911 28.8713 0.0000 -0.6034 0.0000
# 3 58.1634 28.8713 83.2020 0.0000 -1.7209 0.0000
# 4 0.0000 0.0000 0.0000 22.0397 0.0000 -2.5237
# 5 4.5913 -0.6034 -1.7209 0.0000 11.1021 0.0000
# 6 0.0000 0.0000 0.0000 -2.5237 0.0000 24.9090
#
#
#
# Elastic Compliance Matrix: (Units=1/GPa)
#
#
# Indices 1 2 3 4 5 6 
#
# 1 0.010261 -0.002639 -0.006369 0.000000 -0.005374 0.000000
# 2 -0.002639 0.023266 -0.006200 0.000000 0.001395 0.000000
# 3 -0.006369 -0.006200 0.018730 0.000000 0.005200 0.000000
# 4 0.000000 0.000000 0.000000 0.045905 0.000000 0.004651
# 5 -0.005374 0.001395 0.005200 0.000000 0.093178 0.000000
# 6 0.000000 0.000000 0.000000 0.004651 0.000000 0.040617
#
#
# Mechanical properties :
#
#
# Convention : Reuss Voigt Hill
#
# Bulk Modulus (GPa) = 45.78241 57.64102 51.71172
# Shear Modulus (GPa) = 18.54238 22.47480 20.50859
#
# Velocity S-wave (km/s) = 3.33645 3.67324 3.50889
# Velocity P-wave (km/s) = 6.50599 7.25224 6.88923
#
# Compressibility (1/GPa) = 0.02184245
#
# Stress axis : x y z
#
# Youngs Moduli (GPa) = 97.45466 42.98129 53.39048
#
# Poissons Ratio (x) = 0.11342 0.34003
# Poissons Ratio (y) = 0.25717 0.33101
# Poissons Ratio (z) = 0.62066 0.26647
#
# Static dielectric constant tensor:
#      x y z
#    x 3.376060 0.000000 -0.034990 
#    y 0.000000 3.139870 0.000000 
#    z -0.034990 0.000000 2.790380 
# 
# 
# High freq. dielectric constant tensor:
#      x y z
#    x 1.647690 0.000000 0.000350 
#    y 0.000000 1.650560 0.000000 
#    z 0.000350 0.000000 1.590750 
# 
# From -- ./inp_files/287919.got.cif
#   From: 2010.06.25/outbox.cif.g09.slc.cpg/sg12_144_cif.got.tgz:287919.got - 2010.06.28 00:19:55.
