data_PCOD8082028
_publ_section_title
;
Structure prediction by ZEFSAII (Michael W. Deem and Ramdas Pophale) SiO2 
 PCOD8082028
Probable space group: C 2/M
;
_chemical_formula_sum "Si O2"
_cell_formula_units_Z 48
_cell_length_a 31.580232
_cell_length_b 11.952596
_cell_length_c 13.937861
_cell_angle_alpha 90.000000
_cell_angle_beta 33.549116
_cell_angle_gamma 90.000000
_cell_volume 2907.536214
_symmetry_space_group_name_H-M "C 2/M"
_symmetry_group_IT_number 12
_symmetry_cell_setting 'monoclinic'
loop_
_space_group_symop_operation_xyz
x,y,z
-x,y,-z
-x,-y,-z
x,-y,z
1/2+x,1/2+y,z
1/2-x,1/2+y,-z
1/2-x,1/2-y,-z
1/2+x,1/2-y,z
loop_
_atom_site_type_symbol
_atom_site_label
_atom_site_fract_x
_atom_site_fract_y
_atom_site_fract_z
Si Si1 0.533494 0.198501 0.840792
Si Si2 0.094412 0.370385 0.046622
Si Si3 0.153864 0.130361 0.673817
Si Si4 0.505287 0.869507 0.595341
Si Si5 0.136605 0.625553 0.486370
Si Si6 0.233142 0.269244 0.687201
O O1 0.572489 0.317204 0.794787
O O2 0.597988 0.124169 0.665749
O O3 0.500000 0.139360 0.000000
O O4 0.460922 0.212594 0.908213
O O5 0.076178 0.500000 0.055249
O O6 0.181516 0.342032 0.857080
O O7 0.074562 0.349369 0.196508
O O8 0.181729 0.188057 0.719145
O O9 0.217957 0.146820 0.470897
O O10 0.141461 0.000000 0.716257
O O11 0.500000 0.812148 0.500000
O O12 0.577313 0.821911 0.520701
O O13 0.521316 0.000000 0.552374
O O14 0.159943 0.500000 0.415430
O O15 0.212848 0.698709 0.344115
#
# Coordination Sequence:
#
# PCOD8082028 Si02
#       6
#     8   8   8   8   8   8
#     4  10  18  31  43  67  89 119 162 191 216 268
#     4  10  19  31  48  69  92 119 153 195 230 262
#     4  10  20  32  44  60  94 134 158 186 224 259
#     4   8  15  30  51  71  88 111 146 189 236 275
#     4   9  18  30  47  67  93 122 148 189 232 268
#     4  10  19  32  43  67  94 122 162 187 216 277
#
# _framework density 16.508823
#
# number of rings (size 3 to 8) (size 9 to 14) (size 15 to 20)
#    0.000    2.500    1.667    2.500    0.000    1.667 
#    0.000    0.833    0.000    0.000    0.000    0.000 
#    0.000   74.667    0.000    0.000    0.000    0.000 
#
# Total GULP energy -297407.598619 kJ/mol
# GULP energy per Si atom -12391.983276 kJ/mol
# Density = 1.647125 g / cm^3
# Si number density = 16.508823 Si / 1000 Ang^3
#
#
#
# Elastic Constant Matrix: (Units=GPa)
#
#
# Indices 1 2 3 4 5 6 
#
# 1 95.1270 30.6641 53.9667 0.0000 10.9567 0.0000
# 2 30.6641 56.2569 25.7550 0.0000 -3.7352 0.0000
# 3 53.9667 25.7550 104.8354 0.0000 2.7186 0.0000
# 4 0.0000 0.0000 0.0000 20.0889 0.0000 -5.9310
# 5 10.9567 -3.7352 2.7186 0.0000 23.9650 0.0000
# 6 0.0000 0.0000 0.0000 -5.9310 0.0000 15.4669
#
#
#
# Elastic Compliance Matrix: (Units=1/GPa)
#
#
# Indices 1 2 3 4 5 6 
#
# 1 0.017843 -0.006963 -0.007256 0.000000 -0.008420 0.000000
# 2 -0.006963 0.023076 -0.002267 0.000000 0.007037 0.000000
# 3 -0.007256 -0.002267 0.013795 0.000000 0.001399 0.000000
# 4 0.000000 0.000000 0.000000 0.056134 0.000000 0.021525
# 5 -0.008420 0.007037 0.001399 0.000000 0.046515 0.000000
# 6 0.000000 0.000000 0.000000 0.021525 0.000000 0.072909
#
#
# Mechanical properties :
#
#
# Convention : Reuss Voigt Hill
#
# Bulk Modulus (GPa) = 45.99568 52.99899 49.49734
# Shear Modulus (GPa) = 18.48488 21.62640 20.05564
#
# Velocity S-wave (km/s) = 3.34982 3.62331 3.48924
# Velocity P-wave (km/s) = 6.54855 7.04823 6.80298
#
# Compressibility (1/GPa) = 0.02174117
#
# Stress axis : x y z
#
# Youngs Moduli (GPa) = 56.04406 43.33491 72.49085
#
# Poissons Ratio (x) = 0.30173 0.52601
# Poissons Ratio (y) = 0.39023 0.16436
# Poissons Ratio (z) = 0.40667 0.09825
#
# Static dielectric constant tensor:
#      x y z
#    x 3.229660 0.000000 0.026720 
#    y 0.000000 2.777030 0.000000 
#    z 0.026720 0.000000 3.230170 
# 
# 
# High freq. dielectric constant tensor:
#      x y z
#    x 1.619340 0.000000 -0.004450 
#    y 0.000000 1.599260 0.000000 
#    z -0.004450 0.000000 1.641620 
# 
# From -- ./inp_files/153572.got.cif
#   From: 2010.06.25/outbox.cif.g09.slc.cpg/sg12_77_cif.got.tgz:153572.got - 2010.06.28 00:19:55.
