data_PCOD8082283
_publ_section_title
;
Structure prediction by ZEFSAII (Michael W. Deem and Ramdas Pophale) SiO2 
 PCOD8082283
Probable space group: C 2/M
;
_chemical_formula_sum "Si O2"
_cell_formula_units_Z 28
_cell_length_a 14.732181
_cell_length_b 16.955746
_cell_length_c 9.124579
_cell_angle_alpha 90.000000
_cell_angle_beta 141.365065
_cell_angle_gamma 90.000000
_cell_volume 1423.079203
_symmetry_space_group_name_H-M "C 2/M"
_symmetry_group_IT_number 12
_symmetry_cell_setting 'monoclinic'
loop_
_space_group_symop_operation_xyz
x,y,z
-x,y,-z
-x,-y,-z
x,-y,z
1/2+x,1/2+y,z
1/2-x,1/2+y,-z
1/2-x,1/2-y,-z
1/2+x,1/2-y,z
loop_
_atom_site_type_symbol
_atom_site_label
_atom_site_fract_x
_atom_site_fract_y
_atom_site_fract_z
Si Si1 0.705166 0.091745 0.465497
Si Si2 0.499972 0.408357 0.333553
Si Si3 0.139042 0.830967 0.094235
Si Si4 0.500000 0.820555 0.000000
O O1 0.841780 0.109362 0.533157
O O2 0.720126 0.136741 0.641058
O O3 0.561896 0.124810 0.206407
O O4 0.683463 0.000000 0.469393
O O5 0.500000 0.378234 0.500000
O O6 0.459371 0.500000 0.273128
O O7 0.372033 0.360169 0.087795
O O8 0.126886 0.735690 0.091597
O O9 0.000000 0.871441 0.000000
#
# Coordination Sequence:
#
# PCOD8082283 Si02
#       4
#     8   8   8   4
#     4  10  18  31  51  71  93 124 158 190 231 279
#     4   9  17  30  49  72  95 122 158 195 229 273
#     4   8  17  29  50  67  93 120 155 193 230 267
#     4  10  19  30  49  72 100 118 152 198 237 270
#
# _framework density 19.675643000000001
#
# number of rings (size 3 to 8) (size 9 to 14) (size 15 to 20)
#    0.857    2.000    0.000    2.143    0.000    3.429 
#    0.000    1.429    0.000    0.000    0.000    8.000 
#    0.000    0.000    0.000    0.000    0.000    0.000 
#
# Total GULP energy -173499.518060 kJ/mol
# GULP energy per Si atom -12392.822719 kJ/mol
# Density = 1.963086 g / cm^3
# Si number density = 19.675643 Si / 1000 Ang^3
#
#
#
# Elastic Constant Matrix: (Units=GPa)
#
#
# Indices 1 2 3 4 5 6 
#
# 1 21.7592 11.2022 17.8504 0.0000 -15.6506 0.0000
# 2 11.2022 79.4583 53.0554 0.0000 3.8495 0.0000
# 3 17.8504 53.0554 175.8108 0.0000 -17.1577 0.0000
# 4 0.0000 0.0000 0.0000 47.3662 0.0000 0.6504
# 5 -15.6506 3.8495 -17.1577 0.0000 24.6573 0.0000
# 6 0.0000 0.0000 0.0000 0.6504 0.0000 4.2003
#
#
#
# Elastic Compliance Matrix: (Units=1/GPa)
#
#
# Indices 1 2 3 4 5 6 
#
# 1 0.106312 -0.020017 0.002293 0.000000 0.072199 0.000000
# 2 -0.020017 0.020463 -0.006109 0.000000 -0.020151 0.000000
# 3 0.002293 -0.006109 0.008083 0.000000 0.008033 0.000000
# 4 0.000000 0.000000 0.000000 0.021157 0.000000 -0.003276
# 5 0.072199 -0.020151 0.008033 0.000000 0.095119 0.000000
# 6 0.000000 0.000000 0.000000 -0.003276 0.000000 0.238588
#
#
# Mechanical properties :
#
#
# Convention : Reuss Voigt Hill
#
# Bulk Modulus (GPa) = 11.46911 49.02714 30.24812
# Shear Modulus (GPa) = 8.82687 28.23944 18.53315
#
# Velocity S-wave (km/s) = 2.12036 3.79258 3.07242
# Velocity P-wave (km/s) = 3.44039 6.64454 5.29085
#
# Compressibility (1/GPa) = 0.08719075
#
# Stress axis : x y z
#
# Youngs Moduli (GPa) = 9.40625 48.86915 123.71913
#
# Poissons Ratio (x) = 0.97820 -0.28363
# Poissons Ratio (y) = 0.18828 0.75585
# Poissons Ratio (z) = -0.02156 0.29856
#
# Static dielectric constant tensor:
#      x y z
#    x 2.956700 0.000000 -0.256670 
#    y 0.000000 3.402780 0.000000 
#    z -0.256670 0.000000 3.761280 
# 
# 
# High freq. dielectric constant tensor:
#      x y z
#    x 1.690420 0.000000 -0.021970 
#    y 0.000000 1.766100 0.000000 
#    z -0.021970 0.000000 1.785610 
# 
# From -- ./inp_files/44851.got.cif
#   From: 2010.06.25/outbox.cif.g09.slc.cpg/sg12_23_cif.got.tgz:44851.got - 2010.06.28 00:19:55.
