data_PCOD8082271
_publ_section_title
;
Structure prediction by ZEFSAII (Michael W. Deem and Ramdas Pophale) SiO2 
 PCOD8082271
Probable space group: C 2/M
;
_chemical_formula_sum "Si O2"
_cell_formula_units_Z 64
_cell_length_a 20.558168
_cell_length_b 9.599265
_cell_length_c 19.934829
_cell_angle_alpha 90.000000
_cell_angle_beta 76.042269
_cell_angle_gamma 90.000000
_cell_volume 3817.849308
_symmetry_space_group_name_H-M "C 2/M"
_symmetry_group_IT_number 12
_symmetry_cell_setting 'monoclinic'
loop_
_space_group_symop_operation_xyz
x,y,z
-x,y,-z
-x,-y,-z
x,-y,z
1/2+x,1/2+y,z
1/2-x,1/2+y,-z
1/2-x,1/2-y,-z
1/2+x,1/2-y,z
loop_
_atom_site_type_symbol
_atom_site_label
_atom_site_fract_x
_atom_site_fract_y
_atom_site_fract_z
Si Si1 0.342603 0.346236 0.441901
Si Si2 0.311386 0.155207 0.562754
Si Si3 0.763936 0.336387 0.711189
Si Si4 0.649261 0.163118 0.923693
Si Si5 0.220412 0.335520 0.143007
Si Si6 0.457035 0.163408 0.165267
Si Si7 0.400196 0.835477 0.919986
Si Si8 0.882333 0.164360 0.287134
O O1 0.364775 0.500000 0.458966
O O2 0.357139 0.245710 0.501228
O O3 0.264848 0.346387 0.442614
O O4 0.385024 0.300940 0.365861
O O5 0.310884 0.220925 0.638649
O O6 0.341890 0.000000 0.554353
O O7 0.758732 0.500000 0.699183
O O8 0.795266 0.299175 0.775343
O O9 0.688042 0.279269 0.725837
O O10 0.715690 0.252161 0.897976
O O11 0.597849 0.195720 0.877390
O O12 0.668128 0.000000 0.921914
O O13 0.615416 0.214984 0.001042
O O14 0.234244 0.500000 0.130539
O O15 0.157120 0.282475 0.116402
O O16 0.527952 0.222115 0.121123
O O17 0.440635 0.248653 0.236657
O O18 0.460035 0.000000 0.181780
O O19 0.403476 0.000000 0.917890
O O20 0.892146 0.000000 0.271407
#
# Coordination Sequence:
#
# PCOD8082271 Si02
#       8
#     8   8   8   8   8   8   8   8
#     4   8  14  23  36  57  86 116 141 174 219 263
#     4   8  13  22  36  56  84 114 141 173 215 263
#     4   8  14  25  42  63  87 115 146 182 223 264
#     4  10  19  32  49  68  92 119 149 190 234 271
#     4  10  18  31  51  69  89 120 155 188 223 271
#     4  10  19  31  47  67  91 121 155 188 225 270
#     4   9  19  33  48  67  91 121 154 187 228 273
#     4   9  16  28  44  63  90 119 149 184 224 268
#
# _framework density 16.763365
#
# number of rings (size 3 to 8) (size 9 to 14) (size 15 to 20)
#    0.000    3.000    1.250    2.250    0.000    2.000 
#    0.000    3.750    0.000    1.500    0.000    0.875 
#    0.000    7.000    0.000    0.000    0.000    0.000 
#
# Total GULP energy -396624.439675 kJ/mol
# GULP energy per Si atom -12394.513740 kJ/mol
# Density = 1.672521 g / cm^3
# Si number density = 16.763365 Si / 1000 Ang^3
#
#
#
# Elastic Constant Matrix: (Units=GPa)
#
#
# Indices 1 2 3 4 5 6 
#
# 1 59.3271 25.0698 43.7727 0.0000 -10.3137 0.0000
# 2 25.0698 49.1158 57.7798 0.0000 -4.6258 0.0000
# 3 43.7727 57.7798 163.8583 0.0000 -5.5233 0.0000
# 4 0.0000 0.0000 0.0000 28.7761 0.0000 -4.1192
# 5 -10.3137 -4.6258 -5.5233 0.0000 7.5277 0.0000
# 6 0.0000 0.0000 0.0000 -4.1192 0.0000 14.4981
#
#
#
# Elastic Compliance Matrix: (Units=1/GPa)
#
#
# Indices 1 2 3 4 5 6 
#
# 1 0.028158 -0.006501 -0.004167 0.000000 0.031527 0.000000
# 2 -0.006501 0.037518 -0.011295 0.000000 0.005860 0.000000
# 3 -0.004167 -0.011295 0.011046 0.000000 -0.004546 0.000000
# 4 0.000000 0.000000 0.000000 0.036224 0.000000 0.010292
# 5 0.031527 0.005860 -0.004546 0.000000 0.176305 0.000000
# 6 0.000000 0.000000 0.000000 0.010292 0.000000 0.071898
#
#
# Mechanical properties :
#
#
# Convention : Reuss Voigt Hill
#
# Bulk Modulus (GPa) = 30.49250 58.39397 44.44323
# Shear Modulus (GPa) = 12.01896 19.87231 15.94563
#
# Velocity S-wave (km/s) = 2.68055 3.44679 3.08753
# Velocity P-wave (km/s) = 5.27351 7.12393 6.26739
#
# Compressibility (1/GPa) = 0.03279495
#
# Stress axis : x y z
#
# Youngs Moduli (GPa) = 35.51348 26.65367 90.53265
#
# Poissons Ratio (x) = 0.17329 0.37724
# Poissons Ratio (y) = 0.23089 1.02260
# Poissons Ratio (z) = 0.14798 0.30106
#
# Static dielectric constant tensor:
#      x y z
#    x 2.891370 0.000000 0.089200 
#    y 0.000000 2.982730 0.000000 
#    z 0.089200 0.000000 3.520060 
# 
# 
# High freq. dielectric constant tensor:
#      x y z
#    x 1.602300 0.000000 0.006040 
#    y 0.000000 1.619510 0.000000 
#    z 0.006040 0.000000 1.666080 
# 
# From -- ./inp_files/282845.got.cif
#   From: 2010.06.25/outbox.cif.g09.slc.cpg/sg12_142_cif.got.tgz:282845.got - 2010.06.28 00:19:55.
