data_PCOD8082433
_publ_section_title
;
Structure prediction by ZEFSAII (Michael W. Deem and Ramdas Pophale) SiO2 
 PCOD8082433
Probable space group: C 2/M
;
_chemical_formula_sum "Si O2"
_cell_formula_units_Z 64
_cell_length_a 28.771068
_cell_length_b 8.790897
_cell_length_c 14.412378
_cell_angle_alpha 90.000000
_cell_angle_beta 93.155990
_cell_angle_gamma 90.000000
_cell_volume 3639.700474
_symmetry_space_group_name_H-M "C 2/M"
_symmetry_group_IT_number 12
_symmetry_cell_setting 'monoclinic'
loop_
_space_group_symop_operation_xyz
x,y,z
-x,y,-z
-x,-y,-z
x,-y,z
1/2+x,1/2+y,z
1/2-x,1/2+y,-z
1/2-x,1/2-y,-z
1/2+x,1/2-y,z
loop_
_atom_site_type_symbol
_atom_site_label
_atom_site_fract_x
_atom_site_fract_y
_atom_site_fract_z
Si Si1 0.431693 0.678734 0.720786
Si Si2 0.528395 0.320099 0.807249
Si Si3 0.447006 0.320088 0.517348
Si Si4 0.261283 0.680640 0.902142
Si Si5 0.095341 0.319797 0.950006
Si Si6 0.863778 0.820538 0.867827
Si Si7 0.593241 0.179640 0.661576
Si Si8 0.168312 0.678584 0.808267
O O1 0.436076 0.500000 0.708542
O O2 0.475209 0.733395 0.787681
O O3 0.433440 0.746636 0.617077
O O4 0.384076 0.724171 0.768702
O O5 0.533620 0.500000 0.816722
O O6 0.546867 0.242622 0.903428
O O7 0.555515 0.264855 0.719454
O O8 0.500000 0.274281 0.500000
O O9 0.439986 0.500000 0.508041
O O10 0.411327 0.238208 0.443511
O O11 0.261721 0.500000 0.912013
O O12 0.310844 0.740029 0.869454
O O13 0.221376 0.737928 0.825293
O O14 0.250000 0.750000 0.000000
O O15 0.093241 0.500000 0.951843
O O16 0.136671 0.256116 0.888505
O O17 0.103273 0.257456 0.053234
O O18 0.866330 0.000000 0.884000
O O19 0.645068 0.221499 0.706651
O O20 0.584423 0.000000 0.667017
O O21 0.168822 0.500000 0.821023
#
# Coordination Sequence:
#
# PCOD8082433 Si02
#       8
#     8   8   8   8   8   8   8   8
#     4   9  19  34  50  71 100 130 166 213 251 289
#     4  10  18  32  51  70  98 136 173 202 240 294
#     4  10  18  33  54  73  95 130 169 206 251 293
#     4  10  18  31  52  75  97 127 166 204 247 295
#     4  10  19  32  48  70 104 135 164 204 248 291
#     4  10  20  33  51  74  97 130 173 208 245 298
#     4  10  19  31  49  76 104 127 159 205 254 299
#     4   8  16  30  47  69 100 129 153 193 248 290
#
# _framework density 17.583864999999999
#
# number of rings (size 3 to 8) (size 9 to 14) (size 15 to 20)
#    0.000    2.375    2.500    1.875    0.000    0.750 
#    0.000    5.000    0.000    0.750    0.000    0.000 
#    0.000    0.000    0.000    0.000    0.000    0.500 
#
# Total GULP energy -396646.570733 kJ/mol
# GULP energy per Si atom -12395.205335 kJ/mol
# Density = 1.754384 g / cm^3
# Si number density = 17.583865 Si / 1000 Ang^3
#
#
#
# Elastic Constant Matrix: (Units=GPa)
#
#
# Indices 1 2 3 4 5 6 
#
# 1 117.4202 19.6714 66.5061 0.0000 5.1668 0.0000
# 2 19.6714 30.8202 22.3692 0.0000 0.3455 0.0000
# 3 66.5061 22.3692 121.1366 0.0000 8.3180 0.0000
# 4 0.0000 0.0000 0.0000 24.2186 0.0000 4.0883
# 5 5.1668 0.3455 8.3180 0.0000 26.3810 0.0000
# 6 0.0000 0.0000 0.0000 4.0883 0.0000 15.6978
#
#
#
# Elastic Compliance Matrix: (Units=1/GPa)
#
#
# Indices 1 2 3 4 5 6 
#
# 1 0.012686 -0.003533 -0.006281 0.000000 -0.000458 0.000000
# 2 -0.003533 0.038529 -0.005303 0.000000 0.001859 0.000000
# 3 -0.006281 -0.005303 0.012872 0.000000 -0.002759 0.000000
# 4 0.000000 0.000000 0.000000 0.043189 0.000000 -0.011248
# 5 -0.000458 0.001859 -0.002759 0.000000 0.038841 0.000000
# 6 0.000000 0.000000 0.000000 -0.011248 0.000000 0.066633
#
#
# Mechanical properties :
#
#
# Convention : Reuss Voigt Hill
#
# Bulk Modulus (GPa) = 29.53890 54.05227 41.79558
# Shear Modulus (GPa) = 19.66420 23.98149 21.82285
#
# Velocity S-wave (km/s) = 3.34774 3.69702 3.52671
# Velocity P-wave (km/s) = 5.63724 7.00217 6.35645
#
# Compressibility (1/GPa) = 0.03385367
#
# Stress axis : x y z
#
# Youngs Moduli (GPa) = 78.82722 25.95428 77.68714
#
# Poissons Ratio (x) = 0.09170 0.48795
# Poissons Ratio (y) = 0.27851 0.41195
# Poissons Ratio (z) = 0.49511 0.13763
#
# Static dielectric constant tensor:
#      x y z
#    x 3.573570 0.000000 0.249440 
#    y 0.000000 3.055830 0.000000 
#    z 0.249440 0.000000 3.380200 
# 
# 
# High freq. dielectric constant tensor:
#      x y z
#    x 1.668390 0.000000 0.017110 
#    y 0.000000 1.661220 0.000000 
#    z 0.017110 0.000000 1.674230 
# 
# From -- ./inp_files/248468.got.cif
#   From: 2010.06.25/outbox.cif.g09.slc.cpg/sg12_125_cif.got.tgz:248468.got - 2010.06.28 00:19:55.
