data_PCOD8082290
_publ_section_title
;
Structure prediction by ZEFSAII (Michael W. Deem and Ramdas Pophale) SiO2 
 PCOD8082290
Probable space group: C 2/M
;
_chemical_formula_sum "Si O2"
_cell_formula_units_Z 56
_cell_length_a 23.412859
_cell_length_b 14.037422
_cell_length_c 15.862494
_cell_angle_alpha 90.000000
_cell_angle_beta 141.828924
_cell_angle_gamma 90.000000
_cell_volume 3221.884030
_symmetry_space_group_name_H-M "C 2/M"
_symmetry_group_IT_number 12
_symmetry_cell_setting 'monoclinic'
loop_
_space_group_symop_operation_xyz
x,y,z
-x,y,-z
-x,-y,-z
x,-y,z
1/2+x,1/2+y,z
1/2-x,1/2+y,-z
1/2-x,1/2-y,-z
1/2+x,1/2-y,z
loop_
_atom_site_type_symbol
_atom_site_label
_atom_site_fract_x
_atom_site_fract_y
_atom_site_fract_z
Si Si1 0.643001 0.891397 0.379713
Si Si2 0.679068 0.388038 0.307883
Si Si3 0.325445 0.892043 0.774614
Si Si4 0.090568 0.215261 0.066293
Si Si5 0.359705 0.388069 0.357196
Si Si6 0.025906 0.887744 0.663707
Si Si7 0.484027 0.283508 0.782543
O O1 0.720043 0.862802 0.538048
O O2 0.692541 0.883197 0.345986
O O3 0.553684 0.822727 0.281789
O O4 0.608520 0.000000 0.354210
O O5 0.662449 0.500000 0.286662
O O6 0.674511 0.345380 0.206416
O O7 0.601289 0.342046 0.277653
O O8 0.408604 0.824047 0.898636
O O9 0.238787 0.849027 0.726723
O O10 0.349228 0.000000 0.828359
O O11 0.000000 0.165664 0.000000
O O12 0.075770 0.216726 0.948751
O O13 0.359605 0.500000 0.370448
O O14 0.438825 0.348396 0.510237
O O15 0.382432 0.363743 0.285805
O O16 0.028029 0.830815 0.752111
O O17 0.019758 0.000000 0.675465
#
# Coordination Sequence:
#
# PCOD8082290 Si02
#       7
#     8   8   8   8   8   8   8
#     4  10  20  32  50  75 100 129 167 209 247 286
#     4  10  20  32  46  69 101 133 164 201 243 295
#     4  10  18  31  51  71  98 131 161 203 251 291
#     4  10  21  32  43  71 103 134 164 195 239 304
#     4   8  16  30  49  76  97 119 159 203 253 292
#     4   9  17  30  50  75 101 122 154 205 251 294
#     4  11  20  31  48  73 100 132 165 196 247 301
#
# _framework density 17.381135
#
# number of rings (size 3 to 8) (size 9 to 14) (size 15 to 20)
#    0.000    2.286    2.857    2.571    2.000    6.286 
#    0.000    0.714    0.000    0.000    0.000    3.000 
#    0.000    0.000    0.000    0.000    0.000    0.000 
#
# Total GULP energy -346897.309360 kJ/mol
# GULP energy per Si atom -12389.189620 kJ/mol
# Density = 1.734157 g / cm^3
# Si number density = 17.381135 Si / 1000 Ang^3
#
#
#
# Elastic Constant Matrix: (Units=GPa)
#
#
# Indices 1 2 3 4 5 6 
#
# 1 56.6520 22.5609 35.0054 0.0000 -15.7999 0.0000
# 2 22.5609 83.1477 44.2435 0.0000 -13.8824 0.0000
# 3 35.0054 44.2435 110.7874 0.0000 -28.3304 0.0000
# 4 0.0000 0.0000 0.0000 19.5008 0.0000 -5.1388
# 5 -15.7999 -13.8824 -28.3304 0.0000 20.9277 0.0000
# 6 0.0000 0.0000 0.0000 -5.1388 0.0000 19.0353
#
#
#
# Elastic Compliance Matrix: (Units=1/GPa)
#
#
# Indices 1 2 3 4 5 6 
#
# 1 0.024187 -0.002715 -0.003593 0.000000 0.011596 0.000000
# 2 -0.002715 0.015690 -0.005002 0.000000 0.001586 0.000000
# 3 -0.003593 -0.005002 0.016238 0.000000 0.015951 0.000000
# 4 0.000000 0.000000 0.000000 0.055207 0.000000 0.014904
# 5 0.011596 0.001586 0.015951 0.000000 0.079185 0.000000
# 6 0.000000 0.000000 0.000000 0.014904 0.000000 0.056558
#
#
# Mechanical properties :
#
#
# Convention : Reuss Voigt Hill
#
# Bulk Modulus (GPa) = 29.85520 50.46744 40.16132
# Shear Modulus (GPa) = 17.80308 21.81121 19.80715
#
# Velocity S-wave (km/s) = 3.20390 3.54627 3.37942
# Velocity P-wave (km/s) = 5.55884 6.77251 6.19546
#
# Compressibility (1/GPa) = 0.03349500
#
# Stress axis : x y z
#
# Youngs Moduli (GPa) = 41.34479 63.73425 61.58263
#
# Poissons Ratio (x) = 0.17303 0.22126
# Poissons Ratio (y) = 0.11225 0.30806
# Poissons Ratio (z) = 0.14854 0.31883
#
# Static dielectric constant tensor:
#      x y z
#    x 3.183460 0.000000 -0.050920 
#    y 0.000000 3.224040 0.000000 
#    z -0.050920 0.000000 3.437180 
# 
# 
# High freq. dielectric constant tensor:
#      x y z
#    x 1.636420 0.000000 -0.011710 
#    y 0.000000 1.664400 0.000000 
#    z -0.011710 0.000000 1.671940 
# 
# From -- ./inp_files/240466.got.cif
#   From: 2010.06.25/outbox.cif.g09.slc.cpg/sg12_121_cif.got.tgz:240466.got - 2010.06.28 00:19:55.
