data_PCOD8082116
_publ_section_title
;
Structure prediction by ZEFSAII (Michael W. Deem and Ramdas Pophale) SiO2 
 PCOD8082116
Probable space group: C 2/M
;
_chemical_formula_sum "Si O2"
_cell_formula_units_Z 64
_cell_length_a 28.364293
_cell_length_b 8.902976
_cell_length_c 21.238503
_cell_angle_alpha 90.000000
_cell_angle_beta 132.903433
_cell_angle_gamma 90.000000
_cell_volume 3928.619321
_symmetry_space_group_name_H-M "C 2/M"
_symmetry_group_IT_number 12
_symmetry_cell_setting 'monoclinic'
loop_
_space_group_symop_operation_xyz
x,y,z
-x,y,-z
-x,-y,-z
x,-y,z
1/2+x,1/2+y,z
1/2-x,1/2+y,-z
1/2-x,1/2-y,-z
1/2+x,1/2-y,z
loop_
_atom_site_type_symbol
_atom_site_label
_atom_site_fract_x
_atom_site_fract_y
_atom_site_fract_z
Si Si1 0.801822 0.323255 0.325460
Si Si2 0.656127 0.673052 0.402064
Si Si3 0.027530 0.823772 0.348384
Si Si4 0.249627 0.674336 0.399339
Si Si5 0.443734 0.823412 0.494115
Si Si6 0.300211 0.676376 0.999079
Si Si7 0.726447 0.321730 0.830857
Si Si8 0.389212 0.675817 0.186551
O O1 0.793944 0.500000 0.308648
O O2 0.759776 0.271966 0.346426
O O3 0.876020 0.276568 0.402072
O O4 0.774809 0.237675 0.240678
O O5 0.667844 0.500000 0.394367
O O6 0.580832 0.709790 0.343366
O O7 0.692634 0.710755 0.500244
O O8 0.682170 0.776983 0.369583
O O9 0.049821 0.750878 0.432857
O O10 0.959419 0.753213 0.263779
O O11 0.022283 0.000000 0.355674
O O12 0.246893 0.500000 0.378698
O O13 0.500000 0.762710 0.500000
O O14 0.448859 0.000000 0.508350
O O15 0.287105 0.500000 0.980576
O O16 0.369410 0.707600 0.095482
O O17 0.250000 0.750000 0.000000
O O18 0.291176 0.755420 0.923050
O O19 0.730798 0.500000 0.835343
O O20 0.663631 0.261082 0.811907
O O21 0.393314 0.500000 0.201950
#
# Coordination Sequence:
#
# PCOD8082116 Si02
#       8
#     8   8   8   8   8   8   8   8
#     4  11  21  32  47  67  94 126 159 195 235 278
#     4   9  18  31  48  69  91 118 154 196 238 277
#     4  10  18  31  49  69  92 122 160 194 228 272
#     4  10  19  32  49  68  90 119 156 197 238 278
#     4  10  21  33  43  62  95 130 160 190 227 271
#     4   9  16  29  47  68  94 124 159 196 237 275
#     4  10  19  31  47  69  96 126 162 197 234 277
#     4   8  16  29  47  70  95 124 157 195 230 271
#
# _framework density 16.290710000000001
#
# number of rings (size 3 to 8) (size 9 to 14) (size 15 to 20)
#    0.000    2.375    1.250    3.000    0.000    1.750 
#    0.000    3.125    0.000    0.000    0.000    0.875 
#    0.000    7.000    0.000    0.000    0.000    0.000 
#
# Total GULP energy -396708.058621 kJ/mol
# GULP energy per Si atom -12397.126832 kJ/mol
# Density = 1.625363 g / cm^3
# Si number density = 16.290710 Si / 1000 Ang^3
#
#
#
# Elastic Constant Matrix: (Units=GPa)
#
#
# Indices 1 2 3 4 5 6 
#
# 1 64.5539 19.5329 32.6790 0.0000 -11.8168 0.0000
# 2 19.5329 51.7356 38.8753 0.0000 -7.5050 0.0000
# 3 32.6790 38.8753 82.2638 0.0000 -16.7545 0.0000
# 4 0.0000 0.0000 0.0000 23.6501 0.0000 -7.6408
# 5 -11.8168 -7.5050 -16.7545 0.0000 13.8080 0.0000
# 6 0.0000 0.0000 0.0000 -7.6408 0.0000 22.9109
#
#
#
# Elastic Compliance Matrix: (Units=1/GPa)
#
#
# Indices 1 2 3 4 5 6 
#
# 1 0.020637 -0.002658 -0.004834 0.000000 0.010351 0.000000
# 2 -0.002658 0.030329 -0.013791 0.000000 -0.002523 0.000000
# 3 -0.004834 -0.013791 0.024206 0.000000 0.017739 0.000000
# 4 0.000000 0.000000 0.000000 0.047389 0.000000 0.015804
# 5 0.010351 -0.002523 0.017739 0.000000 0.101433 0.000000
# 6 0.000000 0.000000 0.000000 0.015804 0.000000 0.048918
#
#
# Mechanical properties :
#
#
# Convention : Reuss Voigt Hill
#
# Bulk Modulus (GPa) = 30.66758 42.30306 36.48532
# Shear Modulus (GPa) = 15.32114 19.23821 17.27968
#
# Velocity S-wave (km/s) = 3.07006 3.44020 3.26038
# Velocity P-wave (km/s) = 5.60652 6.46559 6.05132
#
# Compressibility (1/GPa) = 0.03260772
#
# Stress axis : x y z
#
# Youngs Moduli (GPa) = 48.45688 32.97163 41.31166
#
# Poissons Ratio (x) = 0.08763 0.19969
# Poissons Ratio (y) = 0.12878 0.56972
# Poissons Ratio (z) = 0.23423 0.45470
#
# Static dielectric constant tensor:
#      x y z
#    x 3.046630 0.000000 0.132080 
#    y 0.000000 3.061890 0.000000 
#    z 0.132080 0.000000 3.356430 
# 
# 
# High freq. dielectric constant tensor:
#      x y z
#    x 1.605380 0.000000 -0.003070 
#    y 0.000000 1.626380 0.000000 
#    z -0.003070 0.000000 1.619110 
# 
# From -- ./inp_files/326914.got.cif
#   From: 2010.06.25/outbox.cif.g09.slc.cpg/sg12_164_cif.got.tgz:326914.got - 2010.06.28 00:19:55.
