data_PCOD8082413
_publ_section_title
;
Structure prediction by ZEFSAII (Michael W. Deem and Ramdas Pophale) SiO2 
 PCOD8082413
Probable space group: C 2/M
;
_chemical_formula_sum "Si O2"
_cell_formula_units_Z 48
_cell_length_a 18.192105
_cell_length_b 8.636661
_cell_length_c 24.009053
_cell_angle_alpha 90.000000
_cell_angle_beta 137.139442
_cell_angle_gamma 90.000000
_cell_volume 2565.966462
_symmetry_space_group_name_H-M "C 2/M"
_symmetry_group_IT_number 12
_symmetry_cell_setting 'monoclinic'
loop_
_space_group_symop_operation_xyz
x,y,z
-x,y,-z
-x,-y,-z
x,-y,z
1/2+x,1/2+y,z
1/2-x,1/2+y,-z
1/2-x,1/2-y,-z
1/2+x,1/2-y,z
loop_
_atom_site_type_symbol
_atom_site_label
_atom_site_fract_x
_atom_site_fract_y
_atom_site_fract_z
Si Si1 0.252096 0.679852 0.170059
Si Si2 0.793546 0.319472 0.080681
Si Si3 0.219767 0.179854 0.263222
Si Si4 0.549692 0.682360 0.585680
Si Si5 0.977128 0.678497 0.319651
Si Si6 0.456584 0.823744 0.760743
O O1 0.223740 0.500000 0.155111
O O2 0.225617 0.746965 0.094248
O O3 0.184195 0.763800 0.181533
O O4 0.377170 0.708733 0.252684
O O5 0.771749 0.500000 0.069376
O O6 0.920119 0.281071 0.156563
O O7 0.750000 0.250000 0.000000
O O8 0.324498 0.272306 0.342604
O O9 0.121175 0.208319 0.250211
O O10 0.248011 0.000000 0.277781
O O11 0.500000 0.739180 0.500000
O O12 0.536911 0.500000 0.586086
O O13 0.479928 0.768468 0.595840
O O14 0.937210 0.500000 0.298675
O O15 0.062616 0.698813 0.316751
O O16 0.430475 0.000000 0.763746
#
# Coordination Sequence:
#
# PCOD8082413 Si02
#       6
#     8   8   8   8   8   8
#     4  10  18  31  52  74 101 136 171 207 249 302
#     4  10  20  35  55  79 106 135 170 211 254 301
#     4  11  21  33  53  78 103 133 171 213 253 299
#     4  10  20  34  53  76 103 135 170 209 254 305
#     4   9  17  31  52  75 100 132 170 210 251 300
#     4   9  19  35  53  75 104 135 167 207 254 302
#
# _framework density 18.706403000000002
#
# number of rings (size 3 to 8) (size 9 to 14) (size 15 to 20)
#    0.000    2.167    0.000    7.500    0.000    5.333 
#    0.000    1.667    0.000    5.000    0.000    0.000 
#    0.000    0.000    0.000    0.000    0.000    0.000 
#
# Total GULP energy -297500.930843 kJ/mol
# GULP energy per Si atom -12395.872118 kJ/mol
# Density = 1.866383 g / cm^3
# Si number density = 18.706403 Si / 1000 Ang^3
#
#
#
# Elastic Constant Matrix: (Units=GPa)
#
#
# Indices 1 2 3 4 5 6 
#
# 1 124.7468 41.0215 47.8550 0.0000 -34.5671 0.0000
# 2 41.0215 79.3814 31.5356 0.0000 -15.3421 0.0000
# 3 47.8550 31.5356 95.4009 0.0000 -39.8669 0.0000
# 4 0.0000 0.0000 0.0000 26.7176 0.0000 -8.6713
# 5 -34.5671 -15.3421 -39.8669 0.0000 34.4404 0.0000
# 6 0.0000 0.0000 0.0000 -8.6713 0.0000 33.2408
#
#
#
# Elastic Compliance Matrix: (Units=1/GPa)
#
#
# Indices 1 2 3 4 5 6 
#
# 1 0.012374 -0.004221 -0.000790 0.000000 0.009626 0.000000
# 2 -0.004221 0.015997 -0.003802 0.000000 -0.001512 0.000000
# 3 -0.000790 -0.003802 0.021493 0.000000 0.022393 0.000000
# 4 0.000000 0.000000 0.000000 0.040890 0.000000 0.010667
# 5 0.009626 -0.001512 0.022393 0.000000 0.063945 0.000000
# 6 0.000000 0.000000 0.000000 0.010667 0.000000 0.032866
#
#
# Mechanical properties :
#
#
# Convention : Reuss Voigt Hill
#
# Bulk Modulus (GPa) = 31.01850 60.03925 45.52887
# Shear Modulus (GPa) = 23.15493 30.82088 26.98790
#
# Velocity S-wave (km/s) = 3.52207 4.06348 3.80242
# Velocity P-wave (km/s) = 5.75827 7.36078 6.60828
#
# Compressibility (1/GPa) = 0.03223883
#
# Stress axis : x y z
#
# Youngs Moduli (GPa) = 80.81278 62.51210 46.52717
#
# Poissons Ratio (x) = 0.26384 0.03674
# Poissons Ratio (y) = 0.34107 0.17692
# Poissons Ratio (z) = 0.06381 0.23770
#
# Static dielectric constant tensor:
#      x y z
#    x 3.599880 0.000000 -0.573000 
#    y 0.000000 3.441470 0.000000 
#    z -0.573000 0.000000 3.394210 
# 
# 
# High freq. dielectric constant tensor:
#      x y z
#    x 1.724590 0.000000 -0.041480 
#    y 0.000000 1.738580 0.000000 
#    z -0.041480 0.000000 1.697550 
# 
# From -- ./inp_files/342056.got.cif
#   From: 2010.06.25/outbox.cif.g09.slc.cpg/sg12_172_cif.got.tgz:342056.got - 2010.06.28 00:19:55.
