data_PCOD8082595
_publ_section_title
;
Structure prediction by ZEFSAII (Michael W. Deem and Ramdas Pophale) SiO2 
 PCOD8082595
Probable space group: C 2/M
;
_chemical_formula_sum "Si O2"
_cell_formula_units_Z 56
_cell_length_a 28.886497
_cell_length_b 9.116924
_cell_length_c 14.200233
_cell_angle_alpha 90.000000
_cell_angle_beta 119.538305
_cell_angle_gamma 90.000000
_cell_volume 3253.651708
_symmetry_space_group_name_H-M "C 2/M"
_symmetry_group_IT_number 12
_symmetry_cell_setting 'monoclinic'
loop_
_space_group_symop_operation_xyz
x,y,z
-x,y,-z
-x,-y,-z
x,-y,z
1/2+x,1/2+y,z
1/2-x,1/2+y,-z
1/2-x,1/2-y,-z
1/2+x,1/2-y,z
loop_
_atom_site_type_symbol
_atom_site_label
_atom_site_fract_x
_atom_site_fract_y
_atom_site_fract_z
Si Si1 0.414814 0.161214 0.674417
Si Si2 0.444794 0.172250 0.991861
Si Si3 0.534959 0.170853 0.776794
Si Si4 0.359729 0.162607 0.421825
Si Si5 0.946055 0.173675 0.393096
Si Si6 0.751441 0.672179 0.400259
Si Si7 0.637280 0.329874 0.218196
O O1 0.474109 0.217241 0.722229
O O2 0.389291 0.146278 0.548763
O O3 0.384645 0.283529 0.702683
O O4 0.414074 0.000000 0.724158
O O5 0.392725 0.242956 0.893652
O O6 0.442476 0.000000 0.972910
O O7 0.500000 0.231814 0.000000
O O8 0.439793 0.211529 0.097063
O O9 0.559981 0.265672 0.718489
O O10 0.542244 0.000000 0.759704
O O11 0.392494 0.274116 0.390610
O O12 0.300901 0.225561 0.385445
O O13 0.356723 0.000000 0.371476
O O14 0.000000 0.231135 0.500000
O O15 0.946474 0.000000 0.390608
O O16 0.756728 0.500000 0.427579
O O17 0.750000 0.750000 0.500000
O O18 0.699972 0.707035 0.284506
O O19 0.626613 0.500000 0.191099
#
# Coordination Sequence:
#
# PCOD8082595 Si02
#       7
#     8   8   8   8   8   8   8
#     4  10  18  31  53  78 106 143 181 216 254 311
#     4  10  20  36  56  78 105 141 185 223 258 313
#     4  10  20  35  55  77 104 141 183 219 254 309
#     4  10  20  35  55  76 104 144 185 216 253 312
#     4  11  23  35  51  79 113 141 169 215 273 323
#     4  10  21  35  53  79 109 143 180 220 265 315
#     4  11  22  33  50  80 115 144 173 217 274 321
#
# _framework density 17.211431999999999
#
# number of rings (size 3 to 8) (size 9 to 14) (size 15 to 20)
#    0.000    1.714    4.286    0.857    0.000    3.714 
#    0.000    0.000    0.000    0.857    0.000    0.000 
#    0.000    0.000    0.000    0.000    0.000    0.000 
#
# Total GULP energy -347115.633984 kJ/mol
# GULP energy per Si atom -12396.986928 kJ/mol
# Density = 1.717226 g / cm^3
# Si number density = 17.211432 Si / 1000 Ang^3
#
#
#
# Elastic Constant Matrix: (Units=GPa)
#
#
# Indices 1 2 3 4 5 6 
#
# 1 130.8255 48.2297 62.9702 0.0000 4.1503 0.0000
# 2 48.2297 56.3339 42.3434 0.0000 -1.9331 0.0000
# 3 62.9702 42.3434 101.6437 0.0000 2.7095 0.0000
# 4 0.0000 0.0000 0.0000 25.9400 0.0000 -1.1438
# 5 4.1503 -1.9331 2.7095 0.0000 29.8099 0.0000
# 6 0.0000 0.0000 0.0000 -1.1438 0.0000 28.8248
#
#
#
# Elastic Compliance Matrix: (Units=1/GPa)
#
#
# Indices 1 2 3 4 5 6 
#
# 1 0.012705 -0.007366 -0.004754 0.000000 -0.001814 0.000000
# 2 -0.007366 0.030327 -0.008170 0.000000 0.003735 0.000000
# 3 -0.004754 -0.008170 0.016223 0.000000 -0.001342 0.000000
# 4 0.000000 0.000000 0.000000 0.038618 0.000000 0.001532
# 5 -0.001814 0.003735 -0.001342 0.000000 0.034163 0.000000
# 6 0.000000 0.000000 0.000000 0.001532 0.000000 0.034753
#
#
# Mechanical properties :
#
#
# Convention : Reuss Voigt Hill
#
# Bulk Modulus (GPa) = 53.54881 66.20999 59.87940
# Shear Modulus (GPa) = 23.40888 25.93224 24.67056
#
# Velocity S-wave (km/s) = 3.69192 3.88582 3.79011
# Velocity P-wave (km/s) = 7.02521 7.66061 7.34978
#
# Compressibility (1/GPa) = 0.01867455
#
# Stress axis : x y z
#
# Youngs Moduli (GPa) = 78.70755 32.97400 61.64198
#
# Poissons Ratio (x) = 0.24290 0.29305
# Poissons Ratio (y) = 0.57979 0.50360
# Poissons Ratio (z) = 0.37418 0.26939
#
# Static dielectric constant tensor:
#      x y z
#    x 3.274100 0.000000 0.093890 
#    y 0.000000 3.212120 0.000000 
#    z 0.093890 0.000000 3.219440 
# 
# 
# High freq. dielectric constant tensor:
#      x y z
#    x 1.656090 0.000000 0.004810 
#    y 0.000000 1.660950 0.000000 
#    z 0.004810 0.000000 1.657430 
# 
# From -- ./inp_files/243678.got.cif
#   From: 2010.06.25/outbox.cif.g09.slc.cpg/sg12_122_cif.got.tgz:243678.got - 2010.06.28 00:19:55.
