data_PCOD8082448
_publ_section_title
;
Structure prediction by ZEFSAII (Michael W. Deem and Ramdas Pophale) SiO2 
 PCOD8082448
Probable space group: C 2/M
;
_chemical_formula_sum "Si O2"
_cell_formula_units_Z 64
_cell_length_a 30.207177
_cell_length_b 13.049852
_cell_length_c 15.152323
_cell_angle_alpha 90.000000
_cell_angle_beta 36.010176
_cell_angle_gamma 90.000000
_cell_volume 3511.719149
_symmetry_space_group_name_H-M "C 2/M"
_symmetry_group_IT_number 12
_symmetry_cell_setting 'monoclinic'
loop_
_space_group_symop_operation_xyz
x,y,z
-x,y,-z
-x,-y,-z
x,-y,z
1/2+x,1/2+y,z
1/2-x,1/2+y,-z
1/2-x,1/2-y,-z
1/2+x,1/2-y,z
loop_
_atom_site_type_symbol
_atom_site_label
_atom_site_fract_x
_atom_site_fract_y
_atom_site_fract_z
Si Si1 0.686214 0.613510 0.071212
Si Si2 0.724218 0.810093 0.911062
Si Si3 0.011831 0.693667 0.841562
Si Si4 0.609147 0.118815 0.832998
Si Si5 0.522713 0.314144 0.363670
Si Si6 0.431853 0.617911 0.347511
Si Si7 0.440519 0.884973 0.787703
Si Si8 0.265354 0.382199 0.660419
O O1 0.707256 0.500000 0.004530
O O2 0.720437 0.631284 0.112468
O O3 0.596799 0.622518 0.220980
O O4 0.720128 0.691216 0.945052
O O5 0.758358 0.812465 0.758406
O O6 0.643066 0.863507 0.041940
O O7 0.085309 0.648433 0.772086
O O8 0.024887 0.812305 0.793734
O O9 0.998370 0.627637 0.775319
O O10 0.938764 0.688010 0.021953
O O11 0.697389 0.142073 0.702476
O O12 0.590053 0.000000 0.882531
O O13 0.500000 0.334815 0.500000
O O14 0.457267 0.355619 0.405907
O O15 0.538186 0.192915 0.324989
O O16 0.449413 0.500000 0.296147
O O17 0.342853 0.641710 0.485227
O O18 0.446106 0.000000 0.741200
O O19 0.262614 0.500000 0.696127
#
# Coordination Sequence:
#
# PCOD8082448 Si02
#       8
#     8   8   8   8   8   8   8   8
#     4  10  20  32  49  71  98 135 172 216 261 303
#     4  10  19  31  50  75 101 129 172 217 259 307
#     4  10  19  33  54  81 108 134 169 215 263 311
#     4  10  19  33  58  85 105 131 171 218 264 312
#     4  10  21  34  49  73 101 137 180 215 252 306
#     4  10  22  37  53  75 106 143 177 214 260 310
#     4  10  18  31  52  76 104 134 168 214 264 310
#     4  10  19  33  55  79 104 135 172 217 260 305
#
# _framework density 18.224692000000001
#
# number of rings (size 3 to 8) (size 9 to 14) (size 15 to 20)
#    0.000    2.000    1.250    3.750    0.000    2.750 
#    0.000    1.250    0.000    9.750    0.000    0.000 
#    0.000    0.000    0.000    0.000    0.000    0.000 
#
# Total GULP energy -396859.443575 kJ/mol
# GULP energy per Si atom -12401.857612 kJ/mol
# Density = 1.818321 g / cm^3
# Si number density = 18.224692 Si / 1000 Ang^3
#
#
#
# Elastic Constant Matrix: (Units=GPa)
#
#
# Indices 1 2 3 4 5 6 
#
# 1 106.4928 31.9542 26.8292 0.0000 -16.2105 0.0000
# 2 31.9542 123.7890 31.2465 0.0000 -7.6851 0.0000
# 3 26.8292 31.2465 49.9316 0.0000 -10.3027 0.0000
# 4 0.0000 0.0000 0.0000 12.2583 0.0000 -6.3165
# 5 -16.2105 -7.6851 -10.3027 0.0000 26.4975 0.0000
# 6 0.0000 0.0000 0.0000 -6.3165 0.0000 17.5303
#
#
#
# Elastic Compliance Matrix: (Units=1/GPa)
#
#
# Indices 1 2 3 4 5 6 
#
# 1 0.011717 -0.001645 -0.004225 0.000000 0.005048 0.000000
# 2 -0.001645 0.009830 -0.005314 0.000000 -0.000221 0.000000
# 3 -0.004225 -0.005314 0.026932 0.000000 0.006346 0.000000
# 4 0.000000 0.000000 0.000000 0.100177 0.000000 0.036095
# 5 0.005048 -0.000221 0.006346 0.000000 0.043231 0.000000
# 6 0.000000 0.000000 0.000000 0.036095 0.000000 0.070050
#
#
# Mechanical properties :
#
#
# Convention : Reuss Voigt Hill
#
# Bulk Modulus (GPa) = 38.29509 51.14148 44.71828
# Shear Modulus (GPa) = 17.06443 23.93610 20.50027
#
# Velocity S-wave (km/s) = 3.06328 3.62800 3.35754
# Velocity P-wave (km/s) = 5.79396 6.75814 6.29454
#
# Compressibility (1/GPa) = 0.02611301
#
# Stress axis : x y z
#
# Youngs Moduli (GPa) = 85.34895 101.72609 37.13055
#
# Poissons Ratio (x) = 0.16730 0.15687
# Poissons Ratio (y) = 0.14037 0.19730
# Poissons Ratio (z) = 0.36058 0.54053
#
# Static dielectric constant tensor:
#      x y z
#    x 3.603030 0.000000 -0.225500 
#    y 0.000000 3.357890 0.000000 
#    z -0.225500 0.000000 3.071970 
# 
# 
# High freq. dielectric constant tensor:
#      x y z
#    x 1.721870 0.000000 -0.018760 
#    y 0.000000 1.702110 0.000000 
#    z -0.018760 0.000000 1.677860 
# 
# From -- ./inp_files/250818.got.cif
#   From: 2010.06.25/outbox.cif.g09.slc.cpg/sg12_126_cif.got.tgz:250818.got - 2010.06.28 00:19:55.
