data_PCOD8082862
_publ_section_title
;
Structure prediction by ZEFSAII (Michael W. Deem and Ramdas Pophale) SiO2 
 PCOD8082862
Probable space group: C 2/M
;
_chemical_formula_sum "Si O2"
_cell_formula_units_Z 56
_cell_length_a 26.598040
_cell_length_b 21.137878
_cell_length_c 17.813190
_cell_angle_alpha 90.000000
_cell_angle_beta 20.408061
_cell_angle_gamma 90.000000
_cell_volume 3492.283889
_symmetry_space_group_name_H-M "C 2/M"
_symmetry_group_IT_number 12
_symmetry_cell_setting 'monoclinic'
loop_
_space_group_symop_operation_xyz
x,y,z
-x,y,-z
-x,-y,-z
x,-y,z
1/2+x,1/2+y,z
1/2-x,1/2+y,-z
1/2-x,1/2-y,-z
1/2+x,1/2-y,z
loop_
_atom_site_type_symbol
_atom_site_label
_atom_site_fract_x
_atom_site_fract_y
_atom_site_fract_z
Si Si1 0.890754 0.673753 0.334357
Si Si2 0.382952 0.571551 0.498968
Si Si3 0.600767 0.675061 0.202837
Si Si4 0.176389 0.284749 0.995235
Si Si5 0.611264 0.070927 0.782326
Si Si6 0.698643 0.695467 0.335454
Si Si7 0.861651 0.235983 0.237122
O O1 0.897492 0.606633 0.284314
O O2 0.907937 0.728227 0.247812
O O3 0.745659 0.679891 0.587271
O O4 0.023202 0.680354 0.206323
O O5 0.407158 0.500000 0.495721
O O6 0.538481 0.605806 0.263843
O O7 0.279150 0.570780 0.571920
O O8 0.301044 0.617830 0.673335
O O9 0.720517 0.669446 0.100265
O O10 0.467573 0.716994 0.421748
O O11 0.667497 0.713712 0.040198
O O12 0.236918 0.272790 0.827611
O O13 0.557480 0.000000 0.841535
O O14 0.500000 0.100526 0.000000
O O15 0.784690 0.713645 0.290324
O O16 0.000000 0.206903 0.000000
#
# Coordination Sequence:
#
# PCOD8082862 Si02
#       7
#     8   8   8   8   8   8   8
#     4  11  19  30  49  72  96 130 157 203 251 293
#     4   9  18  33  49  68 102 133 165 199 235 298
#     4   9  21  34  45  75  97 133 169 205 241 294
#     4  11  19  32  52  66 106 128 165 207 249 288
#     4  10  19  31  49  73 101 132 164 199 241 298
#     4  10  18  32  48  74  96 134 160 203 246 292
#     4  11  20  30  48  74 101 121 161 205 253 297
#
# _framework density 16.035350999999999
#
# number of rings (size 3 to 8) (size 9 to 14) (size 15 to 20)
#    0.857    1.000    4.286    1.714    2.000    0.000 
#    0.000    2.143    0.000    0.429    0.000    1.000 
#    0.000    2.571    0.000    0.000    0.000    0.000 
#
# Total GULP energy -346877.385171 kJ/mol
# GULP energy per Si atom -12388.478042 kJ/mol
# Density = 1.599885 g / cm^3
# Si number density = 16.035351 Si / 1000 Ang^3
#
#
#
# Elastic Constant Matrix: (Units=GPa)
#
#
# Indices 1 2 3 4 5 6 
#
# 1 76.2088 30.0217 38.8641 0.0013 -14.2382 -0.0010
# 2 30.0217 74.6286 34.5777 0.0004 2.9090 -0.0012
# 3 38.8641 34.5777 98.4341 0.0002 -2.8559 -0.0029
# 4 0.0013 0.0004 0.0002 19.2603 -0.0038 -4.3647
# 5 -14.2382 2.9090 -2.8559 -0.0038 33.5409 0.0034
# 6 -0.0010 -0.0012 -0.0029 -4.3647 0.0034 16.5786
#
#
#
# Elastic Compliance Matrix: (Units=1/GPa)
#
#
# Indices 1 2 3 4 5 6 
#
# 1 0.019779 -0.005709 -0.005559 0.000000 0.008418 -0.000002
# 2 -0.005709 0.017770 -0.004114 -0.000001 -0.004315 0.000001
# 3 -0.005559 -0.004114 0.013775 0.000001 -0.000830 0.000002
# 4 0.000000 -0.000001 0.000001 0.055214 0.000005 0.014537
# 5 0.008418 -0.004315 -0.000830 0.000005 0.033691 -0.000006
# 6 -0.000002 0.000001 0.000002 0.014537 -0.000006 0.064146
#
#
# Mechanical properties :
#
#
# Convention : Reuss Voigt Hill
#
# Bulk Modulus (GPa) = 48.63733 50.68871 49.66302
# Shear Modulus (GPa) = 20.66176 23.59648 22.12912
#
# Velocity S-wave (km/s) = 3.59348 3.84021 3.71889
# Velocity P-wave (km/s) = 6.90034 7.16535 7.03409
#
# Compressibility (1/GPa) = 0.02056034
#
# Stress axis : x y z
#
# Youngs Moduli (GPa) = 50.55949 56.27342 72.59530
#
# Poissons Ratio (x) = 0.32126 0.40359
# Poissons Ratio (y) = 0.28864 0.29862
# Poissons Ratio (z) = 0.28108 0.23148
#
# Static dielectric constant tensor:
#      x y z
#    x 2.985130 0.000000 -0.162290 
#    y 0.000000 2.831060 0.000010 
#    z -0.162290 0.000010 3.181360 
# 
# 
# High freq. dielectric constant tensor:
#      x y z
#    x 1.610230 0.000000 -0.020810 
#    y 0.000000 1.580650 0.000000 
#    z -0.020810 0.000000 1.616980 
# 
# From -- ./inp_files/294223.got.cif
#   From: 2010.06.25/outbox.cif.g09.slc.cpg/sg12_148_cif.got.tgz:294223.got - 2010.06.28 00:19:55.
