data_PCOD8082784
_publ_section_title
;
Structure prediction by ZEFSAII (Michael W. Deem and Ramdas Pophale) SiO2 
 PCOD8082784
Probable space group: C 2/M
;
_chemical_formula_sum "Si O2"
_cell_formula_units_Z 48
_cell_length_a 19.320313
_cell_length_b 14.196870
_cell_length_c 8.991524
_cell_angle_alpha 90.000000
_cell_angle_beta 62.549982
_cell_angle_gamma 90.000000
_cell_volume 2188.598039
_symmetry_space_group_name_H-M "C 2/M"
_symmetry_group_IT_number 12
_symmetry_cell_setting 'monoclinic'
loop_
_space_group_symop_operation_xyz
x,y,z
-x,y,-z
-x,-y,-z
x,-y,z
1/2+x,1/2+y,z
1/2-x,1/2+y,-z
1/2-x,1/2-y,-z
1/2+x,1/2-y,z
loop_
_atom_site_type_symbol
_atom_site_label
_atom_site_fract_x
_atom_site_fract_y
_atom_site_fract_z
Si Si1 0.219720 0.107798 0.060774
Si Si2 0.882599 0.500000 0.502841
Si Si3 0.082835 0.182131 0.381267
Si Si4 0.040436 0.693551 0.162994
Si Si5 0.062350 0.500000 0.237035
Si Si6 0.133693 0.298725 0.603804
Si Si7 0.320844 0.252398 0.135393
O O1 0.137057 0.113823 0.230073
O O2 0.283877 0.162542 0.091080
O O3 0.245016 0.000000 0.019465
O O4 0.215845 0.152213 0.897562
O O5 0.875064 0.500000 0.689408
O O6 0.843154 0.404220 0.474507
O O7 0.973957 0.500000 0.382000
O O8 0.058122 0.274018 0.313530
O O9 0.130869 0.221469 0.475414
O O10 0.000000 0.129604 0.500000
O O11 0.075063 0.588718 0.118068
O O12 0.948447 0.696483 0.227090
O O13 0.086780 0.755337 0.996160
O O14 0.192714 0.257669 0.672972
#
# Coordination Sequence:
#
# PCOD8082784 Si02
#       7
#     8   4   8   8   4   8   8
#     4  10  23  42  57  75 107 148 190 228 273 328
#     4   9  16  25  45  83 121 147 169 220 259 320
#     4   9  18  35  59  80 105 141 181 229 274 317
#     4   9  17  30  52  83 114 149 176 212 268 334
#     4   9  14  25  45  77 121 151 177 200 256 336
#     4  10  18  31  55  86 117 140 180 224 273 320
#     4  10  22  37  57  80 112 146 179 226 278 324
#
# _framework density 21.931850000000001
#
# number of rings (size 3 to 8) (size 9 to 14) (size 15 to 20)
#    0.000    2.500    1.667    0.500    2.333    1.000 
#    0.000    3.333    0.000   13.000    0.000    0.000 
#    0.000    0.000    0.000    0.000    0.000    0.000 
#
# Total GULP energy -297393.669811 kJ/mol
# GULP energy per Si atom -12391.402909 kJ/mol
# Density = 2.188193 g / cm^3
# Si number density = 21.931850 Si / 1000 Ang^3
#
#
#
# Elastic Constant Matrix: (Units=GPa)
#
#
# Indices 1 2 3 4 5 6 
#
# 1 33.9706 12.9574 18.5847 0.0000 27.4837 0.0000
# 2 12.9574 97.8999 17.9236 0.0000 21.1631 0.0000
# 3 18.5847 17.9236 73.2348 0.0000 34.8493 0.0000
# 4 0.0000 0.0000 0.0000 15.7186 0.0000 -3.1845
# 5 27.4837 21.1631 34.8493 0.0000 49.6544 0.0000
# 6 0.0000 0.0000 0.0000 -3.1845 0.0000 17.4008
#
#
#
# Elastic Compliance Matrix: (Units=1/GPa)
#
#
# Indices 1 2 3 4 5 6 
#
# 1 0.053392 -0.000775 0.000820 0.000000 -0.029797 0.000000
# 2 -0.000775 0.011287 -0.000722 0.000000 -0.003875 0.000000
# 3 0.000820 -0.000722 0.020559 0.000000 -0.014575 0.000000
# 4 0.000000 0.000000 0.000000 0.066068 0.000000 0.012091
# 5 -0.029797 -0.003875 -0.014575 0.000000 0.048513 0.000000
# 6 0.000000 0.000000 0.000000 0.012091 0.000000 0.059681
#
#
# Mechanical properties :
#
#
# Convention : Reuss Voigt Hill
#
# Bulk Modulus (GPa) = 11.92135 33.78187 22.85161
# Shear Modulus (GPa) = 17.31206 26.93072 22.12139
#
# Velocity S-wave (km/s) = 2.81260 3.50798 3.17936
# Velocity P-wave (km/s) = 3.99938 5.64309 4.89078
#
# Compressibility (1/GPa) = 0.08388312
#
# Stress axis : x y z
#
# Youngs Moduli (GPa) = 18.72953 88.59824 48.64028
#
# Poissons Ratio (x) = 0.06870 -0.03988
# Poissons Ratio (y) = 0.01452 0.03510
# Poissons Ratio (z) = -0.01536 0.06394
#
# Static dielectric constant tensor:
#      x y z
#    x 3.887990 0.000000 -0.069640 
#    y 0.000000 3.612870 0.000000 
#    z -0.069640 0.000000 3.918560 
# 
# 
# High freq. dielectric constant tensor:
#      x y z
#    x 1.858910 0.000000 -0.005220 
#    y 0.000000 1.824730 0.000000 
#    z -0.005220 0.000000 1.866520 
# 
# From -- ./inp_files/95698.got.cif
#   From: 2010.06.25/outbox.cif.g09.slc.cpg/sg12_48_cif.got.tgz:95698.got - 2010.06.28 00:19:55.
