data_PCOD8082976
_publ_section_title
;
Structure prediction by ZEFSAII (Michael W. Deem and Ramdas Pophale) SiO2 
 PCOD8082976
Probable space group: C 2/M
;
_chemical_formula_sum "Si O2"
_cell_formula_units_Z 56
_cell_length_a 19.119196
_cell_length_b 9.312043
_cell_length_c 21.987409
_cell_angle_alpha 90.000000
_cell_angle_beta 126.053068
_cell_angle_gamma 90.000000
_cell_volume 3164.854600
_symmetry_space_group_name_H-M "C 2/M"
_symmetry_group_IT_number 12
_symmetry_cell_setting 'monoclinic'
loop_
_space_group_symop_operation_xyz
x,y,z
-x,y,-z
-x,-y,-z
x,-y,z
1/2+x,1/2+y,z
1/2-x,1/2+y,-z
1/2-x,1/2-y,-z
1/2+x,1/2-y,z
loop_
_atom_site_type_symbol
_atom_site_label
_atom_site_fract_x
_atom_site_fract_y
_atom_site_fract_z
Si Si1 0.198094 0.836506 0.923978
Si Si2 0.345671 0.166597 0.761593
Si Si3 0.542177 0.831922 0.698704
Si Si4 0.709523 0.666545 0.792665
Si Si5 0.749964 0.666760 0.592105
Si Si6 0.496223 0.667286 0.199310
Si Si7 0.626536 0.163950 0.454380
O O1 0.225344 0.785308 0.870290
O O2 0.095694 0.813913 0.881156
O O3 0.224976 0.000000 0.946922
O O4 0.250000 0.750000 0.000000
O O5 0.296978 0.192371 0.800203
O O6 0.282593 0.216677 0.674877
O O7 0.431226 0.263952 0.807063
O O8 0.371798 0.000000 0.766341
O O9 0.632865 0.762335 0.724868
O O10 0.503454 0.751883 0.737295
O O11 0.475357 0.810355 0.608800
O O12 0.553453 0.000000 0.720022
O O13 0.679956 0.500000 0.775302
O O14 0.729143 0.500000 0.581405
O O15 0.660134 0.745056 0.529021
O O16 0.823631 0.709754 0.581561
O O17 0.516060 0.500000 0.221747
O O18 0.646330 0.000000 0.480155
#
# Coordination Sequence:
#
# PCOD8082976 Si02
#       7
#     8   8   8   8   8   8   8
#     4   9  19  36  56  80 104 131 166 205 248 300
#     4  10  19  35  54  75 105 138 172 213 257 304
#     4  10  18  32  52  74 101 135 178 218 256 305
#     4   9  20  36  54  77 106 135 169 212 256 303
#     4   9  17  29  46  70  98 131 171 212 257 303
#     4  10  20  33  53  80 106 132 171 213 250 300
#     4   9  17  29  45  70  99 129 172 218 256 299
#
# _framework density 17.694334999999999
#
# number of rings (size 3 to 8) (size 9 to 14) (size 15 to 20)
#    0.000    2.571    1.429    1.714    0.000    5.143 
#    0.000    1.429    0.000    8.571    0.000    0.000 
#    0.000    0.000    0.000    0.000    0.000    0.000 
#
# Total GULP energy -347195.509218 kJ/mol
# GULP energy per Si atom -12399.839615 kJ/mol
# Density = 1.765406 g / cm^3
# Si number density = 17.694335 Si / 1000 Ang^3
#
#
#
# Elastic Constant Matrix: (Units=GPa)
#
#
# Indices 1 2 3 4 5 6 
#
# 1 91.9950 45.0768 39.3311 0.0000 2.9329 0.0000
# 2 45.0768 81.0103 48.2358 0.0000 9.3849 0.0000
# 3 39.3311 48.2358 101.8096 0.0000 4.6386 0.0000
# 4 0.0000 0.0000 0.0000 34.2335 0.0000 6.4074
# 5 2.9329 9.3849 4.6386 0.0000 17.9008 0.0000
# 6 0.0000 0.0000 0.0000 6.4074 0.0000 27.9943
#
#
#
# Elastic Compliance Matrix: (Units=1/GPa)
#
#
# Indices 1 2 3 4 5 6 
#
# 1 0.015502 -0.007291 -0.002624 0.000000 0.001962 0.000000
# 2 -0.007291 0.021533 -0.007008 0.000000 -0.008278 0.000000
# 3 -0.002624 -0.007008 0.014136 0.000000 0.000441 0.000000
# 4 0.000000 0.000000 0.000000 0.030519 0.000000 -0.006985
# 5 0.001962 -0.008278 0.000441 0.000000 0.059768 0.000000
# 6 0.000000 0.000000 0.000000 -0.006985 0.000000 0.037320
#
#
# Mechanical properties :
#
#
# Convention : Reuss Voigt Hill
#
# Bulk Modulus (GPa) = 57.71907 60.01135 58.86521
# Shear Modulus (GPa) = 22.89401 25.50382 24.19891
#
# Velocity S-wave (km/s) = 3.60093 3.80064 3.70213
# Velocity P-wave (km/s) = 7.06964 7.29719 7.18432
#
# Compressibility (1/GPa) = 0.01732530
#
# Stress axis : x y z
#
# Youngs Moduli (GPa) = 64.50879 46.44073 70.74057
#
# Poissons Ratio (x) = 0.33859 0.18561
# Poissons Ratio (y) = 0.47032 0.49576
# Poissons Ratio (z) = 0.16926 0.32546
#
# Static dielectric constant tensor:
#      x y z
#    x 3.197620 0.000000 0.113130 
#    y 0.000000 3.326040 0.000000 
#    z 0.113130 0.000000 3.176200 
# 
# 
# High freq. dielectric constant tensor:
#      x y z
#    x 1.666150 0.000000 0.010770 
#    y 0.000000 1.687320 0.000000 
#    z 0.010770 0.000000 1.672980 
# 
# From -- ./inp_files/280417.got.cif
#   From: 2010.06.25/outbox.cif.g09.slc.cpg/sg12_141_cif.got.tgz:280417.got - 2010.06.28 00:19:55.
