data_PCOD8082500
_publ_section_title
;
Structure prediction by ZEFSAII (Michael W. Deem and Ramdas Pophale) SiO2 
 PCOD8082500
Probable space group: C 2/M
;
_chemical_formula_sum "Si O2"
_cell_formula_units_Z 40
_cell_length_a 28.324297
_cell_length_b 8.913815
_cell_length_c 12.523076
_cell_angle_alpha 90.000000
_cell_angle_beta 135.176844
_cell_angle_gamma 90.000000
_cell_volume 2228.815782
_symmetry_space_group_name_H-M "C 2/M"
_symmetry_group_IT_number 12
_symmetry_cell_setting 'monoclinic'
loop_
_space_group_symop_operation_xyz
x,y,z
-x,y,-z
-x,-y,-z
x,-y,z
1/2+x,1/2+y,z
1/2-x,1/2+y,-z
1/2-x,1/2-y,-z
1/2+x,1/2-y,z
loop_
_atom_site_type_symbol
_atom_site_label
_atom_site_fract_x
_atom_site_fract_y
_atom_site_fract_z
Si Si1 0.077827 0.669105 0.151806
Si Si2 0.901788 0.172853 0.023071
Si Si3 0.051696 0.823673 0.319382
Si Si4 0.821425 0.824355 0.102634
Si Si5 0.572162 0.177422 0.571758
O O1 0.101989 0.500000 0.212095
O O2 0.091957 0.768609 0.279266
O O3 0.117824 0.734327 0.114266
O O4 0.000000 0.676641 0.000000
O O5 0.845868 0.205875 0.021457
O O6 0.973705 0.221695 0.185437
O O7 0.904861 0.000000 0.994293
O O8 0.082531 0.737992 0.469326
O O9 0.061826 0.000000 0.350336
O O10 0.871621 0.749709 0.265376
O O11 0.817450 0.000000 0.121004
O O12 0.750000 0.750000 0.000000
O O13 0.500000 0.227857 0.500000
O O14 0.580734 0.000000 0.586491
#
# Coordination Sequence:
#
# PCOD8082500 Si02
#       5
#     8   8   8   8   8
#     4   9  17  28  46  75 108 139 175 221 271 319
#     4   9  18  32  51  75 106 143 181 221 267 322
#     4  10  18  31  52  78 109 142 179 222 272 324
#     4  11  23  39  57  80 111 148 188 226 272 327
#     4  11  22  35  55  82 112 144 182 229 277 323
#
# _framework density 17.946750999999999
#
# number of rings (size 3 to 8) (size 9 to 14) (size 15 to 20)
#    0.000    2.000    2.000    2.400    0.000    5.600 
#    0.000    0.000    0.000    1.200    0.000    0.000 
#    0.000    0.000    0.000    0.000    0.000    0.000 
#
# Total GULP energy -248052.636795 kJ/mol
# GULP energy per Si atom -12402.631840 kJ/mol
# Density = 1.790590 g / cm^3
# Si number density = 17.946751 Si / 1000 Ang^3
#
#
#
# Elastic Constant Matrix: (Units=GPa)
#
#
# Indices 1 2 3 4 5 6 
#
# 1 98.6678 58.4626 65.0986 0.0000 -13.5168 0.0000
# 2 58.4626 102.0173 59.5154 0.0000 -8.9865 0.0000
# 3 65.0986 59.5154 98.8037 0.0000 -10.4115 0.0000
# 4 0.0000 0.0000 0.0000 33.2219 0.0000 -6.5653
# 5 -13.5168 -8.9865 -10.4115 0.0000 29.8043 0.0000
# 6 0.0000 0.0000 0.0000 -6.5653 0.0000 30.1109
#
#
#
# Elastic Compliance Matrix: (Units=1/GPa)
#
#
# Indices 1 2 3 4 5 6 
#
# 1 0.020420 -0.005769 -0.009538 0.000000 0.004190 0.000000
# 2 -0.005769 0.016802 -0.006293 0.000000 0.000251 0.000000
# 3 -0.009538 -0.006293 0.020287 0.000000 0.000864 0.000000
# 4 0.000000 0.000000 0.000000 0.031456 0.000000 0.006859
# 5 0.004190 0.000251 0.000864 0.000000 0.035830 0.000000
# 6 0.000000 0.000000 0.000000 0.006859 0.000000 0.034706
#
#
# Mechanical properties :
#
#
# Convention : Reuss Voigt Hill
#
# Bulk Modulus (GPa) = 69.88567 73.96022 71.92295
# Shear Modulus (GPa) = 24.09999 26.38826 25.24413
#
# Velocity S-wave (km/s) = 3.66848 3.83869 3.75455
# Velocity P-wave (km/s) = 7.54777 7.80691 7.67843
#
# Compressibility (1/GPa) = 0.01430909
#
# Stress axis : x y z
#
# Youngs Moduli (GPa) = 48.97245 59.51783 49.29268
#
# Poissons Ratio (x) = 0.34334 0.47013
# Poissons Ratio (y) = 0.28251 0.31022
# Poissons Ratio (z) = 0.46708 0.37457
#
# Static dielectric constant tensor:
#      x y z
#    x 3.174710 0.000000 -0.271000 
#    y 0.000000 3.445290 0.000000 
#    z -0.271000 0.000000 3.064660 
# 
# 
# High freq. dielectric constant tensor:
#      x y z
#    x 1.684680 0.000000 -0.034200 
#    y 0.000000 1.709660 0.000000 
#    z -0.034200 0.000000 1.671690 
# 
# From -- ./inp_files/151655.got.cif
#   From: 2010.06.25/outbox.cif.g09.slc.cpg/sg12_76_cif.got.tgz:151655.got - 2010.06.28 00:19:55.
