data_PCOD8082917
_publ_section_title
;
Structure prediction by ZEFSAII (Michael W. Deem and Ramdas Pophale) SiO2 
 PCOD8082917
Probable space group: C 2/M
;
_chemical_formula_sum "Si O2"
_cell_formula_units_Z 56
_cell_length_a 14.583475
_cell_length_b 29.423262
_cell_length_c 15.801247
_cell_angle_alpha 90.000000
_cell_angle_beta 152.912440
_cell_angle_gamma 90.000000
_cell_volume 3087.379975
_symmetry_space_group_name_H-M "C 2/M"
_symmetry_group_IT_number 12
_symmetry_cell_setting 'monoclinic'
loop_
_space_group_symop_operation_xyz
x,y,z
-x,y,-z
-x,-y,-z
x,-y,z
1/2+x,1/2+y,z
1/2-x,1/2+y,-z
1/2-x,1/2-y,-z
1/2+x,1/2-y,z
loop_
_atom_site_type_symbol
_atom_site_label
_atom_site_fract_x
_atom_site_fract_y
_atom_site_fract_z
Si Si1 0.769690 0.764567 0.784344
Si Si2 0.991872 0.291771 0.273318
Si Si3 0.134176 0.798284 0.311247
Si Si4 0.263834 0.835583 0.799848
Si Si5 0.138465 0.449830 0.988004
Si Si6 0.213710 0.069949 0.703432
Si Si7 0.718233 0.357091 0.950230
O O1 0.645973 0.787270 0.757489
O O2 0.738274 0.790602 0.669961
O O3 0.698806 0.712845 0.708898
O O4 0.000000 0.764950 0.000000
O O5 0.997162 0.245928 0.221050
O O6 0.214248 0.306462 0.486379
O O7 0.910956 0.332140 0.148411
O O8 0.989112 0.841702 0.174197
O O9 0.184112 0.875569 0.674166
O O10 0.175666 0.839878 0.821002
O O11 0.500000 0.843149 0.000000
O O12 0.188774 0.500000 0.992625
O O13 0.895543 0.444647 0.790955
O O14 0.232338 0.445892 0.158133
O O15 0.239514 0.411315 0.011146
O O16 0.000000 0.047716 0.500000
#
# Coordination Sequence:
#
# PCOD8082917 Si02
#       7
#     8   8   8   8   8   8   8
#     4  11  20  34  56  75 112 153 185 216 260 314
#     4  11  22  36  53  79 111 145 180 223 259 319
#     4  11  23  34  53  81 110 144 184 216 265 316
#     4  10  18  32  50  77 108 150 183 215 254 310
#     4  10  22  38  53  74 105 139 183 233 277 326
#     4  10  19  32  54  79 107 142 182 224 268 318
#     4  11  20  38  53  73 108 142 180 223 269 310
#
# _framework density 18.138356999999999
#
# number of rings (size 3 to 8) (size 9 to 14) (size 15 to 20)
#    0.000    1.429    5.714    3.429    0.000    4.571 
#    0.000    0.000    0.000    0.000    0.000    2.000 
#    0.000    2.286    0.000    0.000    0.000    0.000 
#
# Total GULP energy -347120.985230 kJ/mol
# GULP energy per Si atom -12397.178044 kJ/mol
# Density = 1.809707 g / cm^3
# Si number density = 18.138357 Si / 1000 Ang^3
#
#
#
# Elastic Constant Matrix: (Units=GPa)
#
#
# Indices 1 2 3 4 5 6 
#
# 1 70.1175 35.4916 1.4034 0.0004 2.6261 -0.0008
# 2 35.4916 138.8382 34.0363 0.0004 6.3999 0.0007
# 3 1.4034 34.0363 73.3228 0.0016 12.9044 -0.0010
# 4 0.0004 0.0004 0.0016 3.9909 0.0002 4.0824
# 5 2.6261 6.3999 12.9044 0.0002 18.2163 -0.0017
# 6 -0.0008 0.0007 -0.0010 4.0824 -0.0017 25.3205
#
#
#
# Elastic Compliance Matrix: (Units=1/GPa)
#
#
# Indices 1 2 3 4 5 6 
#
# 1 0.016693 -0.004719 0.002288 -0.000003 -0.002370 0.000001
# 2 -0.004719 0.009462 -0.004383 0.000002 0.000461 -0.000001
# 3 0.002288 -0.004383 0.017612 -0.000008 -0.011266 0.000001
# 4 -0.000003 0.000002 -0.000008 0.300059 -0.000002 -0.048378
# 5 -0.002370 0.000461 -0.011266 -0.000002 0.063057 0.000004
# 6 0.000001 -0.000001 0.000001 -0.048378 0.000004 0.047294
#
#
# Mechanical properties :
#
#
# Convention : Reuss Voigt Hill
#
# Bulk Modulus (GPa) = 33.17923 47.12680 40.15301
# Shear Modulus (GPa) = 10.46349 23.59534 17.02942
#
# Velocity S-wave (km/s) = 2.40442 3.61065 3.06741
# Velocity P-wave (km/s) = 5.10297 6.58943 5.89326
#
# Compressibility (1/GPa) = 0.03013934
#
# Stress axis : x y z
#
# Youngs Moduli (GPa) = 59.90388 105.68281 56.77944
#
# Poissons Ratio (x) = 0.49873 -0.12992
# Poissons Ratio (y) = 0.28269 0.24887
# Poissons Ratio (z) = -0.13707 0.46323
#
# Static dielectric constant tensor:
#      x y z
#    x 3.570970 0.000000 -0.023170 
#    y 0.000000 3.393850 0.000000 
#    z -0.023170 0.000000 3.448830 
# 
# 
# High freq. dielectric constant tensor:
#      x y z
#    x 1.674330 0.000000 0.013240 
#    y 0.000000 1.678000 0.000000 
#    z 0.013240 0.000000 1.712370 
# 
# From -- ./inp_files/219363.got.cif
#   From: 2010.06.25/outbox.cif.g09.slc.cpg/sg12_110_cif.got.tgz:219363.got - 2010.06.28 00:19:55.
