data_PCOD8082688
_publ_section_title
;
Structure prediction by ZEFSAII (Michael W. Deem and Ramdas Pophale) SiO2 
 PCOD8082688
Probable space group: C 2/M
;
_chemical_formula_sum "Si O2"
_cell_formula_units_Z 64
_cell_length_a 18.342748
_cell_length_b 14.718125
_cell_length_c 24.838939
_cell_angle_alpha 90.000000
_cell_angle_beta 150.311885
_cell_angle_gamma 90.000000
_cell_volume 3321.233285
_symmetry_space_group_name_H-M "C 2/M"
_symmetry_group_IT_number 12
_symmetry_cell_setting 'monoclinic'
loop_
_space_group_symop_operation_xyz
x,y,z
-x,y,-z
-x,-y,-z
x,-y,z
1/2+x,1/2+y,z
1/2-x,1/2+y,-z
1/2-x,1/2-y,-z
1/2+x,1/2-y,z
loop_
_atom_site_type_symbol
_atom_site_label
_atom_site_fract_x
_atom_site_fract_y
_atom_site_fract_z
Si Si1 0.831600 0.107246 0.633655
Si Si2 0.153834 0.232836 0.571672
Si Si3 0.156395 0.899699 0.870619
Si Si4 0.956138 0.308907 0.032194
Si Si5 0.811851 0.173640 0.000893
Si Si6 0.644862 0.100562 0.236614
Si Si7 0.242682 0.892886 0.537522
Si Si8 0.960152 0.400046 0.221963
O O1 0.729889 0.171125 0.605507
O O2 0.792739 0.126099 0.546705
O O3 0.999461 0.139212 0.750177
O O4 0.808316 0.000000 0.633097
O O5 0.239964 0.177435 0.672995
O O6 0.137083 0.167155 0.508413
O O7 0.000000 0.258256 0.500000
O O8 0.287534 0.842178 0.928719
O O9 0.153006 0.906648 0.934334
O O10 0.176394 0.000000 0.860234
O O11 0.958288 0.211617 0.064994
O O12 0.000000 0.291726 0.000000
O O13 0.073466 0.377791 0.133026
O O14 0.750000 0.250000 0.000000
O O15 0.694171 0.152620 0.877840
O O16 0.511477 0.098445 0.193052
O O17 0.718926 0.000000 0.280973
O O18 0.410155 0.858183 0.657525
O O19 0.226748 0.000000 0.542610
O O20 0.926770 0.500000 0.222810
#
# Coordination Sequence:
#
# PCOD8082688 Si02
#       8
#     8   8   8   8   8   8   8   8
#     4  10  22  40  60  86 118 153 197 243 287 340
#     4  11  23  38  58  88 114 153 195 241 293 342
#     4  10  20  35  60  83 106 147 194 235 277 335
#     4  11  23  35  51  85 123 152 179 227 299 355
#     4  10  18  31  54  80 109 147 189 233 268 335
#     4  10  20  36  57  82 116 151 192 237 285 348
#     4   9  20  37  59  85 115 150 193 241 291 342
#     4   9  16  31  57  82 102 142 197 241 274 322
#
# _framework density 19.269950000000001
#
# number of rings (size 3 to 8) (size 9 to 14) (size 15 to 20)
#    0.000    2.000    2.500    3.000    5.250    3.250 
#    2.250    1.250    0.000    1.500    0.000    0.000 
#    0.000    0.000    0.000    0.000    0.000    0.000 
#
# Total GULP energy -396517.521754 kJ/mol
# GULP energy per Si atom -12391.172555 kJ/mol
# Density = 1.922609 g / cm^3
# Si number density = 19.269950 Si / 1000 Ang^3
#
#
#
# Elastic Constant Matrix: (Units=GPa)
#
#
# Indices 1 2 3 4 5 6 
#
# 1 101.3633 42.4430 50.8442 -0.0002 0.0194 0.0013
# 2 42.4430 68.6611 31.0162 -0.0024 10.9386 0.0032
# 3 50.8442 31.0162 115.9146 0.0023 -8.2023 0.0056
# 4 -0.0002 -0.0024 0.0023 31.5029 0.0064 -0.3636
# 5 0.0194 10.9386 -8.2023 0.0064 23.4836 0.0011
# 6 0.0013 0.0032 0.0056 -0.3636 0.0011 15.8410
#
#
#
# Elastic Compliance Matrix: (Units=1/GPa)
#
#
# Indices 1 2 3 4 5 6 
#
# 1 0.015401 -0.007802 -0.004523 -0.000001 0.002042 0.000002
# 2 -0.007802 0.022881 -0.003541 0.000004 -0.011888 -0.000002
# 3 -0.004523 -0.003541 0.011972 -0.000002 0.005835 -0.000004
# 4 -0.000001 0.000004 -0.000002 0.031752 -0.000012 0.000729
# 5 0.002042 -0.011888 0.005835 -0.000012 0.050157 -0.000004
# 6 0.000002 -0.000002 -0.000004 0.000729 -0.000004 0.063144
#
#
# Mechanical properties :
#
#
# Convention : Reuss Voigt Hill
#
# Bulk Modulus (GPa) = 53.99593 59.39397 56.69495
# Shear Modulus (GPa) = 21.43969 24.94120 23.19045
#
# Velocity S-wave (km/s) = 3.33918 3.60155 3.47284
# Velocity P-wave (km/s) = 6.55351 6.94146 6.75027
#
# Compressibility (1/GPa) = 0.01851991
#
# Stress axis : x y z
#
# Youngs Moduli (GPa) = 64.93132 43.70467 83.53121
#
# Poissons Ratio (x) = 0.34099 0.37783
# Poissons Ratio (y) = 0.50660 0.29582
# Poissons Ratio (z) = 0.29370 0.15478
#
# Static dielectric constant tensor:
#      x y z
#    x 3.451760 0.000020 -0.421240 
#    y 0.000020 3.832710 -0.000040 
#    z -0.421240 -0.000040 4.037880 
# 
# 
# High freq. dielectric constant tensor:
#      x y z
#    x 1.704480 0.000000 -0.013440 
#    y 0.000000 1.757450 0.000000 
#    z -0.013440 0.000000 1.755500 
# 
# From -- ./inp_files/344063.got.cif
#   From: 2010.06.25/outbox.cif.g09.slc.cpg/sg12_173_cif.got.tgz:344063.got - 2010.06.28 00:19:55.
