data_PCOD8082392
_publ_section_title
;
Structure prediction by ZEFSAII (Michael W. Deem and Ramdas Pophale) SiO2 
 PCOD8082392
Probable space group: C 2/M
;
_chemical_formula_sum "Si O2"
_cell_formula_units_Z 64
_cell_length_a 25.407608
_cell_length_b 17.546982
_cell_length_c 12.408678
_cell_angle_alpha 90.000000
_cell_angle_beta 42.863470
_cell_angle_gamma 90.000000
_cell_volume 3763.246171
_symmetry_space_group_name_H-M "C 2/M"
_symmetry_group_IT_number 12
_symmetry_cell_setting 'monoclinic'
loop_
_space_group_symop_operation_xyz
x,y,z
-x,y,-z
-x,-y,-z
x,-y,z
1/2+x,1/2+y,z
1/2-x,1/2+y,-z
1/2-x,1/2-y,-z
1/2+x,1/2-y,z
loop_
_atom_site_type_symbol
_atom_site_label
_atom_site_fract_x
_atom_site_fract_y
_atom_site_fract_z
Si Si1 0.882989 0.412838 0.356035
Si Si2 0.650011 0.915002 0.355984
Si Si3 0.970838 0.675891 0.927555
Si Si4 0.271533 0.326686 0.802459
Si Si5 0.704912 0.413204 0.015617
Si Si6 0.628445 0.270183 0.067881
Si Si7 0.676311 0.088764 0.781982
Si Si8 0.086362 0.268070 0.362285
O O1 0.909938 0.500000 0.298014
O O2 0.835139 0.402574 0.538246
O O3 0.828133 0.388982 0.337956
O O4 0.959981 0.361348 0.244483
O O5 0.729452 0.905922 0.173045
O O6 0.588469 0.852501 0.409781
O O7 0.615535 0.000000 0.388476
O O8 0.938827 0.751589 0.916683
O O9 0.902036 0.614440 0.040017
O O10 0.000000 0.702670 0.000000
O O11 0.250779 0.371206 0.723873
O O12 0.356928 0.291014 0.661425
O O13 0.264767 0.383380 0.914614
O O14 0.213016 0.256193 0.902727
O O15 0.676068 0.500000 0.070669
O O16 0.632829 0.360959 0.084118
O O17 0.610601 0.223616 0.202482
O O18 0.686324 0.000000 0.784676
O O19 0.000000 0.235035 0.500000
#
# Coordination Sequence:
#
# PCOD8082392 Si02
#       8
#     8   8   8   8   8   8   8   8
#     4   9  17  30  46  73 107 132 152 186 240 296
#     4  10  19  31  47  70 102 129 155 188 235 299
#     4   9  17  29  49  72  99 127 162 195 237 286
#     4  10  18  33  50  73  97 123 166 206 231 283
#     4  10  18  31  52  72  92 124 163 201 239 280
#     4  10  18  33  51  70  97 128 161 203 234 283
#     4   9  17  29  50  71  95 130 165 200 235 277
#     4  11  20  32  49  70 101 131 154 195 252 288
#
# _framework density 17.006594
#
# number of rings (size 3 to 8) (size 9 to 14) (size 15 to 20)
#    0.000    2.250    2.500    2.250    0.000    1.750 
#    0.000    1.250    2.750    9.750    0.000    0.000 
#    0.000    0.000    0.000    0.000    0.000    0.000 
#
# Total GULP energy -396718.216313 kJ/mol
# GULP energy per Si atom -12397.444260 kJ/mol
# Density = 1.696789 g / cm^3
# Si number density = 17.006594 Si / 1000 Ang^3
#
#
#
# Elastic Constant Matrix: (Units=GPa)
#
#
# Indices 1 2 3 4 5 6 
#
# 1 124.7347 65.8197 43.4196 0.0000 -1.2439 0.0000
# 2 65.8197 108.7484 33.5967 0.0000 3.7731 0.0000
# 3 43.4196 33.5967 62.1683 0.0000 4.0252 0.0000
# 4 0.0000 0.0000 0.0000 15.1093 0.0000 4.6440
# 5 -1.2439 3.7731 4.0252 0.0000 22.4518 0.0000
# 6 0.0000 0.0000 0.0000 4.6440 0.0000 23.0045
#
#
#
# Elastic Compliance Matrix: (Units=1/GPa)
#
#
# Indices 1 2 3 4 5 6 
#
# 1 0.013593 -0.006407 -0.006222 0.000000 0.002945 0.000000
# 2 -0.006407 0.014073 -0.002989 0.000000 -0.002184 0.000000
# 3 -0.006222 -0.002989 0.022295 0.000000 -0.003839 0.000000
# 4 0.000000 0.000000 0.000000 0.070563 0.000000 -0.014245
# 5 0.002945 -0.002184 -0.003839 0.000000 0.045758 0.000000
# 6 0.000000 0.000000 0.000000 -0.014245 0.000000 0.046345
#
#
# Mechanical properties :
#
#
# Convention : Reuss Voigt Hill
#
# Bulk Modulus (GPa) = 53.40526 64.59146 58.99836
# Shear Modulus (GPa) = 19.99169 22.30082 21.14626
#
# Velocity S-wave (km/s) = 3.43231 3.62512 3.53003
# Velocity P-wave (km/s) = 6.86867 7.45552 7.16810
#
# Compressibility (1/GPa) = 0.01872475
#
# Stress axis : x y z
#
# Youngs Moduli (GPa) = 73.56658 71.06007 44.85403
#
# Poissons Ratio (x) = 0.45530 0.27907
# Poissons Ratio (y) = 0.47136 0.13405
# Poissons Ratio (z) = 0.45772 0.21238
#
# Static dielectric constant tensor:
#      x y z
#    x 3.245320 0.000000 0.174600 
#    y 0.000000 3.186280 0.000000 
#    z 0.174600 0.000000 3.036350 
# 
# 
# High freq. dielectric constant tensor:
#      x y z
#    x 1.649140 0.000000 0.017910 
#    y 0.000000 1.647690 0.000000 
#    z 0.017910 0.000000 1.639990 
# 
# From -- ./inp_files/177115.got.cif
#   From: 2010.06.25/outbox.cif.g09.slc.cpg/sg12_89_cif.got.tgz:177115.got - 2010.06.28 00:19:55.
