data_PCOD8082295
_publ_section_title
;
Structure prediction by ZEFSAII (Michael W. Deem and Ramdas Pophale) SiO2 
 PCOD8082295
Probable space group: C 2/M
;
_chemical_formula_sum "Si O2"
_cell_formula_units_Z 56
_cell_length_a 30.281964
_cell_length_b 9.021079
_cell_length_c 17.057286
_cell_angle_alpha 90.000000
_cell_angle_beta 134.420901
_cell_angle_gamma 90.000000
_cell_volume 3327.996672
_symmetry_space_group_name_H-M "C 2/M"
_symmetry_group_IT_number 12
_symmetry_cell_setting 'monoclinic'
loop_
_space_group_symop_operation_xyz
x,y,z
-x,y,-z
-x,-y,-z
x,-y,z
1/2+x,1/2+y,z
1/2-x,1/2+y,-z
1/2-x,1/2-y,-z
1/2+x,1/2-y,z
loop_
_atom_site_type_symbol
_atom_site_label
_atom_site_fract_x
_atom_site_fract_y
_atom_site_fract_z
Si Si1 0.593405 0.675901 0.077825
Si Si2 0.556190 0.674334 0.516294
Si Si3 0.803895 0.175052 0.910040
Si Si4 0.836924 0.326793 0.263058
Si Si5 0.626252 0.824326 0.864636
Si Si6 0.467412 0.674605 0.846701
Si Si7 0.004489 0.174106 0.286455
O O1 0.595640 0.500000 0.079130
O O2 0.655826 0.734559 0.114000
O O3 0.585586 0.733985 0.158657
O O4 0.534745 0.735934 0.955593
O O5 0.500000 0.734978 0.500000
O O6 0.562574 0.500000 0.534747
O O7 0.620333 0.746575 0.620608
O O8 0.543551 0.720475 0.410862
O O9 0.733316 0.216664 0.804411
O O10 0.812077 0.000000 0.933860
O O11 0.824692 0.256010 0.014708
O O12 0.848666 0.500000 0.286059
O O13 0.853500 0.272559 0.196580
O O14 0.558468 0.763812 0.797144
O O15 0.626718 0.000000 0.873944
O O16 0.469676 0.500000 0.859637
O O17 0.454845 0.716548 0.740264
O O18 0.987998 0.000000 0.267625
#
# Coordination Sequence:
#
# PCOD8082295 Si02
#       7
#     8   8   8   8   8   8   8
#     4   8  13  23  45  73  95 116 151 196 234 273
#     4  10  20  33  51  72  92 123 165 202 237 273
#     4  10  19  33  51  70  95 129 162 193 232 282
#     4  10  22  35  48  68  96 131 164 193 234 282
#     4  11  21  31  45  71 101 128 156 190 237 285
#     4   8  13  23  44  74  96 115 150 196 238 272
#     4  10  18  31  51  72  96 125 157 196 238 281
#
# _framework density 16.826938999999999
#
# number of rings (size 3 to 8) (size 9 to 14) (size 15 to 20)
#    0.000    2.429    2.857    1.714    0.000    2.000 
#    0.000    0.000    0.000    2.571    0.000    0.000 
#    0.000    0.000    0.000    0.000    0.000    0.000 
#
# Total GULP energy -347050.867439 kJ/mol
# GULP energy per Si atom -12394.673837 kJ/mol
# Density = 1.678864 g / cm^3
# Si number density = 16.826939 Si / 1000 Ang^3
#
#
#
# Elastic Constant Matrix: (Units=GPa)
#
#
# Indices 1 2 3 4 5 6 
#
# 1 116.3961 12.4661 62.1795 0.0000 -20.5368 0.0000
# 2 12.4661 23.7288 28.0810 0.0000 -2.1706 0.0000
# 3 62.1795 28.0810 118.7014 0.0000 -10.2485 0.0000
# 4 0.0000 0.0000 0.0000 25.2078 0.0000 3.5694
# 5 -20.5368 -2.1706 -10.2485 0.0000 27.4889 0.0000
# 6 0.0000 0.0000 0.0000 3.5694 0.0000 11.1648
#
#
#
# Elastic Compliance Matrix: (Units=1/GPa)
#
#
# Indices 1 2 3 4 5 6 
#
# 1 0.013348 0.001640 -0.006724 0.000000 0.007595 0.000000
# 2 0.001640 0.058738 -0.014722 0.000000 0.000374 0.000000
# 3 -0.006724 -0.014722 0.015391 0.000000 -0.000448 0.000000
# 4 0.000000 0.000000 0.000000 0.041551 0.000000 -0.013284
# 5 0.007595 0.000374 -0.000448 0.000000 0.041915 0.000000
# 6 0.000000 0.000000 0.000000 -0.013284 0.000000 0.093814
#
#
# Mechanical properties :
#
#
# Convention : Reuss Voigt Hill
#
# Bulk Modulus (GPa) = 20.89261 51.58659 36.23960
# Shear Modulus (GPa) = 15.60914 23.17895 19.39404
#
# Velocity S-wave (km/s) = 3.04900 3.71548 3.39862
# Velocity P-wave (km/s) = 4.98381 7.00929 6.08147
#
# Compressibility (1/GPa) = 0.04786383
#
# Stress axis : x y z
#
# Youngs Moduli (GPa) = 74.91851 17.02468 64.97293
#
# Poissons Ratio (x) = -0.02792 0.43689
# Poissons Ratio (y) = -0.12286 0.95655
# Poissons Ratio (z) = 0.50377 0.25064
#
# Static dielectric constant tensor:
#      x y z
#    x 3.626500 0.000000 -0.183360 
#    y 0.000000 2.852300 0.000000 
#    z -0.183360 0.000000 3.074300 
# 
# 
# High freq. dielectric constant tensor:
#      x y z
#    x 1.658790 0.000000 -0.011690 
#    y 0.000000 1.617250 0.000000 
#    z -0.011690 0.000000 1.630050 
# 
# From -- ./inp_files/287331.got.cif
#   From: 2010.06.25/outbox.cif.g09.slc.cpg/sg12_144_cif.got.tgz:287331.got - 2010.06.28 00:19:55.
