data_PCOD8082639
_publ_section_title
;
Structure prediction by ZEFSAII (Michael W. Deem and Ramdas Pophale) SiO2 
 PCOD8082639
Probable space group: C 2/M
;
_chemical_formula_sum "Si O2"
_cell_formula_units_Z 48
_cell_length_a 17.437061
_cell_length_b 20.018151
_cell_length_c 8.103530
_cell_angle_alpha 90.000000
_cell_angle_beta 64.032547
_cell_angle_gamma 90.000000
_cell_volume 2543.032537
_symmetry_space_group_name_H-M "C 2/M"
_symmetry_group_IT_number 12
_symmetry_cell_setting 'monoclinic'
loop_
_space_group_symop_operation_xyz
x,y,z
-x,y,-z
-x,-y,-z
x,-y,z
1/2+x,1/2+y,z
1/2-x,1/2+y,-z
1/2-x,1/2-y,-z
1/2+x,1/2-y,z
loop_
_atom_site_type_symbol
_atom_site_label
_atom_site_fract_x
_atom_site_fract_y
_atom_site_fract_z
Si Si1 0.342604 0.735281 0.986353
Si Si2 0.419388 0.209042 0.467190
Si Si3 0.909750 0.353444 0.121286
Si Si4 0.590271 0.654562 0.374367
Si Si5 0.240191 0.185110 0.627960
Si Si6 0.739450 0.577676 0.365598
O O1 0.388634 0.804427 0.989039
O O2 0.331112 0.693512 0.165792
O O3 0.250000 0.750000 0.000000
O O4 0.404327 0.694473 0.804953
O O5 0.500000 0.185178 0.500000
O O6 0.424321 0.188797 0.272781
O O7 0.405919 0.289323 0.485509
O O8 0.333682 0.176026 0.625701
O O9 0.834132 0.407135 0.209237
O O10 0.000000 0.390414 0.000000
O O11 0.500000 0.617577 0.500000
O O12 0.667676 0.601831 0.302912
O O13 0.250000 0.250000 0.500000
O O14 0.218749 0.117500 0.551577
O O15 0.730025 0.500000 0.409270
#
# Coordination Sequence:
#
# PCOD8082639 Si02
#       6
#     8   8   8   8   8   8
#     4  12  19  34  64  93 119 153 192 254 310 345
#     4  10  18  31  53  86 119 147 187 251 299 339
#     4  11  21  34  58  92 121 157 199 248 295 360
#     4  11  21  35  59  92 121 152 197 253 300 364
#     4  11  18  37  60  83 116 156 201 247 290 352
#     4  11  23  41  59  80 123 172 198 244 307 356
#
# _framework density 18.875101999999998
#
# number of rings (size 3 to 8) (size 9 to 14) (size 15 to 20)
#    0.000    1.000    8.333    2.000    0.000    0.667 
#    0.000    0.833    0.000    9.000    0.000    0.000 
#    0.000    0.000    0.000    0.000    0.000    0.000 
#
# Total GULP energy -297387.480989 kJ/mol
# GULP energy per Si atom -12391.145041 kJ/mol
# Density = 1.883214 g / cm^3
# Si number density = 18.875102 Si / 1000 Ang^3
#
#
#
# Elastic Constant Matrix: (Units=GPa)
#
#
# Indices 1 2 3 4 5 6 
#
# 1 92.8150 26.7806 28.3876 0.0000 -4.9311 0.0000
# 2 26.7806 97.1238 32.5838 0.0000 7.1345 0.0000
# 3 28.3876 32.5838 100.7452 0.0000 -17.4674 0.0000
# 4 0.0000 0.0000 0.0000 16.6815 0.0000 1.2172
# 5 -4.9311 7.1345 -17.4674 0.0000 28.1969 0.0000
# 6 0.0000 0.0000 0.0000 1.2172 0.0000 12.5531
#
#
#
# Elastic Compliance Matrix: (Units=1/GPa)
#
#
# Indices 1 2 3 4 5 6 
#
# 1 0.012354 -0.002715 -0.002363 0.000000 0.001384 0.000000
# 2 -0.002715 0.013082 -0.004618 0.000000 -0.006646 0.000000
# 3 -0.002363 -0.004618 0.013687 0.000000 0.009234 0.000000
# 4 0.000000 0.000000 0.000000 0.060374 0.000000 -0.005854
# 5 0.001384 -0.006646 0.009234 0.000000 0.043109 0.000000
# 6 0.000000 0.000000 0.000000 -0.005854 0.000000 0.080229
#
#
# Mechanical properties :
#
#
# Convention : Reuss Voigt Hill
#
# Bulk Modulus (GPa) = 50.68537 51.79866 51.24201
# Shear Modulus (GPa) = 20.09611 25.01510 22.55561
#
# Velocity S-wave (km/s) = 3.26650 3.64441 3.46062
# Velocity P-wave (km/s) = 6.41389 6.72394 6.57075
#
# Compressibility (1/GPa) = 0.01972956
#
# Stress axis : x y z
#
# Youngs Moduli (GPa) = 80.94684 76.43803 73.06435
#
# Poissons Ratio (x) = 0.20755 0.17264
# Poissons Ratio (y) = 0.21980 0.33744
# Poissons Ratio (z) = 0.19127 0.35303
#
# Static dielectric constant tensor:
#      x y z
#    x 4.144410 0.000000 -0.294450 
#    y 0.000000 2.914790 0.000000 
#    z -0.294450 0.000000 3.755150 
# 
# 
# High freq. dielectric constant tensor:
#      x y z
#    x 1.758390 0.000000 -0.012930 
#    y 0.000000 1.667910 0.000000 
#    z -0.012930 0.000000 1.738220 
# 
# From -- ./inp_files/76725.got.cif
#   From: 2010.06.25/outbox.cif.g09.slc.cpg/sg12_39_cif.got.tgz:76725.got - 2010.06.28 00:19:55.
