data_PCOD8082256
_publ_section_title
;
Structure prediction by ZEFSAII (Michael W. Deem and Ramdas Pophale) SiO2 
 PCOD8082256
Probable space group: C 2/M
;
_chemical_formula_sum "Si O2"
_cell_formula_units_Z 56
_cell_length_a 27.578330
_cell_length_b 9.202402
_cell_length_c 14.926192
_cell_angle_alpha 90.000000
_cell_angle_beta 50.535359
_cell_angle_gamma 90.000000
_cell_volume 2924.455662
_symmetry_space_group_name_H-M "C 2/M"
_symmetry_group_IT_number 12
_symmetry_cell_setting 'monoclinic'
loop_
_space_group_symop_operation_xyz
x,y,z
-x,y,-z
-x,-y,-z
x,-y,z
1/2+x,1/2+y,z
1/2-x,1/2+y,-z
1/2-x,1/2-y,-z
1/2+x,1/2-y,z
loop_
_atom_site_type_symbol
_atom_site_label
_atom_site_fract_x
_atom_site_fract_y
_atom_site_fract_z
Si Si1 0.807503 0.673418 0.702037
Si Si2 0.814245 0.671226 0.093977
Si Si3 0.627871 0.659228 0.817260
Si Si4 0.977526 0.332495 0.127610
Si Si5 0.923742 0.670624 0.843668
Si Si6 0.259801 0.844311 0.574565
Si Si7 0.439831 0.826920 0.625623
O O1 0.798175 0.500000 0.721352
O O2 0.753005 0.748637 0.825807
O O3 0.803147 0.723974 0.602695
O O4 0.875421 0.725858 0.655241
O O5 0.804180 0.500000 0.122097
O O6 0.862733 0.731101 0.111096
O O7 0.851041 0.702203 0.957082
O O8 0.601043 0.500000 0.878927
O O9 0.584729 0.734743 0.792129
O O10 0.693512 0.629036 0.695959
O O11 0.961712 0.500000 0.166566
O O12 0.027615 0.268032 0.139564
O O13 0.000000 0.310102 0.000000
O O14 0.933883 0.500000 0.827892
O O15 0.939354 0.736739 0.727468
O O16 0.250000 0.750000 0.500000
O O17 0.288391 0.000000 0.511101
O O18 0.500000 0.765785 0.500000
O O19 0.442136 0.000000 0.624148
#
# Coordination Sequence:
#
# PCOD8082256 Si02
#       7
#     8   8   8   8   8   8   8
#     4   9  19  35  54  79 108 135 173 224 268 312
#     4  10  18  32  53  78 107 138 172 213 267 323
#     4  10  20  33  49  75 109 141 173 215 264 314
#     4  10  18  31  50  76 109 142 173 211 259 312
#     4   9  18  31  50  77 106 138 181 220 256 315
#     4   9  19  33  49  73 103 133 171 217 260 310
#     4   9  18  34  55  77 104 140 179 222 265 308
#
# _framework density 19.148862999999999
#
# number of rings (size 3 to 8) (size 9 to 14) (size 15 to 20)
#    0.000    2.571    1.429    1.714    0.000    4.857 
#    0.000    2.857    0.000    2.143    0.000    0.000 
#    0.000    0.000    0.000    0.000    0.000    0.000 
#
# Total GULP energy -346926.364284 kJ/mol
# GULP energy per Si atom -12390.227296 kJ/mol
# Density = 1.910528 g / cm^3
# Si number density = 19.148863 Si / 1000 Ang^3
#
#
#
# Elastic Constant Matrix: (Units=GPa)
#
#
# Indices 1 2 3 4 5 6 
#
# 1 160.6458 32.3691 73.1789 0.0000 -1.5537 0.0000
# 2 32.3691 56.0734 28.0794 0.0002 0.7608 -0.0001
# 3 73.1789 28.0794 111.1255 0.0000 14.6981 0.0000
# 4 0.0000 0.0002 0.0000 25.0025 0.0000 -8.6964
# 5 -1.5537 0.7608 14.6981 0.0000 26.6211 0.0000
# 6 0.0000 -0.0001 0.0000 -8.6964 0.0000 23.5824
#
#
#
# Elastic Compliance Matrix: (Units=1/GPa)
#
#
# Indices 1 2 3 4 5 6 
#
# 1 0.009605 -0.002476 -0.006239 0.000000 0.004076 0.000000
# 2 -0.002476 0.021204 -0.003914 0.000000 0.001411 0.000000
# 3 -0.006239 -0.003914 0.015243 0.000000 -0.008668 0.000000
# 4 0.000000 0.000000 0.000000 0.045881 0.000000 0.016919
# 5 0.004076 0.001411 -0.008668 0.000000 0.042548 0.000000
# 6 0.000000 0.000000 0.000000 0.016919 0.000000 0.048644
#
#
# Mechanical properties :
#
#
# Convention : Reuss Voigt Hill
#
# Bulk Modulus (GPa) = 48.08959 66.12216 57.10587
# Shear Modulus (GPa) = 23.22208 27.98901 25.60555
#
# Velocity S-wave (km/s) = 3.48618 3.82731 3.66072
# Velocity P-wave (km/s) = 6.43216 7.35776 6.91047
#
# Compressibility (1/GPa) = 0.02079452
#
# Stress axis : x y z
#
# Youngs Moduli (GPa) = 104.11179 47.16134 65.60550
#
# Poissons Ratio (x) = 0.11676 0.40929
# Poissons Ratio (y) = 0.25777 0.25678
# Poissons Ratio (z) = 0.64952 0.18459
#
# Static dielectric constant tensor:
#      x y z
#    x 3.567940 0.000000 -0.216600 
#    y 0.000000 3.313300 0.000000 
#    z -0.216600 0.000000 3.201970 
# 
# 
# High freq. dielectric constant tensor:
#      x y z
#    x 1.748400 0.000000 -0.004100 
#    y 0.000000 1.712860 0.000000 
#    z -0.004100 0.000000 1.734240 
# 
# From -- ./inp_files/248913.got.cif
#   From: 2010.06.25/outbox.cif.g09.slc.cpg/sg12_125_cif.got.tgz:248913.got - 2010.06.28 00:19:55.
