data_PCOD8082765
_publ_section_title
;
Structure prediction by ZEFSAII (Michael W. Deem and Ramdas Pophale) SiO2 
 PCOD8082765
Probable space group: C 2/M
;
_chemical_formula_sum "Si O2"
_cell_formula_units_Z 56
_cell_length_a 19.794212
_cell_length_b 17.437129
_cell_length_c 14.265315
_cell_angle_alpha 90.000000
_cell_angle_beta 36.113442
_cell_angle_gamma 90.000000
_cell_volume 2901.979276
_symmetry_space_group_name_H-M "C 2/M"
_symmetry_group_IT_number 12
_symmetry_cell_setting 'monoclinic'
loop_
_space_group_symop_operation_xyz
x,y,z
-x,y,-z
-x,-y,-z
x,-y,z
1/2+x,1/2+y,z
1/2-x,1/2+y,-z
1/2-x,1/2-y,-z
1/2+x,1/2-y,z
loop_
_atom_site_type_symbol
_atom_site_label
_atom_site_fract_x
_atom_site_fract_y
_atom_site_fract_z
Si Si1 0.564841 0.912653 0.612853
Si Si2 0.334633 0.909172 0.944019
Si Si3 0.371405 0.911561 0.109759
Si Si4 0.129300 0.089676 0.044081
Si Si5 0.814324 0.657493 0.355834
Si Si6 0.774205 0.910028 0.265785
Si Si7 0.599639 0.678803 0.721286
O O1 0.623599 0.905995 0.649375
O O2 0.648959 0.876312 0.438767
O O3 0.549965 0.000000 0.601157
O O4 0.437770 0.875010 0.762481
O O5 0.345993 0.874555 0.036209
O O6 0.211744 0.889502 0.038429
O O7 0.354702 0.000000 0.926804
O O8 0.291100 0.871843 0.276928
O O9 0.339044 0.000000 0.142634
O O10 0.500000 0.897141 0.000000
O O11 0.023382 0.147338 0.173616
O O12 0.090885 0.000000 0.089398
O O13 0.202184 0.107116 0.868831
O O14 0.688025 0.671465 0.536914
O O15 0.898438 0.731328 0.256712
O O16 0.870723 0.869257 0.219266
O O17 0.781400 0.000000 0.280329
#
# Coordination Sequence:
#
# PCOD8082765 Si02
#       7
#     8   8   8   8   8   8   8
#     4   9  16  31  54  79 103 133 175 219 263 308
#     4   9  18  32  52  81 112 137 170 215 267 322
#     4  10  18  31  55  83 104 130 174 222 265 311
#     4  10  20  35  53  78 112 143 171 214 266 321
#     4  10  20  34  54  76 102 135 178 226 261 302
#     4   9  18  32  54  78 102 137 180 220 259 308
#     4  10  21  35  52  75 104 140 181 216 262 315
#
# _framework density 19.297174999999999
#
# number of rings (size 3 to 8) (size 9 to 14) (size 15 to 20)
#    0.000    2.429    1.429    1.286    0.000    4.571 
#    0.000    4.286    0.000    2.571    0.000    0.000 
#    0.000    0.000    0.000    0.000    0.000    0.000 
#
# Total GULP energy -346989.543108 kJ/mol
# GULP energy per Si atom -12392.483682 kJ/mol
# Density = 1.925325 g / cm^3
# Si number density = 19.297175 Si / 1000 Ang^3
#
#
#
# Elastic Constant Matrix: (Units=GPa)
#
#
# Indices 1 2 3 4 5 6 
#
# 1 111.6053 28.5321 58.8452 0.0000 1.3329 0.0000
# 2 28.5321 37.3081 34.4861 0.0000 2.1413 0.0000
# 3 58.8452 34.4861 104.1625 0.0000 -0.9894 0.0000
# 4 0.0000 0.0000 0.0000 24.0991 0.0000 -1.5440
# 5 1.3329 2.1413 -0.9894 0.0000 27.9214 0.0000
# 6 0.0000 0.0000 0.0000 -1.5440 0.0000 11.1397
#
#
#
# Elastic Compliance Matrix: (Units=1/GPa)
#
#
# Indices 1 2 3 4 5 6 
#
# 1 0.013305 -0.004603 -0.005997 0.000000 -0.000495 0.000000
# 2 -0.004603 0.040545 -0.010854 0.000000 -0.003274 0.000000
# 3 -0.005997 -0.010854 0.016598 0.000000 0.001707 0.000000
# 4 0.000000 0.000000 0.000000 0.041867 0.000000 0.005803
# 5 -0.000495 -0.003274 0.001707 0.000000 0.036150 0.000000
# 6 0.000000 0.000000 0.000000 0.005803 0.000000 0.090574
#
#
# Mechanical properties :
#
#
# Convention : Reuss Voigt Hill
#
# Bulk Modulus (GPa) = 36.31188 55.20028 45.75608
# Shear Modulus (GPa) = 17.17454 21.37952 19.27703
#
# Velocity S-wave (km/s) = 2.98653 3.33214 3.16406
# Velocity P-wave (km/s) = 5.54531 6.59330 6.09189
#
# Compressibility (1/GPa) = 0.02753920
#
# Stress axis : x y z
#
# Youngs Moduli (GPa) = 75.16002 24.66366 60.24759
#
# Poissons Ratio (x) = 0.11354 0.36131
# Poissons Ratio (y) = 0.34599 0.65394
# Poissons Ratio (z) = 0.45074 0.26771
#
# Static dielectric constant tensor:
#      x y z
#    x 3.398990 0.000000 0.113160 
#    y 0.000000 3.322690 0.000000 
#    z 0.113160 0.000000 3.772070 
# 
# 
# High freq. dielectric constant tensor:
#      x y z
#    x 1.730770 0.000000 0.009470 
#    y 0.000000 1.722020 0.000000 
#    z 0.009470 0.000000 1.760640 
# 
# From -- ./inp_files/158204.got.cif
#   From: 2010.06.25/outbox.cif.g09.slc.cpg/sg12_80_cif.got.tgz:158204.got - 2010.06.28 00:19:55.
