data_PCOD8082762
_publ_section_title
;
Structure prediction by ZEFSAII (Michael W. Deem and Ramdas Pophale) SiO2 
 PCOD8082762
Probable space group: C 2/M
;
_chemical_formula_sum "Si O2"
_cell_formula_units_Z 64
_cell_length_a 26.665940
_cell_length_b 15.491288
_cell_length_c 19.523317
_cell_angle_alpha 90.000000
_cell_angle_beta 157.073348
_cell_angle_gamma 90.000000
_cell_volume 3141.694333
_symmetry_space_group_name_H-M "C 2/M"
_symmetry_group_IT_number 12
_symmetry_cell_setting 'monoclinic'
loop_
_space_group_symop_operation_xyz
x,y,z
-x,y,-z
-x,-y,-z
x,-y,z
1/2+x,1/2+y,z
1/2-x,1/2+y,-z
1/2-x,1/2-y,-z
1/2+x,1/2-y,z
loop_
_atom_site_type_symbol
_atom_site_label
_atom_site_fract_x
_atom_site_fract_y
_atom_site_fract_z
Si Si1 0.207895 0.899675 0.118049
Si Si2 0.426672 0.905752 0.978747
Si Si3 0.983925 0.406550 0.766109
Si Si4 0.254647 0.140520 0.955618
Si Si5 0.968774 0.905109 0.231569
Si Si6 0.144367 0.231862 0.154527
Si Si7 0.887905 0.736492 0.543841
Si Si8 0.115789 0.295611 0.747397
O O1 0.094744 0.881039 0.921248
O O2 0.221377 0.000000 0.152875
O O3 0.177155 0.849347 0.148342
O O4 0.344707 0.869272 0.256815
O O5 0.531193 0.891995 0.171342
O O6 0.356602 0.000000 0.899416
O O7 0.500000 0.905902 0.000000
O O8 0.333395 0.821953 0.859231
O O9 0.926107 0.500000 0.671334
O O10 0.911822 0.332100 0.634287
O O11 0.139849 0.413988 0.952649
O O12 0.185820 0.205915 0.815033
O O13 0.144750 0.085383 0.855056
O O14 0.339653 0.190620 0.118525
O O15 0.072056 0.832142 0.380381
O O16 0.035444 0.000000 0.311512
O O17 0.237588 0.233219 0.337694
O O18 0.000000 0.221195 0.000000
O O19 0.961723 0.712865 0.564600
#
# Coordination Sequence:
#
# PCOD8082762 Si02
#       8
#     8   8   8   8   8   8   8   8
#     4  10  20  36  59  84 114 151 184 218 270 335
#     4   9  19  37  59  80 102 135 183 233 279 326
#     4  10  18  31  55  82 109 140 178 227 276 326
#     4   8  13  25  49  81 114 141 169 210 268 334
#     4   9  17  32  56  85 114 142 177 224 277 330
#     4  11  24  41  57  74 108 154 192 229 275 328
#     4  10  21  35  55  85 114 142 183 232 275 324
#     4   8  15  29  51  80 112 142 174 219 268 318
#
# _framework density 20.371174
#
# number of rings (size 3 to 8) (size 9 to 14) (size 15 to 20)
#    0.000    2.625    0.000    4.125    0.000    4.750 
#    0.000    6.250    0.000    6.000    0.000    7.000 
#    0.000    0.000    0.000    0.000    0.000    0.000 
#
# Total GULP energy -396419.193009 kJ/mol
# GULP energy per Si atom -12388.099782 kJ/mol
# Density = 2.032481 g / cm^3
# Si number density = 20.371174 Si / 1000 Ang^3
#
#
#
# Elastic Constant Matrix: (Units=GPa)
#
#
# Indices 1 2 3 4 5 6 
#
# 1 63.8617 37.5821 35.9971 -0.0002 -10.6228 0.0001
# 2 37.5821 151.1921 49.1832 -0.0001 -18.0321 0.0000
# 3 35.9971 49.1832 98.9438 -0.0002 -4.0661 0.0000
# 4 -0.0002 -0.0001 -0.0002 9.4604 -0.0002 -0.0663
# 5 -10.6228 -18.0321 -4.0661 -0.0002 19.0938 0.0000
# 6 0.0001 0.0000 0.0000 -0.0663 0.0000 9.2993
#
#
#
# Elastic Compliance Matrix: (Units=1/GPa)
#
#
# Indices 1 2 3 4 5 6 
#
# 1 0.022180 -0.002342 -0.006546 0.000000 0.008734 0.000000
# 2 -0.002342 0.009081 -0.003393 0.000000 0.006551 0.000000
# 3 -0.006546 -0.003393 0.014016 0.000000 -0.003861 0.000000
# 4 0.000000 0.000000 0.000000 0.105709 0.000001 0.000754
# 5 0.008734 0.006551 -0.003861 0.000001 0.062596 0.000000
# 6 0.000000 0.000000 0.000000 0.000754 0.000000 0.107540
#
#
# Mechanical properties :
#
#
# Convention : Reuss Voigt Hill
#
# Bulk Modulus (GPa) = 48.27426 62.16916 55.22171
# Shear Modulus (GPa) = 14.18076 20.31972 17.25024
#
# Velocity S-wave (km/s) = 2.64127 3.16171 2.91313
# Velocity P-wave (km/s) = 5.74896 6.62669 6.20337
#
# Compressibility (1/GPa) = 0.02071497
#
# Stress axis : x y z
#
# Youngs Moduli (GPa) = 45.08595 110.11675 71.34615
#
# Poissons Ratio (x) = 0.25791 0.46705
# Poissons Ratio (y) = 0.10560 0.24206
# Poissons Ratio (z) = 0.29514 0.37361
#
# Static dielectric constant tensor:
#      x y z
#    x 3.603430 0.000000 0.013320 
#    y 0.000000 4.056290 0.000000 
#    z 0.013320 0.000000 3.351420 
# 
# 
# High freq. dielectric constant tensor:
#      x y z
#    x 1.785010 0.000000 -0.008310 
#    y 0.000000 1.810850 0.000000 
#    z -0.008310 0.000000 1.753100 
# 
# From -- ./inp_files/330402.got.cif
#   From: 2010.06.25/outbox.cif.g09.slc.cpg/sg12_166_cif.got.tgz:330402.got - 2010.06.28 00:19:55.
