data_PCOD8082353
_publ_section_title
;
Structure prediction by ZEFSAII (Michael W. Deem and Ramdas Pophale) SiO2 
 PCOD8082353
Probable space group: C 2/M
;
_chemical_formula_sum "Si O2"
_cell_formula_units_Z 64
_cell_length_a 20.020725
_cell_length_b 9.501408
_cell_length_c 18.978288
_cell_angle_alpha 90.000000
_cell_angle_beta 92.329393
_cell_angle_gamma 90.000000
_cell_volume 3607.163139
_symmetry_space_group_name_H-M "C 2/M"
_symmetry_group_IT_number 12
_symmetry_cell_setting 'monoclinic'
loop_
_space_group_symop_operation_xyz
x,y,z
-x,y,-z
-x,-y,-z
x,-y,z
1/2+x,1/2+y,z
1/2-x,1/2+y,-z
1/2-x,1/2-y,-z
1/2+x,1/2-y,z
loop_
_atom_site_type_symbol
_atom_site_label
_atom_site_fract_x
_atom_site_fract_y
_atom_site_fract_z
Si Si1 0.054011 0.163077 0.558862
Si Si2 0.978773 0.660929 0.306773
Si Si3 0.354734 0.161062 0.201302
Si Si4 0.294273 0.337339 0.448497
Si Si5 0.388830 0.832986 0.762042
Si Si6 0.255752 0.666223 0.290574
Si Si7 0.581827 0.166856 0.935438
Si Si8 0.932581 0.667444 0.912390
O O1 0.046314 0.248227 0.629599
O O2 0.127927 0.188567 0.530704
O O3 0.000000 0.216784 0.500000
O O4 0.042945 0.000000 0.576608
O O5 0.985948 0.500000 0.332410
O O6 0.926165 0.673990 0.241760
O O7 0.049461 0.722261 0.282371
O O8 0.300309 0.259900 0.233986
O O9 0.365012 0.216511 0.121331
O O10 0.329216 0.000000 0.202894
O O11 0.274486 0.500000 0.455980
O O12 0.250000 0.250000 0.500000
O O13 0.279168 0.285421 0.368714
O O14 0.320260 0.782539 0.723514
O O15 0.393556 0.772741 0.842328
O O16 0.393019 0.000000 0.764921
O O17 0.263769 0.500000 0.280852
O O18 0.508117 0.227145 0.915103
O O19 0.577096 0.000000 0.930948
O O20 0.603326 0.214905 0.015628
O O21 0.934352 0.500000 0.909047
#
# Coordination Sequence:
#
# PCOD8082353 Si02
#       8
#     8   8   8   8   8   8   8   8
#     4  10  22  39  55  74 102 133 164 202 247 300
#     4  10  19  32  54  79 100 125 165 215 250 280
#     4  10  18  31  51  77 102 128 166 210 247 284
#     4  10  22  38  54  73  99 131 166 200 243 298
#     4   9  17  30  48  73 102 130 166 208 247 289
#     4  10  21  36  52  71 101 137 165 196 245 305
#     4   8  13  22  42  72 102 128 159 205 253 285
#     4   8  12  22  42  70 101 129 160 203 250 290
#
# _framework density 17.742474999999999
#
# number of rings (size 3 to 8) (size 9 to 14) (size 15 to 20)
#    0.000    2.625    2.500    0.750    1.750    1.250 
#    0.000    1.250    0.000    0.000    0.000    2.625 
#    0.000    0.000    0.000    0.000    0.000    0.000 
#
# Total GULP energy -396661.851177 kJ/mol
# GULP energy per Si atom -12395.682849 kJ/mol
# Density = 1.770209 g / cm^3
# Si number density = 17.742475 Si / 1000 Ang^3
#
#
#
# Elastic Constant Matrix: (Units=GPa)
#
#
# Indices 1 2 3 4 5 6 
#
# 1 95.8189 24.6577 34.6031 0.0000 -11.4820 0.0000
# 2 24.6577 30.5526 31.0551 0.0000 -11.4767 0.0000
# 3 34.6031 31.0551 99.6184 0.0000 -20.0346 0.0000
# 4 0.0000 0.0000 0.0000 16.4294 0.0000 -6.6099
# 5 -11.4820 -11.4767 -20.0346 0.0000 34.3202 0.0000
# 6 0.0000 0.0000 0.0000 -6.6099 0.0000 19.8398
#
#
#
# Elastic Compliance Matrix: (Units=1/GPa)
#
#
# Indices 1 2 3 4 5 6 
#
# 1 0.013415 -0.008794 -0.001821 0.000000 0.000484 0.000000
# 2 -0.008794 0.055844 -0.012679 0.000000 0.008331 0.000000
# 3 -0.001821 -0.012679 0.015464 0.000000 0.004178 0.000000
# 4 0.000000 0.000000 0.000000 0.070288 0.000000 0.023417
# 5 0.000484 0.008331 0.004178 0.000000 0.034524 0.000000
# 6 0.000000 0.000000 0.000000 0.023417 0.000000 0.058205
#
#
# Mechanical properties :
#
#
# Convention : Reuss Voigt Hill
#
# Bulk Modulus (GPa) = 26.22216 45.18019 35.70118
# Shear Modulus (GPa) = 16.28454 23.16282 19.72368
#
# Velocity S-wave (km/s) = 3.03285 3.61709 3.33778
# Velocity P-wave (km/s) = 5.20343 6.55471 5.91776
#
# Compressibility (1/GPa) = 0.03813568
#
# Stress axis : x y z
#
# Youngs Moduli (GPa) = 74.54359 17.90687 64.66804
#
# Poissons Ratio (x) = 0.15747 0.11776
# Poissons Ratio (y) = 0.65552 0.81992
# Poissons Ratio (z) = 0.13574 0.22704
#
# Static dielectric constant tensor:
#      x y z
#    x 3.389780 0.000000 0.061540 
#    y 0.000000 2.870760 0.000000 
#    z 0.061540 0.000000 3.600770 
# 
# 
# High freq. dielectric constant tensor:
#      x y z
#    x 1.681230 0.000000 -0.004100 
#    y 0.000000 1.638130 0.000000 
#    z -0.004100 0.000000 1.700480 
# 
# From -- ./inp_files/314067.got.cif
#   From: 2010.06.25/outbox.cif.g09.slc.cpg/sg12_158_cif.got.tgz:314067.got - 2010.06.28 00:19:55.
