data_PCOD8082059
_publ_section_title
;
Structure prediction by ZEFSAII (Michael W. Deem and Ramdas Pophale) SiO2 
 PCOD8082059
Probable space group: C 2/M
;
_chemical_formula_sum "Si O2"
_cell_formula_units_Z 56
_cell_length_a 13.310238
_cell_length_b 21.434155
_cell_length_c 19.086058
_cell_angle_alpha 90.000000
_cell_angle_beta 33.875744
_cell_angle_gamma 90.000000
_cell_volume 3035.082246
_symmetry_space_group_name_H-M "C 2/M"
_symmetry_group_IT_number 12
_symmetry_cell_setting 'monoclinic'
loop_
_space_group_symop_operation_xyz
x,y,z
-x,y,-z
-x,-y,-z
x,-y,z
1/2+x,1/2+y,z
1/2-x,1/2+y,-z
1/2-x,1/2-y,-z
1/2+x,1/2-y,z
loop_
_atom_site_type_symbol
_atom_site_label
_atom_site_fract_x
_atom_site_fract_y
_atom_site_fract_z
Si Si1 0.583341 0.155514 0.770217
Si Si2 0.698434 0.162400 0.392824
Si Si3 0.851287 0.573516 0.142167
Si Si4 0.974911 0.844255 0.715258
Si Si5 0.868353 0.799941 0.517288
Si Si6 0.619627 0.272403 0.831882
Si Si7 0.770295 0.268684 0.897112
O O1 0.588036 0.092555 0.813854
O O2 0.692938 0.155957 0.632946
O O3 0.684591 0.206201 0.762645
O O4 0.382572 0.173489 0.862940
O O5 0.500000 0.129836 0.500000
O O6 0.674265 0.227048 0.448687
O O7 0.789525 0.172067 0.264327
O O8 0.848280 0.123793 0.350454
O O9 0.830307 0.500000 0.153146
O O10 0.661084 0.601934 0.228788
O O11 0.000000 0.596884 0.000000
O O12 0.886662 0.795040 0.821734
O O13 0.046610 0.805824 0.607805
O O14 0.000000 0.825819 0.500000
O O15 0.685749 0.284429 0.871212
O O16 0.401174 0.264781 0.951197
#
# Coordination Sequence:
#
# PCOD8082059 Si02
#       7
#     8   8   8   8   8   8   8
#     4  11  20  33  54  79 114 149 188 231 282 344
#     4  10  21  31  48  79 119 147 186 227 283 356
#     4  11  25  42  60  83 114 153 195 240 286 342
#     4  12  20  34  56  78 115 156 192 236 284 345
#     4  10  18  31  47  80 112 150 179 222 291 337
#     4  10  20  32  46  81 117 145 185 229 291 340
#     4  11  20  30  52  81 115 153 183 235 292 346
#
# _framework density 18.450901000000002
#
# number of rings (size 3 to 8) (size 9 to 14) (size 15 to 20)
#    0.000    1.286    5.714    3.429    4.000    0.000 
#    0.000    1.429    0.000    0.429    0.000    3.000 
#    0.000    0.000    0.000    0.000    0.000    0.000 
#
# Total GULP energy -346924.424809 kJ/mol
# GULP energy per Si atom -12390.158029 kJ/mol
# Density = 1.840891 g / cm^3
# Si number density = 18.450901 Si / 1000 Ang^3
#
#
#
# Elastic Constant Matrix: (Units=GPa)
#
#
# Indices 1 2 3 4 5 6 
#
# 1 76.6551 21.2299 41.3678 0.0178 -28.0234 -0.0153
# 2 21.2299 38.0395 20.0743 -0.0350 -5.8114 0.0152
# 3 41.3678 20.0743 118.6555 -0.0595 -7.9768 0.0270
# 4 0.0178 -0.0350 -0.0595 9.9358 0.0216 0.9262
# 5 -28.0234 -5.8114 -7.9768 0.0216 38.5569 -0.0058
# 6 -0.0153 0.0152 0.0270 0.9262 -0.0058 19.6588
#
#
#
# Elastic Compliance Matrix: (Units=1/GPa)
#
#
# Indices 1 2 3 4 5 6 
#
# 1 0.023951 -0.007911 -0.006005 -0.000143 0.014973 0.000044
# 2 -0.007911 0.031921 -0.002744 0.000117 -0.001506 -0.000033
# 3 -0.006005 -0.002744 0.010815 0.000073 -0.002541 -0.000022
# 4 -0.000143 0.000117 0.000073 0.101091 -0.000129 -0.004763
# 5 0.014973 -0.001506 -0.002541 -0.000129 0.036066 0.000033
# 6 0.000044 -0.000033 -0.000022 -0.004763 0.000033 0.051092
#
#
# Mechanical properties :
#
#
# Convention : Reuss Voigt Hill
#
# Bulk Modulus (GPa) = 29.96896 44.29932 37.13414
# Shear Modulus (GPa) = 16.70126 23.67551 20.18839
#
# Velocity S-wave (km/s) = 3.01187 3.58601 3.31141
# Velocity P-wave (km/s) = 5.32663 6.41930 5.89832
#
# Compressibility (1/GPa) = 0.03336786
#
# Stress axis : x y z
#
# Youngs Moduli (GPa) = 41.75181 31.32699 92.46512
#
# Poissons Ratio (x) = 0.24781 0.55529
# Poissons Ratio (y) = 0.33028 0.25370
# Poissons Ratio (z) = 0.25074 0.08595
#
# Static dielectric constant tensor:
#      x y z
#    x 3.664000 -0.000060 -0.122070 
#    y -0.000060 2.650870 0.000160 
#    z -0.122070 0.000160 4.062410 
# 
# 
# High freq. dielectric constant tensor:
#      x y z
#    x 1.737550 -0.000010 -0.003890 
#    y -0.000010 1.616910 0.000010 
#    z -0.003890 0.000010 1.751150 
# 
# From -- ./inp_files/311688.got.cif
#   From: 2010.06.25/outbox.cif.g09.slc.cpg/sg12_156_cif.got.tgz:311688.got - 2010.06.28 00:19:55.
