data_PCOD8082673
_publ_section_title
;
Structure prediction by ZEFSAII (Michael W. Deem and Ramdas Pophale) SiO2 
 PCOD8082673
Probable space group: C 2/M
;
_chemical_formula_sum "Si O2"
_cell_formula_units_Z 40
_cell_length_a 18.668935
_cell_length_b 8.941704
_cell_length_c 27.493774
_cell_angle_alpha 90.000000
_cell_angle_beta 31.571086
_cell_angle_gamma 90.000000
_cell_volume 2402.909137
_symmetry_space_group_name_H-M "C 2/M"
_symmetry_group_IT_number 12
_symmetry_cell_setting 'monoclinic'
loop_
_space_group_symop_operation_xyz
x,y,z
-x,y,-z
-x,-y,-z
x,-y,z
1/2+x,1/2+y,z
1/2-x,1/2+y,-z
1/2-x,1/2-y,-z
1/2+x,1/2-y,z
loop_
_atom_site_type_symbol
_atom_site_label
_atom_site_fract_x
_atom_site_fract_y
_atom_site_fract_z
Si Si1 0.622754 0.176786 0.099899
Si Si2 0.569435 0.323771 0.410106
Si Si3 0.103483 0.823506 0.582980
Si Si4 0.353887 0.668569 0.252194
Si Si5 0.983854 0.831618 0.751868
O O1 0.483444 0.239447 0.155066
O O2 0.623752 0.226425 0.156625
O O3 0.629906 0.000000 0.091099
O O4 0.750000 0.250000 0.000000
O O5 0.500000 0.267348 0.500000
O O6 0.594191 0.500000 0.397160
O O7 0.472501 0.274644 0.422041
O O8 0.714159 0.246543 0.318228
O O9 0.250000 0.750000 0.500000
O O10 0.014000 0.767333 0.680844
O O11 0.123536 0.000000 0.574495
O O12 0.354945 0.500000 0.230663
O O13 0.373382 0.667047 0.299785
O O14 0.923432 0.000000 0.783901
#
# Coordination Sequence:
#
# PCOD8082673 Si02
#       5
#     8   8   8   8   8
#     4  10  18  31  54  80 104 130 166 212 259 306
#     4  10  20  32  48  73 104 137 174 212 255 302
#     4  10  20  33  49  71 103 139 174 213 253 301
#     4   9  18  32  50  73 101 131 169 209 251 302
#     4   8  17  32  48  71 101 132 170 209 250 298
#
# _framework density 16.646488999999999
#
# number of rings (size 3 to 8) (size 9 to 14) (size 15 to 20)
#    1.200    1.400    0.000    3.000    0.000    2.000 
#    0.000    0.000    0.000    1.200    0.000    8.400 
#    0.000    0.000    0.000    0.000    0.000    0.000 
#
# Total GULP energy -247816.756911 kJ/mol
# GULP energy per Si atom -12390.837846 kJ/mol
# Density = 1.660860 g / cm^3
# Si number density = 16.646489 Si / 1000 Ang^3
#
#
#
# Elastic Constant Matrix: (Units=GPa)
#
#
# Indices 1 2 3 4 5 6 
#
# 1 95.9685 41.1420 67.2837 -0.0001 1.4977 0.0007
# 2 41.1420 92.3667 68.4929 -0.0002 -6.9652 0.0007
# 3 67.2837 68.4929 150.6571 -0.0004 -2.8524 0.0002
# 4 -0.0001 -0.0002 -0.0004 32.8787 0.0001 -5.3792
# 5 1.4977 -6.9652 -2.8524 0.0001 27.5867 -0.0002
# 6 0.0007 0.0007 0.0002 -5.3792 -0.0002 20.3261
#
#
#
# Elastic Compliance Matrix: (Units=1/GPa)
#
#
# Indices 1 2 3 4 5 6 
#
# 1 0.015728 -0.002913 -0.005741 0.000000 -0.002183 0.000000
# 2 -0.002913 0.017189 -0.006441 0.000000 0.003832 0.000000
# 3 -0.005741 -0.006441 0.012129 0.000000 -0.000061 0.000000
# 4 0.000000 0.000000 0.000000 0.031791 0.000000 0.008413
# 5 -0.002183 0.003832 -0.000061 0.000000 0.037329 0.000000
# 6 0.000000 0.000000 0.000000 0.008413 0.000000 0.051424
#
#
# Mechanical properties :
#
#
# Convention : Reuss Voigt Hill
#
# Bulk Modulus (GPa) = 67.31550 76.98107 72.14828
# Shear Modulus (GPa) = 24.90862 26.96321 25.93592
#
# Velocity S-wave (km/s) = 3.87244 4.02898 3.95149
# Velocity P-wave (km/s) = 7.77949 8.24552 8.01589
#
# Compressibility (1/GPa) = 0.01485542
#
# Stress axis : x y z
#
# Youngs Moduli (GPa) = 63.58042 58.17587 82.44797
#
# Poissons Ratio (x) = 0.16946 0.47335
# Poissons Ratio (y) = 0.18520 0.53107
# Poissons Ratio (z) = 0.36503 0.37473
#
# Static dielectric constant tensor:
#      x y z
#    x 3.033870 0.000000 0.118430 
#    y 0.000000 3.106030 0.000000 
#    z 0.118430 0.000000 3.010580 
# 
# 
# High freq. dielectric constant tensor:
#      x y z
#    x 1.617220 0.000000 0.002190 
#    y 0.000000 1.645150 0.000000 
#    z 0.002190 0.000000 1.632590 
# 
# From -- ./inp_files/228880.got.cif
#   From: 2010.06.25/outbox.cif.g09.slc.cpg/sg12_115_cif.got.tgz:228880.got - 2010.06.28 00:19:55.
