data_PCOD8082935
_publ_section_title
;
Structure prediction by ZEFSAII (Michael W. Deem and Ramdas Pophale) SiO2 
 PCOD8082935
Probable space group: C 2/M
;
_chemical_formula_sum "Si O2"
_cell_formula_units_Z 64
_cell_length_a 23.628774
_cell_length_b 8.628055
_cell_length_c 19.856769
_cell_angle_alpha 90.000000
_cell_angle_beta 120.941067
_cell_angle_gamma 90.000000
_cell_volume 3472.133113
_symmetry_space_group_name_H-M "C 2/M"
_symmetry_group_IT_number 12
_symmetry_cell_setting 'monoclinic'
loop_
_space_group_symop_operation_xyz
x,y,z
-x,y,-z
-x,-y,-z
x,-y,z
1/2+x,1/2+y,z
1/2-x,1/2+y,-z
1/2-x,1/2-y,-z
1/2+x,1/2-y,z
loop_
_atom_site_type_symbol
_atom_site_label
_atom_site_fract_x
_atom_site_fract_y
_atom_site_fract_z
Si Si1 0.811981 0.319492 0.691984
Si Si2 0.055571 0.816733 0.082535
Si Si3 0.942951 0.817577 0.764057
Si Si4 0.036068 0.319686 0.714588
Si Si5 0.699685 0.679092 0.171802
Si Si6 0.038303 0.177251 0.453734
Si Si7 0.169036 0.819951 0.594825
Si Si8 0.166976 0.181784 0.746618
O O1 0.815998 0.500000 0.715437
O O2 0.877311 0.265602 0.691614
O O3 0.809031 0.209901 0.754706
O O4 0.742702 0.290840 0.609482
O O5 0.046366 0.754411 0.153242
O O6 0.128202 0.775229 0.096416
O O7 0.046825 0.000000 0.079808
O O8 0.000000 0.741752 0.000000
O O9 0.005777 0.772173 0.758747
O O10 0.931795 0.000000 0.754894
O O11 0.031416 0.500000 0.726877
O O12 0.112100 0.269690 0.756128
O O13 0.997249 0.282506 0.622541
O O14 0.716103 0.500000 0.169444
O O15 0.760252 0.779325 0.178727
O O16 0.112220 0.247634 0.511207
O O17 0.000000 0.187810 0.500000
O O18 0.039528 0.000000 0.427814
O O19 0.164202 0.754423 0.668103
O O20 0.152615 0.000000 0.591194
O O21 0.153778 0.000000 0.743204
#
# Coordination Sequence:
#
# PCOD8082935 Si02
#       8
#     8   8   8   8   8   8   8   8
#     4   9  16  29  49  72 100 133 169 210 256 301
#     4   8  15  30  55  84 109 132 162 203 251 302
#     4  10  20  35  54  75 101 135 173 208 253 310
#     4  12  24  35  49  73 104 136 172 215 262 308
#     4   9  16  27  47  78 108 133 166 207 250 297
#     4  10  18  33  53  72  99 134 175 214 257 309
#     4   8  15  28  49  73  95 126 166 212 256 299
#     4  10  18  32  51  72  99 135 175 213 257 301
#
# _framework density 18.432473000000002
#
# number of rings (size 3 to 8) (size 9 to 14) (size 15 to 20)
#    0.000    2.500    1.250    4.125    0.000    0.250 
#    0.000    1.875    0.000   14.250    0.000    0.000 
#    0.000    0.000    0.000    0.000    0.000    0.000 
#
# Total GULP energy -396541.364351 kJ/mol
# GULP energy per Si atom -12391.917636 kJ/mol
# Density = 1.839052 g / cm^3
# Si number density = 18.432473 Si / 1000 Ang^3
#
#
#
# Elastic Constant Matrix: (Units=GPa)
#
#
# Indices 1 2 3 4 5 6 
#
# 1 114.3867 16.6731 47.6693 0.0000 23.2288 0.0000
# 2 16.6731 48.2650 18.1985 0.0000 6.1930 0.0000
# 3 47.6693 18.1985 75.5383 0.0000 25.7057 0.0000
# 4 0.0000 0.0000 0.0000 14.9807 0.0000 5.5601
# 5 23.2288 6.1930 25.7057 0.0000 31.3301 0.0000
# 6 0.0000 0.0000 0.0000 5.5601 0.0000 29.1509
#
#
#
# Elastic Compliance Matrix: (Units=1/GPa)
#
#
# Indices 1 2 3 4 5 6 
#
# 1 0.012267 -0.001451 -0.006097 0.000000 -0.003806 0.000000
# 2 -0.001451 0.022961 -0.004769 0.000000 0.000450 0.000000
# 3 -0.006097 -0.004769 0.022719 0.000000 -0.013178 0.000000
# 4 0.000000 0.000000 0.000000 0.071838 0.000000 -0.013702
# 5 -0.003806 0.000450 -0.013178 0.000000 0.045463 0.000000
# 6 0.000000 0.000000 0.000000 -0.013702 0.000000 0.036918
#
#
# Mechanical properties :
#
#
# Convention : Reuss Voigt Hill
#
# Bulk Modulus (GPa) = 30.01762 44.80800 37.41281
# Shear Modulus (GPa) = 20.16911 25.46895 22.81903
#
# Velocity S-wave (km/s) = 3.31148 3.72121 3.52231
# Velocity P-wave (km/s) = 5.56253 6.54410 6.07318
#
# Compressibility (1/GPa) = 0.03331377
#
# Stress axis : x y z
#
# Youngs Moduli (GPa) = 81.51674 43.55287 44.01593
#
# Poissons Ratio (x) = 0.06318 0.26835
# Poissons Ratio (y) = 0.11825 0.20993
# Poissons Ratio (z) = 0.49699 0.20772
#
# Static dielectric constant tensor:
#      x y z
#    x 3.621480 0.000000 0.490690 
#    y 0.000000 3.206250 0.000000 
#    z 0.490690 0.000000 3.484370 
# 
# 
# High freq. dielectric constant tensor:
#      x y z
#    x 1.718110 0.000000 0.038020 
#    y 0.000000 1.698900 0.000000 
#    z 0.038020 0.000000 1.678300 
# 
# From -- ./inp_files/320013.got.cif
#   From: 2010.06.25/outbox.cif.g09.slc.cpg/sg12_161_cif.got.tgz:320013.got - 2010.06.28 00:19:55.
