data_PCOD8082414
_publ_section_title
;
Structure prediction by ZEFSAII (Michael W. Deem and Ramdas Pophale) SiO2 
 PCOD8082414
Probable space group: C 2/M
;
_chemical_formula_sum "Si O2"
_cell_formula_units_Z 64
_cell_length_a 14.544645
_cell_length_b 9.536201
_cell_length_c 26.970307
_cell_angle_alpha 90.000000
_cell_angle_beta 108.660513
_cell_angle_gamma 90.000000
_cell_volume 3544.149298
_symmetry_space_group_name_H-M "C 2/M"
_symmetry_group_IT_number 12
_symmetry_cell_setting 'monoclinic'
loop_
_space_group_symop_operation_xyz
x,y,z
-x,y,-z
-x,-y,-z
x,-y,z
1/2+x,1/2+y,z
1/2-x,1/2+y,-z
1/2-x,1/2-y,-z
1/2+x,1/2-y,z
loop_
_atom_site_type_symbol
_atom_site_label
_atom_site_fract_x
_atom_site_fract_y
_atom_site_fract_z
Si Si1 0.221838 0.663302 0.142381
Si Si2 0.424476 0.663309 0.126911
Si Si3 0.518313 0.837466 0.059255
Si Si4 0.372229 0.336215 0.789646
Si Si5 0.510827 0.663521 0.384754
Si Si6 0.678916 0.340820 0.605779
Si Si7 0.343759 0.340089 0.509503
Si Si8 0.348603 0.663143 0.673667
O O1 0.228325 0.500000 0.157927
O O2 0.323041 0.712343 0.134549
O O3 0.131506 0.693068 0.090173
O O4 0.202538 0.751120 0.188910
O O5 0.417931 0.500000 0.111674
O O6 0.443885 0.749569 0.080142
O O7 0.514757 0.693759 0.179018
O O8 0.493394 0.000000 0.063463
O O9 0.500000 0.790580 0.000000
O O10 0.348955 0.500000 0.792005
O O11 0.354834 0.282362 0.730843
O O12 0.505376 0.500000 0.395639
O O13 0.400698 0.718943 0.369039
O O14 0.576291 0.728329 0.440185
O O15 0.549507 0.693912 0.336177
O O16 0.711986 0.500000 0.622899
O O17 0.627035 0.331699 0.543181
O O18 0.770928 0.242452 0.626951
O O19 0.321539 0.500000 0.521448
O O20 0.250000 0.250000 0.500000
O O21 0.322875 0.500000 0.668031
#
# Coordination Sequence:
#
# PCOD8082414 Si02
#       8
#     8   8   8   8   8   8   8   8
#     4   9  18  33  53  75  99 131 170 209 247 289
#     4   9  18  33  52  74  99 130 172 213 245 287
#     4   9  18  32  49  74 109 141 167 201 249 298
#     4   9  19  34  51  71  96 127 164 206 250 296
#     4   9  18  33  52  72  98 130 160 194 242 296
#     4  10  20  33  52  76  98 125 164 202 238 291
#     4  10  18  31  52  74  97 127 161 197 239 290
#     4  10  20  35  52  71  98 129 159 198 252 301
#
# _framework density 18.057929999999999
#
# number of rings (size 3 to 8) (size 9 to 14) (size 15 to 20)
#    0.000    2.625    1.250    0.375    0.000    4.250 
#    0.000    3.750    0.000    1.500    0.000    0.000 
#    0.000    0.000    0.000    0.000    0.000    0.000 
#
# Total GULP energy -396660.850816 kJ/mol
# GULP energy per Si atom -12395.651588 kJ/mol
# Density = 1.801683 g / cm^3
# Si number density = 18.057930 Si / 1000 Ang^3
#
#
#
# Elastic Constant Matrix: (Units=GPa)
#
#
# Indices 1 2 3 4 5 6 
#
# 1 121.9583 37.3141 28.9824 0.0000 -20.3783 0.0000
# 2 37.3141 42.8525 29.9825 0.0000 -11.6195 0.0000
# 3 28.9824 29.9825 94.7761 0.0000 -19.9077 0.0000
# 4 0.0000 0.0000 0.0000 25.5896 0.0000 -3.3903
# 5 -20.3783 -11.6195 -19.9077 0.0000 22.6132 0.0000
# 6 0.0000 0.0000 0.0000 -3.3903 0.0000 24.1834
#
#
#
# Elastic Compliance Matrix: (Units=1/GPa)
#
#
# Indices 1 2 3 4 5 6 
#
# 1 0.011920 -0.008995 0.000596 0.000000 0.006645 0.000000
# 2 -0.008995 0.038203 -0.008483 0.000000 0.004056 0.000000
# 3 0.000596 -0.008483 0.015029 0.000000 0.009409 0.000000
# 4 0.000000 0.000000 0.000000 0.039818 0.000000 0.005582
# 5 0.006645 0.004056 0.009409 0.000000 0.060578 0.000000
# 6 0.000000 0.000000 0.000000 0.005582 0.000000 0.042133
#
#
# Mechanical properties :
#
#
# Convention : Reuss Voigt Hill
#
# Bulk Modulus (GPa) = 31.85840 50.23834 41.04837
# Shear Modulus (GPa) = 19.84851 25.36444 22.60647
#
# Velocity S-wave (km/s) = 3.31895 3.75189 3.54204
# Velocity P-wave (km/s) = 5.68928 6.83007 6.28561
#
# Compressibility (1/GPa) = 0.03138889
#
# Stress axis : x y z
#
# Youngs Moduli (GPa) = 83.89091 26.17572 66.53855
#
# Poissons Ratio (x) = 0.23545 -0.03967
# Poissons Ratio (y) = 0.75459 0.56445
# Poissons Ratio (z) = -0.05001 0.22205
#
# Static dielectric constant tensor:
#      x y z
#    x 3.479740 0.000000 -0.101230 
#    y 0.000000 3.165770 0.000000 
#    z -0.101230 0.000000 3.414170 
# 
# 
# High freq. dielectric constant tensor:
#      x y z
#    x 1.704920 0.000000 -0.006740 
#    y 0.000000 1.679760 0.000000 
#    z -0.006740 0.000000 1.696160 
# 
# From -- ./inp_files/359829.got.cif
#   From: 2010.06.25/outbox.cif.g09.slc.cpg/sg12_180_cif.got.tgz:359829.got - 2010.06.28 00:19:55.
