data_PCOD8082579
_publ_section_title
;
Structure prediction by ZEFSAII (Michael W. Deem and Ramdas Pophale) SiO2 
 PCOD8082579
Probable space group: C 2/M
;
_chemical_formula_sum "Si O2"
_cell_formula_units_Z 48
_cell_length_a 17.725539
_cell_length_b 10.965566
_cell_length_c 20.968454
_cell_angle_alpha 90.000000
_cell_angle_beta 140.689657
_cell_angle_gamma 90.000000
_cell_volume 2582.008248
_symmetry_space_group_name_H-M "C 2/M"
_symmetry_group_IT_number 12
_symmetry_cell_setting 'monoclinic'
loop_
_space_group_symop_operation_xyz
x,y,z
-x,y,-z
-x,-y,-z
x,-y,z
1/2+x,1/2+y,z
1/2-x,1/2+y,-z
1/2-x,1/2-y,-z
1/2+x,1/2-y,z
loop_
_atom_site_type_symbol
_atom_site_label
_atom_site_fract_x
_atom_site_fract_y
_atom_site_fract_z
Si Si1 0.364153 0.360502 0.278075
Si Si2 0.426558 0.702356 0.667144
Si Si3 0.224452 0.868838 0.545312
Si Si4 0.881300 0.133133 0.777448
Si Si5 0.627201 0.211960 0.591965
Si Si6 0.595175 0.139476 0.117001
O O1 0.405591 0.500000 0.300917
O O2 0.441502 0.285939 0.276659
O O3 0.390353 0.315965 0.366441
O O4 0.225042 0.344515 0.170461
O O5 0.364522 0.834994 0.631310
O O6 0.338629 0.623483 0.564687
O O7 0.435608 0.640986 0.742332
O O8 0.156287 0.772096 0.543545
O O9 0.219620 0.000000 0.575498
O O10 0.736843 0.125722 0.682668
O O11 0.925893 0.253225 0.844832
O O12 0.922042 0.000000 0.832482
O O13 0.500000 0.142022 0.500000
O O14 0.584008 0.000000 0.138280
O O15 0.500000 0.160205 0.000000
#
# Coordination Sequence:
#
# PCOD8082579 Si02
#       6
#     8   8   8   8   8   8
#     4  10  18  31  53  77 104 135 177 226 265 308
#     4  10  20  31  46  74 106 142 182 212 257 312
#     4  10  19  31  47  68 105 149 187 223 256 296
#     4  10  21  35  52  76 110 145 173 208 265 327
#     4  10  19  30  48  76 104 140 188 222 254 293
#     4   9  20  40  64  84 100 126 172 228 276 315
#
# _framework density 18.590181999999999
#
# number of rings (size 3 to 8) (size 9 to 14) (size 15 to 20)
#    0.000    2.167    1.667    2.000    0.000    5.333 
#    0.000    4.167    0.000    0.000    0.000    0.000 
#    0.000    0.000    0.000    0.000    0.000    0.000 
#
# Total GULP energy -297333.782782 kJ/mol
# GULP energy per Si atom -12388.907616 kJ/mol
# Density = 1.854787 g / cm^3
# Si number density = 18.590182 Si / 1000 Ang^3
#
#
#
# Elastic Constant Matrix: (Units=GPa)
#
#
# Indices 1 2 3 4 5 6 
#
# 1 109.6854 30.6681 34.7777 0.0000 -3.3015 0.0000
# 2 30.6681 105.5072 29.6657 0.0000 -13.4721 0.0000
# 3 34.7777 29.6657 85.8797 0.0000 0.5752 0.0000
# 4 0.0000 0.0000 0.0000 5.4552 0.0000 1.3958
# 5 -3.3015 -13.4721 0.5752 0.0000 19.8115 0.0000
# 6 0.0000 0.0000 0.0000 1.3958 0.0000 12.4444
#
#
#
# Elastic Compliance Matrix: (Units=1/GPa)
#
#
# Indices 1 2 3 4 5 6 
#
# 1 0.010881 -0.002056 -0.003700 0.000000 0.000523 0.000000
# 2 -0.002056 0.012040 -0.003380 0.000000 0.007943 0.000000
# 3 -0.003700 -0.003380 0.014332 0.000000 -0.003331 0.000000
# 4 0.000000 0.000000 0.000000 0.188726 0.000000 -0.021167
# 5 0.000523 0.007943 -0.003331 0.000000 0.056061 0.000000
# 6 0.000000 0.000000 0.000000 -0.021167 0.000000 0.082732
#
#
# Mechanical properties :
#
#
# Convention : Reuss Voigt Hill
#
# Bulk Modulus (GPa) = 52.67953 54.58835 53.63394
# Shear Modulus (GPa) = 12.84129 21.27294 17.05711
#
# Velocity S-wave (km/s) = 2.63108 3.38644 3.03237
# Velocity P-wave (km/s) = 6.13424 6.68718 6.41667
#
# Compressibility (1/GPa) = 0.01898271
#
# Stress axis : x y z
#
# Youngs Moduli (GPa) = 91.90750 83.05577 69.77322
#
# Poissons Ratio (x) = 0.17074 0.25813
# Poissons Ratio (y) = 0.18894 0.23582
# Poissons Ratio (z) = 0.34001 0.28071
#
# Static dielectric constant tensor:
#      x y z
#    x 3.518890 0.000000 0.158540 
#    y 0.000000 3.413180 0.000000 
#    z 0.158540 0.000000 3.241440 
# 
# 
# High freq. dielectric constant tensor:
#      x y z
#    x 1.723040 0.000000 0.005150 
#    y 0.000000 1.712490 0.000000 
#    z 0.005150 0.000000 1.693730 
# 
# From -- ./inp_files/315425.got.cif
#   From: 2010.06.25/outbox.cif.g09.slc.cpg/sg12_158_cif.got.tgz:315425.got - 2010.06.28 00:19:55.
