data_PCOD8082078
_publ_section_title
;
Structure prediction by ZEFSAII (Michael W. Deem and Ramdas Pophale) SiO2 
 PCOD8082078
Probable space group: C 2/M
;
_chemical_formula_sum "Si O2"
_cell_formula_units_Z 48
_cell_length_a 16.458951
_cell_length_b 23.205624
_cell_length_c 8.462590
_cell_angle_alpha 90.000000
_cell_angle_beta 119.100121
_cell_angle_gamma 90.000000
_cell_volume 2824.206368
_symmetry_space_group_name_H-M "C 2/M"
_symmetry_group_IT_number 12
_symmetry_cell_setting 'monoclinic'
loop_
_space_group_symop_operation_xyz
x,y,z
-x,y,-z
-x,-y,-z
x,-y,z
1/2+x,1/2+y,z
1/2-x,1/2+y,-z
1/2-x,1/2-y,-z
1/2+x,1/2-y,z
loop_
_atom_site_type_symbol
_atom_site_label
_atom_site_fract_x
_atom_site_fract_y
_atom_site_fract_z
Si Si1 0.833261 0.764854 0.960974
Si Si2 0.600900 0.065792 0.664889
Si Si3 0.797166 0.328866 0.365996
Si Si4 0.718057 0.836361 0.278888
Si Si5 0.100102 0.566843 0.032880
Si Si6 0.401515 0.719285 0.340741
O O1 0.801181 0.816851 0.815485
O O2 0.853134 0.708654 0.872691
O O3 0.750000 0.750000 0.000000
O O4 0.915860 0.780463 0.161227
O O5 0.500000 0.078510 0.500000
O O6 0.673508 0.106322 0.645197
O O7 0.630353 0.000000 0.660011
O O8 0.603303 0.080512 0.851281
O O9 0.782571 0.323290 0.537438
O O10 0.874090 0.282529 0.381122
O O11 0.682121 0.899928 0.202283
O O12 0.823271 0.827337 0.316240
O O13 0.116327 0.500000 0.085953
O O14 0.000000 0.587272 0.000000
O O15 0.500000 0.699106 0.500000
#
# Coordination Sequence:
#
# PCOD8082078 Si02
#       6
#     8   8   8   8   8   8
#     4   8  16  30  47  65  90 122 159 196 234 277
#     4  10  19  30  45  68  97 127 159 193 236 291
#     4  10  18  31  48  68  97 129 161 199 243 288
#     4  10  19  32  48  71 100 127 162 202 243 289
#     4  10  20  33  50  73  99 128 161 196 238 290
#     4  10  19  32  50  70  95 129 167 203 241 286
#
# _framework density 16.995923999999999
#
# number of rings (size 3 to 8) (size 9 to 14) (size 15 to 20)
#    0.000    2.667    0.000    6.500    0.000    3.333 
#    0.000    2.500    0.000    0.500    0.000    0.000 
#    0.000    5.333    0.000    0.000    0.000    0.000 
#
# Total GULP energy -297457.008444 kJ/mol
# GULP energy per Si atom -12394.042018 kJ/mol
# Density = 1.695724 g / cm^3
# Si number density = 16.995924 Si / 1000 Ang^3
#
#
#
# Elastic Constant Matrix: (Units=GPa)
#
#
# Indices 1 2 3 4 5 6 
#
# 1 53.0531 35.4459 44.2033 0.0000 1.3671 0.0000
# 2 35.4459 81.9131 45.4441 0.0000 3.1567 0.0000
# 3 44.2033 45.4441 159.4181 0.0000 -5.4694 0.0000
# 4 0.0000 0.0000 0.0000 20.6610 0.0000 18.7346
# 5 1.3671 3.1567 -5.4694 0.0000 32.4001 0.0000
# 6 0.0000 0.0000 0.0000 18.7346 0.0000 -14.4527
#
#
#
# Elastic Compliance Matrix: (Units=1/GPa)
#
#
# Indices 1 2 3 4 5 6 
#
# 1 0.030145 -0.009901 -0.005579 0.000000 -0.001249 0.000000
# 2 -0.009901 0.017900 -0.002417 0.000000 -0.001734 0.000000
# 3 -0.005579 -0.002417 0.008574 0.000000 0.001918 0.000000
# 4 0.000000 0.000000 0.000000 0.022249 0.000000 0.028841
# 5 -0.001249 -0.001734 0.001918 0.000000 0.031410 0.000000
# 6 0.000000 0.000000 0.000000 0.028841 0.000000 -0.031806
#
#
# Mechanical properties :
#
#
# Convention : Reuss Voigt Hill
#
# Bulk Modulus (GPa) = 48.01769 60.50790 54.26279
# Shear Modulus (GPa) = 41.25167 19.00774 30.12970
#
# Velocity S-wave (km/s) = 4.93196 3.34783 4.21498
# Velocity P-wave (km/s) = 7.79398 7.11496 7.46220
#
# Compressibility (1/GPa) = 0.02082566
#
# Stress axis : x y z
#
# Youngs Moduli (GPa) = 33.17334 55.86539 116.62521
#
# Poissons Ratio (x) = 0.55313 0.65064
# Poissons Ratio (y) = 0.32845 0.28186
# Poissons Ratio (z) = 0.18507 0.13501
#
# Static dielectric constant tensor:
#      x y z
#    x 2.865980 0.000000 -0.136210 
#    y 0.000000 3.083310 0.000000 
#    z -0.136210 0.000000 4.091360 
# 
# 
# High freq. dielectric constant tensor:
#      x y z
#    x 1.619420 0.000000 -0.021050 
#    y 0.000000 1.639670 0.000000 
#    z -0.021050 0.000000 1.681780 
# 
# From -- ./inp_files/78514.got.cif
#   From: 2010.06.25/outbox.cif.g09.slc.cpg/sg12_40_cif.got.tgz:78514.got - 2010.06.28 00:19:55.
