data_PCOD8082370
_publ_section_title
;
Structure prediction by ZEFSAII (Michael W. Deem and Ramdas Pophale) SiO2 
 PCOD8082370
Probable space group: C 2/M
;
_chemical_formula_sum "Si O2"
_cell_formula_units_Z 64
_cell_length_a 30.531401
_cell_length_b 9.010834
_cell_length_c 22.266256
_cell_angle_alpha 90.000000
_cell_angle_beta 32.599377
_cell_angle_gamma 90.000000
_cell_volume 3300.316375
_symmetry_space_group_name_H-M "C 2/M"
_symmetry_group_IT_number 12
_symmetry_cell_setting 'monoclinic'
loop_
_space_group_symop_operation_xyz
x,y,z
-x,y,-z
-x,-y,-z
x,-y,z
1/2+x,1/2+y,z
1/2-x,1/2+y,-z
1/2-x,1/2-y,-z
1/2+x,1/2-y,z
loop_
_atom_site_type_symbol
_atom_site_label
_atom_site_fract_x
_atom_site_fract_y
_atom_site_fract_z
Si Si1 0.096932 0.826163 0.238610
Si Si2 0.580390 0.327650 0.118314
Si Si3 0.558710 0.824336 0.551664
Si Si4 0.242388 0.325359 0.132336
Si Si5 0.351365 0.671496 0.448572
Si Si6 0.786136 0.674675 0.700291
Si Si7 0.195225 0.332639 0.705258
Si Si8 0.577643 0.826114 0.741667
O O1 0.079844 0.787772 0.189094
O O2 0.184230 0.760349 0.154045
O O3 0.028730 0.750087 0.360145
O O4 0.097164 0.000000 0.250642
O O5 0.560645 0.500000 0.131059
O O6 0.513776 0.231746 0.159951
O O7 0.666308 0.284335 0.990646
O O8 0.586116 0.767498 0.584737
O O9 0.625312 0.771823 0.425514
O O10 0.548287 0.000000 0.563635
O O11 0.225534 0.500000 0.145994
O O12 0.226273 0.266116 0.218271
O O13 0.379162 0.500000 0.418294
O O14 0.260551 0.692838 0.576884
O O15 0.359585 0.735259 0.372400
O O16 0.780443 0.500000 0.704894
O O17 0.713385 0.731100 0.741628
O O18 0.199611 0.500000 0.724162
O O19 0.107889 0.298401 0.775549
O O20 0.582571 0.000000 0.720248
#
# Coordination Sequence:
#
# PCOD8082370 Si02
#       8
#     8   8   8   8   8   8   8   8
#     4  11  22  36  57  86 114 142 182 227 280 339
#     4  10  22  39  58  81 112 146 184 231 278 326
#     4  10  19  33  55  83 114 147 179 224 276 327
#     4  10  22  41  61  80 106 145 190 235 278 324
#     4  10  18  31  51  78 114 148 180 223 272 326
#     4   9  20  38  59  82 109 145 191 231 271 324
#     4   9  20  35  53  80 113 148 184 224 272 327
#     4  11  21  33  53  82 113 147 185 223 273 331
#
# _framework density 19.392081000000001
#
# number of rings (size 3 to 8) (size 9 to 14) (size 15 to 20)
#    0.000    2.000    1.250    2.250    0.000    4.000 
#    0.000    3.125    0.000    3.750    0.000    0.000 
#    0.000    0.000    0.000    0.000    0.000    0.000 
#
# Total GULP energy -396818.603549 kJ/mol
# GULP energy per Si atom -12400.581361 kJ/mol
# Density = 1.934794 g / cm^3
# Si number density = 19.392081 Si / 1000 Ang^3
#
#
#
# Elastic Constant Matrix: (Units=GPa)
#
#
# Indices 1 2 3 4 5 6 
#
# 1 61.2224 28.3525 56.3951 0.0105 -20.2782 -0.0052
# 2 28.3525 59.8123 43.0545 0.0007 -10.3234 -0.0045
# 3 56.3951 43.0545 97.9114 -0.0126 -5.8348 0.0044
# 4 0.0105 0.0007 -0.0126 26.7522 -0.0002 -6.7809
# 5 -20.2782 -10.3234 -5.8348 -0.0002 25.7909 -0.0013
# 6 -0.0052 -0.0045 0.0044 -6.7809 -0.0013 30.6530
#
#
#
# Elastic Compliance Matrix: (Units=1/GPa)
#
#
# Indices 1 2 3 4 5 6 
#
# 1 0.057391 0.002390 -0.031790 -0.000035 0.038888 0.000009
# 2 0.002390 0.026064 -0.012270 -0.000006 0.009536 0.000005
# 3 -0.031790 -0.012270 0.032576 0.000026 -0.022536 -0.000007
# 4 -0.000035 -0.000006 0.000026 0.039601 -0.000023 0.008760
# 5 0.038888 0.009536 -0.022536 -0.000023 0.068068 0.000009
# 6 0.000009 0.000005 -0.000007 0.008760 0.000009 0.034561
#
#
# Mechanical properties :
#
#
# Convention : Reuss Voigt Hill
#
# Bulk Modulus (GPa) = 30.58779 52.72782 41.65780
# Shear Modulus (GPa) = 14.18460 22.71549 18.45004
#
# Velocity S-wave (km/s) = 2.70749 3.42626 3.08786
# Velocity P-wave (km/s) = 5.05783 6.54994 5.85164
#
# Compressibility (1/GPa) = 0.03269279
#
# Stress axis : x y z
#
# Youngs Moduli (GPa) = 17.42445 38.36750 30.69761
#
# Poissons Ratio (x) = -0.09172 0.97587
# Poissons Ratio (y) = -0.04165 0.37665
# Poissons Ratio (z) = 0.55392 0.47075
#
# Static dielectric constant tensor:
#      x y z
#    x 3.480700 -0.000020 -0.048740 
#    y -0.000020 3.484930 0.000050 
#    z -0.048740 0.000050 3.601680 
# 
# 
# High freq. dielectric constant tensor:
#      x y z
#    x 1.749410 0.000000 -0.011620 
#    y 0.000000 1.755040 0.000000 
#    z -0.011620 0.000000 1.748480 
# 
# From -- ./inp_files/353302.got.cif
#   From: 2010.06.25/outbox.cif.g09.slc.cpg/sg12_177_cif.got.tgz:353302.got - 2010.06.28 00:19:55.
