data_PCOD8082335
_publ_section_title
;
Structure prediction by ZEFSAII (Michael W. Deem and Ramdas Pophale) SiO2 
 PCOD8082335
Probable space group: C 2/M
;
_chemical_formula_sum "Si O2"
_cell_formula_units_Z 56
_cell_length_a 34.913474
_cell_length_b 13.965321
_cell_length_c 10.147743
_cell_angle_alpha 90.000000
_cell_angle_beta 140.920358
_cell_angle_gamma 90.000000
_cell_volume 3119.102670
_symmetry_space_group_name_H-M "C 2/M"
_symmetry_group_IT_number 12
_symmetry_cell_setting 'monoclinic'
loop_
_space_group_symop_operation_xyz
x,y,z
-x,y,-z
-x,-y,-z
x,-y,z
1/2+x,1/2+y,z
1/2-x,1/2+y,-z
1/2-x,1/2-y,-z
1/2+x,1/2-y,z
loop_
_atom_site_type_symbol
_atom_site_label
_atom_site_fract_x
_atom_site_fract_y
_atom_site_fract_z
Si Si1 0.048540 0.702895 0.247298
Si Si2 0.531803 0.781276 0.723716
Si Si3 0.929503 0.102122 0.781440
Si Si4 0.660164 0.108660 0.428783
Si Si5 0.227463 0.777243 0.297398
Si Si6 0.390827 0.609828 0.968406
Si Si7 0.648605 0.109369 0.087893
O O1 0.080895 0.807900 0.342444
O O2 0.100603 0.625508 0.357991
O O3 0.017037 0.680203 0.301118
O O4 0.000000 0.701308 0.000000
O O5 0.500000 0.771073 0.500000
O O6 0.557169 0.677072 0.831260
O O7 0.584279 0.861002 0.854384
O O8 0.907901 0.000000 0.660817
O O9 0.891987 0.121371 0.814260
O O10 0.000000 0.093004 0.000000
O O11 0.714908 0.177684 0.625425
O O12 0.644349 0.127709 0.233378
O O13 0.681478 0.000000 0.505501
O O14 0.250000 0.750000 0.500000
O O15 0.200656 0.678471 0.163549
O O16 0.175318 0.857887 0.160331
O O17 0.403040 0.500000 0.043826
O O18 0.664101 0.000000 0.093670
#
# Coordination Sequence:
#
# PCOD8082335 Si02
#       7
#     8   8   8   8   8   8   8
#     4  11  18  33  52  73 105 139 168 213 264 309
#     4  11  22  34  50  76 107 140 178 215 254 306
#     4   9  15  25  46  71  97 131 168 205 249 300
#     4  10  19  31  52  80 104 131 170 215 259 310
#     4   9  17  30  49  77 109 132 166 215 262 309
#     4  10  18  31  51  75 105 143 174 210 263 309
#     4   9  18  33  52  74 104 139 172 211 257 308
#
# _framework density 17.953883000000001
#
# number of rings (size 3 to 8) (size 9 to 14) (size 15 to 20)
#    0.000    2.143    4.286    2.143    0.000    2.000 
#    0.000    0.714    0.000    3.429    0.000    2.000 
#    0.000    0.000    0.000    0.000    0.000    0.000 
#
# Total GULP energy -347000.904041 kJ/mol
# GULP energy per Si atom -12392.889430 kJ/mol
# Density = 1.791302 g / cm^3
# Si number density = 17.953883 Si / 1000 Ang^3
#
#
#
# Elastic Constant Matrix: (Units=GPa)
#
#
# Indices 1 2 3 4 5 6 
#
# 1 71.8468 28.0449 34.2620 0.0000 19.0944 0.0000
# 2 28.0449 115.5670 29.3416 0.0000 18.7727 0.0000
# 3 34.2620 29.3416 53.6791 0.0000 10.8557 0.0000
# 4 0.0000 0.0000 0.0000 13.5805 0.0000 3.8347
# 5 19.0944 18.7727 10.8557 0.0000 24.4407 0.0000
# 6 0.0000 0.0000 0.0000 3.8347 0.0000 19.2621
#
#
#
# Elastic Compliance Matrix: (Units=1/GPa)
#
#
# Indices 1 2 3 4 5 6 
#
# 1 0.023112 -0.000576 -0.011948 0.000000 -0.012307 0.000000
# 2 -0.000576 0.010870 -0.004369 0.000000 -0.005959 0.000000
# 3 -0.011948 -0.004369 0.028651 0.000000 -0.000035 0.000000
# 4 0.000000 0.000000 0.000000 0.078021 0.000000 -0.015532
# 5 -0.012307 -0.005959 -0.000035 0.000000 0.055123 0.000000
# 6 0.000000 0.000000 0.000000 -0.015532 0.000000 0.055008
#
#
# Mechanical properties :
#
#
# Convention : Reuss Voigt Hill
#
# Bulk Modulus (GPa) = 34.66624 47.15443 40.91033
# Shear Modulus (GPa) = 16.99613 21.41962 19.20787
#
# Velocity S-wave (km/s) = 3.08011 3.45778 3.27440
# Velocity P-wave (km/s) = 5.65684 6.50099 6.09355
#
# Compressibility (1/GPa) = 0.02884651
#
# Stress axis : x y z
#
# Youngs Moduli (GPa) = 43.26804 91.99690 34.90333
#
# Poissons Ratio (x) = 0.05299 0.41702
# Poissons Ratio (y) = 0.02492 0.15249
# Poissons Ratio (z) = 0.51696 0.40193
#
# Static dielectric constant tensor:
#      x y z
#    x 3.277160 0.000000 0.368410 
#    y 0.000000 4.313790 0.000000 
#    z 0.368410 0.000000 2.962200 
# 
# 
# High freq. dielectric constant tensor:
#      x y z
#    x 1.675300 0.000000 0.038930 
#    y 0.000000 1.715020 0.000000 
#    z 0.038930 0.000000 1.641610 
# 
# From -- ./inp_files/111712.got.cif
#   From: 2010.06.25/outbox.cif.g09.slc.cpg/sg12_56_cif.got.tgz:111712.got - 2010.06.28 00:19:55.
