data_PCOD8082132
_publ_section_title
;
Structure prediction by ZEFSAII (Michael W. Deem and Ramdas Pophale) SiO2 
 PCOD8082132
Probable space group: C 2/M
;
_chemical_formula_sum "Si O2"
_cell_formula_units_Z 48
_cell_length_a 33.020573
_cell_length_b 9.040968
_cell_length_c 15.246131
_cell_angle_alpha 90.000000
_cell_angle_beta 36.717024
_cell_angle_gamma 90.000000
_cell_volume 2721.204085
_symmetry_space_group_name_H-M "C 2/M"
_symmetry_group_IT_number 12
_symmetry_cell_setting 'monoclinic'
loop_
_space_group_symop_operation_xyz
x,y,z
-x,y,-z
-x,-y,-z
x,-y,z
1/2+x,1/2+y,z
1/2-x,1/2+y,-z
1/2-x,1/2-y,-z
1/2+x,1/2-y,z
loop_
_atom_site_type_symbol
_atom_site_label
_atom_site_fract_x
_atom_site_fract_y
_atom_site_fract_z
Si Si1 0.569314 0.834120 0.771272
Si Si2 0.544915 0.329298 0.648450
Si Si3 0.924462 0.170422 0.599686
Si Si4 0.179970 0.676010 0.096560
Si Si5 0.891043 0.174687 0.937933
Si Si6 0.090292 0.331896 0.924398
O O1 0.588814 0.743036 0.650505
O O2 0.605334 0.775780 0.798450
O O3 0.593747 0.000000 0.712023
O O4 0.489455 0.826392 0.922677
O O5 0.543436 0.500000 0.672798
O O6 0.581386 0.294654 0.493441
O O7 0.467055 0.274560 0.780070
O O8 0.874915 0.280573 0.735219
O O9 0.000000 0.202143 0.500000
O O10 0.904928 0.000000 0.654234
O O11 0.187161 0.500000 0.079904
O O12 0.159401 0.738150 0.037606
O O13 0.250000 0.750000 0.000000
O O14 0.880049 0.000000 0.946454
O O15 0.873967 0.224066 0.067415
O O16 0.116437 0.500000 0.891610
#
# Coordination Sequence:
#
# PCOD8082132 Si02
#       6
#     8   8   8   8   8   8
#     4   8  14  24  39  62  98 133 165 207 251 296
#     4   9  17  28  47  72 101 135 168 206 255 304
#     4  10  19  36  56  76 106 139 172 214 262 309
#     4  12  25  39  55  76 103 137 177 219 261 311
#     4  10  18  31  49  72 100 134 171 211 258 306
#     4   8  14  25  40  63  95 133 168 205 253 299
#
# _framework density 17.639251000000002
#
# number of rings (size 3 to 8) (size 9 to 14) (size 15 to 20)
#    0.000    2.500    1.667    3.000    0.000    2.333 
#    0.000    3.333    0.000    0.000    0.000    1.167 
#    0.000    0.000    0.000    0.000    0.000    0.000 
#
# Total GULP energy -297474.517940 kJ/mol
# GULP energy per Si atom -12394.771581 kJ/mol
# Density = 1.759910 g / cm^3
# Si number density = 17.639251 Si / 1000 Ang^3
#
#
#
# Elastic Constant Matrix: (Units=GPa)
#
#
# Indices 1 2 3 4 5 6 
#
# 1 138.9078 70.1647 52.9710 0.0000 28.0069 0.0003
# 2 70.1647 96.0702 34.5678 -0.0034 11.8718 -0.0006
# 3 52.9710 34.5678 43.5314 -0.0047 12.8720 -0.0003
# 4 0.0000 -0.0034 -0.0047 23.4772 -0.0005 7.8983
# 5 28.0069 11.8718 12.8720 -0.0005 22.5008 0.0002
# 6 0.0003 -0.0006 -0.0003 7.8983 0.0002 34.3915
#
#
#
# Elastic Compliance Matrix: (Units=1/GPa)
#
#
# Indices 1 2 3 4 5 6 
#
# 1 0.017971 -0.007089 -0.012915 -0.000004 -0.011240 0.000001
# 2 -0.007089 0.017400 -0.006121 0.000001 0.003145 0.000000
# 3 -0.012915 -0.006121 0.045544 0.000009 -0.006749 -0.000002
# 4 -0.000004 0.000001 0.000009 0.046161 0.000000 -0.010601
# 5 -0.011240 0.003145 -0.006749 0.000000 0.060635 0.000000
# 6 0.000001 0.000000 -0.000002 -0.010601 0.000000 0.031512
#
#
# Mechanical properties :
#
#
# Convention : Reuss Voigt Hill
#
# Bulk Modulus (GPa) = 34.88562 65.99071 50.43816
# Shear Modulus (GPa) = 17.79177 24.12763 20.95970
#
# Velocity S-wave (km/s) = 3.17936 3.70244 3.45083
# Velocity P-wave (km/s) = 5.77044 7.46793 6.67338
#
# Compressibility (1/GPa) = 0.02866511
#
# Stress axis : x y z
#
# Youngs Moduli (GPa) = 55.64473 57.46982 21.95682
#
# Poissons Ratio (x) = 0.40741 0.28357
# Poissons Ratio (y) = 0.39447 0.13440
# Poissons Ratio (z) = 0.71866 0.35177
#
# Static dielectric constant tensor:
#      x y z
#    x 3.628570 0.000000 0.429740 
#    y 0.000000 3.292690 0.000000 
#    z 0.429740 0.000000 2.889940 
# 
# 
# High freq. dielectric constant tensor:
#      x y z
#    x 1.689040 0.000000 0.037320 
#    y 0.000000 1.679550 0.000000 
#    z 0.037320 0.000000 1.633930 
# 
# From -- ./inp_files/236843.got.cif
#   From: 2010.06.25/outbox.cif.g09.slc.cpg/sg12_119_cif.got.tgz:236843.got - 2010.06.28 00:19:55.
