data_PCOD8082527
_publ_section_title
;
Structure prediction by ZEFSAII (Michael W. Deem and Ramdas Pophale) SiO2 
 PCOD8082527
Probable space group: C 2/M
;
_chemical_formula_sum "Si O2"
_cell_formula_units_Z 64
_cell_length_a 21.022554
_cell_length_b 18.503608
_cell_length_c 10.435924
_cell_angle_alpha 90.000000
_cell_angle_beta 121.076438
_cell_angle_gamma 90.000000
_cell_volume 3476.880305
_symmetry_space_group_name_H-M "C 2/M"
_symmetry_group_IT_number 12
_symmetry_cell_setting 'monoclinic'
loop_
_space_group_symop_operation_xyz
x,y,z
-x,y,-z
-x,-y,-z
x,-y,z
1/2+x,1/2+y,z
1/2-x,1/2+y,-z
1/2-x,1/2-y,-z
1/2+x,1/2-y,z
loop_
_atom_site_type_symbol
_atom_site_label
_atom_site_fract_x
_atom_site_fract_y
_atom_site_fract_z
Si Si1 0.916844 0.698823 0.200577
Si Si2 0.683981 0.082467 0.790311
Si Si3 0.919732 0.158727 0.370613
Si Si4 0.320240 0.801515 0.860420
Si Si5 0.046751 0.275018 0.166807
Si Si6 0.735043 0.821765 0.626528
Si Si7 0.855024 0.803193 0.562216
Si Si8 0.784039 0.917285 0.134734
O O1 0.888434 0.627434 0.242298
O O2 0.928644 0.762406 0.316521
O O3 0.994010 0.678748 0.207957
O O4 0.855881 0.722945 0.032519
O O5 0.708784 0.107962 0.675272
O O6 0.658222 0.000000 0.755125
O O7 0.753205 0.092204 0.958738
O O8 0.870623 0.157077 0.447470
O O9 0.871233 0.107255 0.226715
O O10 0.000000 0.128529 0.500000
O O11 0.383750 0.820388 0.819956
O O12 0.271870 0.734011 0.764736
O O13 0.267226 0.870665 0.822144
O O14 0.072819 0.203902 0.272082
O O15 0.000000 0.243551 0.000000
O O16 0.791471 0.846449 0.573197
O O17 0.667510 0.780579 0.487362
O O18 0.778592 0.000000 0.173975
#
# Coordination Sequence:
#
# PCOD8082527 Si02
#       8
#     8   8   8   8   8   8   8   8
#     4  10  18  31  52  82 110 137 175 221 261 324
#     4  10  20  35  56  79 108 147 180 215 260 312
#     4  12  21  33  55  81 107 139 174 222 280 315
#     4   9  17  32  55  78 103 140 180 221 271 303
#     4   9  18  31  50  79 110 136 172 218 265 315
#     4  10  18  32  55  77 106 133 180 230 261 311
#     4  10  19  31  52  80 104 133 170 221 273 311
#     4  10  21  36  53  77 108 143 186 222 260 317
#
# _framework density 18.407306999999999
#
# number of rings (size 3 to 8) (size 9 to 14) (size 15 to 20)
#    0.000    2.000    3.750    0.750    0.000    2.250 
#    0.000    1.250    0.000    7.125    0.000    1.750 
#    0.000    0.000    0.000    0.000    0.000    0.000 
#
# Total GULP energy -396550.288744 kJ/mol
# GULP energy per Si atom -12392.196523 kJ/mol
# Density = 1.836541 g / cm^3
# Si number density = 18.407307 Si / 1000 Ang^3
#
#
#
# Elastic Constant Matrix: (Units=GPa)
#
#
# Indices 1 2 3 4 5 6 
#
# 1 88.7870 18.6949 24.1410 0.0000 -9.6114 0.0000
# 2 18.6949 52.2989 5.9734 0.0000 -4.1043 0.0000
# 3 24.1410 5.9734 56.3866 0.0000 0.5327 0.0000
# 4 0.0000 0.0000 0.0000 18.9477 0.0000 -2.9163
# 5 -9.6114 -4.1043 0.5327 0.0000 35.4898 0.0000
# 6 0.0000 0.0000 0.0000 -2.9163 0.0000 15.7095
#
#
#
# Elastic Compliance Matrix: (Units=1/GPa)
#
#
# Indices 1 2 3 4 5 6 
#
# 1 0.014018 -0.004104 -0.005599 0.000000 0.003406 0.000000
# 2 -0.004104 0.020741 -0.000452 0.000000 0.001294 0.000000
# 3 -0.005599 -0.000452 0.020197 0.000000 -0.001872 0.000000
# 4 0.000000 0.000000 0.000000 0.054329 0.000000 0.010086
# 5 0.003406 0.001294 -0.001872 0.000000 0.029277 0.000000
# 6 0.000000 0.000000 0.000000 0.010086 0.000000 0.065528
#
#
# Mechanical properties :
#
#
# Convention : Reuss Voigt Hill
#
# Bulk Modulus (GPa) = 28.86362 32.78788 30.82575
# Shear Modulus (GPa) = 21.19084 23.94028 22.56556
#
# Velocity S-wave (km/s) = 3.39664 3.61028 3.50509
# Velocity P-wave (km/s) = 5.57651 5.93548 5.75879
#
# Compressibility (1/GPa) = 0.03464569
#
# Stress axis : x y z
#
# Youngs Moduli (GPa) = 71.33616 48.21329 49.51118
#
# Poissons Ratio (x) = 0.19788 0.27722
# Poissons Ratio (y) = 0.29278 0.02239
# Poissons Ratio (z) = 0.39941 0.02181
#
# Static dielectric constant tensor:
#      x y z
#    x 3.636700 0.000000 0.050760 
#    y 0.000000 2.913840 0.000000 
#    z 0.050760 0.000000 3.695600 
# 
# 
# High freq. dielectric constant tensor:
#      x y z
#    x 1.723870 0.000000 -0.000860 
#    y 0.000000 1.650770 0.000000 
#    z -0.000860 0.000000 1.735830 
# 
# From -- ./inp_files/168505.got.cif
#   From: 2010.06.25/outbox.cif.g09.slc.cpg/sg12_85_cif.got.tgz:168505.got - 2010.06.28 00:19:55.
