data_PCOD8082480
_publ_section_title
;
Structure prediction by ZEFSAII (Michael W. Deem and Ramdas Pophale) SiO2 
 PCOD8082480
Probable space group: C 2/M
;
_chemical_formula_sum "Si O2"
_cell_formula_units_Z 64
_cell_length_a 13.311069
_cell_length_b 17.651790
_cell_length_c 14.983738
_cell_angle_alpha 90.000000
_cell_angle_beta 103.688782
_cell_angle_gamma 90.000000
_cell_volume 3420.639760
_symmetry_space_group_name_H-M "C 2/M"
_symmetry_group_IT_number 12
_symmetry_cell_setting 'monoclinic'
loop_
_space_group_symop_operation_xyz
x,y,z
-x,y,-z
-x,-y,-z
x,-y,z
1/2+x,1/2+y,z
1/2-x,1/2+y,-z
1/2-x,1/2-y,-z
1/2+x,1/2-y,z
loop_
_atom_site_type_symbol
_atom_site_label
_atom_site_fract_x
_atom_site_fract_y
_atom_site_fract_z
Si Si1 0.268672 0.716126 0.908776
Si Si2 0.187616 0.803601 0.647747
Si Si3 0.603911 0.776605 0.216840
Si Si4 0.614288 0.412404 0.984962
Si Si5 0.777736 0.416206 0.539724
Si Si6 0.402928 0.851478 0.416905
Si Si7 0.525198 0.916205 0.291257
Si Si8 0.903646 0.810663 0.191838
O O1 0.358290 0.763869 0.876674
O O2 0.160127 0.730690 0.834920
O O3 0.250000 0.750000 0.000000
O O4 0.305485 0.628853 0.929420
O O5 0.301006 0.769752 0.694273
O O6 0.192523 0.862431 0.567230
O O7 0.112589 0.737092 0.601446
O O8 0.137352 0.845501 0.723452
O O9 0.549136 0.858722 0.214867
O O10 0.523974 0.709718 0.223936
O O11 0.647579 0.500000 0.982425
O O12 0.618508 0.372256 0.889404
O O13 0.500000 0.404841 0.000000
O O14 0.730310 0.500000 0.522252
O O15 0.803615 0.387676 0.445124
O O16 0.878869 0.416312 0.621823
O O17 0.500000 0.864293 0.500000
O O18 0.423538 0.891460 0.325870
O O19 0.506995 0.000000 0.247038
#
# Coordination Sequence:
#
# PCOD8082480 Si02
#       8
#     8   8   8   8   8   8   8   8
#     4   9  19  33  53  79 101 136 174 208 256 308
#     4  10  20  32  52  80 101 138 183 214 263 315
#     4  10  18  33  52  74 110 136 172 218 257 316
#     4  10  19  33  55  81 105 135 176 215 253 299
#     4   9  18  31  48  71 102 133 169 221 265 305
#     4  10  18  31  52  78 102 136 179 223 262 317
#     4   9  17  30  50  76 102 132 170 216 268 312
#     4  10  19  34  55  77 103 142 174 214 262 309
#
# _framework density 18.709949999999999
#
# number of rings (size 3 to 8) (size 9 to 14) (size 15 to 20)
#    0.000    2.375    2.500    0.750    0.000    2.000 
#    0.000    6.875    0.000    1.875    0.000    9.625 
#    0.000    0.000    0.000    0.000    0.000    0.000 
#
# Total GULP energy -396551.926831 kJ/mol
# GULP energy per Si atom -12392.247713 kJ/mol
# Density = 1.866737 g / cm^3
# Si number density = 18.709950 Si / 1000 Ang^3
#
#
#
# Elastic Constant Matrix: (Units=GPa)
#
#
# Indices 1 2 3 4 5 6 
#
# 1 62.7844 20.6481 24.2204 0.0000 -25.5232 0.0000
# 2 20.6481 118.3610 33.7770 0.0000 -20.5303 0.0000
# 3 24.2204 33.7770 60.8380 0.0000 -30.8442 0.0000
# 4 0.0000 0.0000 0.0000 28.1585 0.0000 -4.2461
# 5 -25.5232 -20.5303 -30.8442 0.0000 27.8450 0.0000
# 6 0.0000 0.0000 0.0000 -4.2461 0.0000 27.5939
#
#
#
# Elastic Compliance Matrix: (Units=1/GPa)
#
#
# Indices 1 2 3 4 5 6 
#
# 1 0.025874 -0.000920 0.004311 0.000000 0.027814 0.000000
# 2 -0.000920 0.010169 -0.004347 0.000000 0.001839 0.000000
# 3 0.004311 -0.004347 0.039946 0.000000 0.044996 0.000000
# 4 0.000000 0.000000 0.000000 0.036357 0.000000 0.005594
# 5 0.027814 0.001839 0.044996 0.000000 0.112606 0.000000
# 6 0.000000 0.000000 0.000000 0.005594 0.000000 0.037101
#
#
# Mechanical properties :
#
#
# Convention : Reuss Voigt Hill
#
# Bulk Modulus (GPa) = 13.49927 44.36384 28.93155
# Shear Modulus (GPa) = 17.32166 27.60868 22.46517
#
# Velocity S-wave (km/s) = 3.04600 3.84554 3.46888
# Velocity P-wave (km/s) = 4.42736 6.59397 5.61613
#
# Compressibility (1/GPa) = 0.07407808
#
# Stress axis : x y z
#
# Youngs Moduli (GPa) = 38.64920 98.34099 25.03350
#
# Poissons Ratio (x) = 0.09043 -0.10792
# Poissons Ratio (y) = 0.03554 0.10882
# Poissons Ratio (z) = -0.16662 0.42749
#
# Static dielectric constant tensor:
#      x y z
#    x 3.607740 0.000000 -0.117680 
#    y 0.000000 3.535330 0.000000 
#    z -0.117680 0.000000 3.754690 
# 
# 
# High freq. dielectric constant tensor:
#      x y z
#    x 1.718610 0.000000 -0.030760 
#    y 0.000000 1.710650 0.000000 
#    z -0.030760 0.000000 1.714510 
# 
# From -- ./inp_files/206666.got.cif
#   From: 2010.06.25/outbox.cif.g09.slc.cpg/sg12_104_cif.got.tgz:206666.got - 2010.06.28 00:19:55.
