data_PCOD8082152
_publ_section_title
;
Structure prediction by ZEFSAII (Michael W. Deem and Ramdas Pophale) SiO2 
 PCOD8082152
Probable space group: C 2/M
;
_chemical_formula_sum "Si O2"
_cell_formula_units_Z 56
_cell_length_a 15.008570
_cell_length_b 18.709662
_cell_length_c 13.064700
_cell_angle_alpha 90.000000
_cell_angle_beta 116.345720
_cell_angle_gamma 90.000000
_cell_volume 3287.584849
_symmetry_space_group_name_H-M "C 2/M"
_symmetry_group_IT_number 12
_symmetry_cell_setting 'monoclinic'
loop_
_space_group_symop_operation_xyz
x,y,z
-x,y,-z
-x,-y,-z
x,-y,z
1/2+x,1/2+y,z
1/2-x,1/2+y,-z
1/2-x,1/2-y,-z
1/2+x,1/2-y,z
loop_
_atom_site_type_symbol
_atom_site_label
_atom_site_fract_x
_atom_site_fract_y
_atom_site_fract_z
Si Si1 0.350696 0.920887 0.173701
Si Si2 0.500000 0.835806 0.500000
Si Si3 0.171771 0.337923 0.219416
Si Si4 0.926733 0.581783 0.654564
Si Si5 0.000000 0.720573 0.000000
Si Si6 0.833266 0.717487 0.276194
Si Si7 0.356115 0.716078 0.082543
Si Si8 0.262838 0.419614 0.085943
O O1 0.468943 0.914707 0.234242
O O2 0.299888 0.863066 0.224790
O O3 0.315622 0.000000 0.192038
O O4 0.324998 0.908402 0.041572
O O5 0.558990 0.885993 0.450888
O O6 0.583968 0.785324 0.593014
O O7 0.152818 0.370789 0.322168
O O8 0.238112 0.265182 0.261353
O O9 0.228158 0.396999 0.180962
O O10 0.067089 0.325764 0.110062
O O11 0.888532 0.500000 0.626189
O O12 0.932446 0.772205 0.032033
O O13 0.890546 0.749864 0.207211
O O14 0.352259 0.630804 0.094869
O O15 0.250000 0.750000 0.000000
O O16 0.302562 0.500000 0.110078
#
# Coordination Sequence:
#
# PCOD8082152 Si02
#       8
#     8   4   8   8   4   8   8   8
#     4   9  16  28  48  72 104 136 166 202 252 316
#     4  10  21  36  54  66  97 138 176 222 253 300
#     4  11  20  30  52  79 106 134 170 214 262 317
#     4  10  20  32  47  73 100 132 170 209 263 315
#     4  12  18  30  56  80 110 142 168 214 264 312
#     4  10  19  35  50  76 106 135 176 212 256 306
#     4  11  19  34  52  77 110 139 176 209 258 313
#     4  10  18  31  49  75 110 141 166 211 262 312
#
# _framework density 17.033781999999999
#
# number of rings (size 3 to 8) (size 9 to 14) (size 15 to 20)
#    0.000    1.714    4.286    3.214    0.000    1.143 
#    0.000    3.214    0.000    0.857    0.000   16.500 
#    0.000    0.000    0.000    0.143    0.000    0.000 
#
# Total GULP energy -347048.309512 kJ/mol
# GULP energy per Si atom -12394.582483 kJ/mol
# Density = 1.699501 g / cm^3
# Si number density = 17.033782 Si / 1000 Ang^3
#
#
#
# Elastic Constant Matrix: (Units=GPa)
#
#
# Indices 1 2 3 4 5 6 
#
# 1 84.0036 48.4079 32.5016 0.0000 -22.8500 0.0000
# 2 48.4079 132.1487 44.5082 0.0000 -8.2789 0.0000
# 3 32.5016 44.5082 91.2005 0.0000 -11.6339 0.0000
# 4 0.0000 0.0000 0.0000 24.1374 0.0000 -4.6929
# 5 -22.8500 -8.2789 -11.6339 0.0000 29.3826 0.0000
# 6 0.0000 0.0000 0.0000 -4.6929 0.0000 25.8055
#
#
#
# Elastic Compliance Matrix: (Units=1/GPa)
#
#
# Indices 1 2 3 4 5 6 
#
# 1 0.019504 -0.005452 -0.002687 0.000000 0.012568 0.000000
# 2 -0.005452 0.010600 -0.003570 0.000000 -0.002667 0.000000
# 3 -0.002687 -0.003570 0.013976 0.000000 0.002438 0.000000
# 4 0.000000 0.000000 0.000000 0.042948 0.000000 0.007810
# 5 0.012568 -0.002667 0.002438 0.000000 0.044021 0.000000
# 6 0.000000 0.000000 0.000000 0.007810 0.000000 0.040172
#
#
# Mechanical properties :
#
#
# Convention : Reuss Voigt Hill
#
# Bulk Modulus (GPa) = 48.39955 62.02092 55.21024
# Shear Modulus (GPa) = 24.81056 27.99410 26.40233
#
# Velocity S-wave (km/s) = 3.82062 4.05834 3.94127
# Velocity P-wave (km/s) = 6.92375 7.64524 7.29343
#
# Compressibility (1/GPa) = 0.02066135
#
# Stress axis : x y z
#
# Youngs Moduli (GPa) = 51.27029 94.34052 71.55280
#
# Poissons Ratio (x) = 0.51439 0.19224
# Poissons Ratio (y) = 0.27955 0.25545
# Poissons Ratio (z) = 0.13775 0.33681
#
# Static dielectric constant tensor:
#      x y z
#    x 0.303280 0.000000 -0.200070 
#    y 0.000000 3.466580 0.000000 
#    z -0.200070 0.000000 3.204490 
# 
# 
# High freq. dielectric constant tensor:
#      x y z
#    x 1.625370 0.000000 -0.015770 
#    y 0.000000 1.666240 0.000000 
#    z -0.015770 0.000000 1.651090 
# 
# From -- ./inp_files/145714.got.cif
#   From: 2010.06.25/outbox.cif.g09.slc.cpg/sg12_73_cif.got.tgz:145714.got - 2010.06.28 00:19:55.
