data_PCOD8082471
_publ_section_title
;
Structure prediction by ZEFSAII (Michael W. Deem and Ramdas Pophale) SiO2 
 PCOD8082471
Probable space group: C 2/M
;
_chemical_formula_sum "Si O2"
_cell_formula_units_Z 56
_cell_length_a 21.638942
_cell_length_b 12.641756
_cell_length_c 12.884863
_cell_angle_alpha 90.000000
_cell_angle_beta 120.780058
_cell_angle_gamma 90.000000
_cell_volume 3028.211415
_symmetry_space_group_name_H-M "C 2/M"
_symmetry_group_IT_number 12
_symmetry_cell_setting 'monoclinic'
loop_
_space_group_symop_operation_xyz
x,y,z
-x,y,-z
-x,-y,-z
x,-y,z
1/2+x,1/2+y,z
1/2-x,1/2+y,-z
1/2-x,1/2-y,-z
1/2+x,1/2-y,z
loop_
_atom_site_type_symbol
_atom_site_label
_atom_site_fract_x
_atom_site_fract_y
_atom_site_fract_z
Si Si1 0.174682 0.214403 0.981021
Si Si2 0.074281 0.684498 0.620438
Si Si3 0.812332 0.619177 0.441522
Si Si4 0.840991 0.880526 0.240532
Si Si5 0.392787 0.125540 0.717888
Si Si6 0.444014 0.119622 0.167838
Si Si7 0.210978 0.258666 0.226771
O O1 0.151269 0.123641 0.879366
O O2 0.116134 0.308294 0.937023
O O3 0.250000 0.250000 0.000000
O O4 0.185617 0.179517 0.110928
O O5 0.130357 0.618820 0.601255
O O6 0.098685 0.805119 0.659273
O O7 0.067455 0.619007 0.719278
O O8 0.000000 0.690130 0.500000
O O9 0.783852 0.500000 0.434295
O O10 0.850078 0.663146 0.578076
O O11 0.745905 0.693146 0.351142
O O12 0.764148 0.843972 0.219739
O O13 0.855401 0.000000 0.288870
O O14 0.475727 0.162966 0.786662
O O15 0.357143 0.179103 0.787132
O O16 0.388631 0.000000 0.723693
O O17 0.434842 0.000000 0.118253
#
# Coordination Sequence:
#
# PCOD8082471 Si02
#       7
#     8   8   8   8   8   8   8
#     4   9  20  35  51  74 101 136 175 214 262 310
#     4  10  18  31  52  77 107 135 169 215 267 310
#     4  10  20  33  53  81 108 141 180 216 262 313
#     4   9  19  34  52  74 100 133 176 220 260 308
#     4  10  20  33  53  80 110 141 173 215 267 317
#     4  10  20  33  53  82 110 137 172 219 270 317
#     4  10  20  35  53  76 108 143 177 217 261 310
#
# _framework density 18.492764000000001
#
# number of rings (size 3 to 8) (size 9 to 14) (size 15 to 20)
#    0.000    2.286    1.429    2.143    0.000    4.857 
#    0.000    1.429    0.000    3.429    0.000    5.000 
#    0.000    0.000    0.000    0.000    0.000    0.000 
#
# Total GULP energy -347031.461168 kJ/mol
# GULP energy per Si atom -12393.980756 kJ/mol
# Density = 1.845067 g / cm^3
# Si number density = 18.492764 Si / 1000 Ang^3
#
#
#
# Elastic Constant Matrix: (Units=GPa)
#
#
# Indices 1 2 3 4 5 6 
#
# 1 77.2467 9.0602 13.0677 0.0000 4.4215 0.0000
# 2 9.0602 62.7131 4.1723 0.0000 8.1686 0.0000
# 3 13.0677 4.1723 60.4434 0.0000 8.8520 0.0000
# 4 0.0000 0.0000 0.0000 18.2791 0.0000 -1.4624
# 5 4.4215 8.1686 8.8520 0.0000 27.8090 0.0000
# 6 0.0000 0.0000 0.0000 -1.4624 0.0000 24.3955
#
#
#
# Elastic Compliance Matrix: (Units=1/GPa)
#
#
# Indices 1 2 3 4 5 6 
#
# 1 0.013649 -0.001686 -0.002716 0.000000 -0.000811 0.000000
# 2 -0.001686 0.016800 -0.000117 0.000000 -0.004629 0.000000
# 3 -0.002716 -0.000117 0.017906 0.000000 -0.005234 0.000000
# 4 0.000000 0.000000 0.000000 0.054971 0.000000 0.003295
# 5 -0.000811 -0.004629 -0.005234 0.000000 0.039114 0.000000
# 6 0.000000 0.000000 0.000000 0.003295 0.000000 0.041189
#
#
# Mechanical properties :
#
#
# Convention : Reuss Voigt Hill
#
# Bulk Modulus (GPa) = 25.43382 28.11149 26.77265
# Shear Modulus (GPa) = 24.29871 25.70359 25.00115
#
# Velocity S-wave (km/s) = 3.62879 3.73222 3.68087
# Velocity P-wave (km/s) = 5.59828 5.81437 5.70735
#
# Compressibility (1/GPa) = 0.03931773
#
# Stress axis : x y z
#
# Youngs Moduli (GPa) = 73.26503 59.52394 55.84686
#
# Poissons Ratio (x) = 0.10033 0.15167
# Poissons Ratio (y) = 0.12350 0.00655
# Poissons Ratio (z) = 0.19898 0.00698
#
# Static dielectric constant tensor:
#      x y z
#    x 3.396850 0.000000 0.001530 
#    y 0.000000 3.077980 0.000000 
#    z 0.001530 0.000000 3.661400 
# 
# 
# High freq. dielectric constant tensor:
#      x y z
#    x 1.714650 0.000000 -0.000260 
#    y 0.000000 1.687560 0.000000 
#    z -0.000260 0.000000 1.729140 
# 
# From -- ./inp_files/165701.got.cif
#   From: 2010.06.25/outbox.cif.g09.slc.cpg/sg12_83_cif.got.tgz:165701.got - 2010.06.28 00:19:55.
