data_PCOD8082437
_publ_section_title
;
Structure prediction by ZEFSAII (Michael W. Deem and Ramdas Pophale) SiO2 
 PCOD8082437
Probable space group: C 2/M
;
_chemical_formula_sum "Si O2"
_cell_formula_units_Z 64
_cell_length_a 25.220761
_cell_length_b 9.381754
_cell_length_c 15.092331
_cell_angle_alpha 90.000000
_cell_angle_beta 74.426407
_cell_angle_gamma 90.000000
_cell_volume 3439.964661
_symmetry_space_group_name_H-M "C 2/M"
_symmetry_group_IT_number 12
_symmetry_cell_setting 'monoclinic'
loop_
_space_group_symop_operation_xyz
x,y,z
-x,y,-z
-x,-y,-z
x,-y,z
1/2+x,1/2+y,z
1/2-x,1/2+y,-z
1/2-x,1/2-y,-z
1/2+x,1/2-y,z
loop_
_atom_site_type_symbol
_atom_site_label
_atom_site_fract_x
_atom_site_fract_y
_atom_site_fract_z
Si Si1 0.522181 0.661670 0.160960
Si Si2 0.589454 0.167445 0.584991
Si Si3 0.680172 0.833126 0.878888
Si Si4 0.584860 0.166456 0.789308
Si Si5 0.370588 0.663598 0.586103
Si Si6 0.642597 0.668606 0.063618
Si Si7 0.483810 0.340911 0.633197
Si Si8 0.196857 0.167127 0.219156
O O1 0.505868 0.500000 0.145547
O O2 0.471179 0.758185 0.153928
O O3 0.577765 0.706325 0.084758
O O4 0.536591 0.680028 0.257585
O O5 0.601809 0.207898 0.681554
O O6 0.634492 0.244231 0.501871
O O7 0.528969 0.224340 0.587399
O O8 0.591928 0.000000 0.566991
O O9 0.634040 0.783011 0.830211
O O10 0.738785 0.795899 0.809502
O O11 0.675443 0.000000 0.902727
O O12 0.674833 0.746721 0.971459
O O13 0.573511 0.000000 0.801974
O O14 0.355548 0.500000 0.571301
O O15 0.432642 0.679137 0.592199
O O16 0.329661 0.729719 0.678673
O O17 0.652578 0.500000 0.051053
O O18 0.667428 0.728890 0.144575
O O19 0.509199 0.500000 0.609932
O O20 0.184963 0.000000 0.225752
#
# Coordination Sequence:
#
# PCOD8082437 Si02
#       8
#     8   8   8   8   8   8   8   8
#     4   9  17  31  53  78 104 134 166 207 257 304
#     4  10  20  32  47  71 104 137 167 206 252 296
#     4  10  21  37  56  75  98 138 180 210 248 303
#     4   9  20  37  52  70 104 143 176 207 245 299
#     4  10  18  31  52  76 100 130 168 208 250 302
#     4  10  19  34  56  82 107 128 161 214 267 307
#     4   9  16  29  49  73 101 133 166 201 247 306
#     4   9  18  35  57  78 103 133 169 211 256 305
#
# _framework density 18.604842000000001
#
# number of rings (size 3 to 8) (size 9 to 14) (size 15 to 20)
#    0.000    2.500    1.250    1.125    0.000    4.000 
#    0.000    4.375    0.000    0.000    0.000    0.000 
#    0.000    0.000    0.000    0.000    0.000    0.000 
#
# Total GULP energy -396781.552920 kJ/mol
# GULP energy per Si atom -12399.423529 kJ/mol
# Density = 1.856250 g / cm^3
# Si number density = 18.604842 Si / 1000 Ang^3
#
#
#
# Elastic Constant Matrix: (Units=GPa)
#
#
# Indices 1 2 3 4 5 6 
#
# 1 70.7949 21.3773 16.3505 0.0000 -0.3013 0.0000
# 2 21.3773 45.7924 26.4507 0.0000 -7.0327 0.0000
# 3 16.3505 26.4507 75.5309 0.0000 -19.2615 0.0000
# 4 0.0000 0.0000 0.0000 31.2580 0.0000 -3.6958
# 5 -0.3013 -7.0327 -19.2615 0.0000 17.0065 0.0000
# 6 0.0000 0.0000 0.0000 -3.6958 0.0000 18.6053
#
#
#
# Elastic Compliance Matrix: (Units=1/GPa)
#
#
# Indices 1 2 3 4 5 6 
#
# 1 0.016883 -0.007277 -0.002527 0.000000 -0.005573 0.000000
# 2 -0.007277 0.030517 -0.008333 0.000000 0.003053 0.000000
# 3 -0.002527 -0.008333 0.022238 0.000000 0.021695 0.000000
# 4 0.000000 0.000000 0.000000 0.032761 0.000000 0.006508
# 5 -0.005573 0.003053 0.021695 0.000000 0.084537 0.000000
# 6 0.000000 0.000000 0.000000 0.006508 0.000000 0.055041
#
#
# Mechanical properties :
#
#
# Convention : Reuss Voigt Hill
#
# Bulk Modulus (GPa) = 29.97434 35.60835 32.79134
# Shear Modulus (GPa) = 17.27874 21.90328 19.59101
#
# Velocity S-wave (km/s) = 3.05080 3.43489 3.24853
# Velocity P-wave (km/s) = 5.34377 5.90865 5.63329
#
# Compressibility (1/GPa) = 0.03336187
#
# Stress axis : x y z
#
# Youngs Moduli (GPa) = 59.23188 32.76834 44.96880
#
# Poissons Ratio (x) = 0.23847 0.11365
# Poissons Ratio (y) = 0.43106 0.37473
# Poissons Ratio (z) = 0.14970 0.27306
#
# Static dielectric constant tensor:
#      x y z
#    x 3.278310 0.000000 -0.046240 
#    y 0.000000 3.227810 0.000000 
#    z -0.046240 0.000000 3.596850 
# 
# 
# High freq. dielectric constant tensor:
#      x y z
#    x 1.705430 0.000000 -0.004920 
#    y 0.000000 1.699100 0.000000 
#    z -0.004920 0.000000 1.733610 
# 
# From -- ./inp_files/243892.got.cif
#   From: 2010.06.25/outbox.cif.g09.slc.cpg/sg12_122_cif.got.tgz:243892.got - 2010.06.28 00:19:55.
