data_PCOD8082614
_publ_section_title
;
Structure prediction by ZEFSAII (Michael W. Deem and Ramdas Pophale) SiO2 
 PCOD8082614
Probable space group: C 2/M
;
_chemical_formula_sum "Si O2"
_cell_formula_units_Z 48
_cell_length_a 22.966328
_cell_length_b 9.133131
_cell_length_c 21.805627
_cell_angle_alpha 90.000000
_cell_angle_beta 31.642625
_cell_angle_gamma 90.000000
_cell_volume 2399.518903
_symmetry_space_group_name_H-M "C 2/M"
_symmetry_group_IT_number 12
_symmetry_cell_setting 'monoclinic'
loop_
_space_group_symop_operation_xyz
x,y,z
-x,y,-z
-x,-y,-z
x,-y,z
1/2+x,1/2+y,z
1/2-x,1/2+y,-z
1/2-x,1/2-y,-z
1/2+x,1/2-y,z
loop_
_atom_site_type_symbol
_atom_site_label
_atom_site_fract_x
_atom_site_fract_y
_atom_site_fract_z
Si Si1 0.278606 0.326750 0.038124
Si Si2 0.218543 0.329335 0.727296
Si Si3 0.173063 0.170649 0.244764
Si Si4 0.569515 0.669039 0.532441
Si Si5 0.364248 0.669147 0.393459
Si Si6 0.469017 0.671510 0.174144
O O1 0.263497 0.500000 0.043347
O O2 0.198287 0.267922 0.163013
O O3 0.250000 0.250000 0.000000
O O4 0.402766 0.286198 0.948423
O O5 0.205482 0.500000 0.723326
O O6 0.236100 0.303462 0.783924
O O7 0.323907 0.256835 0.596219
O O8 0.104477 0.251096 0.811284
O O9 0.052589 0.219392 0.380811
O O10 0.168257 0.000000 0.229151
O O11 0.584241 0.500000 0.503285
O O12 0.566376 0.701352 0.607708
O O13 0.336530 0.500000 0.411078
O O14 0.250000 0.750000 0.500000
O O15 0.433636 0.726678 0.273371
O O16 0.449945 0.500000 0.183296
#
# Coordination Sequence:
#
# PCOD8082614 Si02
#       6
#     8   8   8   8   8   8
#     4  11  24  43  64  85 112 150 193 237 289 344
#     4  10  20  35  59  88 116 153 197 237 280 339
#     4  10  21  38  60  86 117 153 195 239 284 337
#     4   9  17  33  57  84 116 152 190 235 287 339
#     4  10  18  31  53  80 109 141 180 228 282 335
#     4  10  22  38  57  83 118 154 187 236 294 342
#
# _framework density 20.004009
#
# number of rings (size 3 to 8) (size 9 to 14) (size 15 to 20)
#    0.000    2.000    1.667    2.000    0.000    7.333 
#    0.000    6.667    0.000    2.000    0.000    0.000 
#    0.000    0.000    0.000    0.000    0.000    0.000 
#
# Total GULP energy -297556.395770 kJ/mol
# GULP energy per Si atom -12398.183157 kJ/mol
# Density = 1.995848 g / cm^3
# Si number density = 20.004009 Si / 1000 Ang^3
#
#
#
# Elastic Constant Matrix: (Units=GPa)
#
#
# Indices 1 2 3 4 5 6 
#
# 1 98.3477 45.0604 37.8642 0.0000 -16.7535 0.0000
# 2 45.0604 54.2403 35.6820 0.0006 -6.7591 -0.0002
# 3 37.8642 35.6820 93.6783 0.0000 -10.1065 -0.0001
# 4 0.0000 0.0006 0.0000 30.1658 -0.0001 -1.5676
# 5 -16.7535 -6.7591 -10.1065 -0.0001 35.2872 0.0000
# 6 0.0000 -0.0002 -0.0001 -1.5676 0.0000 31.9761
#
#
#
# Elastic Compliance Matrix: (Units=1/GPa)
#
#
# Indices 1 2 3 4 5 6 
#
# 1 0.017630 -0.012899 -0.001626 0.000000 0.005434 0.000000
# 2 -0.012899 0.034189 -0.008011 -0.000001 -0.001870 0.000000
# 3 -0.001626 -0.008011 0.014585 0.000000 0.001871 0.000000
# 4 0.000000 -0.000001 0.000000 0.033235 0.000000 0.001629
# 5 0.005434 -0.001870 0.001871 0.000000 0.031096 0.000000
# 6 0.000000 0.000000 0.000000 0.001629 0.000000 0.031353
#
#
# Mechanical properties :
#
#
# Convention : Reuss Voigt Hill
#
# Bulk Modulus (GPa) = 46.87758 53.71995 50.29877
# Shear Modulus (GPa) = 23.33490 27.99646 25.66568
#
# Velocity S-wave (km/s) = 3.41913 3.74510 3.58582
# Velocity P-wave (km/s) = 6.25078 6.75381 6.50716
#
# Compressibility (1/GPa) = 0.02133216
#
# Stress axis : x y z
#
# Youngs Moduli (GPa) = 56.72229 29.24906 68.56223
#
# Poissons Ratio (x) = 0.37728 0.11151
# Poissons Ratio (y) = 0.73166 0.54923
# Poissons Ratio (z) = 0.09226 0.23430
#
# Static dielectric constant tensor:
#      x y z
#    x 3.594540 0.000000 -0.084840 
#    y 0.000000 3.156650 0.000000 
#    z -0.084840 0.000000 3.617520 
# 
# 
# High freq. dielectric constant tensor:
#      x y z
#    x 1.792760 0.000000 -0.004590 
#    y 0.000000 1.747500 0.000000 
#    z -0.004590 0.000000 1.786590 
# 
# From -- ./inp_files/172949.got.cif
#   From: 2010.06.25/outbox.cif.g09.slc.cpg/sg12_87_cif.got.tgz:172949.got - 2010.06.28 00:19:55.
