data_PCOD8082291
_publ_section_title
;
Structure prediction by ZEFSAII (Michael W. Deem and Ramdas Pophale) SiO2 
 PCOD8082291
Probable space group: C 2/M
;
_chemical_formula_sum "Si O2"
_cell_formula_units_Z 48
_cell_length_a 31.102215
_cell_length_b 14.037972
_cell_length_c 11.612546
_cell_angle_alpha 90.000000
_cell_angle_beta 34.991514
_cell_angle_gamma 90.000000
_cell_volume 2907.519009
_symmetry_space_group_name_H-M "C 2/M"
_symmetry_group_IT_number 12
_symmetry_cell_setting 'monoclinic'
loop_
_space_group_symop_operation_xyz
x,y,z
-x,y,-z
-x,-y,-z
x,-y,z
1/2+x,1/2+y,z
1/2-x,1/2+y,-z
1/2-x,1/2-y,-z
1/2+x,1/2-y,z
loop_
_atom_site_type_symbol
_atom_site_label
_atom_site_fract_x
_atom_site_fract_y
_atom_site_fract_z
Si Si1 0.260121 0.392791 0.283994
Si Si2 0.147935 0.717686 0.918995
Si Si3 0.080740 0.768172 0.827774
Si Si4 0.592758 0.891655 0.619017
Si Si5 0.023423 0.611312 0.321594
Si Si6 0.777041 0.889465 0.512238
O O1 0.292157 0.500000 0.198927
O O2 0.319520 0.317622 0.102370
O O3 0.180766 0.381331 0.394322
O O4 0.247973 0.368650 0.446496
O O5 0.095723 0.737600 0.924983
O O6 0.216622 0.649386 0.734422
O O7 0.098649 0.668351 0.125031
O O8 0.071838 0.673296 0.772106
O O9 0.144018 0.837642 0.638619
O O10 0.000000 0.821352 0.000000
O O11 0.545165 0.862213 0.611864
O O12 0.575259 0.000000 0.694760
O O13 0.042737 0.500000 0.273494
O O14 0.000000 0.643346 0.500000
O O15 0.789283 0.000000 0.508528
#
# Coordination Sequence:
#
# PCOD8082291 Si02
#       6
#     8   8   8   8   8   8
#     4   9  17  30  50  76 102 129 160 194 240 290
#     4  11  18  31  53  73 101 130 159 203 240 286
#     4  11  19  30  48  76 103 127 161 197 240 293
#     4  10  18  31  51  71  99 126 158 203 241 287
#     4  10  22  36  50  72  98 127 163 203 249 290
#     4  10  19  30  46  73 107 135 159 190 237 295
#
# _framework density 16.50892
#
# number of rings (size 3 to 8) (size 9 to 14) (size 15 to 20)
#    0.000    1.833    5.000    1.500    0.000    1.333 
#    0.000    0.833    0.000    0.500    0.000    0.000 
#    0.000    0.000    0.000    0.000    0.000    0.000 
#
# Total GULP energy -297619.000843 kJ/mol
# GULP energy per Si atom -12400.791702 kJ/mol
# Density = 1.647134 g / cm^3
# Si number density = 16.508920 Si / 1000 Ang^3
#
#
#
# Elastic Constant Matrix: (Units=GPa)
#
#
# Indices 1 2 3 4 5 6 
#
# 1 48.7567 29.8035 49.0916 0.0000 -14.6111 0.0000
# 2 29.8035 88.0296 61.0776 0.0000 -4.6952 0.0000
# 3 49.0916 61.0776 131.6995 0.0000 -11.9591 0.0000
# 4 0.0000 0.0000 0.0000 29.0355 0.0000 -2.5120
# 5 -14.6111 -4.6952 -11.9591 0.0000 24.9581 0.0000
# 6 0.0000 0.0000 0.0000 -2.5120 0.0000 12.9101
#
#
#
# Elastic Compliance Matrix: (Units=1/GPa)
#
#
# Indices 1 2 3 4 5 6 
#
# 1 0.039648 -0.004916 -0.010952 0.000000 0.017038 0.000000
# 2 -0.004916 0.017367 -0.006468 0.000000 -0.002710 0.000000
# 3 -0.010952 -0.006468 0.014619 0.000000 -0.000624 0.000000
# 4 0.000000 0.000000 0.000000 0.035030 0.000000 0.006816
# 5 0.017038 -0.002710 -0.000624 0.000000 0.049233 0.000000
# 6 0.000000 0.000000 0.000000 0.006816 0.000000 0.078785
#
#
# Mechanical properties :
#
#
# Convention : Reuss Voigt Hill
#
# Bulk Modulus (GPa) = 37.08899 60.93681 49.01290
# Shear Modulus (GPa) = 17.34056 21.94828 19.64442
#
# Velocity S-wave (km/s) = 3.24446 3.65016 3.45327
# Velocity P-wave (km/s) = 6.04568 7.39976 6.75672
#
# Compressibility (1/GPa) = 0.02696218
#
# Stress axis : x y z
#
# Youngs Moduli (GPa) = 25.22192 57.57950 68.40645
#
# Poissons Ratio (x) = 0.28304 0.74919
# Poissons Ratio (y) = 0.12398 0.44246
# Poissons Ratio (z) = 0.27623 0.37243
#
# Static dielectric constant tensor:
#      x y z
#    x 3.019960 0.000000 -0.293780 
#    y 0.000000 3.192950 0.000000 
#    z -0.293780 0.000000 3.009450 
# 
# 
# High freq. dielectric constant tensor:
#      x y z
#    x 1.613160 0.000000 -0.030380 
#    y 0.000000 1.637930 0.000000 
#    z -0.030380 0.000000 1.623790 
# 
# From -- ./inp_files/104959.got.cif
#   From: 2010.06.25/outbox.cif.g09.slc.cpg/sg12_53_cif.got.tgz:104959.got - 2010.06.28 00:19:55.
