data_PCOD8082654
_publ_section_title
;
Structure prediction by ZEFSAII (Michael W. Deem and Ramdas Pophale) SiO2 
 PCOD8082654
Probable space group: C 2/M
;
_chemical_formula_sum "Si O2"
_cell_formula_units_Z 64
_cell_length_a 17.217159
_cell_length_b 16.486739
_cell_length_c 17.656963
_cell_angle_alpha 90.000000
_cell_angle_beta 133.342018
_cell_angle_gamma 90.000000
_cell_volume 3645.085364
_symmetry_space_group_name_H-M "C 2/M"
_symmetry_group_IT_number 12
_symmetry_cell_setting 'monoclinic'
loop_
_space_group_symop_operation_xyz
x,y,z
-x,y,-z
-x,-y,-z
x,-y,z
1/2+x,1/2+y,z
1/2-x,1/2+y,-z
1/2-x,1/2-y,-z
1/2+x,1/2-y,z
loop_
_atom_site_type_symbol
_atom_site_label
_atom_site_fract_x
_atom_site_fract_y
_atom_site_fract_z
Si Si1 0.585965 0.910548 0.231803
Si Si2 0.310481 0.279993 0.208589
Si Si3 0.711460 0.685604 0.413269
Si Si4 0.620811 0.747402 0.576921
Si Si5 0.089228 0.249749 0.003619
Si Si6 0.190387 0.090872 0.538780
Si Si7 0.489474 0.249625 0.209152
Si Si8 0.653888 0.907511 0.105374
O O1 0.689730 0.900706 0.352645
O O2 0.500376 0.846735 0.205338
O O3 0.618961 0.893666 0.167986
O O4 0.536020 0.000000 0.207198
O O5 0.331126 0.257201 0.307991
O O6 0.209867 0.225657 0.110426
O O7 0.416619 0.266560 0.232201
O O8 0.276579 0.375529 0.181367
O O9 0.750000 0.750000 0.500000
O O10 0.808250 0.683674 0.417686
O O11 0.691010 0.603503 0.447444
O O12 0.604017 0.709527 0.297121
O O13 0.500000 0.779101 0.500000
O O14 0.620231 0.659567 0.534220
O O15 0.081368 0.349592 0.002895
O O16 0.000000 0.211896 0.000000
O O17 0.066635 0.216126 0.904494
O O18 0.145318 0.000000 0.525137
O O19 0.642388 0.000000 0.070306
#
# Coordination Sequence:
#
# PCOD8082654 Si02
#       8
#     8   8   8   8   8   8   8   8
#     4  10  18  31  54  78 107 139 171 216 262 314
#     4  10  21  32  48  79 108 140 173 215 257 308
#     4  10  19  34  53  73 102 141 177 214 252 307
#     4  11  20  33  53  79 106 141 176 212 260 311
#     4  10  19  32  51  75 103 138 174 215 259 306
#     4  10  19  34  53  78 108 139 174 213 264 317
#     4  12  19  34  52  74 107 139 182 214 256 316
#     4   9  18  33  51  78 112 140 168 207 264 319
#
# _framework density 17.557887000000001
#
# number of rings (size 3 to 8) (size 9 to 14) (size 15 to 20)
#    0.750    1.000    5.000    2.625    0.000    1.000 
#    0.000    1.875    0.000    1.125    0.000    0.000 
#    0.000    2.500    0.000    0.000    0.000    0.000 
#
# Total GULP energy -396444.714124 kJ/mol
# GULP energy per Si atom -12388.897316 kJ/mol
# Density = 1.751792 g / cm^3
# Si number density = 17.557887 Si / 1000 Ang^3
#
#
#
# Elastic Constant Matrix: (Units=GPa)
#
#
# Indices 1 2 3 4 5 6 
#
# 1 114.8435 20.5611 29.0513 0.0000 3.2290 0.0000
# 2 20.5611 32.5553 8.5541 0.0000 -2.4950 0.0000
# 3 29.0513 8.5541 104.9416 0.0000 -1.9024 0.0000
# 4 0.0000 0.0000 0.0000 15.8106 0.0000 -1.9190
# 5 3.2290 -2.4950 -1.9024 0.0000 33.3252 0.0000
# 6 0.0000 0.0000 0.0000 -1.9190 0.0000 18.1135
#
#
#
# Elastic Compliance Matrix: (Units=1/GPa)
#
#
# Indices 1 2 3 4 5 6 
#
# 1 0.010457 -0.006090 -0.002428 0.000000 -0.001608 0.000000
# 2 -0.006090 0.035099 -0.001118 0.000000 0.003154 0.000000
# 3 -0.002428 -0.001118 0.010306 0.000000 0.000740 0.000000
# 4 0.000000 0.000000 0.000000 0.064073 0.000000 0.006788
# 5 -0.001608 0.003154 0.000740 0.000000 0.030442 0.000000
# 6 0.000000 0.000000 0.000000 0.006788 0.000000 0.055927
#
#
# Mechanical properties :
#
#
# Convention : Reuss Voigt Hill
#
# Bulk Modulus (GPa) = 27.32936 40.96370 34.14653
# Shear Modulus (GPa) = 21.02876 26.39479 23.71177
#
# Velocity S-wave (km/s) = 3.46451 3.88145 3.67889
# Velocity P-wave (km/s) = 5.62164 6.59309 6.12665
#
# Compressibility (1/GPa) = 0.03659068
#
# Stress axis : x y z
#
# Youngs Moduli (GPa) = 95.62882 28.49116 97.03372
#
# Poissons Ratio (x) = 0.17350 0.23556
# Poissons Ratio (y) = 0.58236 0.10848
# Poissons Ratio (z) = 0.23215 0.03185
#
# Static dielectric constant tensor:
#      x y z
#    x 3.346540 0.000000 -0.053310 
#    y 0.000000 3.181070 0.000000 
#    z -0.053310 0.000000 3.512500 
# 
# 
# High freq. dielectric constant tensor:
#      x y z
#    x 1.670970 0.000000 -0.000760 
#    y 0.000000 1.626380 0.000000 
#    z -0.000760 0.000000 1.700150 
# 
# From -- ./inp_files/278432.got.cif
#   From: 2010.06.25/outbox.cif.g09.slc.cpg/sg12_140_cif.got.tgz:278432.got - 2010.06.28 00:19:55.
