data_PCOD8082509
_publ_section_title
;
Structure prediction by ZEFSAII (Michael W. Deem and Ramdas Pophale) SiO2 
 PCOD8082509
Probable space group: C 2/M
;
_chemical_formula_sum "Si O2"
_cell_formula_units_Z 48
_cell_length_a 17.959536
_cell_length_b 13.544550
_cell_length_c 13.846474
_cell_angle_alpha 90.000000
_cell_angle_beta 140.775323
_cell_angle_gamma 90.000000
_cell_volume 2129.930068
_symmetry_space_group_name_H-M "C 2/M"
_symmetry_group_IT_number 12
_symmetry_cell_setting 'monoclinic'
loop_
_space_group_symop_operation_xyz
x,y,z
-x,y,-z
-x,-y,-z
x,-y,z
1/2+x,1/2+y,z
1/2-x,1/2+y,-z
1/2-x,1/2-y,-z
1/2+x,1/2-y,z
loop_
_atom_site_type_symbol
_atom_site_label
_atom_site_fract_x
_atom_site_fract_y
_atom_site_fract_z
Si Si1 0.920389 0.109993 0.541633
Si Si2 0.684726 0.269864 0.034828
Si Si3 0.802065 0.715624 0.652557
Si Si4 0.429850 0.211938 0.340793
Si Si5 0.543727 0.608602 0.197995
Si Si6 0.976182 0.387275 0.182476
O O1 0.804548 0.172240 0.389292
O O2 0.914306 0.101908 0.650377
O O3 0.035652 0.171360 0.626197
O O4 0.923819 0.000000 0.499570
O O5 0.788506 0.293499 0.215745
O O6 0.750000 0.250000 0.000000
O O7 0.593850 0.361041 0.942786
O O8 0.611408 0.169170 0.980037
O O9 0.750000 0.750000 0.500000
O O10 0.873296 0.809214 0.772192
O O11 0.892055 0.625373 0.724436
O O12 0.500000 0.159988 0.500000
O O13 0.470445 0.160374 0.283090
O O14 0.557162 0.500000 0.162629
O O15 0.938064 0.500000 0.148934
#
# Coordination Sequence:
#
# PCOD8082509 Si02
#       6
#     8   8   8   8   8   8
#     4  10  18  31  52  79 106 133 170 220 269 308
#     4   9  17  33  49  74 101 136 179 216 254 297
#     4   9  15  31  50  81 107 124 167 225 274 301
#     4  11  22  36  50  75 113 147 174 209 257 318
#     4   9  16  28  53  78  99 127 166 218 266 305
#     4  10  19  33  55  79 103 134 176 222 265 306
#
# _framework density 22.53595
#
# number of rings (size 3 to 8) (size 9 to 14) (size 15 to 20)
#    0.000    2.333    6.667    0.500    0.000    4.667 
#    0.000    0.000    0.000    4.000    0.000    7.000 
#    0.000    0.000    0.000    0.000    0.000    0.000 
#
# Total GULP energy -297316.821959 kJ/mol
# GULP energy per Si atom -12388.200915 kJ/mol
# Density = 2.248466 g / cm^3
# Si number density = 22.535950 Si / 1000 Ang^3
#
#
#
# Elastic Constant Matrix: (Units=GPa)
#
#
# Indices 1 2 3 4 5 6 
#
# 1 24.6630 20.5868 28.5298 0.0000 23.8820 0.0000
# 2 20.5868 171.9856 38.5788 0.0000 26.8074 0.0000
# 3 28.5298 38.5788 136.0340 0.0000 34.6023 0.0000
# 4 0.0000 0.0000 0.0000 19.9569 0.0000 7.2050
# 5 23.8820 26.8074 34.6023 0.0000 40.2159 0.0000
# 6 0.0000 0.0000 0.0000 7.2050 0.0000 10.4696
#
#
#
# Elastic Compliance Matrix: (Units=1/GPa)
#
#
# Indices 1 2 3 4 5 6 
#
# 1 0.102035 -0.002353 -0.007320 0.000000 -0.052726 0.000000
# 2 -0.002353 0.006640 -0.000793 0.000000 -0.002347 0.000000
# 3 -0.007320 -0.000793 0.010076 0.000000 -0.003794 0.000000
# 4 0.000000 0.000000 0.000000 0.066673 0.000000 -0.045883
# 5 -0.052726 -0.002347 -0.003794 0.000000 0.061005 0.000000
# 6 0.000000 0.000000 0.000000 -0.045883 0.000000 0.127091
#
#
# Mechanical properties :
#
#
# Convention : Reuss Voigt Hill
#
# Bulk Modulus (GPa) = 10.22302 56.45261 33.33781
# Shear Modulus (GPa) = 11.70798 30.46097 21.08447
#
# Velocity S-wave (km/s) = 2.28178 3.68048 3.06206
# Velocity P-wave (km/s) = 3.38942 6.57006 5.22752
#
# Compressibility (1/GPa) = 0.09781846
#
# Stress axis : x y z
#
# Youngs Moduli (GPa) = 9.80056 150.61006 99.24304
#
# Poissons Ratio (x) = 0.35442 0.72650
# Poissons Ratio (y) = 0.02306 0.07866
# Poissons Ratio (z) = 0.07174 0.11937
#
# Static dielectric constant tensor:
#      x y z
#    x 4.206890 0.000000 0.900490 
#    y 0.000000 4.580680 0.000000 
#    z 0.900490 0.000000 5.273600 
# 
# 
# High freq. dielectric constant tensor:
#      x y z
#    x 1.865000 0.000000 0.025510 
#    y 0.000000 1.875470 0.000000 
#    z 0.025510 0.000000 1.892230 
# 
# From -- ./inp_files/289647.got.cif
#   From: 2010.06.25/outbox.cif.g09.slc.cpg/sg12_145_cif.got.tgz:289647.got - 2010.06.28 00:19:55.
