data_PCOD8082330
_publ_section_title
;
Structure prediction by ZEFSAII (Michael W. Deem and Ramdas Pophale) SiO2 
 PCOD8082330
Probable space group: C 2/M
;
_chemical_formula_sum "Si O2"
_cell_formula_units_Z 56
_cell_length_a 20.253413
_cell_length_b 8.871005
_cell_length_c 23.241515
_cell_angle_alpha 90.000000
_cell_angle_beta 134.152310
_cell_angle_gamma 90.000000
_cell_volume 2996.068362
_symmetry_space_group_name_H-M "C 2/M"
_symmetry_group_IT_number 12
_symmetry_cell_setting 'monoclinic'
loop_
_space_group_symop_operation_xyz
x,y,z
-x,y,-z
-x,-y,-z
x,-y,z
1/2+x,1/2+y,z
1/2-x,1/2+y,-z
1/2-x,1/2-y,-z
1/2+x,1/2-y,z
loop_
_atom_site_type_symbol
_atom_site_label
_atom_site_fract_x
_atom_site_fract_y
_atom_site_fract_z
Si Si1 0.056350 0.323777 0.321842
Si Si2 0.047814 0.323130 0.920015
Si Si3 0.149209 0.824095 0.196844
Si Si4 0.124925 0.677412 0.844872
Si Si5 0.271955 0.821392 0.649327
Si Si6 0.816169 0.176181 0.913543
Si Si7 0.325335 0.176827 0.505190
O O1 0.051733 0.500000 0.306174
O O2 0.138159 0.262051 0.330784
O O3 0.077424 0.293275 0.402541
O O4 0.958624 0.251532 0.243912
O O5 0.031127 0.500000 0.915519
O O6 0.110410 0.282710 0.902854
O O7 0.950163 0.245947 0.852822
O O8 0.097435 0.262325 0.006895
O O9 0.223361 0.746456 0.283942
O O10 0.184554 0.791501 0.154391
O O11 0.144019 0.000000 0.206961
O O12 0.128333 0.500000 0.836439
O O13 0.222014 0.744972 0.882742
O O14 0.181159 0.755937 0.561321
O O15 0.263983 0.000000 0.647233
O O16 0.827998 0.000000 0.934537
O O17 0.250000 0.250000 0.500000
O O18 0.306746 0.000000 0.487461
#
# Coordination Sequence:
#
# PCOD8082330 Si02
#       7
#     8   8   8   8   8   8   8
#     4   8  14  27  49  75 101 128 165 209 252 297
#     4  11  21  35  57  78 100 133 174 217 259 307
#     4  11  22  35  52  76 105 136 172 214 259 310
#     4   9  17  33  55  77 102 134 172 213 257 303
#     4  10  18  31  51  75 103 135 171 214 260 306
#     4  10  22  37  53  74 104 138 171 213 261 307
#     4   9  16  26  45  75 107 136 167 211 260 307
#
# _framework density 18.691161999999998
#
# number of rings (size 3 to 8) (size 9 to 14) (size 15 to 20)
#    0.000    2.286    1.429    3.429    0.000    2.857 
#    0.000    0.714    0.000    0.857    0.000    6.000 
#    0.000    0.000    0.000    0.000    0.000    0.000 
#
# Total GULP energy -347094.000349 kJ/mol
# GULP energy per Si atom -12396.214298 kJ/mol
# Density = 1.864862 g / cm^3
# Si number density = 18.691162 Si / 1000 Ang^3
#
#
#
# Elastic Constant Matrix: (Units=GPa)
#
#
# Indices 1 2 3 4 5 6 
#
# 1 47.3368 23.8458 9.6597 0.0000 -13.3955 0.0000
# 2 23.8458 78.3599 51.2062 0.0000 -14.9473 0.0000
# 3 9.6597 51.2062 135.1573 0.0000 -18.8713 0.0000
# 4 0.0000 0.0000 0.0000 30.6192 0.0000 -3.8069
# 5 -13.3955 -14.9473 -18.8713 0.0000 19.6198 0.0000
# 6 0.0000 0.0000 0.0000 -3.8069 0.0000 16.9968
#
#
#
# Elastic Compliance Matrix: (Units=1/GPa)
#
#
# Indices 1 2 3 4 5 6 
#
# 1 0.029219 -0.007733 0.003239 0.000000 0.017174 0.000000
# 2 -0.007733 0.020103 -0.006541 0.000000 0.003745 0.000000
# 3 0.003239 -0.006541 0.010695 0.000000 0.007515 0.000000
# 4 0.000000 0.000000 0.000000 0.033595 0.000000 0.007525
# 5 0.017174 0.003745 0.007515 0.000000 0.072776 0.000000
# 6 0.000000 0.000000 0.000000 0.007525 0.000000 0.060520
#
#
# Mechanical properties :
#
#
# Convention : Reuss Voigt Hill
#
# Bulk Modulus (GPa) = 26.35112 47.80862 37.07987
# Shear Modulus (GPa) = 19.11119 25.18998 22.15059
#
# Velocity S-wave (km/s) = 3.20108 3.67508 3.44624
# Velocity P-wave (km/s) = 5.27175 6.60621 5.97634
#
# Compressibility (1/GPa) = 0.03794906
#
# Stress axis : x y z
#
# Youngs Moduli (GPa) = 34.22375 49.74276 93.50419
#
# Poissons Ratio (x) = 0.38464 -0.30288
# Poissons Ratio (y) = 0.26464 0.61161
# Poissons Ratio (z) = -0.11086 0.32536
#
# Static dielectric constant tensor:
#      x y z
#    x 3.264070 0.000000 0.067470 
#    y 0.000000 3.290900 0.000000 
#    z 0.067470 0.000000 4.005270 
# 
# 
# High freq. dielectric constant tensor:
#      x y z
#    x 1.684280 0.000000 -0.005990 
#    y 0.000000 1.708390 0.000000 
#    z -0.005990 0.000000 1.750700 
# 
# From -- ./inp_files/320201.got.cif
#   From: 2010.06.25/outbox.cif.g09.slc.cpg/sg12_161_cif.got.tgz:320201.got - 2010.06.28 00:19:55.
