data_PCOD8082253
_publ_section_title
;
Structure prediction by ZEFSAII (Michael W. Deem and Ramdas Pophale) SiO2 
 PCOD8082253
Probable space group: C 2/M
;
_chemical_formula_sum "Si O2"
_cell_formula_units_Z 48
_cell_length_a 14.981420
_cell_length_b 17.831335
_cell_length_c 9.585434
_cell_angle_alpha 90.000000
_cell_angle_beta 72.468141
_cell_angle_gamma 90.000000
_cell_volume 2441.697773
_symmetry_space_group_name_H-M "C 2/M"
_symmetry_group_IT_number 12
_symmetry_cell_setting 'monoclinic'
loop_
_space_group_symop_operation_xyz
x,y,z
-x,y,-z
-x,-y,-z
x,-y,z
1/2+x,1/2+y,z
1/2-x,1/2+y,-z
1/2-x,1/2-y,-z
1/2+x,1/2-y,z
loop_
_atom_site_type_symbol
_atom_site_label
_atom_site_fract_x
_atom_site_fract_y
_atom_site_fract_z
Si Si1 0.260021 0.087324 0.846696
Si Si2 0.358215 0.913942 0.342595
Si Si3 0.862428 0.788380 0.612420
Si Si4 0.459805 0.855267 0.659496
Si Si5 0.283012 0.330423 0.386623
Si Si6 0.711629 0.414603 0.177125
O O1 0.366897 0.108154 0.763592
O O2 0.189773 0.123160 0.764875
O O3 0.246593 0.000000 0.846858
O O4 0.232108 0.116275 0.012783
O O5 0.454941 0.867348 0.272675
O O6 0.298314 0.876505 0.494712
O O7 0.307262 0.910753 0.218372
O O8 0.378373 0.000000 0.374797
O O9 0.941976 0.732270 0.629044
O O10 0.760039 0.748285 0.649669
O O11 0.873552 0.818127 0.445429
O O12 0.863233 0.858907 0.716636
O O13 0.500000 0.895410 0.500000
O O14 0.672129 0.500000 0.195312
#
# Coordination Sequence:
#
# PCOD8082253 Si02
#       6
#     8   8   8   8   8   8
#     4  10  19  31  50  77 103 130 170 205 248 300
#     4  10  18  31  50  76 107 136 163 196 254 307
#     4   9  18  33  48  69 103 129 175 204 247 298
#     4  11  20  30  48  77 105 142 155 202 251 301
#     4   9  17  29  50  72  95 140 164 211 240 289
#     4   9  20  35  52  72 100 135 170 214 248 287
#
# _framework density 19.658453000000002
#
# number of rings (size 3 to 8) (size 9 to 14) (size 15 to 20)
#    0.000    2.333    3.333    1.000    0.000    4.667 
#    0.000    2.500    3.667    0.500    0.000    0.000 
#    0.000    2.667    0.000    0.000    0.000    0.000 
#
# Total GULP energy -297325.112270 kJ/mol
# GULP energy per Si atom -12388.546345 kJ/mol
# Density = 1.961371 g / cm^3
# Si number density = 19.658453 Si / 1000 Ang^3
#
#
#
# Elastic Constant Matrix: (Units=GPa)
#
#
# Indices 1 2 3 4 5 6 
#
# 1 32.8214 30.5201 6.2771 0.0000 11.2860 0.0000
# 2 30.5201 96.9176 50.5943 0.0000 12.3080 0.0000
# 3 6.2771 50.5943 119.3665 0.0000 19.0426 0.0000
# 4 0.0000 0.0000 0.0000 30.3149 0.0000 5.0646
# 5 11.2860 12.3080 19.0426 0.0000 17.6898 0.0000
# 6 0.0000 0.0000 0.0000 5.0646 0.0000 30.5865
#
#
#
# Elastic Compliance Matrix: (Units=1/GPa)
#
#
# Indices 1 2 3 4 5 6 
#
# 1 0.059062 -0.019796 0.010985 0.000000 -0.035734 0.000000
# 2 -0.019796 0.020103 -0.008769 0.000000 0.008082 0.000000
# 3 0.010985 -0.008769 0.014079 0.000000 -0.016063 0.000000
# 4 0.000000 0.000000 0.000000 0.033926 0.000000 -0.005617
# 5 -0.035734 0.008082 -0.016063 0.000000 0.090996 0.000000
# 6 0.000000 0.000000 0.000000 -0.005617 0.000000 0.033624
#
#
# Mechanical properties :
#
#
# Convention : Reuss Voigt Hill
#
# Bulk Modulus (GPa) = 17.21610 47.09871 32.15740
# Shear Modulus (GPa) = 16.32320 26.49918 21.41119
#
# Velocity S-wave (km/s) = 2.88469 3.67547 3.30382
# Velocity P-wave (km/s) = 4.45779 6.48248 5.56302
#
# Compressibility (1/GPa) = 0.05808517
#
# Stress axis : x y z
#
# Youngs Moduli (GPa) = 16.93133 49.74285 71.02558
#
# Poissons Ratio (x) = 0.98470 -0.78024
# Poissons Ratio (y) = 0.33517 0.62285
# Poissons Ratio (z) = -0.18600 0.43621
#
# Static dielectric constant tensor:
#      x y z
#    x 3.355810 0.000000 0.405280 
#    y 0.000000 3.851330 0.000000 
#    z 0.405280 0.000000 3.830330 
# 
# 
# High freq. dielectric constant tensor:
#      x y z
#    x 1.724450 0.000000 0.028850 
#    y 0.000000 1.777160 0.000000 
#    z 0.028850 0.000000 1.755500 
# 
# From -- ./inp_files/74492.got.cif
#   From: 2010.06.25/outbox.cif.g09.slc.cpg/sg12_38_cif.got.tgz:74492.got - 2010.06.28 00:19:55.
