data_PCOD8082399
_publ_section_title
;
Structure prediction by ZEFSAII (Michael W. Deem and Ramdas Pophale) SiO2 
 PCOD8082399
Probable space group: C 2/M
;
_chemical_formula_sum "Si O2"
_cell_formula_units_Z 64
_cell_length_a 14.695790
_cell_length_b 8.788465
_cell_length_c 27.131537
_cell_angle_alpha 90.000000
_cell_angle_beta 75.846826
_cell_angle_gamma 90.000000
_cell_volume 3397.765106
_symmetry_space_group_name_H-M "C 2/M"
_symmetry_group_IT_number 12
_symmetry_cell_setting 'monoclinic'
loop_
_space_group_symop_operation_xyz
x,y,z
-x,y,-z
-x,-y,-z
x,-y,z
1/2+x,1/2+y,z
1/2-x,1/2+y,-z
1/2-x,1/2-y,-z
1/2+x,1/2-y,z
loop_
_atom_site_type_symbol
_atom_site_label
_atom_site_fract_x
_atom_site_fract_y
_atom_site_fract_z
Si Si1 0.055417 0.323491 0.601072
Si Si2 0.330319 0.819913 0.323348
Si Si3 0.150920 0.676154 0.383391
Si Si4 0.655724 0.180567 0.493365
Si Si5 0.022940 0.679740 0.941784
Si Si6 0.788645 0.321158 0.133368
Si Si7 0.418716 0.681278 0.865923
Si Si8 0.592248 0.819132 0.790334
O O1 0.081373 0.500000 0.596776
O O2 0.117500 0.246689 0.635919
O O3 0.076923 0.261631 0.542905
O O4 0.948151 0.297161 0.629881
O O5 0.222752 0.770305 0.340886
O O6 0.376810 0.757554 0.267215
O O7 0.337010 0.000000 0.321982
O O8 0.180600 0.500000 0.380124
O O9 0.139368 0.741619 0.440400
O O10 0.750000 0.250000 0.500000
O O11 0.659372 0.000000 0.491151
O O12 0.011030 0.500000 0.935434
O O13 0.130408 0.729838 0.916078
O O14 0.948384 0.761466 0.916060
O O15 0.000000 0.731276 0.000000
O O16 0.777084 0.500000 0.133610
O O17 0.685870 0.253174 0.133476
O O18 0.825713 0.268943 0.182351
O O19 0.420096 0.500000 0.864854
O O20 0.492566 0.743559 0.816123
O O21 0.578517 0.000000 0.793911
#
# Coordination Sequence:
#
# PCOD8082399 Si02
#       8
#     8   8   8   8   8   8   8   8
#     4   9  18  33  51  72 100 131 163 199 247 305
#     4  10  20  35  54  74  98 129 164 208 254 296
#     4  10  20  33  51  74  99 130 164 200 248 305
#     4  10  18  31  52  72  96 130 164 199 244 298
#     4   9  18  34  54  76 107 145 176 202 242 300
#     4   8  16  32  51  72 101 135 169 206 251 297
#     4  10  19  32  52  76 102 133 170 214 256 288
#     4   9  19  36  54  71  97 134 171 205 251 309
#
# _framework density 18.835909999999998
#
# number of rings (size 3 to 8) (size 9 to 14) (size 15 to 20)
#    0.000    2.625    1.250    1.500    0.000    3.750 
#    0.000    6.250    0.000    1.500    0.000    0.000 
#    0.000    0.000    0.000    0.000    0.000    0.000 
#
# Total GULP energy -396594.364375 kJ/mol
# GULP energy per Si atom -12393.573887 kJ/mol
# Density = 1.879304 g / cm^3
# Si number density = 18.835910 Si / 1000 Ang^3
#
#
#
# Elastic Constant Matrix: (Units=GPa)
#
#
# Indices 1 2 3 4 5 6 
#
# 1 134.8063 18.3996 58.5713 0.0000 -10.8655 0.0000
# 2 18.3996 19.2305 24.1402 0.0000 -1.1679 0.0000
# 3 58.5713 24.1402 143.7128 0.0000 -20.8287 0.0000
# 4 0.0000 0.0000 0.0000 19.0714 0.0000 -2.1390
# 5 -10.8655 -1.1679 -20.8287 0.0000 19.6332 0.0000
# 6 0.0000 0.0000 0.0000 -2.1390 0.0000 27.0625
#
#
#
# Elastic Compliance Matrix: (Units=1/GPa)
#
#
# Indices 1 2 3 4 5 6 
#
# 1 0.009500 -0.005690 -0.002603 0.000000 0.002157 0.000000
# 2 -0.005690 0.070755 -0.011123 0.000000 -0.010740 0.000000
# 3 -0.002603 -0.011123 0.011324 0.000000 0.009911 0.000000
# 4 0.000000 0.000000 0.000000 0.052904 0.000000 0.004181
# 5 0.002157 -0.010740 0.009911 0.000000 0.062004 0.000000
# 6 0.000000 0.000000 0.000000 0.004181 0.000000 0.037282
#
#
# Mechanical properties :
#
#
# Convention : Reuss Voigt Hill
#
# Bulk Modulus (GPa) = 18.95858 55.55245 37.25551
# Shear Modulus (GPa) = 16.65654 26.26266 21.45960
#
# Velocity S-wave (km/s) = 2.97694 3.73807 3.37900
# Velocity P-wave (km/s) = 4.68009 6.94174 5.91992
#
# Compressibility (1/GPa) = 0.05274657
#
# Stress axis : x y z
#
# Youngs Moduli (GPa) = 105.26718 14.13326 88.30773
#
# Poissons Ratio (x) = 0.08042 0.22988
# Poissons Ratio (y) = 0.59901 0.98220
# Poissons Ratio (z) = 0.27403 0.15720
#
# Static dielectric constant tensor:
#      x y z
#    x 3.595930 0.000000 0.041770 
#    y 0.000000 3.108670 0.000000 
#    z 0.041770 0.000000 3.835840 
# 
# 
# High freq. dielectric constant tensor:
#      x y z
#    x 1.738770 0.000000 -0.003170 
#    y 0.000000 1.693810 0.000000 
#    z -0.003170 0.000000 1.736230 
# 
# From -- ./inp_files/359830.got.cif
#   From: 2010.06.25/outbox.cif.g09.slc.cpg/sg12_180_cif.got.tgz:359830.got - 2010.06.28 00:19:55.
