data_PCOD8082150
_publ_section_title
;
Structure prediction by ZEFSAII (Michael W. Deem and Ramdas Pophale) SiO2 
 PCOD8082150
Probable space group: C 2/M
;
_chemical_formula_sum "Si O2"
_cell_formula_units_Z 40
_cell_length_a 28.619441
_cell_length_b 7.684187
_cell_length_c 21.404260
_cell_angle_alpha 90.000000
_cell_angle_beta 151.269034
_cell_angle_gamma 90.000000
_cell_volume 2262.721705
_symmetry_space_group_name_H-M "C 2/M"
_symmetry_group_IT_number 12
_symmetry_cell_setting 'monoclinic'
loop_
_space_group_symop_operation_xyz
x,y,z
-x,y,-z
-x,-y,-z
x,-y,z
1/2+x,1/2+y,z
1/2-x,1/2+y,-z
1/2-x,1/2-y,-z
1/2+x,1/2-y,z
loop_
_atom_site_type_symbol
_atom_site_label
_atom_site_fract_x
_atom_site_fract_y
_atom_site_fract_z
Si Si1 0.364379 0.198477 0.961757
Si Si2 0.897359 0.000000 0.300096
Si Si3 0.738280 0.697378 0.283981
Si Si4 0.273566 0.802363 0.097522
Si Si5 0.046243 0.796233 0.117167
Si Si6 0.120321 0.000000 0.573224
O O1 0.317685 0.294782 0.847590
O O2 0.325933 0.287958 0.979606
O O3 0.328793 0.000000 0.919962
O O4 0.483013 0.211098 0.099324
O O5 0.855152 0.824524 0.220857
O O6 0.874574 0.000000 0.346418
O O7 0.011586 0.000000 0.420294
O O8 0.776551 0.500000 0.337617
O O9 0.661652 0.746461 0.250128
O O10 0.828249 0.827684 0.393319
O O11 0.312874 0.000000 0.146394
O O12 0.250000 0.750000 0.000000
O O13 0.029276 0.000000 0.101336
O O14 0.000000 0.717711 0.000000
#
# Coordination Sequence:
#
# PCOD8082150 Si02
#       6
#     8   4   8   8   8   4
#     4  11  18  29  48  77 110 140 176 217 272 326
#     4  11  24  40  51  86 107 145 185 226 267 320
#     4  10  18  31  49  74 108 147 176 212 267 323
#     4  12  22  38  59  78 109 140 181 229 274 315
#     4   8  16  26  42  71 106 139 174 211 263 326
#     4  11  22  36  56  75 120 143 184 218 262 332
#
# _framework density 17.677824999999999
#
# number of rings (size 3 to 8) (size 9 to 14) (size 15 to 20)
#    0.000    1.600    5.000    3.000    1.400    2.000 
#    0.000    2.000    0.000    0.000    0.000    1.400 
#    0.000    0.000    0.000    0.000    0.000    0.000 
#
# Total GULP energy -247889.604238 kJ/mol
# GULP energy per Si atom -12394.480212 kJ/mol
# Density = 1.763759 g / cm^3
# Si number density = 17.677825 Si / 1000 Ang^3
#
#
#
# Elastic Constant Matrix: (Units=GPa)
#
#
# Indices 1 2 3 4 5 6 
#
# 1 108.5784 38.9059 57.1018 0.0000 24.0449 0.0000
# 2 38.9059 137.8169 54.4112 0.0000 19.0586 0.0000
# 3 57.1018 54.4112 79.9381 0.0000 22.5067 0.0000
# 4 0.0000 0.0000 0.0000 16.6784 0.0000 7.3033
# 5 24.0449 19.0586 22.5067 0.0000 28.3806 0.0000
# 6 0.0000 0.0000 0.0000 7.3033 0.0000 27.5779
#
#
#
# Elastic Compliance Matrix: (Units=1/GPa)
#
#
# Indices 1 2 3 4 5 6 
#
# 1 0.015410 0.000202 -0.009568 0.000000 -0.005604 0.000000
# 2 0.000202 0.009988 -0.006445 0.000000 -0.001767 0.000000
# 3 -0.009568 -0.006445 0.026046 0.000000 -0.008221 0.000000
# 4 0.000000 0.000000 0.000000 0.067823 0.000000 -0.017961
# 5 -0.005604 -0.001767 -0.008221 0.000000 0.047690 0.000000
# 6 0.000000 0.000000 0.000000 -0.017961 0.000000 0.041017
#
#
# Mechanical properties :
#
#
# Convention : Reuss Voigt Hill
#
# Bulk Modulus (GPa) = 50.44803 69.68569 60.06686
# Shear Modulus (GPa) = 20.30849 26.25502 23.28175
#
# Velocity S-wave (km/s) = 3.39309 3.85800 3.63299
# Velocity P-wave (km/s) = 6.62949 7.70396 7.18683
#
# Compressibility (1/GPa) = 0.01982238
#
# Stress axis : x y z
#
# Youngs Moduli (GPa) = 64.89197 100.12027 38.39414
#
# Poissons Ratio (x) = -0.02023 0.36734
# Poissons Ratio (y) = -0.01311 0.24746
# Poissons Ratio (z) = 0.62085 0.64530
#
# Static dielectric constant tensor:
#      x y z
#    x 3.558220 0.000000 0.443650 
#    y 0.000000 2.723150 0.000000 
#    z 0.443650 0.000000 2.927660 
# 
# 
# High freq. dielectric constant tensor:
#      x y z
#    x 1.683820 0.000000 0.043450 
#    y 0.000000 1.700840 0.000000 
#    z 0.043450 0.000000 1.625390 
# 
# From -- ./inp_files/172603.got.cif
#   From: 2010.06.25/outbox.cif.g09.slc.cpg/sg12_87_cif.got.tgz:172603.got - 2010.06.28 00:19:55.
