data_PCOD8082805
_publ_section_title
;
Structure prediction by ZEFSAII (Michael W. Deem and Ramdas Pophale) SiO2 
 PCOD8082805
Probable space group: C 2/M
;
_chemical_formula_sum "Si O2"
_cell_formula_units_Z 48
_cell_length_a 21.212550
_cell_length_b 24.777525
_cell_length_c 12.441684
_cell_angle_alpha 90.000000
_cell_angle_beta 155.091248
_cell_angle_gamma 90.000000
_cell_volume 2754.177296
_symmetry_space_group_name_H-M "C 2/M"
_symmetry_group_IT_number 12
_symmetry_cell_setting 'monoclinic'
loop_
_space_group_symop_operation_xyz
x,y,z
-x,y,-z
-x,-y,-z
x,-y,z
1/2+x,1/2+y,z
1/2-x,1/2+y,-z
1/2-x,1/2-y,-z
1/2+x,1/2-y,z
loop_
_atom_site_type_symbol
_atom_site_label
_atom_site_fract_x
_atom_site_fract_y
_atom_site_fract_z
Si Si1 0.542715 0.500000 0.190952
Si Si2 0.650904 0.779709 0.435860
Si Si3 0.608796 0.000000 0.267582
Si Si4 0.411272 0.100145 0.615552
Si Si5 0.914075 0.791023 0.981013
Si Si6 0.373751 0.939346 0.216343
Si Si7 0.654906 0.404875 0.048738
O O1 0.716424 0.500000 0.488427
O O2 0.500000 0.500000 0.000000
O O3 0.477661 0.447281 0.146853
O O4 0.750000 0.750000 0.500000
O O5 0.620169 0.843430 0.371793
O O6 0.741781 0.773140 0.688963
O O7 0.488780 0.751624 0.178484
O O8 0.568550 0.945899 0.267120
O O9 0.500000 0.000000 0.000000
O O10 0.564800 0.099914 0.783090
O O11 0.272543 0.084214 0.325657
O O12 0.917552 0.846265 0.051996
O O13 0.000000 0.797692 0.000000
O O14 0.500000 0.945540 0.500000
O O15 0.229263 0.911135 0.046175
O O16 0.334938 0.000000 0.113792
#
# Coordination Sequence:
#
# PCOD8082805 Si02
#       7
#     4   8   4   8   8   8   8
#     4  12  20  31  55  81 113 138 172 224 275 316
#     4   9  19  32  52  73 101 140 176 215 265 315
#     4  12  26  35  49  83 115 144 170 215 277 336
#     4  10  19  36  54  77 110 143 179 223 268 322
#     4   9  18  32  49  76 106 137 174 219 264 319
#     4   9  16  29  53  81 106 135 178 225 271 316
#     4  10  18  31  56  85 104 134 181 231 272 306
#
# _framework density 17.428070999999999
#
# number of rings (size 3 to 8) (size 9 to 14) (size 15 to 20)
#    0.000    2.167    3.333    0.500    4.667    2.000 
#    0.000    0.833    0.000    2.000    0.000    0.000 
#    0.000    0.000    0.000    0.000    0.000    0.000 
#
# Total GULP energy -297396.133422 kJ/mol
# GULP energy per Si atom -12391.505559 kJ/mol
# Density = 1.738840 g / cm^3
# Si number density = 17.428071 Si / 1000 Ang^3
#
#
#
# Elastic Constant Matrix: (Units=GPa)
#
#
# Indices 1 2 3 4 5 6 
#
# 1 77.8103 57.1359 40.2601 0.0000 17.2222 0.0000
# 2 57.1359 144.8466 61.2536 0.0000 -0.9127 0.0000
# 3 40.2601 61.2536 106.5563 0.0000 -1.2704 0.0000
# 4 0.0000 0.0000 0.0000 26.4130 0.0000 7.4288
# 5 17.2222 -0.9127 -1.2704 0.0000 19.7436 0.0000
# 6 0.0000 0.0000 0.0000 7.4288 0.0000 -5.8827
#
#
#
# Elastic Compliance Matrix: (Units=1/GPa)
#
#
# Indices 1 2 3 4 5 6 
#
# 1 0.027721 -0.008636 -0.005807 0.000000 -0.024954 0.000000
# 2 -0.008636 0.011812 -0.003433 0.000000 0.007859 0.000000
# 3 -0.005807 -0.003433 0.013621 0.000000 0.005783 0.000000
# 4 0.000000 0.000000 0.000000 0.027937 0.000000 0.035280
# 5 -0.024954 0.007859 0.005783 0.000000 0.073152 0.000000
# 6 0.000000 0.000000 0.000000 0.035280 0.000000 -0.125438
#
#
# Mechanical properties :
#
#
# Convention : Reuss Voigt Hill
#
# Bulk Modulus (GPa) = 57.46663 71.83472 64.65068
# Shear Modulus (GPa) = 71.06444 19.42568 45.24506
#
# Velocity S-wave (km/s) = 6.39252 3.34221 5.10072
# Velocity P-wave (km/s) = 9.35580 7.49674 8.47739
#
# Compressibility (1/GPa) = 0.01740140
#
# Stress axis : x y z
#
# Youngs Moduli (GPa) = 36.07354 84.65975 73.41488
#
# Poissons Ratio (x) = 0.73116 0.42630
# Poissons Ratio (y) = 0.31155 0.25205
# Poissons Ratio (z) = 0.20947 0.29066
#
# Static dielectric constant tensor:
#      x y z
#    x 3.176260 0.000000 0.197970 
#    y 0.000000 3.397060 0.000000 
#    z 0.197970 0.000000 3.423120 
# 
# 
# High freq. dielectric constant tensor:
#      x y z
#    x 1.643170 0.000000 0.018820 
#    y 0.000000 1.679970 0.000000 
#    z 0.018820 0.000000 1.657640 
# 
# From -- ./inp_files/134979.got.cif
#   From: 2010.06.25/outbox.cif.g09.slc.cpg/sg12_68_cif.got.tgz:134979.got - 2010.06.28 00:19:55.
