data_PCOD8082686
_publ_section_title
;
Structure prediction by ZEFSAII (Michael W. Deem and Ramdas Pophale) SiO2 
 PCOD8082686
Probable space group: C 2/M
;
_chemical_formula_sum "Si O2"
_cell_formula_units_Z 64
_cell_length_a 15.452109
_cell_length_b 8.875653
_cell_length_c 23.919628
_cell_angle_alpha 90.000000
_cell_angle_beta 88.662341
_cell_angle_gamma 90.000000
_cell_volume 3279.624557
_symmetry_space_group_name_H-M "C 2/M"
_symmetry_group_IT_number 12
_symmetry_cell_setting 'monoclinic'
loop_
_space_group_symop_operation_xyz
x,y,z
-x,y,-z
-x,-y,-z
x,-y,z
1/2+x,1/2+y,z
1/2-x,1/2+y,-z
1/2-x,1/2-y,-z
1/2+x,1/2-y,z
loop_
_atom_site_type_symbol
_atom_site_label
_atom_site_fract_x
_atom_site_fract_y
_atom_site_fract_z
Si Si1 0.237060 0.322602 0.684486
Si Si2 0.157356 0.322214 0.003845
Si Si3 0.900257 0.678392 0.114200
Si Si4 0.843890 0.322018 0.497489
Si Si5 0.407258 0.673956 0.385967
Si Si6 0.601387 0.326981 0.393407
Si Si7 0.258597 0.678551 0.811033
Si Si8 0.090521 0.677819 0.124161
O O1 0.220649 0.500000 0.680718
O O2 0.153604 0.239659 0.661177
O O3 0.324109 0.275325 0.650532
O O4 0.247511 0.267675 0.747724
O O5 0.168040 0.500000 0.002997
O O6 0.104639 0.266732 0.950090
O O7 0.250000 0.250000 0.000000
O O8 0.109851 0.268502 0.060676
O O9 0.893666 0.500000 0.115942
O O10 0.821389 0.746164 0.151824
O O11 0.992073 0.728778 0.138826
O O12 0.834902 0.500000 0.493631
O O13 0.750000 0.250000 0.500000
O O14 0.895620 0.263426 0.443454
O O15 0.895865 0.276969 0.552050
O O16 0.383266 0.500000 0.396245
O O17 0.507536 0.692614 0.365782
O O18 0.616110 0.500000 0.411485
O O19 0.262046 0.500000 0.815079
O O20 0.348489 0.741427 0.832523
O O21 0.103175 0.500000 0.129924
#
# Coordination Sequence:
#
# PCOD8082686 Si02
#       8
#     8   8   8   8   8   8   8   8
#     4  10  22  40  60  81 111 153 194 234 282 336
#     4  10  18  31  54  80 109 143 181 223 277 340
#     4   9  18  34  55  79 111 147 183 226 280 340
#     4  12  23  37  61  91 121 152 188 231 283 341
#     4  11  23  39  61  88 117 152 191 234 285 336
#     4  10  22  40  60  85 119 154 189 232 285 339
#     4  10  21  38  58  80 109 148 191 234 283 329
#     4  10  20  34  55  82 109 144 186 229 280 337
#
# _framework density 19.514429
#
# number of rings (size 3 to 8) (size 9 to 14) (size 15 to 20)
#    0.000    1.750    2.500    2.250    0.000    5.500 
#    0.000    1.250    0.000    1.500    0.000    0.000 
#    0.000    0.000    0.000    0.000    0.000    0.000 
#
# Total GULP energy -396838.897158 kJ/mol
# GULP energy per Si atom -12401.215536 kJ/mol
# Density = 1.947001 g / cm^3
# Si number density = 19.514429 Si / 1000 Ang^3
#
#
#
# Elastic Constant Matrix: (Units=GPa)
#
#
# Indices 1 2 3 4 5 6 
#
# 1 143.8288 30.4520 58.4813 0.0000 24.6004 0.0000
# 2 30.4520 55.2272 39.1040 0.0000 9.8561 0.0000
# 3 58.4813 39.1040 137.2357 0.0000 24.2007 0.0000
# 4 0.0000 0.0000 0.0000 19.7593 0.0000 5.9255
# 5 24.6004 9.8561 24.2007 0.0000 21.9980 0.0000
# 6 0.0000 0.0000 0.0000 5.9255 0.0000 30.8607
#
#
#
# Elastic Compliance Matrix: (Units=1/GPa)
#
#
# Indices 1 2 3 4 5 6 
#
# 1 0.009577 -0.002505 -0.002080 0.000000 -0.007299 0.000000
# 2 -0.002505 0.023596 -0.005317 0.000000 -0.001921 0.000000
# 3 -0.002080 -0.005317 0.010990 0.000000 -0.007382 0.000000
# 4 0.000000 0.000000 0.000000 0.053701 0.000000 -0.010311
# 5 -0.007299 -0.001921 -0.007382 0.000000 0.062603 0.000000
# 6 0.000000 0.000000 0.000000 -0.010311 0.000000 0.034384
#
#
# Mechanical properties :
#
#
# Convention : Reuss Voigt Hill
#
# Bulk Modulus (GPa) = 41.05403 65.81849 53.43626
# Shear Modulus (GPa) = 22.44403 28.40722 25.42562
#
# Velocity S-wave (km/s) = 3.39503 3.81951 3.61351
# Velocity P-wave (km/s) = 6.03753 7.29746 6.69719
#
# Compressibility (1/GPa) = 0.02435815
#
# Stress axis : x y z
#
# Youngs Moduli (GPa) = 104.41157 42.37986 90.99186
#
# Poissons Ratio (x) = 0.10618 0.18928
# Poissons Ratio (y) = 0.26159 0.48382
# Poissons Ratio (z) = 0.21720 0.22534
#
# Static dielectric constant tensor:
#      x y z
#    x 3.747430 0.000000 -0.098630 
#    y 0.000000 3.398310 0.000000 
#    z -0.098630 0.000000 3.793320 
# 
# 
# High freq. dielectric constant tensor:
#      x y z
#    x 1.776190 0.000000 0.002150 
#    y 0.000000 1.739430 0.000000 
#    z 0.002150 0.000000 1.758060 
# 
# From -- ./inp_files/338863.got.cif
#   From: 2010.06.25/outbox.cif.g09.slc.cpg/sg12_170_cif.got.tgz:338863.got - 2010.06.28 00:19:55.
