data_PCOD8082759
_publ_section_title
;
Structure prediction by ZEFSAII (Michael W. Deem and Ramdas Pophale) SiO2 
 PCOD8082759
Probable space group: C 2/M
;
_chemical_formula_sum "Si O2"
_cell_formula_units_Z 56
_cell_length_a 28.904667
_cell_length_b 8.801396
_cell_length_c 13.473717
_cell_angle_alpha 90.000000
_cell_angle_beta 57.683929
_cell_angle_gamma 90.000000
_cell_volume 2896.817796
_symmetry_space_group_name_H-M "C 2/M"
_symmetry_group_IT_number 12
_symmetry_cell_setting 'monoclinic'
loop_
_space_group_symop_operation_xyz
x,y,z
-x,y,-z
-x,-y,-z
x,-y,z
1/2+x,1/2+y,z
1/2-x,1/2+y,-z
1/2-x,1/2-y,-z
1/2+x,1/2-y,z
loop_
_atom_site_type_symbol
_atom_site_label
_atom_site_fract_x
_atom_site_fract_y
_atom_site_fract_z
Si Si1 0.444579 0.679019 0.508273
Si Si2 0.663939 0.820088 0.280451
Si Si3 0.122777 0.320679 0.807787
Si Si4 0.271563 0.820060 0.203786
Si Si5 0.552230 0.820077 0.710027
Si Si6 0.836686 0.679800 0.939942
Si Si7 0.941095 0.680150 0.932769
O O1 0.500000 0.731599 0.500000
O O2 0.436853 0.500000 0.523780
O O3 0.394017 0.758543 0.618879
O O4 0.445562 0.728840 0.393531
O O5 0.713323 0.758779 0.292748
O O6 0.675772 0.758025 0.155520
O O7 0.661991 0.000000 0.288886
O O8 0.122380 0.500000 0.822706
O O9 0.184244 0.264135 0.764064
O O10 0.105636 0.277639 0.715293
O O11 0.078042 0.255480 0.937820
O O12 0.263623 0.000000 0.216597
O O13 0.292563 0.763246 0.071391
O O14 0.500292 0.759662 0.832284
O O15 0.549344 0.000000 0.691215
O O16 0.835948 0.500000 0.940598
O O17 0.897166 0.735687 0.901527
O O18 0.943958 0.500000 0.934590
#
# Coordination Sequence:
#
# PCOD8082759 Si02
#       7
#     8   8   8   8   8   8   8
#     4  11  25  42  56  73 101 136 171 208 257 314
#     4  11  21  34  54  79 104 133 176 221 256 294
#     4   8  15  28  50  81 111 138 170 208 251 304
#     4   9  17  32  52  76 110 144 170 202 253 311
#     4  10  18  31  55  82 105 134 175 218 255 294
#     4   8  15  27  47  77 109 138 167 205 254 306
#     4   8  13  24  47  80 111 135 164 206 255 304
#
# _framework density 19.331557
#
# number of rings (size 3 to 8) (size 9 to 14) (size 15 to 20)
#    0.000    2.714    0.000    4.286    0.000    4.000 
#    0.000    2.143    0.000    5.143    0.000    0.000 
#    0.000    0.000    0.000    0.000    0.000    0.000 
#
# Total GULP energy -347009.265119 kJ/mol
# GULP energy per Si atom -12393.188040 kJ/mol
# Density = 1.928756 g / cm^3
# Si number density = 19.331557 Si / 1000 Ang^3
#
#
#
# Elastic Constant Matrix: (Units=GPa)
#
#
# Indices 1 2 3 4 5 6 
#
# 1 160.8058 38.8417 67.7981 0.0000 -4.9269 0.0000
# 2 38.8417 40.2738 25.8982 0.0000 -3.4798 0.0000
# 3 67.7981 25.8982 73.7953 0.0000 3.2285 0.0000
# 4 0.0000 0.0000 0.0000 4.6991 0.0000 7.9651
# 5 -4.9269 -3.4798 3.2285 0.0000 34.0563 0.0000
# 6 0.0000 0.0000 0.0000 7.9651 0.0000 13.0815
#
#
#
# Elastic Compliance Matrix: (Units=1/GPa)
#
#
# Indices 1 2 3 4 5 6 
#
# 1 0.011075 -0.005065 -0.008480 0.000000 0.001889 0.000000
# 2 -0.005065 0.035041 -0.007801 0.000001 0.003587 -0.000001
# 3 -0.008480 -0.007801 0.024269 0.000000 -0.004325 0.000000
# 4 0.000000 0.000001 0.000000 -6.637162 0.000000 4.041230
# 5 0.001889 0.003587 -0.004325 0.000000 0.030413 0.000000
# 6 0.000000 -0.000001 0.000000 4.041230 0.000000 -2.384177
#
#
# Mechanical properties :
#
#
# Convention : Reuss Voigt Hill
#
# Bulk Modulus (GPa) = 36.11047 59.99455 48.05251
# Shear Modulus (GPa) = -0.56379 19.85650 9.64636
#
# Velocity S-wave (km/s) = -0.54062 3.20840 2.23624
# Velocity P-wave (km/s) = 4.28140 6.69530 5.61949
#
# Compressibility (1/GPa) = 0.02769280
#
# Stress axis : x y z
#
# Youngs Moduli (GPa) = 90.28970 28.53760 41.20436
#
# Poissons Ratio (x) = 0.14454 0.34943
# Poissons Ratio (y) = 0.45732 0.32144
# Poissons Ratio (z) = 0.76570 0.22263
#
# Static dielectric constant tensor:
#      x y z
#    x 3.942080 0.000000 0.076280 
#    y 0.000000 3.028420 0.000000 
#    z 0.076280 0.000000 3.578370 
# 
# 
# High freq. dielectric constant tensor:
#      x y z
#    x 1.772150 0.000000 0.000400 
#    y 0.000000 1.703110 0.000000 
#    z 0.000400 0.000000 1.737340 
# 
# From -- ./inp_files/187173.got.cif
#   From: 2010.06.25/outbox.cif.g09.slc.cpg/sg12_94_cif.got.tgz:187173.got - 2010.06.28 00:19:55.
