data_PCOD8082896
_publ_section_title
;
Structure prediction by ZEFSAII (Michael W. Deem and Ramdas Pophale) SiO2 
 PCOD8082896
Probable space group: C 2/M
;
_chemical_formula_sum "Si O2"
_cell_formula_units_Z 56
_cell_length_a 20.283493
_cell_length_b 8.966111
_cell_length_c 17.674640
_cell_angle_alpha 90.000000
_cell_angle_beta 79.670043
_cell_angle_gamma 90.000000
_cell_volume 3162.281036
_symmetry_space_group_name_H-M "C 2/M"
_symmetry_group_IT_number 12
_symmetry_cell_setting 'monoclinic'
loop_
_space_group_symop_operation_xyz
x,y,z
-x,y,-z
-x,-y,-z
x,-y,z
1/2+x,1/2+y,z
1/2-x,1/2+y,-z
1/2-x,1/2-y,-z
1/2+x,1/2-y,z
loop_
_atom_site_type_symbol
_atom_site_label
_atom_site_fract_x
_atom_site_fract_y
_atom_site_fract_z
Si Si1 0.926683 0.828184 0.542848
Si Si2 0.611926 0.675654 0.689024
Si Si3 0.920584 0.168043 0.005706
Si Si4 0.680621 0.823065 0.536562
Si Si5 0.063461 0.666967 0.144347
Si Si6 0.095059 0.331467 0.843531
Si Si7 0.458492 0.670253 0.705274
O O1 0.873803 0.720277 0.515038
O O2 0.920913 0.804973 0.633970
O O3 0.000000 0.781720 0.500000
O O4 0.912131 0.000000 0.522913
O O5 0.625634 0.500000 0.681925
O O6 0.660759 0.761329 0.622542
O O7 0.627763 0.733876 0.770076
O O8 0.536141 0.716752 0.680562
O O9 0.884835 0.259682 0.080248
O O10 0.893251 0.000000 0.013115
O O11 0.900567 0.240225 0.929460
O O12 0.000000 0.171302 0.000000
O O13 0.750000 0.750000 0.500000
O O14 0.687764 0.000000 0.538856
O O15 0.091763 0.500000 0.135638
O O16 0.079969 0.734684 0.223214
O O17 0.984413 0.670659 0.148365
O O18 0.122701 0.500000 0.834265
O O19 0.455537 0.500000 0.732863
#
# Coordination Sequence:
#
# PCOD8082896 Si02
#       7
#     8   8   8   8   8   8   8
#     4  10  19  36  57  78 103 134 170 212 259 310
#     4  10  18  32  50  70  96 129 167 207 253 304
#     4   9  15  23  35  53  81 121 163 198 241 297
#     4  12  25  39  55  76 103 136 173 216 263 310
#     4   9  16  24  36  57  89 123 158 202 246 290
#     4   9  16  25  38  60  88 121 160 202 246 294
#     4   9  17  29  48  70  96 129 164 202 249 303
#
# _framework density 17.708735999999998
#
# number of rings (size 3 to 8) (size 9 to 14) (size 15 to 20)
#    0.000    2.286    1.429    3.000    0.000    6.571 
#    0.000    0.000    0.000    0.000    0.000    0.000 
#    0.000    1.143    0.000    4.286    0.000    7.143 
#
# Total GULP energy -347216.278933 kJ/mol
# GULP energy per Si atom -12400.581390 kJ/mol
# Density = 1.766843 g / cm^3
# Si number density = 17.708736 Si / 1000 Ang^3
#
#
#
# Elastic Constant Matrix: (Units=GPa)
#
#
# Indices 1 2 3 4 5 6 
#
# 1 40.0828 32.7782 36.1698 0.0000 -2.3215 0.0000
# 2 32.7782 139.6030 72.6612 0.0000 1.4136 0.0000
# 3 36.1698 72.6612 141.6881 0.0000 8.8733 0.0000
# 4 0.0000 0.0000 0.0000 39.6298 0.0000 3.1115
# 5 -2.3215 1.4136 8.8733 0.0000 11.5960 0.0000
# 6 0.0000 0.0000 0.0000 3.1115 0.0000 17.4240
#
#
#
# Elastic Compliance Matrix: (Units=1/GPa)
#
#
# Indices 1 2 3 4 5 6 
#
# 1 0.036634 -0.004668 -0.007828 0.000000 0.013893 0.000000
# 2 -0.004668 0.010452 -0.004233 0.000000 0.001030 0.000000
# 3 -0.007828 -0.004233 0.011861 0.000000 -0.010127 0.000000
# 4 0.000000 0.000000 0.000000 0.025592 0.000000 -0.004570
# 5 0.013893 0.001030 -0.010127 0.000000 0.096642 0.000000
# 6 0.000000 0.000000 0.000000 -0.004570 0.000000 0.058208
#
#
# Mechanical properties :
#
#
# Convention : Reuss Voigt Hill
#
# Bulk Modulus (GPa) = 39.23210 67.17693 53.20451
# Shear Modulus (GPa) = 17.77183 25.71427 21.74305
#
# Velocity S-wave (km/s) = 3.17134 3.81473 3.50782
# Velocity P-wave (km/s) = 5.96759 7.57757 6.82025
#
# Compressibility (1/GPa) = 0.02548933
#
# Stress axis : x y z
#
# Youngs Moduli (GPa) = 27.29688 95.67651 84.30896
#
# Poissons Ratio (x) = 0.44659 0.65999
# Poissons Ratio (y) = 0.12742 0.35688
# Poissons Ratio (z) = 0.21369 0.40499
#
# Static dielectric constant tensor:
#      x y z
#    x 2.497990 0.000000 0.072020 
#    y 0.000000 3.417810 0.000000 
#    z 0.072020 0.000000 3.484720 
# 
# 
# High freq. dielectric constant tensor:
#      x y z
#    x 1.607150 0.000000 0.015550 
#    y 0.000000 1.697270 0.000000 
#    z 0.015550 0.000000 1.704590 
# 
# From -- ./inp_files/275194.got.cif
#   From: 2010.06.25/outbox.cif.g09.slc.cpg/sg12_138_cif.got.tgz:275194.got - 2010.06.28 00:19:55.
