data_PCOD8082011
_publ_section_title
;
Structure prediction by ZEFSAII (Michael W. Deem and Ramdas Pophale) SiO2 
 PCOD8082011
Probable space group: C 2/M
;
_chemical_formula_sum "Si O2"
_cell_formula_units_Z 56
_cell_length_a 15.585634
_cell_length_b 20.030023
_cell_length_c 13.028480
_cell_angle_alpha 90.000000
_cell_angle_beta 49.699708
_cell_angle_gamma 90.000000
_cell_volume 3101.940816
_symmetry_space_group_name_H-M "C 2/M"
_symmetry_group_IT_number 12
_symmetry_cell_setting 'monoclinic'
loop_
_space_group_symop_operation_xyz
x,y,z
-x,y,-z
-x,-y,-z
x,-y,z
1/2+x,1/2+y,z
1/2-x,1/2+y,-z
1/2-x,1/2-y,-z
1/2+x,1/2-y,z
loop_
_atom_site_type_symbol
_atom_site_label
_atom_site_fract_x
_atom_site_fract_y
_atom_site_fract_z
Si Si1 0.338586 0.110733 0.862526
Si Si2 0.685493 0.795644 0.797782
Si Si3 0.523951 0.221608 0.741210
Si Si4 0.343401 0.290745 0.987089
Si Si5 0.122417 0.713991 0.453474
Si Si6 0.631102 0.071137 0.382352
Si Si7 0.625582 0.926481 0.939378
O O1 0.428128 0.170505 0.778938
O O2 0.207749 0.135373 0.964165
O O3 0.346704 0.065613 0.756214
O O4 0.367620 0.070579 0.942542
O O5 0.595626 0.808327 0.778368
O O6 0.635609 0.743709 0.918848
O O7 0.802165 0.768330 0.662456
O O8 0.707124 0.868146 0.833584
O O9 0.610292 0.235641 0.581659
O O10 0.460103 0.288656 0.831577
O O11 0.250000 0.250000 0.000000
O O12 0.179295 0.639485 0.397041
O O13 0.000000 0.715314 0.500000
O O14 0.500000 0.072916 0.500000
O O15 0.678892 0.000000 0.391640
O O16 0.661761 0.000000 0.870413
O O17 0.500000 0.909490 0.000000
#
# Coordination Sequence:
#
# PCOD8082011 Si02
#       7
#     8   8   8   8   8   8   8
#     4  11  18  33  52  79 106 135 177 214 261 321
#     4  12  20  35  53  76 113 139 174 222 266 319
#     4  11  20  32  49  82 109 137 174 216 273 314
#     4  10  18  30  55  75 101 134 176 221 255 307
#     4  11  21  35  53  79 106 139 182 218 263 315
#     4  10  19  32  51  76 108 138 172 215 264 315
#     4  11  22  34  52  81 113 140 170 215 274 324
#
# _framework density 18.053213
#
# number of rings (size 3 to 8) (size 9 to 14) (size 15 to 20)
#    0.000    1.143    8.571    2.143    0.000    0.000 
#    0.000    0.714    0.000    0.429    0.000    3.000 
#    0.000    0.000    0.000    0.000    0.000    0.000 
#
# Total GULP energy -346900.723326 kJ/mol
# GULP energy per Si atom -12389.311547 kJ/mol
# Density = 1.801212 g / cm^3
# Si number density = 18.053213 Si / 1000 Ang^3
#
#
#
# Elastic Constant Matrix: (Units=GPa)
#
#
# Indices 1 2 3 4 5 6 
#
# 1 33.4854 18.5628 27.3691 0.0001 6.9020 -0.0001
# 2 18.5628 103.3129 52.2395 0.0000 -12.4476 0.0000
# 3 27.3691 52.2395 127.4727 0.0000 11.1830 0.0000
# 4 0.0001 0.0000 0.0000 90.3319 -0.0001 -27.0354
# 5 6.9020 -12.4476 11.1830 -0.0001 26.1691 0.0000
# 6 -0.0001 0.0000 0.0000 -27.0354 0.0000 21.8929
#
#
#
# Elastic Compliance Matrix: (Units=1/GPa)
#
#
# Indices 1 2 3 4 5 6 
#
# 1 0.039571 -0.005841 -0.005136 0.000000 -0.011020 0.000000
# 2 -0.005841 0.015069 -0.005907 0.000000 0.011232 0.000000
# 3 -0.005136 -0.005907 0.011943 0.000000 -0.006559 0.000000
# 4 0.000000 0.000000 0.000000 0.017561 0.000000 0.021685
# 5 -0.011020 0.011232 -0.006559 0.000000 0.049265 0.000000
# 6 0.000000 0.000000 0.000000 0.021685 0.000000 0.072456
#
#
# Mechanical properties :
#
#
# Convention : Reuss Voigt Hill
#
# Bulk Modulus (GPa) = 30.47232 51.17933 40.82582
# Shear Modulus (GPa) = 19.95452 38.75207 29.35330
#
# Velocity S-wave (km/s) = 3.32824 4.63811 4.03666
# Velocity P-wave (km/s) = 5.62897 7.55602 6.66254
#
# Compressibility (1/GPa) = 0.03281667
#
# Stress axis : x y z
#
# Youngs Moduli (GPa) = 25.27123 66.36249 83.72780
#
# Poissons Ratio (x) = 0.38761 0.43000
# Poissons Ratio (y) = 0.14761 0.49455
# Poissons Ratio (z) = 0.12978 0.39198
#
# Static dielectric constant tensor:
#      x y z
#    x 2.760410 0.000000 0.459730 
#    y 0.000000 3.338480 0.000000 
#    z 0.459730 0.000000 3.526680 
# 
# 
# High freq. dielectric constant tensor:
#      x y z
#    x 1.671600 0.000000 0.021090 
#    y 0.000000 1.679120 0.000000 
#    z 0.021090 0.000000 1.707210 
# 
# From -- ./inp_files/159168.got.cif
#   From: 2010.06.25/outbox.cif.g09.slc.cpg/sg12_80_cif.got.tgz:159168.got - 2010.06.28 00:19:55.
