data_PCOD8082957
_publ_section_title
;
Structure prediction by ZEFSAII (Michael W. Deem and Ramdas Pophale) SiO2 
 PCOD8082957
Probable space group: C 2/M
;
_chemical_formula_sum "Si O2"
_cell_formula_units_Z 64
_cell_length_a 24.509135
_cell_length_b 8.971529
_cell_length_c 16.910789
_cell_angle_alpha 90.000000
_cell_angle_beta 85.960320
_cell_angle_gamma 90.000000
_cell_volume 3709.180547
_symmetry_space_group_name_H-M "C 2/M"
_symmetry_group_IT_number 12
_symmetry_cell_setting 'monoclinic'
loop_
_space_group_symop_operation_xyz
x,y,z
-x,y,-z
-x,-y,-z
x,-y,z
1/2+x,1/2+y,z
1/2-x,1/2+y,-z
1/2-x,1/2-y,-z
1/2+x,1/2-y,z
loop_
_atom_site_type_symbol
_atom_site_label
_atom_site_fract_x
_atom_site_fract_y
_atom_site_fract_z
Si Si1 0.450376 0.176511 0.834678
Si Si2 0.659506 0.676135 0.872171
Si Si3 0.136186 0.177303 0.051506
Si Si4 0.560830 0.677683 0.775952
Si Si5 0.368285 0.171574 0.705406
Si Si6 0.458671 0.676513 0.396654
Si Si7 0.781787 0.675574 0.839804
Si Si8 0.422856 0.675810 0.565672
O O1 0.419585 0.247705 0.912628
O O2 0.510143 0.246594 0.824892
O O3 0.416922 0.220138 0.759410
O O4 0.453610 0.000000 0.845890
O O5 0.659604 0.500000 0.870426
O O6 0.615506 0.735749 0.813386
O O7 0.719622 0.733357 0.841335
O O8 0.643840 0.731700 0.960881
O O9 0.188617 0.233938 0.094169
O O10 0.131743 0.000000 0.059655
O O11 0.553814 0.500000 0.781928
O O12 0.564590 0.733915 0.684596
O O13 0.310371 0.209256 0.752548
O O14 0.373057 0.258137 0.621908
O O15 0.372780 0.000000 0.683848
O O16 0.461534 0.500000 0.397075
O O17 0.419949 0.728316 0.473848
O O18 0.520150 0.736581 0.403554
O O19 0.786528 0.500000 0.859409
O O20 0.419093 0.500000 0.571966
#
# Coordination Sequence:
#
# PCOD8082957 Si02
#       8
#     8   8   8   8   8   8   8   8
#     4  10  20  33  47  69 100 130 156 190 241 289
#     4   9  19  33  51  72  93 123 163 201 237 277
#     4  10  19  32  51  74  94 118 159 205 240 278
#     4  10  18  32  52  70  93 128 164 195 229 281
#     4   9  17  28  45  68  94 122 153 188 233 281
#     4   8  15  26  44  70  96 121 150 189 232 274
#     4   9  18  34  51  70  97 124 155 200 243 281
#     4   9  15  26  45  70  96 119 150 191 232 274
#
# _framework density 17.254484999999999
#
# number of rings (size 3 to 8) (size 9 to 14) (size 15 to 20)
#    0.000    2.750    1.250    2.625    0.000    2.500 
#    0.000    6.875    0.000    0.750    0.000    0.000 
#    0.000    0.000    0.000    0.000    0.000    0.250 
#
# Total GULP energy -396678.073602 kJ/mol
# GULP energy per Si atom -12396.189800 kJ/mol
# Density = 1.721521 g / cm^3
# Si number density = 17.254485 Si / 1000 Ang^3
#
#
#
# Elastic Constant Matrix: (Units=GPa)
#
#
# Indices 1 2 3 4 5 6 
#
# 1 116.9908 28.3929 82.3069 0.0000 -4.5993 0.0000
# 2 28.3929 38.5450 33.7077 0.0000 -5.2043 0.0000
# 3 82.3069 33.7077 150.0079 0.0000 -18.1140 0.0000
# 4 0.0000 0.0000 0.0000 20.5081 0.0000 -5.6567
# 5 -4.5993 -5.2043 -18.1140 0.0000 19.7028 0.0000
# 6 0.0000 0.0000 0.0000 -5.6567 0.0000 20.0839
#
#
#
# Elastic Compliance Matrix: (Units=1/GPa)
#
#
# Indices 1 2 3 4 5 6 
#
# 1 0.014969 -0.004963 -0.007688 0.000000 -0.004884 0.000000
# 2 -0.004963 0.034011 -0.004471 0.000000 0.003715 0.000000
# 3 -0.007688 -0.004471 0.012970 0.000000 0.008948 0.000000
# 4 0.000000 0.000000 0.000000 0.052868 0.000000 0.014890
# 5 -0.004884 0.003715 0.008948 0.000000 0.058822 0.000000
# 6 0.000000 0.000000 0.000000 0.014890 0.000000 0.053985
#
#
# Mechanical properties :
#
#
# Convention : Reuss Voigt Hill
#
# Bulk Modulus (GPa) = 36.09286 66.03985 51.06636
# Shear Modulus (GPa) = 18.44325 22.80139 20.62232
#
# Velocity S-wave (km/s) = 3.27294 3.63916 3.46090
# Velocity P-wave (km/s) = 5.93686 7.48432 6.75505
#
# Compressibility (1/GPa) = 0.02770631
#
# Stress axis : x y z
#
# Youngs Moduli (GPa) = 66.80645 29.40258 77.10351
#
# Poissons Ratio (x) = 0.14592 0.59275
# Poissons Ratio (y) = 0.33154 0.34472
# Poissons Ratio (z) = 0.51359 0.13145
#
# Static dielectric constant tensor:
#      x y z
#    x 3.209160 0.000000 -0.085220 
#    y 0.000000 2.950450 0.000000 
#    z -0.085220 0.000000 3.487270 
# 
# 
# High freq. dielectric constant tensor:
#      x y z
#    x 1.643590 0.000000 -0.017440 
#    y 0.000000 1.643470 0.000000 
#    z -0.017440 0.000000 1.673210 
# 
# From -- ./inp_files/287609.got.cif
#   From: 2010.06.25/outbox.cif.g09.slc.cpg/sg12_144_cif.got.tgz:287609.got - 2010.06.28 00:19:55.
