data_PCOD8082226
_publ_section_title
;
Structure prediction by ZEFSAII (Michael W. Deem and Ramdas Pophale) SiO2 
 PCOD8082226
Probable space group: C 2/M
;
_chemical_formula_sum "Si O2"
_cell_formula_units_Z 40
_cell_length_a 19.978006
_cell_length_b 10.454962
_cell_length_c 12.246396
_cell_angle_alpha 90.000000
_cell_angle_beta 65.149453
_cell_angle_gamma 90.000000
_cell_volume 2321.053014
_symmetry_space_group_name_H-M "C 2/M"
_symmetry_group_IT_number 12
_symmetry_cell_setting 'monoclinic'
loop_
_space_group_symop_operation_xyz
x,y,z
-x,y,-z
-x,-y,-z
x,-y,z
1/2+x,1/2+y,z
1/2-x,1/2+y,-z
1/2-x,1/2-y,-z
1/2+x,1/2-y,z
loop_
_atom_site_type_symbol
_atom_site_label
_atom_site_fract_x
_atom_site_fract_y
_atom_site_fract_z
Si Si1 0.917251 0.647979 0.566358
Si Si2 0.168253 0.640327 0.821462
Si Si3 0.188415 0.767938 0.188636
Si Si4 0.187008 0.646552 0.562875
Si Si5 0.171068 0.141099 0.970245
O O1 0.918075 0.500000 0.598309
O O2 0.877305 0.721958 0.690658
O O3 0.877379 0.671674 0.479060
O O4 0.000000 0.701930 0.500000
O O5 0.137083 0.500000 0.875051
O O6 0.257190 0.639380 0.779599
O O7 0.151982 0.668858 0.706053
O O8 0.130722 0.750982 0.922332
O O9 0.239739 0.651396 0.107627
O O10 0.151690 0.839299 0.110644
O O11 0.217354 0.500000 0.531073
O O12 0.250000 0.750000 0.500000
O O13 0.144918 0.000000 0.951689
#
# Coordination Sequence:
#
# PCOD8082226 Si02
#       5
#     8   8   8   8   8
#     4  10  20  33  49  73 106 140 171 204 247 303
#     4   9  17  27  46  73 100 122 155 206 253 291
#     4   9  17  26  48  69 101 123 164 201 253 287
#     4  10  18  31  50  74 100 131 168 210 253 293
#     4   9  17  28  48  75  99 124 162 210 256 294
#
# _framework density 17.233557999999999
#
# number of rings (size 3 to 8) (size 9 to 14) (size 15 to 20)
#    1.200    1.400    2.000    1.200    0.000    1.600 
#    0.000    0.000    0.000    6.600    0.000    7.000 
#    0.000    0.000    0.000    0.000    0.000    0.000 
#
# Total GULP energy -247787.534744 kJ/mol
# GULP energy per Si atom -12389.376737 kJ/mol
# Density = 1.719433 g / cm^3
# Si number density = 17.233558 Si / 1000 Ang^3
#
#
#
# Elastic Constant Matrix: (Units=GPa)
#
#
# Indices 1 2 3 4 5 6 
#
# 1 59.0564 29.2697 38.9011 0.0000 11.5795 0.0000
# 2 29.2697 111.4994 47.5777 0.0000 19.0403 0.0000
# 3 38.9011 47.5777 113.9157 0.0000 22.0733 0.0000
# 4 0.0000 0.0000 0.0000 24.6868 0.0000 4.1565
# 5 11.5795 19.0403 22.0733 0.0000 19.5132 0.0000
# 6 0.0000 0.0000 0.0000 4.1565 0.0000 14.3062
#
#
#
# Elastic Compliance Matrix: (Units=1/GPa)
#
#
# Indices 1 2 3 4 5 6 
#
# 1 0.023027 -0.002812 -0.005857 0.000000 -0.004296 0.000000
# 2 -0.002812 0.012067 -0.002717 0.000000 -0.007032 0.000000
# 3 -0.005857 -0.002717 0.013737 0.000000 -0.009413 0.000000
# 4 0.000000 0.000000 0.000000 0.042591 0.000000 -0.012374
# 5 -0.004296 -0.007032 -0.009413 0.000000 0.071306 0.000000
# 6 0.000000 0.000000 0.000000 -0.012374 0.000000 0.073495
#
#
# Mechanical properties :
#
#
# Convention : Reuss Voigt Hill
#
# Bulk Modulus (GPa) = 38.37351 57.32984 47.85167
# Shear Modulus (GPa) = 18.67895 22.94944 20.81420
#
# Velocity S-wave (km/s) = 3.29579 3.65317 3.47907
# Velocity P-wave (km/s) = 6.06614 7.15072 6.63064
#
# Compressibility (1/GPa) = 0.02605964
#
# Stress axis : x y z
#
# Youngs Moduli (GPa) = 43.42772 82.86978 72.79593
#
# Poissons Ratio (x) = 0.23305 0.42633
# Poissons Ratio (y) = 0.12213 0.19778
# Poissons Ratio (z) = 0.25434 0.22515
#
# Static dielectric constant tensor:
#      x y z
#    x 2.859100 0.000000 0.280860 
#    y 0.000000 3.158940 0.000000 
#    z 0.280860 0.000000 3.150370 
# 
# 
# High freq. dielectric constant tensor:
#      x y z
#    x 1.616690 0.000000 0.034530 
#    y 0.000000 1.662840 0.000000 
#    z 0.034530 0.000000 1.664800 
# 
# From -- ./inp_files/152699.got.cif
#   From: 2010.06.25/outbox.cif.g09.slc.cpg/sg12_77_cif.got.tgz:152699.got - 2010.06.28 00:19:55.
