data_PCOD8082643
_publ_section_title
;
Structure prediction by ZEFSAII (Michael W. Deem and Ramdas Pophale) SiO2 
 PCOD8082643
Probable space group: C 2/M
;
_chemical_formula_sum "Si O2"
_cell_formula_units_Z 36
_cell_length_a 31.275976
_cell_length_b 9.847576
_cell_length_c 9.704952
_cell_angle_alpha 90.000000
_cell_angle_beta 140.447356
_cell_angle_gamma 90.000000
_cell_volume 1903.389830
_symmetry_space_group_name_H-M "C 2/M"
_symmetry_group_IT_number 12
_symmetry_cell_setting 'monoclinic'
loop_
_space_group_symop_operation_xyz
x,y,z
-x,y,-z
-x,-y,-z
x,-y,z
1/2+x,1/2+y,z
1/2-x,1/2+y,-z
1/2-x,1/2-y,-z
1/2+x,1/2-y,z
loop_
_atom_site_type_symbol
_atom_site_label
_atom_site_fract_x
_atom_site_fract_y
_atom_site_fract_z
Si Si1 0.898751 0.000000 0.018392
Si Si2 0.385811 0.728857 0.477871
Si Si3 0.823048 0.500000 0.263403
Si Si4 0.022994 0.751092 0.705601
Si Si5 0.081101 0.000000 0.227266
Si Si6 0.922490 0.500000 0.256275
Si Si7 0.332502 0.500000 0.146912
O O1 0.947613 0.873051 0.136903
O O2 0.846933 0.000000 0.017067
O O3 0.872075 0.000000 0.794918
O O4 0.456458 0.800731 0.617723
O O5 0.394282 0.635007 0.632262
O O6 0.362202 0.636062 0.289761
O O7 0.337086 0.859345 0.382382
O O8 0.866041 0.500000 0.230626
O O9 0.746474 0.500000 0.027016
O O10 0.081523 0.636236 0.844669
O O11 0.000000 0.805691 0.500000
O O12 0.000000 0.000000 0.000000
O O13 0.000000 0.500000 0.500000
#
# Coordination Sequence:
#
# PCOD8082643 Si02
#       7
#     4   8   4   8   4   4   4
#     4  12  20  35  56  83 110 144 194 230 269 334
#     4  11  21  37  58  87 116 144 183 239 283 327
#     4  12  21  37  57  84 120 149 185 224 287 339
#     4  11  17  30  57  86 112 135 177 236 290 318
#     4  11  23  37  57  85 113 148 192 236 283 325
#     4  10  18  31  53  88 111 138 167 238 291 326
#     4  11  23  35  59  86 113 153 188 226 275 341
#
# _framework density 18.913623999999999
#
# number of rings (size 3 to 8) (size 9 to 14) (size 15 to 20)
#    0.000    0.889    8.889    1.667    0.000    0.000 
#    0.000    2.778    0.000    0.000    0.000    0.000 
#    0.000    0.000    0.000    0.000    0.000    0.000 
#
# Total GULP energy -222991.556677 kJ/mol
# GULP energy per Si atom -12388.419815 kJ/mol
# Density = 1.887058 g / cm^3
# Si number density = 18.913624 Si / 1000 Ang^3
#
#
#
# Elastic Constant Matrix: (Units=GPa)
#
#
# Indices 1 2 3 4 5 6 
#
# 1 100.4844 30.8082 51.2678 0.0000 -7.5384 0.0000
# 2 30.8082 137.1964 47.5595 0.0000 -5.8662 0.0000
# 3 51.2678 47.5595 67.3576 0.0000 -8.6202 0.0000
# 4 0.0000 0.0000 0.0000 20.3034 0.0000 -2.2405
# 5 -7.5384 -5.8662 -8.6202 0.0000 37.0556 0.0000
# 6 0.0000 0.0000 0.0000 -2.2405 0.0000 22.8122
#
#
#
# Elastic Compliance Matrix: (Units=1/GPa)
#
#
# Indices 1 2 3 4 5 6 
#
# 1 0.016351 0.000850 -0.012989 0.000000 0.000439 0.000000
# 2 0.000850 0.009695 -0.007497 0.000000 -0.000036 0.000000
# 3 -0.012989 -0.007497 0.030442 0.000000 0.003252 0.000000
# 4 0.000000 0.000000 0.000000 0.049793 0.000000 0.004890
# 5 0.000439 -0.000036 0.003252 0.000000 0.027827 0.000000
# 6 0.000000 0.000000 0.000000 0.004890 0.000000 0.044316
#
#
# Mechanical properties :
#
#
# Convention : Reuss Voigt Hill
#
# Bulk Modulus (GPa) = 58.08570 62.70103 60.39337
# Shear Modulus (GPa) = 22.37768 27.72777 25.05272
#
# Velocity S-wave (km/s) = 3.44343 3.83302 3.64343
# Velocity P-wave (km/s) = 6.82549 7.26723 7.04982
#
# Compressibility (1/GPa) = 0.01721594
#
# Stress axis : x y z
#
# Youngs Moduli (GPa) = 61.15654 103.14253 32.84886
#
# Poissons Ratio (x) = -0.08765 0.42669
# Poissons Ratio (y) = -0.05197 0.24627
# Poissons Ratio (z) = 0.79439 0.77327
#
# Static dielectric constant tensor:
#      x y z
#    x 3.395210 0.000000 -0.017760 
#    y 0.000000 4.713170 0.000000 
#    z -0.017760 0.000000 3.209780 
# 
# 
# High freq. dielectric constant tensor:
#      x y z
#    x 1.724080 0.000000 0.002420 
#    y 0.000000 1.758260 0.000000 
#    z 0.002420 0.000000 1.691140 
# 
# From -- ./inp_files/102182.got.cif
#   From: 2010.06.25/outbox.cif.g09.slc.cpg/sg12_52_cif.got.tgz:102182.got - 2010.06.28 00:19:55.
