data_PCOD8082713
_publ_section_title
;
Structure prediction by ZEFSAII (Michael W. Deem and Ramdas Pophale) SiO2 
 PCOD8082713
Probable space group: C 2/M
;
_chemical_formula_sum "Si O2"
_cell_formula_units_Z 64
_cell_length_a 15.468664
_cell_length_b 8.897021
_cell_length_c 23.894746
_cell_angle_alpha 90.000000
_cell_angle_beta 89.488580
_cell_angle_gamma 90.000000
_cell_volume 3288.384096
_symmetry_space_group_name_H-M "C 2/M"
_symmetry_group_IT_number 12
_symmetry_cell_setting 'monoclinic'
loop_
_space_group_symop_operation_xyz
x,y,z
-x,y,-z
-x,-y,-z
x,-y,z
1/2+x,1/2+y,z
1/2-x,1/2+y,-z
1/2-x,1/2-y,-z
1/2+x,1/2-y,z
loop_
_atom_site_type_symbol
_atom_site_label
_atom_site_fract_x
_atom_site_fract_y
_atom_site_fract_z
Si Si1 0.407165 0.177518 0.375970
Si Si2 0.598572 0.173505 0.886869
Si Si3 0.254467 0.323913 0.183746
Si Si4 0.342279 0.177292 0.496173
Si Si5 0.843588 0.177608 0.001964
Si Si6 0.097289 0.678045 0.385533
Si Si7 0.255038 0.322660 0.311744
Si Si8 0.904226 0.327456 0.892928
O O1 0.388649 0.231283 0.439400
O O2 0.504972 0.229617 0.361296
O O3 0.344854 0.255555 0.332232
O O4 0.395513 0.000000 0.370419
O O5 0.662889 0.235708 0.839706
O O6 0.606894 0.265151 0.943937
O O7 0.499782 0.192132 0.865879
O O8 0.621056 0.000000 0.898264
O O9 0.273117 0.500000 0.177252
O O10 0.240594 0.276222 0.247781
O O11 0.167413 0.276905 0.151659
O O12 0.250000 0.250000 0.500000
O O13 0.396245 0.231585 0.550018
O O14 0.331073 0.000000 0.496739
O O15 0.834144 0.000000 0.005292
O O16 0.750000 0.250000 0.000000
O O17 0.897844 0.223251 0.947317
O O18 0.103058 0.500000 0.383044
O O19 0.175289 0.746156 0.347967
O O20 0.259783 0.500000 0.319074
O O21 0.888665 0.500000 0.911162
#
# Coordination Sequence:
#
# PCOD8082713 Si02
#       8
#     8   8   8   8   8   8   8   8
#     4  10  20  34  56  84 111 143 186 233 282 338
#     4  11  23  39  62  91 119 151 192 238 287 340
#     4  10  22  40  60  81 111 153 195 237 285 338
#     4  10  18  31  54  82 111 144 181 226 280 339
#     4  12  23  37  61  91 123 156 190 232 287 344
#     4   9  18  34  56  80 111 148 186 226 279 346
#     4  10  21  38  58  80 109 149 193 234 284 336
#     4  10  22  40  61  87 119 153 192 236 284 343
#
# _framework density 19.462447000000001
#
# number of rings (size 3 to 8) (size 9 to 14) (size 15 to 20)
#    0.000    1.750    2.500    2.250    0.000    5.500 
#    0.000    3.750    0.000    1.500    0.000    0.000 
#    0.000    0.000    0.000    0.000    0.000    0.000 
#
# Total GULP energy -396835.493384 kJ/mol
# GULP energy per Si atom -12401.109168 kJ/mol
# Density = 1.941815 g / cm^3
# Si number density = 19.462447 Si / 1000 Ang^3
#
#
#
# Elastic Constant Matrix: (Units=GPa)
#
#
# Indices 1 2 3 4 5 6 
#
# 1 139.3370 30.9428 42.6847 0.0000 3.7912 0.0000
# 2 30.9428 58.5596 36.8441 0.0000 -2.1360 0.0000
# 3 42.6847 36.8441 98.9356 0.0000 6.7965 0.0000
# 4 0.0000 0.0000 0.0000 24.2484 0.0000 0.0326
# 5 3.7912 -2.1360 6.7965 0.0000 17.8502 0.0000
# 6 0.0000 0.0000 0.0000 0.0326 0.0000 30.9309
#
#
#
# Elastic Compliance Matrix: (Units=1/GPa)
#
#
# Indices 1 2 3 4 5 6 
#
# 1 0.008656 -0.003034 -0.002519 0.000000 -0.001242 0.000000
# 2 -0.003034 0.024007 -0.008084 0.000000 0.006595 0.000000
# 3 -0.002519 -0.008084 0.014617 0.000000 -0.005998 0.000000
# 4 0.000000 0.000000 0.000000 0.041240 0.000000 -0.000044
# 5 -0.001242 0.006595 -0.005998 0.000000 0.059359 0.000000
# 6 0.000000 0.000000 0.000000 -0.000044 0.000000 0.032330
#
#
# Mechanical properties :
#
#
# Convention : Reuss Voigt Hill
#
# Bulk Modulus (GPa) = 49.98829 57.53059 53.75944
# Shear Modulus (GPa) = 23.34782 27.02994 25.18888
#
# Velocity S-wave (km/s) = 3.46733 3.73074 3.60144
# Velocity P-wave (km/s) = 6.46298 6.94131 6.70641
#
# Compressibility (1/GPa) = 0.02000468
#
# Stress axis : x y z
#
# Youngs Moduli (GPa) = 115.52378 41.65479 68.41255
#
# Poissons Ratio (x) = 0.12639 0.17236
# Poissons Ratio (y) = 0.35052 0.55307
# Poissons Ratio (z) = 0.29105 0.33675
#
# Static dielectric constant tensor:
#      x y z
#    x 3.774100 0.000000 -0.081350 
#    y 0.000000 3.408820 0.000000 
#    z -0.081350 0.000000 3.758670 
# 
# 
# High freq. dielectric constant tensor:
#      x y z
#    x 1.773880 0.000000 0.000960 
#    y 0.000000 1.737310 0.000000 
#    z 0.000960 0.000000 1.755690 
# 
# From -- ./inp_files/338872.got.cif
#   From: 2010.06.25/outbox.cif.g09.slc.cpg/sg12_170_cif.got.tgz:338872.got - 2010.06.28 00:19:55.
