data_PCOD8082623
_publ_section_title
;
Structure prediction by ZEFSAII (Michael W. Deem and Ramdas Pophale) SiO2 
 PCOD8082623
Probable space group: C 2/M
;
_chemical_formula_sum "Si O2"
_cell_formula_units_Z 56
_cell_length_a 18.135361
_cell_length_b 8.375903
_cell_length_c 28.986706
_cell_angle_alpha 90.000000
_cell_angle_beta 140.851926
_cell_angle_gamma 90.000000
_cell_volume 2779.782939
_symmetry_space_group_name_H-M "C 2/M"
_symmetry_group_IT_number 12
_symmetry_cell_setting 'monoclinic'
loop_
_space_group_symop_operation_xyz
x,y,z
-x,y,-z
-x,-y,-z
x,-y,z
1/2+x,1/2+y,z
1/2-x,1/2+y,-z
1/2-x,1/2-y,-z
1/2+x,1/2-y,z
loop_
_atom_site_type_symbol
_atom_site_label
_atom_site_fract_x
_atom_site_fract_y
_atom_site_fract_z
Si Si1 0.441324 0.814511 0.289499
Si Si2 0.223938 0.186639 0.713199
Si Si3 0.169930 0.189547 0.002347
Si Si4 0.630414 0.309338 0.571433
Si Si5 0.984993 0.689339 0.852176
Si Si6 0.858037 0.813930 0.153871
Si Si7 0.704155 0.810985 0.429422
O O1 0.363550 0.720663 0.288044
O O2 0.394355 0.786828 0.215683
O O3 0.573152 0.748410 0.357280
O O4 0.435586 0.000000 0.298841
O O5 0.176786 0.261299 0.642480
O O6 0.352464 0.253141 0.787369
O O7 0.234848 0.000000 0.711418
O O8 0.040394 0.257080 0.928415
O O9 0.168333 0.000000 0.004574
O O10 0.250000 0.250000 0.000000
O O11 0.225540 0.261977 0.076015
O O12 0.500000 0.243667 0.500000
O O13 0.630393 0.500000 0.571941
O O14 0.713438 0.243013 0.571155
O O15 0.995561 0.500000 0.850902
O O16 0.052202 0.775551 0.843354
O O17 0.860475 0.000000 0.166953
O O18 0.750000 0.750000 0.500000
O O19 0.707467 0.000000 0.430374
#
# Coordination Sequence:
#
# PCOD8082623 Si02
#       7
#     8   8   8   8   8   8   8
#     4  11  23  38  55  79 114 150 186 233 283 329
#     4  10  21  37  57  80 109 148 190 231 277 333
#     4  10  18  31  53  81 112 144 183 230 280 333
#     4   9  17  32  56  82 108 141 182 224 268 323
#     4  10  19  34  56  82 113 146 185 233 283 335
#     4  11  21  35  57  83 111 146 189 231 277 335
#     4  10  21  37  58  84 113 146 183 227 278 330
#
# _framework density 20.145457
#
# number of rings (size 3 to 8) (size 9 to 14) (size 15 to 20)
#    0.000    1.857    0.000    6.857    0.000    5.714 
#    0.000    1.429    0.000    6.857    0.000    0.000 
#    0.000    0.000    0.000    0.000    0.000    0.000 
#
# Total GULP energy -347203.417178 kJ/mol
# GULP energy per Si atom -12400.122042 kJ/mol
# Density = 2.009960 g / cm^3
# Si number density = 20.145457 Si / 1000 Ang^3
#
#
#
# Elastic Constant Matrix: (Units=GPa)
#
#
# Indices 1 2 3 4 5 6 
#
# 1 113.0541 -4.1092 74.8965 0.0000 13.0915 -0.0001
# 2 -4.1092 41.2277 7.1547 0.0002 9.8114 -0.0004
# 3 74.8965 7.1547 203.9823 0.0000 13.9881 0.0000
# 4 0.0000 0.0002 0.0000 26.0497 0.0000 -4.7988
# 5 13.0915 9.8114 13.9881 0.0000 34.0420 0.0000
# 6 -0.0001 -0.0004 0.0000 -4.7988 0.0000 25.1020
#
#
#
# Elastic Compliance Matrix: (Units=1/GPa)
#
#
# Indices 1 2 3 4 5 6 
#
# 1 0.012264 0.002871 -0.004346 0.000000 -0.003758 0.000000
# 2 0.002871 0.026747 -0.001428 0.000000 -0.008226 0.000000
# 3 -0.004346 -0.001428 0.006591 0.000000 -0.000625 0.000000
# 4 0.000000 0.000000 0.000000 0.039789 0.000000 0.007607
# 5 -0.003758 -0.008226 -0.000625 0.000000 0.033449 0.000000
# 6 0.000000 0.000000 0.000000 0.007607 0.000000 0.041292
#
#
# Mechanical properties :
#
#
# Convention : Reuss Voigt Hill
#
# Bulk Modulus (GPa) = 25.12832 57.12757 41.12794
# Shear Modulus (GPa) = 27.90122 35.72688 31.81405
#
# Velocity S-wave (km/s) = 3.72558 4.21580 3.97825
# Velocity P-wave (km/s) = 5.56840 7.21917 6.44684
#
# Compressibility (1/GPa) = 0.03979574
#
# Stress axis : x y z
#
# Youngs Moduli (GPa) = 81.53961 37.38711 151.72010
#
# Poissons Ratio (x) = -0.10733 0.65937
# Poissons Ratio (y) = -0.23409 0.21668
# Poissons Ratio (z) = 0.35437 0.05339
#
# Static dielectric constant tensor:
#      x y z
#    x 3.512470 0.000000 0.175250 
#    y 0.000000 3.419930 0.000000 
#    z 0.175250 0.000000 4.441200 
# 
# 
# High freq. dielectric constant tensor:
#      x y z
#    x 1.767630 0.000000 0.004330 
#    y 0.000000 1.771310 0.000000 
#    z 0.004330 0.000000 1.814630 
# 
# From -- ./inp_files/363126.got.cif
#   From: 2010.06.25/outbox.cif.g09.slc.cpg/sg12_182_cif.got.tgz:363126.got - 2010.06.28 00:19:55.
