data_PCOD8082453
_publ_section_title
;
Structure prediction by ZEFSAII (Michael W. Deem and Ramdas Pophale) SiO2 
 PCOD8082453
Probable space group: C 2/M
;
_chemical_formula_sum "Si O2"
_cell_formula_units_Z 64
_cell_length_a 10.130993
_cell_length_b 18.872004
_cell_length_c 19.492348
_cell_angle_alpha 90.000000
_cell_angle_beta 102.202684
_cell_angle_gamma 90.000000
_cell_volume 3642.580761
_symmetry_space_group_name_H-M "C 2/M"
_symmetry_group_IT_number 12
_symmetry_cell_setting 'monoclinic'
loop_
_space_group_symop_operation_xyz
x,y,z
-x,y,-z
-x,-y,-z
x,-y,z
1/2+x,1/2+y,z
1/2-x,1/2+y,-z
1/2-x,1/2-y,-z
1/2+x,1/2-y,z
loop_
_atom_site_type_symbol
_atom_site_label
_atom_site_fract_x
_atom_site_fract_y
_atom_site_fract_z
Si Si1 0.392856 0.084160 0.737906
Si Si2 0.694056 0.915707 0.562876
Si Si3 0.690176 0.083691 0.805856
Si Si4 0.616085 0.688175 0.917352
Si Si5 0.128010 0.083962 0.299083
Si Si6 0.685673 0.687974 0.079204
Si Si7 0.643053 0.584300 0.798648
Si Si8 0.408852 0.084319 0.588178
O O1 0.536010 0.109821 0.783055
O O2 0.278155 0.111938 0.776573
O O3 0.367614 0.115016 0.658204
O O4 0.388884 0.000000 0.733642
O O5 0.822915 0.887054 0.620727
O O6 0.695216 0.889714 0.483315
O O7 0.558370 0.888743 0.585421
O O8 0.693803 0.000000 0.563587
O O9 0.766791 0.110518 0.746473
O O10 0.761211 0.116974 0.879610
O O11 0.700411 0.000000 0.815981
O O12 0.459596 0.711746 0.906523
O O13 0.705033 0.750766 0.894357
O O14 0.629606 0.618910 0.871719
O O15 0.675750 0.668787 0.998087
O O16 0.978634 0.110686 0.263980
O O17 0.128879 0.000000 0.300593
O O18 0.640921 0.500000 0.809305
O O19 0.409168 0.000000 0.591502
#
# Coordination Sequence:
#
# PCOD8082453 Si02
#       8
#     8   8   8   8   8   8   8   8
#     4   9  17  28  43  68 102 134 163 202 248 289
#     4   8  12  19  36  60  90 129 167 200 234 283
#     4  10  18  31  52  76  99 129 169 205 242 290
#     4  10  22  39  55  74 100 130 162 200 249 295
#     4   9  15  26  43  67  97 127 163 204 244 284
#     4  10  22  38  56  75  99 129 161 203 247 295
#     4  10  20  33  50  73 103 134 163 203 252 295
#     4   8  12  20  35  59  92 130 166 196 236 288
#
# _framework density 17.569960999999999
#
# number of rings (size 3 to 8) (size 9 to 14) (size 15 to 20)
#    0.000    2.750    2.500    0.750    1.750    0.500 
#    0.000    1.875    0.000    6.000    0.000    0.000 
#    0.000    6.000    0.000    0.000    0.000    0.000 
#
# Total GULP energy -396560.584544 kJ/mol
# GULP energy per Si atom -12392.518267 kJ/mol
# Density = 1.752997 g / cm^3
# Si number density = 17.569961 Si / 1000 Ang^3
#
#
#
# Elastic Constant Matrix: (Units=GPa)
#
#
# Indices 1 2 3 4 5 6 
#
# 1 122.9829 22.8112 50.4379 0.0000 7.4415 0.0000
# 2 22.8112 27.5088 31.1376 0.0000 3.5440 0.0000
# 3 50.4379 31.1376 111.5237 0.0000 13.1553 0.0000
# 4 0.0000 0.0000 0.0000 5.0303 0.0000 0.1453
# 5 7.4415 3.5440 13.1553 0.0000 28.4706 0.0000
# 6 0.0000 0.0000 0.0000 0.1453 0.0000 15.8309
#
#
#
# Elastic Compliance Matrix: (Units=1/GPa)
#
#
# Indices 1 2 3 4 5 6 
#
# 1 0.010413 -0.004835 -0.003289 0.000000 -0.000600 0.000000
# 2 -0.004835 0.055396 -0.013343 0.000000 0.000533 0.000000
# 3 -0.003289 -0.013343 0.014682 0.000000 -0.004264 0.000000
# 4 0.000000 0.000000 0.000000 0.198849 0.000000 -0.001825
# 5 -0.000600 0.000533 -0.004264 0.000000 0.037185 0.000000
# 6 0.000000 0.000000 0.000000 -0.001825 0.000000 0.063184
#
#
# Mechanical properties :
#
#
# Convention : Reuss Voigt Hill
#
# Bulk Modulus (GPa) = 26.62547 52.30986 39.46767
# Shear Modulus (GPa) = 11.48998 20.37492 15.93245
#
# Velocity S-wave (km/s) = 2.56003 3.40905 3.01458
# Velocity P-wave (km/s) = 4.89134 6.73294 5.88463
#
# Compressibility (1/GPa) = 0.03755802
#
# Stress axis : x y z
#
# Youngs Moduli (GPa) = 96.03271 18.05197 68.10907
#
# Poissons Ratio (x) = 0.08728 0.22399
# Poissons Ratio (y) = 0.46433 0.90876
# Poissons Ratio (z) = 0.31582 0.24086
#
# Static dielectric constant tensor:
#      x y z
#    x 3.514060 0.000000 0.108700 
#    y 0.000000 2.651800 0.000000 
#    z 0.108700 0.000000 3.604940 
# 
# 
# High freq. dielectric constant tensor:
#      x y z
#    x 1.680370 0.000000 0.008770 
#    y 0.000000 1.611510 0.000000 
#    z 0.008770 0.000000 1.694520 
# 
# From -- ./inp_files/301438.got.cif
#   From: 2010.06.25/outbox.cif.g09.slc.cpg/sg12_151_cif.got.tgz:301438.got - 2010.06.28 00:19:55.
