data_PCOD8082479
_publ_section_title
;
Structure prediction by ZEFSAII (Michael W. Deem and Ramdas Pophale) SiO2 
 PCOD8082479
Probable space group: C 2/M
;
_chemical_formula_sum "Si O2"
_cell_formula_units_Z 56
_cell_length_a 20.622559
_cell_length_b 9.177641
_cell_length_c 30.265501
_cell_angle_alpha 90.000000
_cell_angle_beta 146.646975
_cell_angle_gamma 90.000000
_cell_volume 3149.365998
_symmetry_space_group_name_H-M "C 2/M"
_symmetry_group_IT_number 12
_symmetry_cell_setting 'monoclinic'
loop_
_space_group_symop_operation_xyz
x,y,z
-x,y,-z
-x,-y,-z
x,-y,z
1/2+x,1/2+y,z
1/2-x,1/2+y,-z
1/2-x,1/2-y,-z
1/2+x,1/2-y,z
loop_
_atom_site_type_symbol
_atom_site_label
_atom_site_fract_x
_atom_site_fract_y
_atom_site_fract_z
Si Si1 0.077326 0.669839 0.925681
Si Si2 0.283496 0.168305 0.083400
Si Si3 0.654202 0.327904 0.225629
Si Si4 0.600927 0.826976 0.675695
Si Si5 0.044629 0.671626 0.741340
Si Si6 0.568036 0.826642 0.496133
Si Si7 0.170226 0.828224 0.336832
O O1 0.061608 0.500000 0.925813
O O2 0.126564 0.703303 0.904979
O O3 0.952297 0.748121 0.859768
O O4 0.166549 0.734480 0.012852
O O5 0.347445 0.212012 0.165084
O O6 0.245332 0.000000 0.060780
O O7 0.638072 0.500000 0.210935
O O8 0.773593 0.270809 0.270703
O O9 0.657045 0.282372 0.278420
O O10 0.578992 0.769307 0.712568
O O11 0.496439 0.767888 0.584628
O O12 0.601587 0.000000 0.675192
O O13 0.020671 0.500000 0.728257
O O14 0.925888 0.749303 0.688361
O O15 0.500000 0.763035 0.500000
O O16 0.703006 0.773809 0.573378
O O17 0.563481 0.000000 0.495604
O O18 0.154973 0.000000 0.333715
#
# Coordination Sequence:
#
# PCOD8082479 Si02
#       7
#     8   8   8   8   8   8   8
#     4  10  19  31  51  77 101 129 167 211 256 300
#     4   9  18  32  49  72 101 132 167 208 250 299
#     4  10  18  31  52  78 101 130 173 213 248 295
#     4   9  18  32  52  75 102 138 174 208 249 298
#     4  10  20  35  52  74 106 138 167 205 257 308
#     4   9  15  28  50  78 105 130 170 217 250 284
#     4  10  19  30  52  79 103 132 171 214 251 294
#
# _framework density 17.781357
#
# number of rings (size 3 to 8) (size 9 to 14) (size 15 to 20)
#    0.000    2.429    2.857    0.429    0.000    1.714 
#    0.000    1.429    0.000    5.571    0.000    0.000 
#    0.000    0.000    0.000    0.000    0.000    0.000 
#
# Total GULP energy -347225.596929 kJ/mol
# GULP energy per Si atom -12400.914176 kJ/mol
# Density = 1.774089 g / cm^3
# Si number density = 17.781357 Si / 1000 Ang^3
#
#
#
# Elastic Constant Matrix: (Units=GPa)
#
#
# Indices 1 2 3 4 5 6 
#
# 1 123.1498 30.0916 81.1446 0.0001 3.3932 0.0000
# 2 30.0916 34.2846 43.5558 0.0001 8.1232 0.0002
# 3 81.1446 43.5558 167.5031 0.0000 9.3722 0.0000
# 4 0.0001 0.0001 0.0000 20.2902 0.0000 6.6669
# 5 3.3932 8.1232 9.3722 0.0000 33.1439 0.0000
# 6 0.0000 0.0002 0.0000 6.6669 0.0000 21.2917
#
#
#
# Elastic Compliance Matrix: (Units=1/GPa)
#
#
# Indices 1 2 3 4 5 6 
#
# 1 0.012507 -0.005233 -0.004774 0.000000 0.001352 0.000000
# 2 -0.005233 0.047711 -0.009396 0.000000 -0.008501 0.000000
# 3 -0.004774 -0.009396 0.010739 0.000000 -0.000245 0.000000
# 4 0.000000 0.000000 0.000000 0.054937 0.000000 -0.017202
# 5 0.001352 -0.008501 -0.000245 0.000000 0.032186 0.000000
# 6 0.000000 0.000000 0.000000 -0.017202 0.000000 0.052353
#
#
# Mechanical properties :
#
#
# Convention : Reuss Voigt Hill
#
# Bulk Modulus (GPa) = 31.10146 70.50238 50.80192
# Shear Modulus (GPa) = 19.23400 26.28819 22.76109
#
# Velocity S-wave (km/s) = 3.29248 3.84918 3.58167
# Velocity P-wave (km/s) = 5.65534 7.71302 6.76290
#
# Compressibility (1/GPa) = 0.03215283
#
# Stress axis : x y z
#
# Youngs Moduli (GPa) = 79.95428 20.95946 93.11429
#
# Poissons Ratio (x) = 0.10968 0.44451
# Poissons Ratio (y) = 0.41841 0.87486
# Poissons Ratio (z) = 0.38169 0.19693
#
# Static dielectric constant tensor:
#      x y z
#    x 3.259590 0.000000 -0.031190 
#    y 0.000000 2.939660 0.000000 
#    z -0.031190 0.000000 3.503310 
# 
# 
# High freq. dielectric constant tensor:
#      x y z
#    x 1.675120 0.000000 0.005750 
#    y 0.000000 1.653180 0.000000 
#    z 0.005750 0.000000 1.704170 
# 
# From -- ./inp_files/314416.got.cif
#   From: 2010.06.25/outbox.cif.g09.slc.cpg/sg12_158_cif.got.tgz:314416.got - 2010.06.28 00:19:55.
