data_PCOD8082773
_publ_section_title
;
Structure prediction by ZEFSAII (Michael W. Deem and Ramdas Pophale) SiO2 
 PCOD8082773
Probable space group: C 2/M
;
_chemical_formula_sum "Si O2"
_cell_formula_units_Z 56
_cell_length_a 19.882379
_cell_length_b 8.868091
_cell_length_c 18.524553
_cell_angle_alpha 90.000000
_cell_angle_beta 84.425943
_cell_angle_gamma 90.000000
_cell_volume 3250.781554
_symmetry_space_group_name_H-M "C 2/M"
_symmetry_group_IT_number 12
_symmetry_cell_setting 'monoclinic'
loop_
_space_group_symop_operation_xyz
x,y,z
-x,y,-z
-x,-y,-z
x,-y,z
1/2+x,1/2+y,z
1/2-x,1/2+y,-z
1/2-x,1/2-y,-z
1/2+x,1/2-y,z
loop_
_atom_site_type_symbol
_atom_site_label
_atom_site_fract_x
_atom_site_fract_y
_atom_site_fract_z
Si Si1 0.227047 0.669494 0.293201
Si Si2 0.443452 0.322172 0.058416
Si Si3 0.731138 0.176423 0.576871
Si Si4 0.130697 0.169746 0.678707
Si Si5 0.630189 0.820872 0.177344
Si Si6 0.821177 0.178101 0.975304
Si Si7 0.511581 0.320102 0.791273
O O1 0.201735 0.500000 0.312461
O O2 0.215378 0.769322 0.366942
O O3 0.308050 0.670259 0.268093
O O4 0.186427 0.733753 0.229124
O O5 0.452480 0.500000 0.057645
O O6 0.455136 0.261188 0.137761
O O7 0.500000 0.250008 0.000000
O O8 0.369542 0.277913 0.037097
O O9 0.750000 0.250000 0.500000
O O10 0.654873 0.227449 0.608534
O O11 0.734443 0.000000 0.567577
O O12 0.062290 0.230681 0.722182
O O13 0.119330 0.000000 0.651247
O O14 0.646265 0.742267 0.100493
O O15 0.558494 0.764626 0.214724
O O16 0.630849 0.000000 0.166877
O O17 0.813592 0.000000 0.967499
O O18 0.750000 0.250000 0.000000
O O19 0.500681 0.500000 0.793083
#
# Coordination Sequence:
#
# PCOD8082773 Si02
#       7
#     8   8   8   8   8   8   8
#     4   8  18  35  52  74 105 140 176 208 253 312
#     4   9  17  33  54  73  97 137 182 217 262 319
#     4  10  18  31  55  84 112 138 171 215 260 307
#     4   8  17  33  53  78 105 139 178 214 257 310
#     4  11  22  36  53  75 107 141 172 217 271 317
#     4  11  23  37  54  75 101 134 178 226 273 323
#     4  10  19  34  56  76 101 140 182 223 261 314
#
# _framework density 17.226624999999999
#
# number of rings (size 3 to 8) (size 9 to 14) (size 15 to 20)
#    0.857    1.571    1.429    1.714    2.000    1.714 
#    0.000    2.143    0.000    0.857    0.000    6.000 
#    0.000    0.000    0.000    0.000    0.000    0.000 
#
# Total GULP energy -346968.097462 kJ/mol
# GULP energy per Si atom -12391.717767 kJ/mol
# Density = 1.718742 g / cm^3
# Si number density = 17.226625 Si / 1000 Ang^3
#
#
#
# Elastic Constant Matrix: (Units=GPa)
#
#
# Indices 1 2 3 4 5 6 
#
# 1 93.1939 30.1808 22.1380 0.0000 -16.4635 0.0000
# 2 30.1808 76.8985 30.3408 0.0000 -6.6161 0.0000
# 3 22.1380 30.3408 61.6340 0.0000 -17.5564 0.0000
# 4 0.0000 0.0000 0.0000 25.4618 0.0000 -2.4700
# 5 -16.4635 -6.6161 -17.5564 0.0000 26.8594 0.0000
# 6 0.0000 0.0000 0.0000 -2.4700 0.0000 28.4755
#
#
#
# Elastic Compliance Matrix: (Units=1/GPa)
#
#
# Indices 1 2 3 4 5 6 
#
# 1 0.013532 -0.004430 -0.000771 0.000000 0.006699 0.000000
# 2 -0.004430 0.017638 -0.008144 0.000000 -0.003694 0.000000
# 3 -0.000771 -0.008144 0.024336 0.000000 0.013428 0.000000
# 4 0.000000 0.000000 0.000000 0.039608 0.000000 0.003436
# 5 0.006699 -0.003694 0.013428 0.000000 0.049204 0.000000
# 6 0.000000 0.000000 0.000000 0.003436 0.000000 0.035416
#
#
# Mechanical properties :
#
#
# Convention : Reuss Voigt Hill
#
# Bulk Modulus (GPa) = 34.70402 44.11617 39.41009
# Shear Modulus (GPa) = 23.14500 26.09713 24.62106
#
# Velocity S-wave (km/s) = 3.66944 3.89643 3.78464
# Velocity P-wave (km/s) = 6.17595 6.77553 6.48267
#
# Compressibility (1/GPa) = 0.02881511
#
# Stress axis : x y z
#
# Youngs Moduli (GPa) = 73.90074 56.69493 41.09167
#
# Poissons Ratio (x) = 0.25117 0.03170
# Poissons Ratio (y) = 0.32739 0.33464
# Poissons Ratio (z) = 0.05701 0.46171
#
# Static dielectric constant tensor:
#      x y z
#    x 3.154290 0.000000 0.027950 
#    y 0.000000 3.082190 0.000000 
#    z 0.027950 0.000000 3.136320 
# 
# 
# High freq. dielectric constant tensor:
#      x y z
#    x 1.658130 0.000000 -0.004880 
#    y 0.000000 1.654420 0.000000 
#    z -0.004880 0.000000 1.652200 
# 
# From -- ./inp_files/280338.got.cif
#   From: 2010.06.25/outbox.cif.g09.slc.cpg/sg12_141_cif.got.tgz:280338.got - 2010.06.28 00:19:55.
