data_PCOD8082592
_publ_section_title
;
Structure prediction by ZEFSAII (Michael W. Deem and Ramdas Pophale) SiO2 
 PCOD8082592
Probable space group: C 2/M
;
_chemical_formula_sum "Si O2"
_cell_formula_units_Z 64
_cell_length_a 23.586895
_cell_length_b 12.248204
_cell_length_c 11.976653
_cell_angle_alpha 90.000000
_cell_angle_beta 84.193078
_cell_angle_gamma 90.000000
_cell_volume 3442.265220
_symmetry_space_group_name_H-M "C 2/M"
_symmetry_group_IT_number 12
_symmetry_cell_setting 'monoclinic'
loop_
_space_group_symop_operation_xyz
x,y,z
-x,y,-z
-x,-y,-z
x,-y,z
1/2+x,1/2+y,z
1/2-x,1/2+y,-z
1/2-x,1/2-y,-z
1/2+x,1/2-y,z
loop_
_atom_site_type_symbol
_atom_site_label
_atom_site_fract_x
_atom_site_fract_y
_atom_site_fract_z
Si Si1 0.185244 0.269257 0.778112
Si Si2 0.090332 0.869915 0.396098
Si Si3 0.611374 0.376094 0.645282
Si Si4 0.698732 0.628886 0.231309
Si Si5 0.070186 0.625738 0.855745
Si Si6 0.320341 0.621648 0.014756
Si Si7 0.056708 0.816876 0.029630
Si Si8 0.498997 0.279486 0.737441
O O1 0.164341 0.189326 0.685134
O O2 0.243093 0.326482 0.725655
O O3 0.136405 0.359299 0.809428
O O4 0.202218 0.202665 0.886494
O O5 0.100869 0.837116 0.521397
O O6 0.145313 0.831412 0.314950
O O7 0.035121 0.797146 0.371388
O O8 0.077474 0.000000 0.384545
O O9 0.630820 0.500000 0.645267
O O10 0.553726 0.360306 0.729096
O O11 0.700585 0.500000 0.231974
O O12 0.694530 0.670059 0.103974
O O13 0.058708 0.500000 0.886529
O O14 0.027358 0.661615 0.762134
O O15 0.058055 0.698606 0.967660
O O16 0.294910 0.500000 0.037340
O O17 0.388735 0.612275 0.011556
O O18 0.050461 0.806531 0.163676
O O19 0.000000 0.879805 0.000000
#
# Coordination Sequence:
#
# PCOD8082592 Si02
#       8
#     8   8   8   8   8   8   8   8
#     4  10  20  34  53  77 105 136 176 216 255 303
#     4  10  20  35  55  79 105 135 173 214 261 313
#     4  10  21  35  54  79 105 137 173 213 262 310
#     4  10  20  34  55  76 100 137 175 213 257 306
#     4   9  19  34  52  75 106 141 176 212 252 305
#     4  10  19  32  50  76 109 137 165 209 263 314
#     4   9  18  29  47  77 106 137 167 203 253 310
#     4  10  18  31  53  78 105 133 170 212 258 307
#
# _framework density 18.592409
#
# number of rings (size 3 to 8) (size 9 to 14) (size 15 to 20)
#    0.000    2.250    1.250    2.625    0.000    4.500 
#    0.000    1.875    0.000    9.000    0.000    0.000 
#    0.000    0.000    0.000    0.000    0.000    0.000 
#
# Total GULP energy -396553.819355 kJ/mol
# GULP energy per Si atom -12392.306855 kJ/mol
# Density = 1.855009 g / cm^3
# Si number density = 18.592409 Si / 1000 Ang^3
#
#
#
# Elastic Constant Matrix: (Units=GPa)
#
#
# Indices 1 2 3 4 5 6 
#
# 1 92.8082 13.6962 21.3749 0.0000 9.0744 0.0000
# 2 13.6962 43.5529 37.8252 0.0000 8.4218 0.0000
# 3 21.3749 37.8252 82.2904 0.0000 15.4149 0.0000
# 4 0.0000 0.0000 0.0000 17.9564 0.0000 4.9485
# 5 9.0744 8.4218 15.4149 0.0000 24.0408 0.0000
# 6 0.0000 0.0000 0.0000 4.9485 0.0000 23.6380
#
#
#
# Elastic Compliance Matrix: (Units=1/GPa)
#
#
# Indices 1 2 3 4 5 6 
#
# 1 0.011688 -0.001591 -0.001799 0.000000 -0.002701 0.000000
# 2 -0.001591 0.038557 -0.016925 0.000000 -0.002054 0.000000
# 3 -0.001799 -0.016925 0.021777 0.000000 -0.007355 0.000000
# 4 0.000000 0.000000 0.000000 0.059100 0.000000 -0.012372
# 5 -0.002701 -0.002054 -0.007355 0.000000 0.048051 0.000000
# 6 0.000000 0.000000 0.000000 -0.012372 0.000000 0.044895
#
#
# Mechanical properties :
#
#
# Convention : Reuss Voigt Hill
#
# Bulk Modulus (GPa) = 31.85460 40.49380 36.17420
# Shear Modulus (GPa) = 18.17110 22.84405 20.50757
#
# Velocity S-wave (km/s) = 3.12963 3.50905 3.32476
# Velocity P-wave (km/s) = 5.49816 6.18425 5.85127
#
# Compressibility (1/GPa) = 0.03139264
#
# Stress axis : x y z
#
# Youngs Moduli (GPa) = 85.55725 25.93543 45.92062
#
# Poissons Ratio (x) = 0.04127 0.08259
# Poissons Ratio (y) = 0.13614 0.77720
# Poissons Ratio (z) = 0.15388 0.43895
#
# Static dielectric constant tensor:
#      x y z
#    x 3.444620 0.000000 0.057390 
#    y 0.000000 3.065530 0.000000 
#    z 0.057390 0.000000 3.520250 
# 
# 
# High freq. dielectric constant tensor:
#      x y z
#    x 1.728010 0.000000 0.003920 
#    y 0.000000 1.687780 0.000000 
#    z 0.003920 0.000000 1.718640 
# 
# From -- ./inp_files/174689.got.cif
#   From: 2010.06.25/outbox.cif.g09.slc.cpg/sg12_88_cif.got.tgz:174689.got - 2010.06.28 00:19:55.
