data_PCOD8082897
_publ_section_title
;
Structure prediction by ZEFSAII (Michael W. Deem and Ramdas Pophale) SiO2 
 PCOD8082897
Probable space group: C 2/M
;
_chemical_formula_sum "Si O2"
_cell_formula_units_Z 48
_cell_length_a 20.204008
_cell_length_b 8.788820
_cell_length_c 31.405255
_cell_angle_alpha 90.000000
_cell_angle_beta 28.880789
_cell_angle_gamma 90.000000
_cell_volume 2693.441214
_symmetry_space_group_name_H-M "C 2/M"
_symmetry_group_IT_number 12
_symmetry_cell_setting 'monoclinic'
loop_
_space_group_symop_operation_xyz
x,y,z
-x,y,-z
-x,-y,-z
x,-y,z
1/2+x,1/2+y,z
1/2-x,1/2+y,-z
1/2-x,1/2-y,-z
1/2+x,1/2-y,z
loop_
_atom_site_type_symbol
_atom_site_label
_atom_site_fract_x
_atom_site_fract_y
_atom_site_fract_z
Si Si1 0.501753 0.326386 0.448483
Si Si2 0.316225 0.326433 0.896898
Si Si3 0.446595 0.821247 0.277671
Si Si4 0.200594 0.323597 0.724961
Si Si5 0.070293 0.675922 0.085205
Si Si6 0.247688 0.178739 0.547479
O O1 0.500000 0.318345 0.500000
O O2 0.477672 0.500000 0.446460
O O3 0.648758 0.256442 0.349991
O O4 0.384540 0.221162 0.495685
O O5 0.346455 0.500000 0.867555
O O6 0.392040 0.222215 0.819058
O O7 0.372422 0.292195 0.912298
O O8 0.150239 0.297282 0.995070
O O9 0.365449 0.759863 0.281671
O O10 0.386657 0.739517 0.352704
O O11 0.432627 0.000000 0.291881
O O12 0.227088 0.500000 0.701550
O O13 0.094782 0.294957 0.824029
O O14 0.093435 0.500000 0.087327
O O15 0.250000 0.250000 0.500000
O O16 0.236466 0.000000 0.549595
#
# Coordination Sequence:
#
# PCOD8082897 Si02
#       6
#     8   8   8   8   8   8
#     4  10  18  33  55  78 104 138 175 209 254 307
#     4   9  15  23  38  64  96 129 167 208 249 294
#     4  10  18  32  50  70  97 133 171 207 256 309
#     4   8  14  26  47  71  98 134 170 202 244 299
#     4   8  14  24  38  61  96 135 168 201 245 299
#     4  12  25  39  54  75 103 135 174 217 261 306
#
# _framework density 17.821069000000001
#
# number of rings (size 3 to 8) (size 9 to 14) (size 15 to 20)
#    0.000    2.500    1.667    3.500    0.000    1.000 
#    0.000    0.833    0.000    0.000    0.000    1.167 
#    0.000    9.333    0.000    0.000    0.000    0.000 
#
# Total GULP energy -297317.852565 kJ/mol
# GULP energy per Si atom -12388.243857 kJ/mol
# Density = 1.778051 g / cm^3
# Si number density = 17.821069 Si / 1000 Ang^3
#
#
#
# Elastic Constant Matrix: (Units=GPa)
#
#
# Indices 1 2 3 4 5 6 
#
# 1 35.1360 21.7588 35.1133 0.0021 6.8553 -0.0644
# 2 21.7588 83.8348 48.0235 0.0049 5.5018 -0.0354
# 3 35.1133 48.0235 188.2221 0.0030 -4.1757 -0.0152
# 4 0.0021 0.0049 0.0030 29.3215 0.0032 0.7730
# 5 6.8553 5.5018 -4.1757 0.0032 17.8070 0.0012
# 6 -0.0644 -0.0354 -0.0152 0.7730 0.0012 15.6882
#
#
#
# Elastic Compliance Matrix: (Units=1/GPa)
#
#
# Indices 1 2 3 4 5 6 
#
# 1 0.041915 -0.006043 -0.006628 -0.000004 -0.015823 0.000153
# 2 -0.006043 0.015333 -0.002853 -0.000002 -0.003080 0.000007
# 3 -0.006628 -0.002853 0.007392 0.000000 0.005167 -0.000027
# 4 -0.000004 -0.000002 0.000000 0.034149 -0.000004 -0.001683
# 5 -0.015823 -0.003080 0.005167 -0.000004 0.064413 -0.000072
# 6 0.000153 0.000007 -0.000027 -0.001683 -0.000072 0.063826
#
#
# Mechanical properties :
#
#
# Convention : Reuss Voigt Hill
#
# Bulk Modulus (GPa) = 29.77030 57.44269 43.60650
# Shear Modulus (GPa) = 18.56844 26.04983 22.30913
#
# Velocity S-wave (km/s) = 3.23141 3.82742 3.54197
# Velocity P-wave (km/s) = 5.53751 7.19967 6.42259
#
# Compressibility (1/GPa) = 0.03359052
#
# Stress axis : x y z
#
# Youngs Moduli (GPa) = 23.85781 65.21799 135.28128
#
# Poissons Ratio (x) = 0.39413 0.89671
# Poissons Ratio (y) = 0.14418 0.38597
# Poissons Ratio (z) = 0.15814 0.18607
#
# Static dielectric constant tensor:
#      x y z
#    x 2.565210 -0.000070 -0.129090 
#    y -0.000070 3.214120 0.000020 
#    z -0.129090 0.000020 4.018770 
# 
# 
# High freq. dielectric constant tensor:
#      x y z
#    x 1.608400 0.000000 -0.013220 
#    y 0.000000 1.679040 0.000000 
#    z -0.013220 0.000000 1.727200 
# 
# From -- ./inp_files/380142.got.cif
#   From: 2010.06.25/outbox.cif.g09.slc.cpg/sg12_191_cif.got.tgz:380142.got - 2010.06.28 00:19:55.
