data_PCOD8082653
_publ_section_title
;
Structure prediction by ZEFSAII (Michael W. Deem and Ramdas Pophale) SiO2 
 PCOD8082653
Probable space group: C 2/M
;
_chemical_formula_sum "Si O2"
_cell_formula_units_Z 56
_cell_length_a 30.129688
_cell_length_b 9.038680
_cell_length_c 16.778732
_cell_angle_alpha 90.000000
_cell_angle_beta 134.737554
_cell_angle_gamma 90.000000
_cell_volume 3245.816823
_symmetry_space_group_name_H-M "C 2/M"
_symmetry_group_IT_number 12
_symmetry_cell_setting 'monoclinic'
loop_
_space_group_symop_operation_xyz
x,y,z
-x,y,-z
-x,-y,-z
x,-y,z
1/2+x,1/2+y,z
1/2-x,1/2+y,-z
1/2-x,1/2-y,-z
1/2+x,1/2-y,z
loop_
_atom_site_type_symbol
_atom_site_label
_atom_site_fract_x
_atom_site_fract_y
_atom_site_fract_z
Si Si1 0.598537 0.824655 0.092555
Si Si2 0.436116 0.170557 0.464161
Si Si3 0.805258 0.175438 0.891576
Si Si4 0.822726 0.172162 0.240526
Si Si5 0.624309 0.671944 0.861689
Si Si6 0.473525 0.825361 0.849132
Si Si7 0.006201 0.327546 0.298800
O O1 0.660129 0.739297 0.142366
O O2 0.581894 0.771674 0.161956
O O3 0.610105 0.000000 0.101566
O O4 0.541338 0.771312 0.964398
O O5 0.500000 0.208371 0.500000
O O6 0.383137 0.278640 0.366049
O O7 0.444940 0.204248 0.569124
O O8 0.417154 0.000000 0.425207
O O9 0.735370 0.235051 0.801611
O O10 0.803465 0.000000 0.885039
O O11 0.840286 0.232610 0.015493
O O12 0.831864 0.204766 0.158547
O O13 0.810849 0.000000 0.241494
O O14 0.609596 0.500000 0.852016
O O15 0.559181 0.751838 0.765507
O O16 0.463456 0.768855 0.745880
O O17 0.473609 0.000000 0.854874
O O18 0.990980 0.500000 0.272915
#
# Coordination Sequence:
#
# PCOD8082653 Si02
#       7
#     8   8   8   8   8   8   8
#     4   9  16  30  52  76 104 134 170 207 248 305
#     4  10  20  34  53  78 104 134 171 214 257 296
#     4  11  22  35  51  75 107 137 169 212 260 306
#     4  11  23  37  53  72 100 141 180 211 250 302
#     4  10  21  34  49  75 106 136 169 208 254 302
#     4   8  15  28  50  79 104 133 169 207 247 300
#     4  10  18  31  54  78 105 138 170 204 251 303
#
# _framework density 17.252974999999999
#
# number of rings (size 3 to 8) (size 9 to 14) (size 15 to 20)
#    0.000    2.143    2.857    2.143    0.000    2.000 
#    0.000    2.143    0.000    0.857    0.000    0.000 
#    0.000    0.000    0.000    0.000    0.000    0.000 
#
# Total GULP energy -347181.527261 kJ/mol
# GULP energy per Si atom -12399.340259 kJ/mol
# Density = 1.721371 g / cm^3
# Si number density = 17.252975 Si / 1000 Ang^3
#
#
#
# Elastic Constant Matrix: (Units=GPa)
#
#
# Indices 1 2 3 4 5 6 
#
# 1 126.7667 42.7849 39.7598 0.0000 -4.0941 0.0000
# 2 42.7849 50.4722 24.8489 0.0000 4.9014 0.0000
# 3 39.7598 24.8489 58.1962 0.0000 -1.0657 0.0000
# 4 0.0000 0.0000 0.0000 23.9243 0.0000 4.6481
# 5 -4.0941 4.9014 -1.0657 0.0000 28.4358 0.0000
# 6 0.0000 0.0000 0.0000 4.6481 0.0000 25.1187
#
#
#
# Elastic Compliance Matrix: (Units=1/GPa)
#
#
# Indices 1 2 3 4 5 6 
#
# 1 0.012314 -0.008381 -0.004779 0.000000 0.003038 0.000000
# 2 -0.008381 0.031442 -0.007826 0.000000 -0.006920 0.000000
# 3 -0.004779 -0.007826 0.023818 0.000000 0.001554 0.000000
# 4 0.000000 0.000000 0.000000 0.043357 0.000000 -0.008023
# 5 0.003038 -0.006920 0.001554 0.000000 0.036855 0.000000
# 6 0.000000 0.000000 0.000000 -0.008023 0.000000 0.041296
#
#
# Mechanical properties :
#
#
# Convention : Reuss Voigt Hill
#
# Bulk Modulus (GPa) = 39.05831 50.02469 44.54150
# Shear Modulus (GPa) = 20.86904 24.03187 22.45045
#
# Velocity S-wave (km/s) = 3.48169 3.73622 3.61120
# Velocity P-wave (km/s) = 6.23303 6.90436 6.57727
#
# Compressibility (1/GPa) = 0.02560275
#
# Stress axis : x y z
#
# Youngs Moduli (GPa) = 81.20751 31.80424 41.98448
#
# Poissons Ratio (x) = 0.26655 0.20064
# Poissons Ratio (y) = 0.68059 0.32858
# Poissons Ratio (z) = 0.38808 0.24891
#
# Static dielectric constant tensor:
#      x y z
#    x 3.515550 0.000000 -0.297330 
#    y 0.000000 3.044100 0.000000 
#    z -0.297330 0.000000 3.148540 
# 
# 
# High freq. dielectric constant tensor:
#      x y z
#    x 1.673510 0.000000 -0.010430 
#    y 0.000000 1.653190 0.000000 
#    z -0.010430 0.000000 1.645710 
# 
# From -- ./inp_files/280881.got.cif
#   From: 2010.06.25/outbox.cif.g09.slc.cpg/sg12_141_cif.got.tgz:280881.got - 2010.06.28 00:19:55.
