data_PCOD8082821
_publ_section_title
;
Structure prediction by ZEFSAII (Michael W. Deem and Ramdas Pophale) SiO2 
 PCOD8082821
Probable space group: C 2/M
;
_chemical_formula_sum "Si O2"
_cell_formula_units_Z 44
_cell_length_a 15.600491
_cell_length_b 13.634790
_cell_length_c 12.892467
_cell_angle_alpha 90.000000
_cell_angle_beta 51.248827
_cell_angle_gamma 90.000000
_cell_volume 2138.680416
_symmetry_space_group_name_H-M "C 2/M"
_symmetry_group_IT_number 12
_symmetry_cell_setting 'monoclinic'
loop_
_space_group_symop_operation_xyz
x,y,z
-x,y,-z
-x,-y,-z
x,-y,z
1/2+x,1/2+y,z
1/2-x,1/2+y,-z
1/2-x,1/2-y,-z
1/2+x,1/2-y,z
loop_
_atom_site_type_symbol
_atom_site_label
_atom_site_fract_x
_atom_site_fract_y
_atom_site_fract_z
Si Si1 0.101005 0.777499 0.719706
Si Si2 0.122297 0.795621 0.194320
Si Si3 0.338024 0.888066 0.958009
Si Si4 0.273712 0.113324 0.477095
Si Si5 0.627956 0.606322 0.392062
Si Si6 0.500000 0.194499 0.000000
O O1 0.212317 0.843865 0.626460
O O2 0.120388 0.675033 0.640838
O O3 0.999321 0.835270 0.742552
O O4 0.069363 0.759188 0.864399
O O5 0.118862 0.680881 0.167143
O O6 0.153553 0.807858 0.291020
O O7 0.210516 0.859765 0.065303
O O8 0.410085 0.870951 0.007626
O O9 0.349091 0.000000 0.914708
O O10 0.182939 0.132458 0.457955
O O11 0.307252 0.000000 0.467465
O O12 0.500000 0.597745 0.500000
O O13 0.673351 0.500000 0.317708
#
# Coordination Sequence:
#
# PCOD8082821 Si02
#       6
#     8   8   8   8   8   4
#     4  10  21  36  56  85 119 151 191 236 289 339
#     4  10  20  34  54  85 117 147 181 236 288 335
#     4  10  21  36  58  86 114 147 187 232 286 343
#     4  10  21  37  59  86 117 152 191 237 286 341
#     4  10  18  31  57  87 108 138 186 234 277 328
#     4  10  21  38  61  88 114 152 189 240 287 336
#
# _framework density 20.573433999999999
#
# number of rings (size 3 to 8) (size 9 to 14) (size 15 to 20)
#    0.000    2.000    1.818    1.909    0.000    5.818 
#    0.000    0.455    0.000   23.455    0.000    0.000 
#    0.000    0.000    0.000    0.000    0.000    0.000 
#
# Total GULP energy -272579.706646 kJ/mol
# GULP energy per Si atom -12389.986666 kJ/mol
# Density = 2.052661 g / cm^3
# Si number density = 20.573434 Si / 1000 Ang^3
#
#
#
# Elastic Constant Matrix: (Units=GPa)
#
#
# Indices 1 2 3 4 5 6 
#
# 1 67.9931 21.1032 14.4752 0.0000 -12.6112 0.0000
# 2 21.1032 107.2291 38.8707 0.0000 10.9503 0.0000
# 3 14.4752 38.8707 116.3784 0.0000 -1.4389 0.0000
# 4 0.0000 0.0000 0.0000 25.2096 0.0000 2.6730
# 5 -12.6112 10.9503 -1.4389 0.0000 26.9068 0.0000
# 6 0.0000 0.0000 0.0000 2.6730 0.0000 26.6957
#
#
#
# Elastic Compliance Matrix: (Units=1/GPa)
#
#
# Indices 1 2 3 4 5 6 
#
# 1 0.018100 -0.004365 -0.000667 0.000000 0.010224 0.000000
# 2 -0.004365 0.012240 -0.003635 0.000000 -0.007221 0.000000
# 3 -0.000667 -0.003635 0.009911 0.000000 0.001696 0.000000
# 4 0.000000 0.000000 0.000000 0.040093 0.000000 -0.004014
# 5 0.010224 -0.007221 0.001696 0.000000 0.044987 0.000000
# 6 0.000000 0.000000 0.000000 -0.004014 0.000000 0.037861
#
#
# Mechanical properties :
#
#
# Convention : Reuss Voigt Hill
#
# Bulk Modulus (GPa) = 43.63328 48.94433 46.28881
# Shear Modulus (GPa) = 26.57260 30.23919 28.40589
#
# Velocity S-wave (km/s) = 3.59778 3.83798 3.71982
# Velocity P-wave (km/s) = 6.20591 6.59407 6.40293
#
# Compressibility (1/GPa) = 0.02291828
#
# Stress axis : x y z
#
# Youngs Moduli (GPa) = 55.24738 81.70106 100.90249
#
# Poissons Ratio (x) = 0.35658 0.06732
# Poissons Ratio (y) = 0.24113 0.36673
# Poissons Ratio (z) = 0.03686 0.29694
#
# Static dielectric constant tensor:
#      x y z
#    x 3.736300 0.000000 -0.191390 
#    y 0.000000 3.840590 0.000000 
#    z -0.191390 0.000000 3.898750 
# 
# 
# High freq. dielectric constant tensor:
#      x y z
#    x 1.795740 0.000000 -0.023470 
#    y 0.000000 1.785460 0.000000 
#    z -0.023470 0.000000 1.809120 
# 
# From -- ./inp_files/155801.got.cif
#   From: 2010.06.25/outbox.cif.g09.slc.cpg/sg12_78_cif.got.tgz:155801.got - 2010.06.28 00:19:55.
