data_PCOD8082461
_publ_section_title
;
Structure prediction by ZEFSAII (Michael W. Deem and Ramdas Pophale) SiO2 
 PCOD8082461
Probable space group: C 2/M
;
_chemical_formula_sum "Si O2"
_cell_formula_units_Z 56
_cell_length_a 29.328797
_cell_length_b 13.088563
_cell_length_c 15.828480
_cell_angle_alpha 90.000000
_cell_angle_beta 30.647931
_cell_angle_gamma 90.000000
_cell_volume 3097.364284
_symmetry_space_group_name_H-M "C 2/M"
_symmetry_group_IT_number 12
_symmetry_cell_setting 'monoclinic'
loop_
_space_group_symop_operation_xyz
x,y,z
-x,y,-z
-x,-y,-z
x,-y,z
1/2+x,1/2+y,z
1/2-x,1/2+y,-z
1/2-x,1/2-y,-z
1/2+x,1/2-y,z
loop_
_atom_site_type_symbol
_atom_site_label
_atom_site_fract_x
_atom_site_fract_y
_atom_site_fract_z
Si Si1 0.930778 0.115514 0.354584
Si Si2 0.621295 0.789890 0.446239
Si Si3 0.793620 0.676757 0.862575
Si Si4 0.291821 0.382544 0.246160
Si Si5 0.080982 0.880702 0.814505
Si Si6 0.622632 0.315872 0.048809
Si Si7 0.929038 0.385320 0.776528
O O1 0.880394 0.180535 0.505612
O O2 0.914934 0.165637 0.286762
O O3 0.894940 0.000000 0.418095
O O4 0.035736 0.118825 0.208842
O O5 0.654981 0.768342 0.297338
O O6 0.688014 0.858837 0.396170
O O7 0.527009 0.847939 0.592819
O O8 0.705735 0.624149 0.961643
O O9 0.865150 0.605071 0.795510
O O10 0.750000 0.750000 0.000000
O O11 0.310961 0.500000 0.194134
O O12 0.323795 0.359648 0.291259
O O13 0.356433 0.314464 0.083998
O O14 0.061145 0.000000 0.833209
O O15 0.000000 0.833870 0.000000
O O16 0.612134 0.196569 0.092473
O O17 0.934231 0.500000 0.807495
#
# Coordination Sequence:
#
# PCOD8082461 Si02
#       7
#     8   8   8   8   8   8   8
#     4  10  19  33  52  76 108 137 163 209 260 300
#     4  10  21  33  50  77 103 133 171 207 254 312
#     4   9  19  35  51  69  96 128 171 215 245 292
#     4  10  18  31  52  77 104 131 171 217 247 285
#     4   9  16  28  51  80 102 128 171 210 246 294
#     4   9  18  32  52  78 101 128 172 214 250 299
#     4  10  20  34  52  74 103 134 165 210 260 305
#
# _framework density 18.079888
#
# number of rings (size 3 to 8) (size 9 to 14) (size 15 to 20)
#    0.000    2.429    1.429    1.286    0.000    4.571 
#    0.000    6.429    0.000   12.000    0.000    9.000 
#    0.000    0.000    0.000    0.000    0.000    0.000 
#
# Total GULP energy -346876.377869 kJ/mol
# GULP energy per Si atom -12388.442067 kJ/mol
# Density = 1.803874 g / cm^3
# Si number density = 18.079888 Si / 1000 Ang^3
#
#
#
# Elastic Constant Matrix: (Units=GPa)
#
#
# Indices 1 2 3 4 5 6 
#
# 1 107.4524 39.4944 47.4715 0.0000 -2.6740 0.0000
# 2 39.4944 78.3034 35.3079 0.0000 7.9533 0.0000
# 3 47.4715 35.3079 88.5982 0.0000 0.9732 0.0000
# 4 0.0000 0.0000 0.0000 15.2375 0.0000 0.7029
# 5 -2.6740 7.9533 0.9732 0.0000 29.4631 0.0000
# 6 0.0000 0.0000 0.0000 0.7029 0.0000 21.9441
#
#
#
# Elastic Compliance Matrix: (Units=1/GPa)
#
#
# Indices 1 2 3 4 5 6 
#
# 1 0.013455 -0.004622 -0.005397 0.000000 0.002647 0.000000
# 2 -0.004622 0.017642 -0.004499 0.000000 -0.005033 0.000000
# 3 -0.005397 -0.004499 0.015969 0.000000 0.000197 0.000000
# 4 0.000000 0.000000 0.000000 0.065725 0.000000 -0.002105
# 5 0.002647 -0.005033 0.000197 0.000000 0.035533 0.000000
# 6 0.000000 0.000000 0.000000 -0.002105 0.000000 0.045638
#
#
# Mechanical properties :
#
#
# Convention : Reuss Voigt Hill
#
# Bulk Modulus (GPa) = 55.45847 57.65574 56.55711
# Shear Modulus (GPa) = 21.83337 23.46761 22.65049
#
# Velocity S-wave (km/s) = 3.47883 3.60668 3.54333
# Velocity P-wave (km/s) = 6.84668 7.02160 6.93469
#
# Compressibility (1/GPa) = 0.01803151
#
# Stress axis : x y z
#
# Youngs Moduli (GPa) = 74.32010 56.68337 62.62099
#
# Poissons Ratio (x) = 0.26199 0.33794
# Poissons Ratio (y) = 0.34351 0.28172
# Poissons Ratio (z) = 0.40107 0.25501
#
# Static dielectric constant tensor:
#      x y z
#    x 3.987290 0.000000 -0.138690 
#    y 0.000000 3.000460 0.000000 
#    z -0.138690 0.000000 3.316760 
# 
# 
# High freq. dielectric constant tensor:
#      x y z
#    x 1.720560 0.000000 -0.011240 
#    y 0.000000 1.661050 0.000000 
#    z -0.011240 0.000000 1.693650 
# 
# From -- ./inp_files/251024.got.cif
#   From: 2010.06.25/outbox.cif.g09.slc.cpg/sg12_126_cif.got.tgz:251024.got - 2010.06.28 00:19:55.
