data_PCOD8082690
_publ_section_title
;
Structure prediction by ZEFSAII (Michael W. Deem and Ramdas Pophale) SiO2 
 PCOD8082690
Probable space group: C 2/M
;
_chemical_formula_sum "Si O2"
_cell_formula_units_Z 36
_cell_length_a 14.818848
_cell_length_b 13.974721
_cell_length_c 9.364685
_cell_angle_alpha 90.000000
_cell_angle_beta 81.234272
_cell_angle_gamma 90.000000
_cell_volume 1916.673868
_symmetry_space_group_name_H-M "C 2/M"
_symmetry_group_IT_number 12
_symmetry_cell_setting 'monoclinic'
loop_
_space_group_symop_operation_xyz
x,y,z
-x,y,-z
-x,-y,-z
x,-y,z
1/2+x,1/2+y,z
1/2-x,1/2+y,-z
1/2-x,1/2-y,-z
1/2+x,1/2-y,z
loop_
_atom_site_type_symbol
_atom_site_label
_atom_site_fract_x
_atom_site_fract_y
_atom_site_fract_z
Si Si1 0.805642 0.000000 0.627555
Si Si2 0.569452 0.365726 0.232147
Si Si3 0.632598 0.500000 0.990532
Si Si4 0.402226 0.000000 0.249173
Si Si5 0.841085 0.500000 0.952265
Si Si6 0.966469 0.656896 0.846805
Si Si7 0.413140 0.500000 0.320571
O O1 0.844643 0.904304 0.695233
O O2 0.695801 0.000000 0.651698
O O3 0.833867 0.000000 0.455674
O O4 0.560759 0.252456 0.231375
O O5 0.476508 0.406630 0.323603
O O6 0.581707 0.407063 0.067898
O O7 0.736186 0.500000 0.018535
O O8 0.635063 0.500000 0.820838
O O9 0.458706 0.901855 0.266467
O O10 0.399702 0.000000 0.080437
O O11 0.872368 0.596176 0.863962
O O12 0.000000 0.680963 0.000000
#
# Coordination Sequence:
#
# PCOD8082690 Si02
#       7
#     4   8   4   4   4   8   4
#     4  10  20  37  58  74 109 142 178 213 264 318
#     4  10  18  34  55  82 102 138 175 224 263 308
#     4  10  18  31  54  80 111 126 186 221 258 304
#     4   9  17  37  53  79 109 143 173 214 264 319
#     4   9  17  33  51  83 107 143 167 226 262 311
#     4   9  18  31  56  79 112 135 175 217 274 307
#     4  10  20  34  54  75 110 143 168 218 274 310
#
# _framework density 18.782537000000001
#
# number of rings (size 3 to 8) (size 9 to 14) (size 15 to 20)
#    0.000    2.667    2.222    5.333    0.000    0.889 
#    4.000    1.111    4.889    1.333    0.000    0.000 
#    0.000    0.000    0.000    0.000    0.000    0.000 
#
# Total GULP energy -223045.007428 kJ/mol
# GULP energy per Si atom -12391.389302 kJ/mol
# Density = 1.873979 g / cm^3
# Si number density = 18.782537 Si / 1000 Ang^3
#
#
#
# Elastic Constant Matrix: (Units=GPa)
#
#
# Indices 1 2 3 4 5 6 
#
# 1 90.6819 48.0598 26.9208 0.0000 -31.9351 0.0000
# 2 48.0598 168.2883 33.7378 0.0000 -17.9241 0.0000
# 3 26.9208 33.7378 90.0332 0.0000 -20.8577 0.0000
# 4 0.0000 0.0000 0.0000 0.4342 0.0000 -1.1935
# 5 -31.9351 -17.9241 -20.8577 0.0000 32.0936 0.0000
# 6 0.0000 0.0000 0.0000 -1.1935 0.0000 17.5277
#
#
#
# Elastic Compliance Matrix: (Units=1/GPa)
#
#
# Indices 1 2 3 4 5 6 
#
# 1 0.018839 -0.003528 -0.000500 0.000000 0.016451 0.000000
# 2 -0.003528 0.007244 -0.001808 0.000000 -0.000639 0.000000
# 3 -0.000500 -0.001808 0.013638 0.000000 0.007356 0.000000
# 4 0.000000 0.000000 0.000000 2.833421 0.000000 0.192930
# 5 0.016451 -0.000639 0.007356 0.000000 0.051952 0.000000
# 6 0.000000 0.000000 0.000000 0.192930 0.000000 0.070189
#
#
# Mechanical properties :
#
#
# Convention : Reuss Voigt Hill
#
# Bulk Modulus (GPa) = 35.65052 62.93782 49.29417
# Shear Modulus (GPa) = 1.65766 26.03011 13.84388
#
# Velocity S-wave (km/s) = 0.94046 3.72676 2.71783
# Velocity P-wave (km/s) = 4.49457 7.21802 6.01253
#
# Compressibility (1/GPa) = 0.02805009
#
# Stress axis : x y z
#
# Youngs Moduli (GPa) = 53.08132 138.04663 73.32364
#
# Poissons Ratio (x) = 0.48698 0.03666
# Poissons Ratio (y) = 0.18725 0.13256
# Poissons Ratio (z) = 0.02654 0.24956
#
# Static dielectric constant tensor:
#      x y z
#    x 3.308460 0.000000 -0.121390 
#    y 0.000000 3.323320 0.000000 
#    z -0.121390 0.000000 3.129800 
# 
# 
# High freq. dielectric constant tensor:
#      x y z
#    x 1.726360 0.000000 -0.015800 
#    y 0.000000 1.717780 0.000000 
#    z -0.015800 0.000000 1.702490 
# 
# From -- ./inp_files/58508.got.cif
#   From: 2010.06.25/outbox.cif.g09.slc.cpg/sg12_30_cif.got.tgz:58508.got - 2010.06.28 00:19:55.
