data_PCOD8082787
_publ_section_title
;
Structure prediction by ZEFSAII (Michael W. Deem and Ramdas Pophale) SiO2 
 PCOD8082787
Probable space group: C 2/M
;
_chemical_formula_sum "Si O2"
_cell_formula_units_Z 64
_cell_length_a 12.605043
_cell_length_b 23.390671
_cell_length_c 12.031260
_cell_angle_alpha 90.000000
_cell_angle_beta 70.623439
_cell_angle_gamma 90.000000
_cell_volume 3346.377054
_symmetry_space_group_name_H-M "C 2/M"
_symmetry_group_IT_number 12
_symmetry_cell_setting 'monoclinic'
loop_
_space_group_symop_operation_xyz
x,y,z
-x,y,-z
-x,-y,-z
x,-y,z
1/2+x,1/2+y,z
1/2-x,1/2+y,-z
1/2-x,1/2-y,-z
1/2+x,1/2-y,z
loop_
_atom_site_type_symbol
_atom_site_label
_atom_site_fract_x
_atom_site_fract_y
_atom_site_fract_z
Si Si1 0.535118 0.937570 0.173721
Si Si2 0.894718 0.436232 0.600888
Si Si3 0.783108 0.935500 0.043832
Si Si4 0.665310 0.393343 0.735793
Si Si5 0.336881 0.642452 0.832544
Si Si6 0.414661 0.834419 0.129679
Si Si7 0.973945 0.066438 0.635878
Si Si8 0.527836 0.710767 0.859413
O O1 0.565559 0.944301 0.289311
O O2 0.651226 0.919362 0.072166
O O3 0.437544 0.890441 0.196082
O O4 0.493344 0.000000 0.143735
O O5 0.865438 0.500000 0.562952
O O6 0.786373 0.394517 0.631438
O O7 0.000000 0.408068 0.500000
O O8 0.825861 0.930609 0.155330
O O9 0.803989 0.000000 0.998398
O O10 0.854085 0.895749 0.937088
O O11 0.577782 0.421249 0.681430
O O12 0.631147 0.329631 0.785567
O O13 0.213221 0.667365 0.864708
O O14 0.369172 0.605059 0.713115
O O15 0.419487 0.695997 0.822143
O O16 0.438407 0.775251 0.185485
O O17 0.500000 0.839828 0.000000
O O18 0.000000 0.084245 0.500000
O O19 0.940567 0.000000 0.653413
O O20 0.500000 0.705216 0.000000
#
# Coordination Sequence:
#
# PCOD8082787 Si02
#       8
#     8   8   8   8   8   8   8   8
#     4   9  19  34  53  82 119 148 179 226 289 353
#     4   9  18  33  57  87 114 149 195 238 284 340
#     4  10  18  31  55  87 116 145 181 234 291 342
#     4  10  19  36  59  83 117 151 192 247 287 332
#     4  11  22  37  57  86 116 147 194 240 280 350
#     4  11  23  37  57  84 117 155 181 233 293 353
#     4  10  22  38  57  83 117 158 197 234 284 343
#     4  10  22  38  57  82 111 150 194 236 285 343
#
# _framework density 19.125162
#
# number of rings (size 3 to 8) (size 9 to 14) (size 15 to 20)
#    0.000    2.000    2.500    2.250    0.000    6.250 
#    0.000    4.375    0.000   10.500    0.000    0.000 
#    0.000    0.000    0.000    0.000    0.000    0.000 
#
# Total GULP energy -396661.019969 kJ/mol
# GULP energy per Si atom -12395.656874 kJ/mol
# Density = 1.908163 g / cm^3
# Si number density = 19.125162 Si / 1000 Ang^3
#
#
#
# Elastic Constant Matrix: (Units=GPa)
#
#
# Indices 1 2 3 4 5 6 
#
# 1 113.0663 59.4807 31.0745 0.0000 -13.8396 0.0000
# 2 59.4807 126.5053 33.7899 0.0000 -5.6293 0.0000
# 3 31.0745 33.7899 74.8745 0.0000 -14.5651 0.0000
# 4 0.0000 0.0000 0.0000 15.2671 0.0000 6.8906
# 5 -13.8396 -5.6293 -14.5651 0.0000 30.4450 0.0000
# 6 0.0000 0.0000 0.0000 6.8906 0.0000 23.2371
#
#
#
# Elastic Compliance Matrix: (Units=1/GPa)
#
#
# Indices 1 2 3 4 5 6 
#
# 1 0.012631 -0.005192 -0.002171 0.000000 0.003743 0.000000
# 2 -0.005192 0.011125 -0.003225 0.000000 -0.001846 0.000000
# 3 -0.002171 -0.003225 0.016985 0.000000 0.006543 0.000000
# 4 0.000000 0.000000 0.000000 0.075621 0.000000 -0.022424
# 5 0.003743 -0.001846 0.006543 0.000000 0.037336 0.000000
# 6 0.000000 0.000000 0.000000 -0.022424 0.000000 0.049684
#
#
# Mechanical properties :
#
#
# Convention : Reuss Voigt Hill
#
# Bulk Modulus (GPa) = 51.11206 62.57071 56.84138
# Shear Modulus (GPa) = 21.63753 26.46324 24.05038
#
# Velocity S-wave (km/s) = 3.36722 3.72383 3.55001
# Velocity P-wave (km/s) = 6.47307 7.16077 6.82559
#
# Compressibility (1/GPa) = 0.01956486
#
# Stress axis : x y z
#
# Youngs Moduli (GPa) = 79.17252 89.88426 58.87696
#
# Poissons Ratio (x) = 0.46671 0.12780
# Poissons Ratio (y) = 0.41109 0.18987
# Poissons Ratio (z) = 0.17185 0.28987
#
# Static dielectric constant tensor:
#      x y z
#    x 3.830880 0.000000 -0.417350 
#    y 0.000000 3.705860 0.000000 
#    z -0.417350 0.000000 3.650040 
# 
# 
# High freq. dielectric constant tensor:
#      x y z
#    x 1.743520 0.000000 -0.006420 
#    y 0.000000 1.736320 0.000000 
#    z -0.006420 0.000000 1.727560 
# 
# From -- ./inp_files/135914.got.cif
#   From: 2010.06.25/outbox.cif.g09.slc.cpg/sg12_68_cif.got.tgz:135914.got - 2010.06.28 00:19:55.
