data_PCOD8082612
_publ_section_title
;
Structure prediction by ZEFSAII (Michael W. Deem and Ramdas Pophale) SiO2 
 PCOD8082612
Probable space group: C 2/M
;
_chemical_formula_sum "Si O2"
_cell_formula_units_Z 64
_cell_length_a 18.057110
_cell_length_b 20.180866
_cell_length_c 10.831816
_cell_angle_alpha 90.000000
_cell_angle_beta 117.163320
_cell_angle_gamma 90.000000
_cell_volume 3511.860141
_symmetry_space_group_name_H-M "C 2/M"
_symmetry_group_IT_number 12
_symmetry_cell_setting 'monoclinic'
loop_
_space_group_symop_operation_xyz
x,y,z
-x,y,-z
-x,-y,-z
x,-y,z
1/2+x,1/2+y,z
1/2-x,1/2+y,-z
1/2-x,1/2-y,-z
1/2+x,1/2-y,z
loop_
_atom_site_type_symbol
_atom_site_label
_atom_site_fract_x
_atom_site_fract_y
_atom_site_fract_z
Si Si1 0.470068 0.683501 0.170053
Si Si2 0.441419 0.928778 0.336976
Si Si3 0.365629 0.691461 0.860693
Si Si4 0.243522 0.426587 0.722015
Si Si5 0.517971 0.802374 0.366887
Si Si6 0.807130 0.295385 0.628096
Si Si7 0.976573 0.076234 0.619203
Si Si8 0.217151 0.074457 0.526100
O O1 0.553718 0.675245 0.156655
O O2 0.472565 0.740594 0.272781
O O3 0.463298 0.614874 0.240223
O O4 0.391838 0.700551 0.023371
O O5 0.500000 0.933932 0.500000
O O6 0.348295 0.909737 0.302972
O O7 0.476125 0.869341 0.278942
O O8 0.443529 0.000000 0.268647
O O9 0.305047 0.628992 0.817997
O O10 0.324849 0.757818 0.771333
O O11 0.272306 0.500000 0.789624
O O12 0.239226 0.426299 0.572035
O O13 0.500000 0.798747 0.500000
O O14 0.613317 0.805986 0.398545
O O15 0.750000 0.250000 0.500000
O O16 0.763826 0.365633 0.633996
O O17 0.879505 0.093223 0.564609
O O18 0.000000 0.098257 0.500000
O O19 0.995860 0.000000 0.658150
O O20 0.226104 0.000000 0.594209
#
# Coordination Sequence:
#
# PCOD8082612 Si02
#       8
#     8   8   8   8   8   8   8   8
#     4  10  20  36  52  77 108 143 183 220 264 321
#     4   9  18  31  51  78 106 133 166 217 274 322
#     4  10  21  34  53  78 109 141 181 225 268 315
#     4  10  18  32  53  79 108 135 173 222 270 323
#     4  10  20  33  55  78 107 139 174 215 274 323
#     4  11  20  33  54  80 106 140 177 229 271 315
#     4  10  20  35  55  78 108 143 178 218 269 330
#     4  10  18  31  53  80 105 136 180 224 268 318
#
# _framework density 18.223960999999999
#
# number of rings (size 3 to 8) (size 9 to 14) (size 15 to 20)
#    0.000    2.000    2.500    2.625    0.000    2.000 
#    0.000    1.875    0.000    0.750    0.000    3.500 
#    0.000    0.000    0.000    0.000    0.000    0.000 
#
# Total GULP energy -396496.192074 kJ/mol
# GULP energy per Si atom -12390.506002 kJ/mol
# Density = 1.818248 g / cm^3
# Si number density = 18.223961 Si / 1000 Ang^3
#
#
#
# Elastic Constant Matrix: (Units=GPa)
#
#
# Indices 1 2 3 4 5 6 
#
# 1 69.0624 52.1950 30.5237 0.0000 9.1009 0.0000
# 2 52.1950 143.9917 66.6613 0.0000 9.5047 0.0000
# 3 30.5237 66.6613 101.2397 0.0000 6.0059 0.0000
# 4 0.0000 0.0000 0.0000 18.5875 0.0000 4.5844
# 5 9.1009 9.5047 6.0059 0.0000 21.0044 0.0000
# 6 0.0000 0.0000 0.0000 4.5844 0.0000 34.4717
#
#
#
# Elastic Compliance Matrix: (Units=1/GPa)
#
#
# Indices 1 2 3 4 5 6 
#
# 1 0.020801 -0.006357 -0.001751 0.000000 -0.005635 0.000000
# 2 -0.006357 0.012084 -0.005981 0.000000 -0.001004 0.000000
# 3 -0.001751 -0.005981 0.014382 0.000000 -0.000647 0.000000
# 4 0.000000 0.000000 0.000000 0.055624 0.000000 -0.007397
# 5 -0.005635 -0.001004 -0.000647 0.000000 0.050690 0.000000
# 6 0.000000 0.000000 0.000000 -0.007397 0.000000 0.029993
#
#
# Mechanical properties :
#
#
# Convention : Reuss Voigt Hill
#
# Bulk Modulus (GPa) = 52.38678 68.11708 60.25193
# Shear Modulus (GPa) = 22.92365 25.80697 24.36531
#
# Velocity S-wave (km/s) = 3.55052 3.76719 3.66046
# Velocity P-wave (km/s) = 6.75402 7.50874 7.14136
#
# Compressibility (1/GPa) = 0.01908878
#
# Stress axis : x y z
#
# Youngs Moduli (GPa) = 48.07481 82.75207 69.53205
#
# Poissons Ratio (x) = 0.52609 0.12176
# Poissons Ratio (y) = 0.30563 0.41584
# Poissons Ratio (z) = 0.08419 0.49491
#
# Static dielectric constant tensor:
#      x y z
#    x 3.337710 0.000000 0.081760 
#    y 0.000000 4.072450 0.000000 
#    z 0.081760 0.000000 3.039760 
# 
# 
# High freq. dielectric constant tensor:
#      x y z
#    x 1.704190 0.000000 0.015350 
#    y 0.000000 1.730600 0.000000 
#    z 0.015350 0.000000 1.662260 
# 
# From -- ./inp_files/159266.got.cif
#   From: 2010.06.25/outbox.cif.g09.slc.cpg/sg12_80_cif.got.tgz:159266.got - 2010.06.28 00:19:55.
