data_PCOD8082882
_publ_section_title
;
Structure prediction by ZEFSAII (Michael W. Deem and Ramdas Pophale) SiO2 
 PCOD8082882
Probable space group: C 2/M
;
_chemical_formula_sum "Si O2"
_cell_formula_units_Z 64
_cell_length_a 28.479545
_cell_length_b 9.218610
_cell_length_c 21.303883
_cell_angle_alpha 90.000000
_cell_angle_beta 46.418017
_cell_angle_gamma 90.000000
_cell_volume 4051.621924
_symmetry_space_group_name_H-M "C 2/M"
_symmetry_group_IT_number 12
_symmetry_cell_setting 'monoclinic'
loop_
_space_group_symop_operation_xyz
x,y,z
-x,y,-z
-x,-y,-z
x,-y,z
1/2+x,1/2+y,z
1/2-x,1/2+y,-z
1/2-x,1/2-y,-z
1/2+x,1/2-y,z
loop_
_atom_site_type_symbol
_atom_site_label
_atom_site_fract_x
_atom_site_fract_y
_atom_site_fract_z
Si Si1 0.188035 0.668944 0.336546
Si Si2 0.654941 0.167264 0.599308
Si Si3 0.390064 0.831640 0.810025
Si Si4 0.769853 0.331107 0.839954
Si Si5 0.938764 0.830276 0.512867
Si Si6 0.744650 0.668822 0.599606
Si Si7 0.700372 0.169673 0.000755
Si Si8 0.529238 0.171239 0.644379
O O1 0.168538 0.500000 0.361447
O O2 0.227129 0.697970 0.236663
O O3 0.123156 0.763151 0.395286
O O4 0.235330 0.718332 0.349114
O O5 0.678350 0.253135 0.639442
O O6 0.696849 0.214524 0.500155
O O7 0.580221 0.203064 0.653181
O O8 0.665485 0.000000 0.604673
O O9 0.335538 0.770359 0.812500
O O10 0.370082 0.805842 0.901655
O O11 0.460334 0.763163 0.730891
O O12 0.396754 0.000000 0.789503
O O13 0.760276 0.500000 0.864674
O O14 0.707780 0.243274 0.925269
O O15 0.948578 0.753566 0.437739
O O16 0.000000 0.799066 0.500000
O O17 0.927459 0.000000 0.512293
O O18 0.730376 0.500000 0.610418
O O19 0.716816 0.000000 0.981168
O O20 0.750000 0.250000 0.000000
O O21 0.527815 0.000000 0.630569
#
# Coordination Sequence:
#
# PCOD8082882 Si02
#       8
#     8   8   8   8   8   8   8   8
#     4  10  19  33  50  67  87 120 162 191 217 269
#     4   9  17  29  46  67  87 112 148 189 232 270
#     4   8  15  27  45  67  88 115 149 185 219 258
#     4   9  17  29  46  68  91 117 151 187 226 264
#     4  11  23  33  41  62  96 126 152 184 225 266
#     4   9  17  30  46  66  88 113 148 189 231 269
#     4   9  16  28  45  66  91 118 150 185 226 266
#     4  10  18  32  50  66  86 118 160 191 217 265
#
# _framework density 15.796143000000001
#
# number of rings (size 3 to 8) (size 9 to 14) (size 15 to 20)
#    0.000    2.625    1.250    2.250    0.000    3.500 
#    0.000    4.375    0.000    0.000    0.000    0.875 
#    0.000    7.000    0.000    0.000    0.000    0.000 
#
# Total GULP energy -396654.797679 kJ/mol
# GULP energy per Si atom -12395.462427 kJ/mol
# Density = 1.576019 g / cm^3
# Si number density = 15.796143 Si / 1000 Ang^3
#
#
#
# Elastic Constant Matrix: (Units=GPa)
#
#
# Indices 1 2 3 4 5 6 
#
# 1 82.7323 30.3878 30.0789 0.0004 16.1315 0.0013
# 2 30.3878 52.9539 29.2039 0.0109 8.7567 -0.0070
# 3 30.0789 29.2039 74.1131 0.0005 16.5267 0.0006
# 4 0.0004 0.0109 0.0005 23.1412 -0.0015 2.2078
# 5 16.1315 8.7567 16.5267 -0.0015 15.5724 -0.0003
# 6 0.0013 -0.0070 0.0006 2.2078 -0.0003 23.1917
#
#
#
# Elastic Compliance Matrix: (Units=1/GPa)
#
#
# Indices 1 2 3 4 5 6 
#
# 1 0.017791 -0.007267 -0.001518 0.000003 -0.012732 -0.000004
# 2 -0.007267 0.027345 -0.007959 -0.000013 0.000598 0.000010
# 3 -0.001518 -0.007959 0.020825 0.000003 -0.016053 -0.000003
# 4 0.000003 -0.000013 0.000003 0.043609 0.000006 -0.004151
# 5 -0.012732 0.000598 -0.016053 0.000006 0.094106 0.000002
# 6 -0.000004 0.000010 -0.000003 -0.004151 0.000002 0.043514
#
#
# Mechanical properties :
#
#
# Convention : Reuss Voigt Hill
#
# Bulk Modulus (GPa) = 30.79467 43.23784 37.01626
# Shear Modulus (GPa) = 17.15255 20.38964 18.77109
#
# Velocity S-wave (km/s) = 3.29883 3.59667 3.45096
# Velocity P-wave (km/s) = 5.83499 6.68430 6.27403
#
# Compressibility (1/GPa) = 0.03247315
#
# Stress axis : x y z
#
# Youngs Moduli (GPa) = 56.20922 36.56969 48.01933
#
# Poissons Ratio (x) = 0.26574 0.07288
# Poissons Ratio (y) = 0.40846 0.38220
# Poissons Ratio (z) = 0.08531 0.29107
#
# Static dielectric constant tensor:
#      x y z
#    x 3.002370 -0.000010 -0.000430 
#    y -0.000010 2.999820 0.000010 
#    z -0.000430 0.000010 3.257370 
# 
# 
# High freq. dielectric constant tensor:
#      x y z
#    x 1.585880 0.000000 0.005360 
#    y 0.000000 1.599250 0.000000 
#    z 0.005360 0.000000 1.596730 
# 
# From -- ./inp_files/326902.got.cif
#   From: 2010.06.25/outbox.cif.g09.slc.cpg/sg12_164_cif.got.tgz:326902.got - 2010.06.28 00:19:55.
