data_PCOD8082277
_publ_section_title
;
Structure prediction by ZEFSAII (Michael W. Deem and Ramdas Pophale) SiO2 
 PCOD8082277
Probable space group: C 2/M
;
_chemical_formula_sum "Si O2"
_cell_formula_units_Z 48
_cell_length_a 19.413341
_cell_length_b 8.909544
_cell_length_c 16.558390
_cell_angle_alpha 90.000000
_cell_angle_beta 110.795152
_cell_angle_gamma 90.000000
_cell_volume 2677.432045
_symmetry_space_group_name_H-M "C 2/M"
_symmetry_group_IT_number 12
_symmetry_cell_setting 'monoclinic'
loop_
_space_group_symop_operation_xyz
x,y,z
-x,y,-z
-x,-y,-z
x,-y,z
1/2+x,1/2+y,z
1/2-x,1/2+y,-z
1/2-x,1/2-y,-z
1/2+x,1/2-y,z
loop_
_atom_site_type_symbol
_atom_site_label
_atom_site_fract_x
_atom_site_fract_y
_atom_site_fract_z
Si Si1 0.918236 0.823821 0.970245
Si Si2 0.330653 0.177227 0.257318
Si Si3 0.046917 0.323608 0.271216
Si Si4 0.403807 0.323931 0.143529
Si Si5 0.666243 0.677466 0.220904
Si Si6 0.974552 0.675996 0.404871
O O1 0.867056 0.759853 0.877319
O O2 0.925471 0.000000 0.959775
O O3 0.881603 0.788089 0.041717
O O4 0.000000 0.751659 0.000000
O O5 0.341589 0.252057 0.174323
O O6 0.251921 0.223159 0.260549
O O7 0.394246 0.237404 0.344309
O O8 0.337338 0.000000 0.246586
O O9 0.043259 0.500000 0.253554
O O10 0.126078 0.258351 0.278854
O O11 0.984173 0.245186 0.192157
O O12 0.034490 0.287086 0.360739
O O13 0.409011 0.500000 0.162150
O O14 0.656089 0.500000 0.225460
O O15 0.966727 0.500000 0.414852
O O16 0.000000 0.751992 0.500000
#
# Coordination Sequence:
#
# PCOD8082277 Si02
#       6
#     8   8   8   8   8   8
#     4   9  16  28  47  69  93 128 170 197 228 283
#     4   9  19  33  50  73  99 126 160 201 242 283
#     4  10  19  31  50  75  98 123 162 203 239 281
#     4  10  18  31  51  70  94 132 169 198 236 283
#     4  10  19  33  50  69  99 134 162 195 240 286
#     4   8  15  31  53  72  92 123 159 193 237 294
#
# _framework density 17.927624999999999
#
# number of rings (size 3 to 8) (size 9 to 14) (size 15 to 20)
#    0.000    2.667    1.667    2.000    0.000    1.333 
#    0.000    3.333    0.000   12.500    0.000    0.000 
#    0.000    0.000    0.000    0.000    0.000    0.000 
#
# Total GULP energy -297521.646430 kJ/mol
# GULP energy per Si atom -12396.735268 kJ/mol
# Density = 1.788682 g / cm^3
# Si number density = 17.927625 Si / 1000 Ang^3
#
#
#
# Elastic Constant Matrix: (Units=GPa)
#
#
# Indices 1 2 3 4 5 6 
#
# 1 138.4467 37.5758 65.8956 0.0000 -14.0595 0.0000
# 2 37.5758 43.1682 26.6337 0.0000 -7.4426 0.0000
# 3 65.8956 26.6337 125.7143 0.0000 -4.5103 0.0000
# 4 0.0000 0.0000 0.0000 17.9768 0.0000 -7.6732
# 5 -14.0595 -7.4426 -4.5103 0.0000 21.4089 0.0000
# 6 0.0000 0.0000 0.0000 -7.6732 0.0000 25.7190
#
#
#
# Elastic Compliance Matrix: (Units=1/GPa)
#
#
# Indices 1 2 3 4 5 6 
#
# 1 0.011606 -0.006545 -0.004539 0.000000 0.004390 0.000000
# 2 -0.006545 0.031824 -0.003092 0.000000 0.006114 0.000000
# 3 -0.004539 -0.003092 0.010926 0.000000 -0.001754 0.000000
# 4 0.000000 0.000000 0.000000 0.063745 0.000000 0.019018
# 5 0.004390 0.006114 -0.001754 0.000000 0.051349 0.000000
# 6 0.000000 0.000000 0.000000 0.019018 0.000000 0.044556
#
#
# Mechanical properties :
#
#
# Convention : Reuss Voigt Hill
#
# Bulk Modulus (GPa) = 38.45679 63.05992 50.75836
# Shear Modulus (GPa) = 19.91832 24.83587 22.37710
#
# Velocity S-wave (km/s) = 3.33684 3.72605 3.53681
# Velocity P-wave (km/s) = 6.02858 7.33228 6.71216
#
# Compressibility (1/GPa) = 0.02600321
#
# Stress axis : x y z
#
# Youngs Moduli (GPa) = 86.16509 31.42283 91.52403
#
# Poissons Ratio (x) = 0.20565 0.41545
# Poissons Ratio (y) = 0.56392 0.28302
# Poissons Ratio (z) = 0.39113 0.09717
#
# Static dielectric constant tensor:
#      x y z
#    x 3.362840 0.000000 -0.000640 
#    y 0.000000 3.042310 0.000000 
#    z -0.000640 0.000000 3.507820 
# 
# 
# High freq. dielectric constant tensor:
#      x y z
#    x 1.689510 0.000000 -0.011640 
#    y 0.000000 1.664500 0.000000 
#    z -0.011640 0.000000 1.688320 
# 
# From -- ./inp_files/221528.got.cif
#   From: 2010.06.25/outbox.cif.g09.slc.cpg/sg12_111_cif.got.tgz:221528.got - 2010.06.28 00:19:55.
