data_PCOD8082852
_publ_section_title
;
Structure prediction by ZEFSAII (Michael W. Deem and Ramdas Pophale) SiO2 
 PCOD8082852
Probable space group: C 2/M
;
_chemical_formula_sum "Si O2"
_cell_formula_units_Z 64
_cell_length_a 12.255902
_cell_length_b 22.996435
_cell_length_c 14.824599
_cell_angle_alpha 90.000000
_cell_angle_beta 75.702851
_cell_angle_gamma 90.000000
_cell_volume 4048.788445
_symmetry_space_group_name_H-M "C 2/M"
_symmetry_group_IT_number 12
_symmetry_cell_setting 'monoclinic'
loop_
_space_group_symop_operation_xyz
x,y,z
-x,y,-z
-x,-y,-z
x,-y,z
1/2+x,1/2+y,z
1/2-x,1/2+y,-z
1/2-x,1/2-y,-z
1/2+x,1/2-y,z
loop_
_atom_site_type_symbol
_atom_site_label
_atom_site_fract_x
_atom_site_fract_y
_atom_site_fract_z
Si Si1 0.341279 0.068700 0.588008
Si Si2 0.493623 0.354299 0.105720
Si Si3 0.422816 0.068717 0.384169
Si Si4 0.314264 0.433395 0.228278
Si Si5 0.080146 0.384912 0.807614
Si Si6 0.344795 0.933960 0.905810
Si Si7 0.748903 0.858751 0.914641
Si Si8 0.579773 0.227103 0.900356
O O1 0.335777 0.085377 0.483000
O O2 0.455134 0.092403 0.610911
O O3 0.232301 0.090990 0.665871
O O4 0.348994 0.000000 0.595809
O O5 0.426261 0.400419 0.177510
O O6 0.617695 0.353524 0.122296
O O7 0.427866 0.293293 0.130352
O O8 0.500000 0.373016 0.000000
O O9 0.385664 0.101866 0.301715
O O10 0.422649 0.000000 0.365257
O O11 0.350838 0.500000 0.229142
O O12 0.213691 0.424976 0.178317
O O13 0.190787 0.397424 0.847075
O O14 0.045949 0.316527 0.825338
O O15 0.977658 0.423974 0.865180
O O16 0.326764 0.000000 0.944599
O O17 0.286712 0.888072 0.984149
O O18 0.703045 0.792089 0.913505
O O19 0.500000 0.215312 0.000000
#
# Coordination Sequence:
#
# PCOD8082852 Si02
#       8
#     8   8   8   8   8   8   8   8
#     4   8  15  28  47  75 103 127 162 211 249 297
#     4  11  22  35  55  70  95 143 170 207 250 283
#     4   9  15  26  49  76 102 130 163 205 260 294
#     4  10  20  33  50  74 102 133 170 206 246 299
#     4  10  18  32  47  74 104 130 161 209 247 295
#     4  11  19  30  49  73 105 139 166 200 253 296
#     4  10  21  36  45  74 103 132 171 205 243 297
#     4   9  20  35  48  72  98 130 171 213 240 291
#
# _framework density 15.807198
#
# number of rings (size 3 to 8) (size 9 to 14) (size 15 to 20)
#    0.750    1.500    3.750    1.500    0.000    5.250 
#    0.000    0.000    0.000    1.500    0.000    2.625 
#    0.000    0.000    0.000    0.000    0.000    0.000 
#
# Total GULP energy -396464.970297 kJ/mol
# GULP energy per Si atom -12389.530322 kJ/mol
# Density = 1.577122 g / cm^3
# Si number density = 15.807198 Si / 1000 Ang^3
#
#
#
# Elastic Constant Matrix: (Units=GPa)
#
#
# Indices 1 2 3 4 5 6 
#
# 1 92.2122 34.0712 32.5599 0.0000 -13.7097 0.0000
# 2 34.0712 67.6401 50.0135 0.0000 -9.7355 0.0000
# 3 32.5599 50.0135 116.0422 0.0000 -6.9929 0.0000
# 4 0.0000 0.0000 0.0000 11.7609 0.0000 -5.5357
# 5 -13.7097 -9.7355 -6.9929 0.0000 19.5413 0.0000
# 6 0.0000 0.0000 0.0000 -5.5357 0.0000 16.3069
#
#
#
# Elastic Compliance Matrix: (Units=1/GPa)
#
#
# Indices 1 2 3 4 5 6 
#
# 1 0.014271 -0.005193 -0.001348 0.000000 0.006943 0.000000
# 2 -0.005193 0.024761 -0.008883 0.000000 0.005514 0.000000
# 3 -0.001348 -0.008883 0.012776 0.000000 -0.000799 0.000000
# 4 0.000000 0.000000 0.000000 0.101197 0.000000 0.034353
# 5 0.006943 0.005514 -0.000799 0.000000 0.058506 0.000000
# 6 0.000000 0.000000 0.000000 0.034353 0.000000 0.072985
#
#
# Mechanical properties :
#
#
# Convention : Reuss Voigt Hill
#
# Bulk Modulus (GPa) = 47.70511 56.57597 52.14054
# Shear Modulus (GPa) = 15.51201 20.13849 17.82525
#
# Velocity S-wave (km/s) = 3.13601 3.57320 3.36172
# Velocity P-wave (km/s) = 6.58465 7.27273 6.93723
#
# Compressibility (1/GPa) = 0.02096211
#
# Stress axis : x y z
#
# Youngs Moduli (GPa) = 70.07017 40.38554 78.27173
#
# Poissons Ratio (x) = 0.20971 0.10551
# Poissons Ratio (y) = 0.36385 0.69526
# Poissons Ratio (z) = 0.09445 0.35873
#
# Static dielectric constant tensor:
#      x y z
#    x 2.850280 0.000000 -0.027720 
#    y 0.000000 2.921190 0.000000 
#    z -0.027720 0.000000 3.114990 
# 
# 
# High freq. dielectric constant tensor:
#      x y z
#    x 1.590820 0.000000 -0.002550 
#    y 0.000000 1.585080 0.000000 
#    z -0.002550 0.000000 1.600030 
# 
# From -- ./inp_files/208844.got.cif
#   From: 2010.06.25/outbox.cif.g09.slc.cpg/sg12_105_cif.got.tgz:208844.got - 2010.06.28 00:19:55.
