data_PCOD8082528
_publ_section_title
;
Structure prediction by ZEFSAII (Michael W. Deem and Ramdas Pophale) SiO2 
 PCOD8082528
Probable space group: C 2/M
;
_chemical_formula_sum "Si O2"
_cell_formula_units_Z 56
_cell_length_a 30.286599
_cell_length_b 9.084165
_cell_length_c 11.807631
_cell_angle_alpha 90.000000
_cell_angle_beta 118.535150
_cell_angle_gamma 90.000000
_cell_volume 2853.987274
_symmetry_space_group_name_H-M "C 2/M"
_symmetry_group_IT_number 12
_symmetry_cell_setting 'monoclinic'
loop_
_space_group_symop_operation_xyz
x,y,z
-x,y,-z
-x,-y,-z
x,-y,z
1/2+x,1/2+y,z
1/2-x,1/2+y,-z
1/2-x,1/2-y,-z
1/2+x,1/2-y,z
loop_
_atom_site_type_symbol
_atom_site_label
_atom_site_fract_x
_atom_site_fract_y
_atom_site_fract_z
Si Si1 0.907628 0.324739 0.132818
Si Si2 0.695137 0.324184 0.415281
Si Si3 0.341470 0.162594 0.252648
Si Si4 0.655172 0.833838 0.149054
Si Si5 0.113719 0.335440 0.459583
Si Si6 0.494553 0.175430 0.622257
Si Si7 0.252360 0.662941 0.117703
O O1 0.907512 0.500000 0.141043
O O2 0.865912 0.265373 0.170299
O O3 0.961550 0.263653 0.240561
O O4 0.893010 0.278811 0.985222
O O5 0.702326 0.500000 0.427871
O O6 0.750000 0.250000 0.500000
O O7 0.668318 0.277439 0.265456
O O8 0.655895 0.273761 0.462884
O O9 0.382675 0.153492 0.400584
O O10 0.295615 0.259704 0.244987
O O11 0.320638 0.000000 0.197515
O O12 0.700655 0.835616 0.118634
O O13 0.646104 0.000000 0.185360
O O14 0.120740 0.500000 0.415243
O O15 0.056856 0.274825 0.376199
O O16 0.500000 0.238615 0.500000
O O17 0.495832 0.000000 0.617143
O O18 0.270307 0.500000 0.112663
O O19 0.250000 0.750000 0.000000
#
# Coordination Sequence:
#
# PCOD8082528 Si02
#       7
#     8   8   8   8   8   8   8
#     4   9  16  30  53  85 121 152 185 233 287 335
#     4  12  26  44  64  84 113 153 200 249 296 351
#     4  10  18  31  52  82 117 150 186 232 286 341
#     4  10  21  38  58  81 116 157 197 243 290 343
#     4  10  20  35  61  92 120 152 195 242 292 348
#     4   9  15  28  56  93 126 154 190 239 289 340
#     4  11  21  32  50  78 112 147 184 231 287 350
#
# _framework density 19.621672
#
# number of rings (size 3 to 8) (size 9 to 14) (size 15 to 20)
#    0.000    1.857    2.857    2.571    0.000    4.000 
#    0.000    0.714    0.000    6.429    0.000    0.000 
#    0.000    0.000    0.000    0.000    0.000    0.000 
#
# Total GULP energy -346921.231949 kJ/mol
# GULP energy per Si atom -12390.043998 kJ/mol
# Density = 1.957701 g / cm^3
# Si number density = 19.621672 Si / 1000 Ang^3
#
#
#
# Elastic Constant Matrix: (Units=GPa)
#
#
# Indices 1 2 3 4 5 6 
#
# 1 94.1122 36.9899 46.6714 0.0000 16.8548 0.0000
# 2 36.9899 85.6546 31.8140 0.0000 4.5854 0.0000
# 3 46.6714 31.8140 127.6451 0.0000 16.3301 0.0000
# 4 0.0000 0.0000 0.0000 21.4580 0.0000 -3.4137
# 5 16.8548 4.5854 16.3301 0.0000 35.9554 0.0000
# 6 0.0000 0.0000 0.0000 -3.4137 0.0000 22.7612
#
#
#
# Elastic Compliance Matrix: (Units=1/GPa)
#
#
# Indices 1 2 3 4 5 6 
#
# 1 0.015294 -0.004958 -0.003737 0.000000 -0.004840 0.000000
# 2 -0.004958 0.014474 -0.001970 0.000000 0.001373 0.000000
# 3 -0.003737 -0.001970 0.010018 0.000000 -0.002547 0.000000
# 4 0.000000 0.000000 0.000000 0.047742 0.000000 0.007160
# 5 -0.004840 0.001373 -0.002547 0.000000 0.031062 0.000000
# 6 0.000000 0.000000 0.000000 0.007160 0.000000 0.045008
#
#
# Mechanical properties :
#
#
# Convention : Reuss Voigt Hill
#
# Bulk Modulus (GPa) = 54.18525 59.81806 57.00166
# Shear Modulus (GPa) = 26.16688 28.83069 27.49878
#
# Velocity S-wave (km/s) = 3.65577 3.83734 3.74766
# Velocity P-wave (km/s) = 6.74496 7.08417 6.91665
#
# Compressibility (1/GPa) = 0.01845521
#
# Stress axis : x y z
#
# Youngs Moduli (GPa) = 65.38372 69.08882 99.82415
#
# Poissons Ratio (x) = 0.34252 0.37307
# Poissons Ratio (y) = 0.32415 0.19670
# Poissons Ratio (z) = 0.24436 0.13614
#
# Static dielectric constant tensor:
#      x y z
#    x 3.778050 0.000000 0.509470 
#    y 0.000000 3.965510 0.000000 
#    z 0.509470 0.000000 3.797610 
# 
# 
# High freq. dielectric constant tensor:
#      x y z
#    x 1.755150 0.000000 0.014240 
#    y 0.000000 1.720920 0.000000 
#    z 0.014240 0.000000 1.777780 
# 
# From -- ./inp_files/187686.got.cif
#   From: 2010.06.25/outbox.cif.g09.slc.cpg/sg12_94_cif.got.tgz:187686.got - 2010.06.28 00:19:55.
