data_PCOD8082663
_publ_section_title
;
Structure prediction by ZEFSAII (Michael W. Deem and Ramdas Pophale) SiO2 
 PCOD8082663
Probable space group: C 2/M
;
_chemical_formula_sum "Si O2"
_cell_formula_units_Z 56
_cell_length_a 13.973963
_cell_length_b 13.919513
_cell_length_c 14.867731
_cell_angle_alpha 90.000000
_cell_angle_beta 103.642494
_cell_angle_gamma 90.000000
_cell_volume 2810.341612
_symmetry_space_group_name_H-M "C 2/M"
_symmetry_group_IT_number 12
_symmetry_cell_setting 'monoclinic'
loop_
_space_group_symop_operation_xyz
x,y,z
-x,y,-z
-x,-y,-z
x,-y,z
1/2+x,1/2+y,z
1/2-x,1/2+y,-z
1/2-x,1/2-y,-z
1/2+x,1/2-y,z
loop_
_atom_site_type_symbol
_atom_site_label
_atom_site_fract_x
_atom_site_fract_y
_atom_site_fract_z
Si Si1 0.968825 0.803046 0.597349
Si Si2 0.342173 0.611542 0.300298
Si Si3 0.985697 0.394038 0.891363
Si Si4 0.066799 0.601890 0.429610
Si Si5 0.705479 0.112887 0.933023
Si Si6 0.787916 0.890934 0.485449
Si Si7 0.792536 0.704464 0.873625
O O1 0.971151 0.692952 0.636190
O O2 0.855808 0.838127 0.574390
O O3 0.000000 0.806257 0.500000
O O4 0.040063 0.867847 0.673848
O O5 0.322489 0.500000 0.277221
O O6 0.298619 0.647425 0.385772
O O7 0.293092 0.674304 0.212587
O O8 0.953824 0.500000 0.848048
O O9 0.899763 0.315940 0.851199
O O10 0.092979 0.365444 0.875180
O O11 0.000000 0.400934 0.000000
O O12 0.066568 0.500000 0.373903
O O13 0.176062 0.623337 0.491587
O O14 0.000000 0.587184 0.500000
O O15 0.779121 0.181845 0.892469
O O16 0.732108 0.000000 0.924447
O O17 0.718427 0.138831 0.040502
O O18 0.824005 0.000000 0.493347
#
# Coordination Sequence:
#
# PCOD8082663 Si02
#       7
#     8   8   8   8   8   8   8
#     4   9  17  30  48  69  98 131 163 202 252 302
#     4  10  19  31  48  74 101 126 164 214 262 304
#     4   8  14  28  51  76  99 127 167 211 254 307
#     4   9  17  30  49  71  95 127 173 212 244 297
#     4   9  18  33  55  80 105 136 176 217 262 318
#     4   9  17  30  49  73  97 128 167 210 254 298
#     4  10  18  31  54  79 105 136 173 216 265 309
#
# _framework density 19.926404000000002
#
# number of rings (size 3 to 8) (size 9 to 14) (size 15 to 20)
#    0.000    2.857    0.000    3.000    0.000    1.714 
#    2.571    0.714    0.000   13.286    0.000    0.000 
#    0.000    0.000    0.000    0.000    0.000    0.000 
#
# Total GULP energy -346887.310551 kJ/mol
# GULP energy per Si atom -12388.832520 kJ/mol
# Density = 1.988105 g / cm^3
# Si number density = 19.926404 Si / 1000 Ang^3
#
#
#
# Elastic Constant Matrix: (Units=GPa)
#
#
# Indices 1 2 3 4 5 6 
#
# 1 110.0395 44.5886 27.4936 0.0000 18.0811 0.0000
# 2 44.5886 122.5001 32.0688 0.0000 9.4502 0.0000
# 3 27.4936 32.0688 63.0620 0.0000 22.7423 0.0000
# 4 0.0000 0.0000 0.0000 15.5711 0.0000 6.5867
# 5 18.0811 9.4502 22.7423 0.0000 16.7666 0.0000
# 6 0.0000 0.0000 0.0000 6.5867 0.0000 38.1274
#
#
#
# Elastic Compliance Matrix: (Units=1/GPa)
#
#
# Indices 1 2 3 4 5 6 
#
# 1 0.012470 -0.003850 0.001152 0.000000 -0.012839 0.000000
# 2 -0.003850 0.010652 -0.006011 0.000000 0.006301 0.000000
# 3 0.001152 -0.006011 0.034528 0.000000 -0.044688 0.000000
# 4 0.000000 0.000000 0.000000 0.069285 0.000000 -0.011969
# 5 -0.012839 0.006301 -0.044688 0.000000 0.130552 0.000000
# 6 0.000000 0.000000 0.000000 -0.011969 0.000000 0.028296
#
#
# Mechanical properties :
#
#
# Convention : Reuss Voigt Hill
#
# Bulk Modulus (GPa) = 24.85603 55.98932 40.42267
# Shear Modulus (GPa) = 15.79230 26.85638 21.32434
#
# Velocity S-wave (km/s) = 2.81825 3.67519 3.27487
# Velocity P-wave (km/s) = 4.80531 6.79474 5.88470
#
# Compressibility (1/GPa) = 0.04023169
#
# Stress axis : x y z
#
# Youngs Moduli (GPa) = 80.19536 93.87931 28.96207
#
# Poissons Ratio (x) = 0.36141 -0.03335
# Poissons Ratio (y) = 0.30873 0.17408
# Poissons Ratio (z) = -0.09235 0.56428
#
# Static dielectric constant tensor:
#      x y z
#    x 3.846430 0.000000 0.269700 
#    y 0.000000 3.978000 0.000000 
#    z 0.269700 0.000000 3.154450 
# 
# 
# High freq. dielectric constant tensor:
#      x y z
#    x 1.773360 0.000000 0.024630 
#    y 0.000000 1.785240 0.000000 
#    z 0.024630 0.000000 1.731640 
# 
# From -- ./inp_files/269603.got.cif
#   From: 2010.06.25/outbox.cif.g09.slc.cpg/sg12_135_cif.got.tgz:269603.got - 2010.06.28 00:19:55.
