data_PCOD8082486
_publ_section_title
;
Structure prediction by ZEFSAII (Michael W. Deem and Ramdas Pophale) SiO2 
 PCOD8082486
Probable space group: C 2/M
;
_chemical_formula_sum "Si O2"
_cell_formula_units_Z 56
_cell_length_a 31.362669
_cell_length_b 9.192559
_cell_length_c 18.876576
_cell_angle_alpha 90.000000
_cell_angle_beta 145.970575
_cell_angle_gamma 90.000000
_cell_volume 3045.543427
_symmetry_space_group_name_H-M "C 2/M"
_symmetry_group_IT_number 12
_symmetry_cell_setting 'monoclinic'
loop_
_space_group_symop_operation_xyz
x,y,z
-x,y,-z
-x,-y,-z
x,-y,z
1/2+x,1/2+y,z
1/2-x,1/2+y,-z
1/2-x,1/2-y,-z
1/2+x,1/2-y,z
loop_
_atom_site_type_symbol
_atom_site_label
_atom_site_fract_x
_atom_site_fract_y
_atom_site_fract_z
Si Si1 0.950094 0.340101 0.538406
Si Si2 0.683177 0.665366 0.591846
Si Si3 0.179049 0.665645 0.117153
Si Si4 0.746414 0.669655 0.920962
Si Si5 0.274896 0.328835 0.605444
Si Si6 0.413304 0.671566 0.893820
Si Si7 0.894599 0.659836 0.303920
O O1 0.933858 0.500000 0.550262
O O2 0.903288 0.212833 0.512088
O O3 0.929457 0.347509 0.428619
O O4 0.040296 0.304632 0.665338
O O5 0.683058 0.500000 0.562468
O O6 0.736306 0.679298 0.733792
O O7 0.712586 0.779762 0.575546
O O8 0.150257 0.500000 0.082391
O O9 0.188276 0.714505 0.047185
O O10 0.117744 0.761173 0.075424
O O11 0.751014 0.500000 0.941006
O O12 0.665228 0.710718 0.777366
O O13 0.750000 0.750000 0.000000
O O14 0.270874 0.500000 0.587230
O O15 0.250000 0.250000 0.500000
O O16 0.359001 0.284239 0.752169
O O17 0.411466 0.500000 0.902248
O O18 0.500000 0.726249 0.000000
O O19 0.858789 0.500000 0.236324
#
# Coordination Sequence:
#
# PCOD8082486 Si02
#       7
#     8   8   8   8   8   8   8
#     4   9  17  30  50  76 103 131 167 210 258 309
#     4  10  18  31  52  78 106 136 174 220 262 313
#     4   9  19  34  52  77 106 136 177 222 265 317
#     4  11  22  36  52  74 104 142 185 227 269 317
#     4  10  20  35  55  80 110 143 176 218 273 330
#     4   9  19  36  59  85 109 137 178 225 272 326
#     4   9  18  32  50  73 102 134 168 211 260 309
#
# _framework density 18.387523000000002
#
# number of rings (size 3 to 8) (size 9 to 14) (size 15 to 20)
#    0.000    2.429    1.429    2.143    0.000    3.143 
#    0.000    2.857    0.000    3.429    0.000    0.000 
#    0.000    0.000    0.000    0.000    0.000    0.000 
#
# Total GULP energy -346906.391322 kJ/mol
# GULP energy per Si atom -12389.513976 kJ/mol
# Density = 1.834567 g / cm^3
# Si number density = 18.387523 Si / 1000 Ang^3
#
#
#
# Elastic Constant Matrix: (Units=GPa)
#
#
# Indices 1 2 3 4 5 6 
#
# 1 125.8713 57.7743 56.9767 0.0000 6.2580 0.0000
# 2 57.7743 74.7166 36.8395 0.0000 0.8421 0.0000
# 3 56.9767 36.8395 58.5839 0.0000 0.4709 0.0000
# 4 0.0000 0.0000 0.0000 24.5310 0.0000 -1.0111
# 5 6.2580 0.8421 0.4709 0.0000 30.3146 0.0000
# 6 0.0000 0.0000 0.0000 -1.0111 0.0000 35.9002
#
#
#
# Elastic Compliance Matrix: (Units=1/GPa)
#
#
# Indices 1 2 3 4 5 6 
#
# 1 0.016641 -0.007052 -0.011725 0.000000 -0.003057 0.000000
# 2 -0.007052 0.022390 -0.007229 0.000000 0.000946 0.000000
# 3 -0.011725 -0.007229 0.033002 0.000000 0.002109 0.000000
# 4 0.000000 0.000000 0.000000 0.040812 0.000000 0.001149
# 5 -0.003057 0.000946 0.002109 0.000000 0.033560 0.000000
# 6 0.000000 0.000000 0.000000 0.001149 0.000000 0.027887
#
#
# Mechanical properties :
#
#
# Convention : Reuss Voigt Hill
#
# Bulk Modulus (GPa) = 49.94778 62.48365 56.21572
# Shear Modulus (GPa) = 21.46117 25.32125 23.39121
#
# Velocity S-wave (km/s) = 3.42008 3.71494 3.57055
# Velocity P-wave (km/s) = 6.54361 7.24268 6.90200
#
# Compressibility (1/GPa) = 0.02002091
#
# Stress axis : x y z
#
# Youngs Moduli (GPa) = 60.09252 44.66206 30.30096
#
# Poissons Ratio (x) = 0.31495 0.35529
# Poissons Ratio (y) = 0.42376 0.21905
# Poissons Ratio (z) = 0.70461 0.32287
#
# Static dielectric constant tensor:
#      x y z
#    x 3.783030 0.000000 0.266760 
#    y 0.000000 4.233180 0.000000 
#    z 0.266760 0.000000 4.161810 
# 
# 
# High freq. dielectric constant tensor:
#      x y z
#    x 1.713770 0.000000 0.005910 
#    y 0.000000 1.715040 0.000000 
#    z 0.005910 0.000000 1.686180 
# 
# From -- ./inp_files/280901.got.cif
#   From: 2010.06.25/outbox.cif.g09.slc.cpg/sg12_141_cif.got.tgz:280901.got - 2010.06.28 00:19:55.
