data_PCOD8082079
_publ_section_title
;
Structure prediction by ZEFSAII (Michael W. Deem and Ramdas Pophale) SiO2 
 PCOD8082079
Probable space group: C 2/M
;
_chemical_formula_sum "Si O2"
_cell_formula_units_Z 48
_cell_length_a 24.873422
_cell_length_b 14.479642
_cell_length_c 23.414249
_cell_angle_alpha 90.000000
_cell_angle_beta 160.155503
_cell_angle_gamma 90.000000
_cell_volume 2862.682000
_symmetry_space_group_name_H-M "C 2/M"
_symmetry_group_IT_number 12
_symmetry_cell_setting 'monoclinic'
loop_
_space_group_symop_operation_xyz
x,y,z
-x,y,-z
-x,-y,-z
x,-y,z
1/2+x,1/2+y,z
1/2-x,1/2+y,-z
1/2-x,1/2-y,-z
1/2+x,1/2-y,z
loop_
_atom_site_type_symbol
_atom_site_label
_atom_site_fract_x
_atom_site_fract_y
_atom_site_fract_z
Si Si1 0.564542 0.212995 0.397853
Si Si2 0.934682 0.107398 0.995077
Si Si3 0.934049 0.804188 0.762310
Si Si4 0.564362 0.106203 0.626753
Si Si5 0.867148 0.330984 0.099280
Si Si6 0.949465 0.898885 0.233268
O O1 0.748779 0.208903 0.569225
O O2 0.526962 0.175306 0.422805
O O3 0.475580 0.146656 0.262981
O O4 0.509897 0.320084 0.337284
O O5 0.749514 0.127727 0.814818
O O6 0.973916 0.000000 0.041096
O O7 0.000000 0.144016 0.000000
O O8 0.028283 0.161049 0.137208
O O9 0.019318 0.704602 0.838409
O O10 0.995103 0.876155 0.775793
O O11 0.500000 0.128087 0.500000
O O12 0.528401 0.000000 0.607464
O O13 0.750000 0.250000 0.000000
O O14 0.744431 0.410639 0.958203
O O15 0.017140 0.000000 0.318108
#
# Coordination Sequence:
#
# PCOD8082079 Si02
#       6
#     8   8   8   8   8   8
#     4  10  19  32  49  71 100 129 161 201 243 290
#     4  10  19  30  45  68  98 128 159 194 235 287
#     4  10  18  31  48  68  97 130 161 199 243 289
#     4  10  20  33  50  73  99 128 162 197 237 289
#     4   8  16  30  46  65  89 120 159 196 234 277
#     4  10  19  32  50  70  95 129 167 204 243 286
#
# _framework density 16.767493000000002
#
# number of rings (size 3 to 8) (size 9 to 14) (size 15 to 20)
#    0.000    2.667    0.000    6.500    0.000    4.667 
#    0.000    2.500    0.000    0.500    0.000    0.000 
#    0.000    6.000    0.000    0.000    0.000    0.000 
#
# Total GULP energy -297413.423606 kJ/mol
# GULP energy per Si atom -12392.225984 kJ/mol
# Density = 1.672933 g / cm^3
# Si number density = 16.767493 Si / 1000 Ang^3
#
#
#
# Elastic Constant Matrix: (Units=GPa)
#
#
# Indices 1 2 3 4 5 6 
#
# 1 105.4779 43.3175 41.0986 -0.0003 2.6510 0.0001
# 2 43.3175 77.8334 30.9214 0.0019 -1.6279 0.0016
# 3 41.0986 30.9214 123.0587 -0.0030 4.2327 -0.0005
# 4 -0.0003 0.0019 -0.0030 16.7904 0.0000 -4.2913
# 5 2.6510 -1.6279 4.2327 0.0000 30.2948 0.0003
# 6 0.0001 0.0016 -0.0005 -4.2913 0.0003 18.4964
#
#
#
# Elastic Compliance Matrix: (Units=1/GPa)
#
#
# Indices 1 2 3 4 5 6 
#
# 1 0.013156 -0.006237 -0.002789 0.000001 -0.001097 0.000001
# 2 -0.006237 0.017279 -0.002321 -0.000003 0.001798 -0.000002
# 3 -0.002789 -0.002321 0.009683 0.000002 -0.001234 0.000001
# 4 0.000001 -0.000003 0.000002 0.063312 -0.000001 0.014689
# 5 -0.001097 0.001798 -0.001234 -0.000001 0.033374 -0.000001
# 6 0.000001 -0.000002 0.000001 0.014689 -0.000001 0.057472
#
#
# Mechanical properties :
#
#
# Convention : Reuss Voigt Hill
#
# Bulk Modulus (GPa) = 57.38837 59.67166 58.53002
# Shear Modulus (GPa) = 22.44391 25.85184 24.14787
#
# Velocity S-wave (km/s) = 3.66257 3.93081 3.79906
# Velocity P-wave (km/s) = 7.22400 7.50111 7.36386
#
# Compressibility (1/GPa) = 0.01742513
#
# Stress axis : x y z
#
# Youngs Moduli (GPa) = 76.00914 57.87512 103.27201
#
# Poissons Ratio (x) = 0.36097 0.28802
# Poissons Ratio (y) = 0.47407 0.23964
# Poissons Ratio (z) = 0.21199 0.13430
#
# Static dielectric constant tensor:
#      x y z
#    x 3.118480 -0.000010 0.089480 
#    y -0.000010 3.224860 -0.000020 
#    z 0.089480 -0.000020 3.771500 
# 
# 
# High freq. dielectric constant tensor:
#      x y z
#    x 1.633470 0.000000 0.008280 
#    y 0.000000 1.613470 0.000000 
#    z 0.008280 0.000000 1.667850 
# 
# From -- ./inp_files/347479.got.cif
#   From: 2010.06.25/outbox.cif.g09.slc.cpg/sg12_174_cif.got.tgz:347479.got - 2010.06.28 00:19:55.
