data_PCOD8082910
_publ_section_title
;
Structure prediction by ZEFSAII (Michael W. Deem and Ramdas Pophale) SiO2 
 PCOD8082910
Probable space group: C 2/M
;
_chemical_formula_sum "Si O2"
_cell_formula_units_Z 60
_cell_length_a 13.344313
_cell_length_b 18.752980
_cell_length_c 14.046768
_cell_angle_alpha 90.000000
_cell_angle_beta 81.869209
_cell_angle_gamma 90.000000
_cell_volume 3479.807439
_symmetry_space_group_name_H-M "C 2/M"
_symmetry_group_IT_number 12
_symmetry_cell_setting 'monoclinic'
loop_
_space_group_symop_operation_xyz
x,y,z
-x,y,-z
-x,-y,-z
x,-y,z
1/2+x,1/2+y,z
1/2-x,1/2+y,-z
1/2-x,1/2-y,-z
1/2+x,1/2-y,z
loop_
_atom_site_type_symbol
_atom_site_label
_atom_site_fract_x
_atom_site_fract_y
_atom_site_fract_z
Si Si1 0.733128 0.193499 0.237703
Si Si2 0.500000 0.358049 0.000000
Si Si3 0.398422 0.920241 0.391245
Si Si4 0.384407 0.126217 0.022133
Si Si5 0.865703 0.418289 0.610519
Si Si6 0.627613 0.820898 0.774042
Si Si7 0.068772 0.741847 0.128914
Si Si8 0.707816 0.578275 0.921894
O O1 0.693548 0.145431 0.329781
O O2 0.822232 0.245189 0.258611
O O3 0.655367 0.249322 0.197385
O O4 0.774326 0.137695 0.157523
O O5 0.515372 0.312943 0.096035
O O6 0.400610 0.406818 0.016308
O O7 0.351873 0.902873 0.500538
O O8 0.518441 0.911358 0.375569
O O9 0.348868 0.869687 0.319591
O O10 0.369400 0.000000 0.365482
O O11 0.338866 0.139175 0.133622
O O12 0.500000 0.093539 0.000000
O O13 0.386558 0.203319 0.970829
O O14 0.301384 0.076341 0.983659
O O15 0.828817 0.500000 0.639318
O O16 0.509017 0.808756 0.805521
O O17 0.704399 0.500000 0.875353
#
# Coordination Sequence:
#
# PCOD8082910 Si02
#       8
#     8   4   8   8   8   8   8   8
#     4  11  20  32  54  77 102 130 173 215 247 299
#     4  12  19  36  52  68 109 146 178 208 245 304
#     4   9  19  34  53  74 101 131 162 203 263 317
#     4   9  19  35  50  74 102 134 171 213 260 299
#     4   9  18  34  52  74 103 132 160 206 261 307
#     4  11  18  32  52  78  99 131 169 205 254 297
#     4  10  18  32  50  74 101 132 169 209 248 294
#     4  11  23  34  49  76 107 143 177 211 250 300
#
# _framework density 17.242332999999999
#
# number of rings (size 3 to 8) (size 9 to 14) (size 15 to 20)
#    0.000    1.867    4.667    2.200    0.000    3.467 
#    0.000    0.000    0.000    0.000    0.000    0.000 
#    0.000    2.133    0.000    0.000    0.000    0.000 
#
# Total GULP energy -371691.792616 kJ/mol
# GULP energy per Si atom -12389.726421 kJ/mol
# Density = 1.720309 g / cm^3
# Si number density = 17.242333 Si / 1000 Ang^3
#
#
#
# Elastic Constant Matrix: (Units=GPa)
#
#
# Indices 1 2 3 4 5 6 
#
# 1 67.0302 36.6340 34.0136 0.0000 -3.6462 0.0000
# 2 36.6340 100.9468 57.7766 0.0000 3.8023 0.0000
# 3 34.0136 57.7766 105.5568 0.0000 0.3554 0.0000
# 4 0.0000 0.0000 0.0000 -36.2962 0.0000 175.6237
# 5 -3.6462 3.8023 0.3554 0.0000 15.7852 0.0000
# 6 0.0000 0.0000 0.0000 175.6237 0.0000 -545.1758
#
#
#
# Elastic Compliance Matrix: (Units=1/GPa)
#
#
# Indices 1 2 3 4 5 6 
#
# 1 0.020011 -0.005514 -0.003450 0.000000 0.006028 0.000000
# 2 -0.005514 0.016119 -0.007029 0.000000 -0.004998 0.000000
# 3 -0.003450 -0.007029 0.014431 0.000000 0.000571 0.000000
# 4 0.000000 0.000000 0.000000 0.049311 0.000000 0.015885
# 5 0.006028 -0.004998 0.000571 0.000000 0.065934 0.000000
# 6 0.000000 0.000000 0.000000 0.015885 0.000000 0.003283
#
#
# Mechanical properties :
#
#
# Convention : Reuss Voigt Hill
#
# Bulk Modulus (GPa) = 53.84009 58.93136 56.38572
# Shear Modulus (GPa) = 24.12359 -103.46338 -39.66990
#
# Velocity S-wave (km/s) = 3.74450 -7.75472 -4.80179
# Velocity P-wave (km/s) = 7.07024 6.77705 1.42476
#
# Compressibility (1/GPa) = 0.01857352
#
# Stress axis : x y z
#
# Youngs Moduli (GPa) = 49.97225 62.04019 69.29729
#
# Poissons Ratio (x) = 0.34212 0.23908
# Poissons Ratio (y) = 0.27557 0.48707
# Poissons Ratio (z) = 0.17241 0.43607
#
# Static dielectric constant tensor:
#      x y z
#    x 3.209460 0.000000 -0.001280 
#    y 0.000000 3.099690 0.000000 
#    z -0.001280 0.000000 3.217550 
# 
# 
# High freq. dielectric constant tensor:
#      x y z
#    x 1.654850 0.000000 -0.001420 
#    y 0.000000 1.656270 0.000000 
#    z -0.001420 0.000000 1.654010 
# 
# From -- ./inp_files/133931.got.cif
#   From: 2010.06.25/outbox.cif.g09.slc.cpg/sg12_67_cif.got.tgz:133931.got - 2010.06.28 00:19:55.
