data_PCOD8082817
_publ_section_title
;
Structure prediction by ZEFSAII (Michael W. Deem and Ramdas Pophale) SiO2 
 PCOD8082817
Probable space group: C 2/M
;
_chemical_formula_sum "Si O2"
_cell_formula_units_Z 56
_cell_length_a 10.486304
_cell_length_b 19.752745
_cell_length_c 13.638912
_cell_angle_alpha 90.000000
_cell_angle_beta 81.081493
_cell_angle_gamma 90.000000
_cell_volume 2790.917123
_symmetry_space_group_name_H-M "C 2/M"
_symmetry_group_IT_number 12
_symmetry_cell_setting 'monoclinic'
loop_
_space_group_symop_operation_xyz
x,y,z
-x,y,-z
-x,-y,-z
x,-y,z
1/2+x,1/2+y,z
1/2-x,1/2+y,-z
1/2-x,1/2-y,-z
1/2+x,1/2-y,z
loop_
_atom_site_type_symbol
_atom_site_label
_atom_site_fract_x
_atom_site_fract_y
_atom_site_fract_z
Si Si1 0.773591 0.834641 0.394189
Si Si2 0.453042 0.330459 0.735142
Si Si3 0.675292 0.075148 0.233160
Si Si4 0.258507 0.819605 0.385053
Si Si5 0.364496 0.751518 0.063726
Si Si6 0.521626 0.184798 0.778315
Si Si7 0.429374 0.394958 0.107524
O O1 0.698795 0.887061 0.333556
O O2 0.757833 0.857268 0.509055
O O3 0.714395 0.759210 0.393454
O O4 0.922382 0.832473 0.348538
O O5 0.334401 0.354445 0.683229
O O6 0.437520 0.254596 0.783745
O O7 0.462479 0.386758 0.820720
O O8 0.572313 0.121580 0.185649
O O9 0.807600 0.060692 0.156078
O O10 0.617289 0.000000 0.258975
O O11 0.406829 0.828630 0.333434
O O12 0.361535 0.805502 0.154314
O O13 0.362549 0.677454 0.107836
O O14 0.500000 0.769592 0.000000
O O15 0.250000 0.750000 0.000000
O O16 0.500000 0.421610 0.000000
#
# Coordination Sequence:
#
# PCOD8082817 Si02
#       7
#     8   8   8   8   8   8   8
#     4   9  19  33  54  85 112 151 194 233 301 346
#     4   9  17  32  55  84 118 138 180 252 302 340
#     4  11  22  40  58  78 121 162 197 235 277 357
#     4  10  18  31  57  83 117 144 183 254 297 343
#     4  10  20  32  57  89 122 151 182 248 314 352
#     4  10  21  32  52  85 120 150 195 226 292 360
#     4   9  20  34  57  86 109 145 195 242 298 346
#
# _framework density 20.065087999999999
#
# number of rings (size 3 to 8) (size 9 to 14) (size 15 to 20)
#    0.000    2.286    1.429    2.143    6.000    0.857 
#    0.000    1.429    0.000   14.143    0.000    0.000 
#    0.000    0.000    0.000    0.000    0.000    0.000 
#
# Total GULP energy -346946.619463 kJ/mol
# GULP energy per Si atom -12390.950695 kJ/mol
# Density = 2.001942 g / cm^3
# Si number density = 20.065088 Si / 1000 Ang^3
#
#
#
# Elastic Constant Matrix: (Units=GPa)
#
#
# Indices 1 2 3 4 5 6 
#
# 1 70.8144 21.8850 41.9885 0.0000 19.5734 0.0000
# 2 21.8850 78.0247 21.7679 0.0000 3.0739 0.0000
# 3 41.9885 21.7679 128.4902 0.0000 6.0873 0.0000
# 4 0.0000 0.0000 0.0000 8.3678 0.0000 -0.3436
# 5 19.5734 3.0739 6.0873 0.0000 34.6780 0.0000
# 6 0.0000 0.0000 0.0000 -0.3436 0.0000 10.6539
#
#
#
# Elastic Compliance Matrix: (Units=1/GPa)
#
#
# Indices 1 2 3 4 5 6 
#
# 1 0.021948 -0.004060 -0.005964 0.000000 -0.010981 0.000000
# 2 -0.004060 0.014225 -0.001142 0.000000 0.001231 0.000000
# 3 -0.005964 -0.001142 0.009843 0.000000 0.001740 0.000000
# 4 0.000000 0.000000 0.000000 0.119664 0.000000 0.003859
# 5 -0.010981 0.001231 0.001740 0.000000 0.034620 0.000000
# 6 0.000000 0.000000 0.000000 0.003859 0.000000 0.093987
#
#
# Mechanical properties :
#
#
# Convention : Reuss Voigt Hill
#
# Bulk Modulus (GPa) = 42.22116 49.84578 46.03347
# Shear Modulus (GPa) = 15.40773 23.51914 19.46344
#
# Velocity S-wave (km/s) = 2.77408 3.42737 3.11789
# Velocity P-wave (km/s) = 5.59897 6.36855 5.99612
#
# Compressibility (1/GPa) = 0.02368480
#
# Stress axis : x y z
#
# Youngs Moduli (GPa) = 45.56297 70.29820 101.59846
#
# Poissons Ratio (x) = 0.28538 0.60595
# Poissons Ratio (y) = 0.18496 0.11599
# Poissons Ratio (z) = 0.27175 0.08026
#
# Static dielectric constant tensor:
#      x y z
#    x 3.555030 0.000000 0.083730 
#    y 0.000000 3.151950 0.000000 
#    z 0.083730 0.000000 4.000760 
# 
# 
# High freq. dielectric constant tensor:
#      x y z
#    x 1.780060 0.000000 -0.003750 
#    y 0.000000 1.723930 0.000000 
#    z -0.003750 0.000000 1.796650 
# 
# From -- ./inp_files/133225.got.cif
#   From: 2010.06.25/outbox.cif.g09.slc.cpg/sg12_67_cif.got.tgz:133225.got - 2010.06.28 00:19:55.
