data_PCOD8082990
_publ_section_title
;
Structure prediction by ZEFSAII (Michael W. Deem and Ramdas Pophale) SiO2 
 PCOD8082990
Probable space group: C 2/M
;
_chemical_formula_sum "Si O2"
_cell_formula_units_Z 64
_cell_length_a 20.246676
_cell_length_b 8.984170
_cell_length_c 20.055258
_cell_angle_alpha 90.000000
_cell_angle_beta 96.559671
_cell_angle_gamma 90.000000
_cell_volume 3624.160787
_symmetry_space_group_name_H-M "C 2/M"
_symmetry_group_IT_number 12
_symmetry_cell_setting 'monoclinic'
loop_
_space_group_symop_operation_xyz
x,y,z
-x,y,-z
-x,-y,-z
x,-y,z
1/2+x,1/2+y,z
1/2-x,1/2+y,-z
1/2-x,1/2-y,-z
1/2+x,1/2-y,z
loop_
_atom_site_type_symbol
_atom_site_label
_atom_site_fract_x
_atom_site_fract_y
_atom_site_fract_z
Si Si1 0.696779 0.677413 0.945152
Si Si2 0.444076 0.327424 0.547600
Si Si3 0.157237 0.175579 0.675569
Si Si4 0.317430 0.167416 0.190983
Si Si5 0.454529 0.675012 0.053856
Si Si6 0.483682 0.175054 0.330949
Si Si7 0.191844 0.825993 0.532686
Si Si8 0.026790 0.336506 0.815262
O O1 0.703517 0.500000 0.946786
O O2 0.713392 0.737259 0.873111
O O3 0.622354 0.729040 0.959159
O O4 0.750000 0.750000 0.000000
O O5 0.500000 0.297220 0.500000
O O6 0.441354 0.500000 0.568024
O O7 0.457429 0.228770 0.614467
O O8 0.376408 0.268962 0.507407
O O9 0.198239 0.253303 0.740284
O O10 0.082372 0.233623 0.659568
O O11 0.195203 0.214201 0.611407
O O12 0.153955 0.000000 0.688713
O O13 0.395851 0.161748 0.192660
O O14 0.287454 0.000000 0.186903
O O15 0.456382 0.500000 0.050586
O O16 0.488743 0.722589 0.127273
O O17 0.500000 0.743514 0.000000
O O18 0.508754 0.209268 0.258055
O O19 0.468938 0.000000 0.337736
O O20 0.250000 0.750000 0.500000
O O21 0.198079 0.000000 0.523399
O O22 0.003620 0.500000 0.836298
#
# Coordination Sequence:
#
# PCOD8082990 Si02
#       8
#     8   8   8   8   8   8   8   8
#     4  10  19  32  52  77 105 136 169 210 258 303
#     4  10  19  35  54  76 104 133 169 211 258 307
#     4  10  18  32  52  75 103 136 171 210 258 307
#     4   9  17  30  49  76 104 130 168 215 255 301
#     4   9  18  32  51  75 101 131 169 206 244 295
#     4  10  19  30  49  79 106 130 167 217 260 297
#     4  10  22  37  54  75 103 138 172 210 255 310
#     4   8  16  29  45  71 104 131 162 202 250 298
#
# _framework density 17.65926
#
# number of rings (size 3 to 8) (size 9 to 14) (size 15 to 20)
#    0.000    2.500    1.250    2.250    0.000    6.000 
#    0.000    0.000    2.750    0.000    0.000    0.000 
#    0.000    0.000    0.000    0.000    0.000    0.000 
#
# Total GULP energy -396699.448087 kJ/mol
# GULP energy per Si atom -12396.857753 kJ/mol
# Density = 1.761907 g / cm^3
# Si number density = 17.659260 Si / 1000 Ang^3
#
#
#
# Elastic Constant Matrix: (Units=GPa)
#
#
# Indices 1 2 3 4 5 6 
#
# 1 71.0764 32.9454 58.3254 0.0000 -1.0391 0.0000
# 2 32.9454 68.8576 59.9910 0.0000 2.1689 0.0000
# 3 58.3254 59.9910 162.4403 0.0000 7.5019 0.0000
# 4 0.0000 0.0000 0.0000 37.0014 0.0000 3.9705
# 5 -1.0391 2.1689 7.5019 0.0000 26.8757 0.0000
# 6 0.0000 0.0000 0.0000 3.9705 0.0000 22.0384
#
#
#
# Elastic Compliance Matrix: (Units=1/GPa)
#
#
# Indices 1 2 3 4 5 6 
#
# 1 0.021338 -0.005174 -0.005884 0.000000 0.002885 0.000000
# 2 -0.005174 0.022673 -0.006506 0.000000 -0.000214 0.000000
# 3 -0.005884 -0.006506 0.010797 0.000000 -0.002716 0.000000
# 4 0.000000 0.000000 0.000000 0.027559 0.000000 -0.004965
# 5 0.002885 -0.000214 -0.002716 0.000000 0.038095 0.000000
# 6 0.000000 0.000000 0.000000 -0.004965 0.000000 0.046270
#
#
# Mechanical properties :
#
#
# Convention : Reuss Voigt Hill
#
# Bulk Modulus (GPa) = 50.81140 67.21088 59.01114
# Shear Modulus (GPa) = 23.99002 27.25726 25.62364
#
# Velocity S-wave (km/s) = 3.68978 3.93302 3.81334
# Velocity P-wave (km/s) = 6.85480 7.66598 7.27171
#
# Compressibility (1/GPa) = 0.01968062
#
# Stress axis : x y z
#
# Youngs Moduli (GPa) = 46.86414 44.10538 92.61874
#
# Poissons Ratio (x) = 0.22820 0.54498
# Poissons Ratio (y) = 0.24247 0.60256
# Poissons Ratio (z) = 0.27576 0.28694
#
# Static dielectric constant tensor:
#      x y z
#    x 2.069790 0.000000 -0.578900 
#    y 0.000000 3.320330 0.000000 
#    z -0.578900 0.000000 3.212060 
# 
# 
# High freq. dielectric constant tensor:
#      x y z
#    x 1.636010 0.000000 0.007920 
#    y 0.000000 1.687760 0.000000 
#    z 0.007920 0.000000 1.699950 
# 
# From -- ./inp_files/314057.got.cif
#   From: 2010.06.25/outbox.cif.g09.slc.cpg/sg12_158_cif.got.tgz:314057.got - 2010.06.28 00:19:55.
