data_PCOD8082456
_publ_section_title
;
Structure prediction by ZEFSAII (Michael W. Deem and Ramdas Pophale) SiO2 
 PCOD8082456
Probable space group: C 2/M
;
_chemical_formula_sum "Si O2"
_cell_formula_units_Z 64
_cell_length_a 20.229932
_cell_length_b 9.059807
_cell_length_c 24.477002
_cell_angle_alpha 90.000000
_cell_angle_beta 125.634744
_cell_angle_gamma 90.000000
_cell_volume 3646.089252
_symmetry_space_group_name_H-M "C 2/M"
_symmetry_group_IT_number 12
_symmetry_cell_setting 'monoclinic'
loop_
_space_group_symop_operation_xyz
x,y,z
-x,y,-z
-x,-y,-z
x,-y,z
1/2+x,1/2+y,z
1/2-x,1/2+y,-z
1/2-x,1/2-y,-z
1/2+x,1/2-y,z
loop_
_atom_site_type_symbol
_atom_site_label
_atom_site_fract_x
_atom_site_fract_y
_atom_site_fract_z
Si Si1 0.711388 0.825403 0.429486
Si Si2 0.027487 0.674576 0.321212
Si Si3 0.886224 0.170880 0.308678
Si Si4 0.257838 0.171441 0.845077
Si Si5 0.972356 0.675304 0.176822
Si Si6 0.790490 0.324599 0.071096
Si Si7 0.734966 0.675064 0.660621
Si Si8 0.371231 0.175050 0.805663
O O1 0.750000 0.750000 0.500000
O O2 0.618517 0.772647 0.378073
O O3 0.762376 0.771471 0.400803
O O4 0.716422 0.000000 0.439073
O O5 0.021720 0.500000 0.319002
O O6 0.967820 0.737003 0.338801
O O7 0.000005 0.737562 0.249029
O O8 0.821472 0.201792 0.229637
O O9 0.848004 0.222712 0.348467
O O10 0.909891 0.000000 0.321821
O O11 0.256822 0.273364 0.897698
O O12 0.338420 0.220132 0.849789
O O13 0.262436 0.000000 0.864531
O O14 0.971014 0.500000 0.178826
O O15 0.883284 0.734190 0.118626
O O16 0.036790 0.730699 0.161724
O O17 0.785436 0.500000 0.063524
O O18 0.750000 0.250000 0.000000
O O19 0.742612 0.500000 0.666496
O O20 0.812296 0.741542 0.730456
O O21 0.367472 0.000000 0.799313
#
# Coordination Sequence:
#
# PCOD8082456 Si02
#       8
#     8   8   8   8   8   8   8   8
#     4  10  20  34  53  74 102 136 170 209 253 300
#     4  10  18  31  52  77 101 129 168 211 252 293
#     4   9  17  29  50  78 103 126 160 207 252 296
#     4   9  17  30  51  78 103 126 158 205 256 298
#     4   9  16  29  51  77  98 124 168 211 245 287
#     4  11  22  35  52  73 103 138 169 203 247 302
#     4   8  14  28  49  73  99 130 164 202 249 295
#     4   8  13  26  51  78  98 120 163 214 247 285
#
# _framework density 17.553052999999998
#
# number of rings (size 3 to 8) (size 9 to 14) (size 15 to 20)
#    0.000    2.750    2.500    1.875    0.000    0.500 
#    0.000    1.875    0.000   10.500    0.000    0.000 
#    0.000    0.000    0.000    0.000    0.000    0.000 
#
# Total GULP energy -396625.663359 kJ/mol
# GULP energy per Si atom -12394.551980 kJ/mol
# Density = 1.751310 g / cm^3
# Si number density = 17.553053 Si / 1000 Ang^3
#
#
#
# Elastic Constant Matrix: (Units=GPa)
#
#
# Indices 1 2 3 4 5 6 
#
# 1 173.7001 33.4038 79.4367 0.0000 -9.3503 0.0000
# 2 33.4038 29.3090 34.2830 0.0000 -2.6801 0.0000
# 3 79.4367 34.2830 120.0107 0.0000 -5.2120 0.0000
# 4 0.0000 0.0000 0.0000 25.2653 0.0000 -2.1588
# 5 -9.3503 -2.6801 -5.2120 0.0000 25.8372 0.0000
# 6 0.0000 0.0000 0.0000 -2.1588 0.0000 26.2130
#
#
#
# Elastic Compliance Matrix: (Units=1/GPa)
#
#
# Indices 1 2 3 4 5 6 
#
# 1 0.008759 -0.004698 -0.004378 0.000000 0.001800 0.000000
# 2 -0.004698 0.053907 -0.012228 0.000000 0.001425 0.000000
# 3 -0.004378 -0.012228 0.014729 0.000000 0.000118 0.000000
# 4 0.000000 0.000000 0.000000 0.039860 0.000000 0.003283
# 5 0.001800 0.001425 0.000118 0.000000 0.039527 0.000000
# 6 0.000000 0.000000 0.000000 0.003283 0.000000 0.038419
#
#
# Mechanical properties :
#
#
# Convention : Reuss Voigt Hill
#
# Bulk Modulus (GPa) = 28.74587 68.58519 48.66553
# Shear Modulus (GPa) = 20.04777 27.18952 23.61865
#
# Velocity S-wave (km/s) = 3.38320 3.93999 3.67216
# Velocity P-wave (km/s) = 5.62792 7.73666 6.76496
#
# Compressibility (1/GPa) = 0.03478761
#
# Stress axis : x y z
#
# Youngs Moduli (GPa) = 114.16289 18.55056 67.89545
#
# Poissons Ratio (x) = 0.08715 0.29723
# Poissons Ratio (y) = 0.53633 0.83021
# Poissons Ratio (z) = 0.49978 0.22683
#
# Static dielectric constant tensor:
#      x y z
#    x 3.718620 0.000000 -0.040690 
#    y 0.000000 2.839590 0.000000 
#    z -0.040690 0.000000 3.115630 
# 
# 
# High freq. dielectric constant tensor:
#      x y z
#    x 1.699090 0.000000 -0.006070 
#    y 0.000000 1.636510 0.000000 
#    z -0.006070 0.000000 1.654230 
# 
# From -- ./inp_files/346233.got.cif
#   From: 2010.06.25/outbox.cif.g09.slc.cpg/sg12_174_cif.got.tgz:346233.got - 2010.06.28 00:19:55.
