data_PCOD8082850
_publ_section_title
;
Structure prediction by ZEFSAII (Michael W. Deem and Ramdas Pophale) SiO2 
 PCOD8082850
Probable space group: C 2/M
;
_chemical_formula_sum "Si O2"
_cell_formula_units_Z 44
_cell_length_a 29.540165
_cell_length_b 14.086485
_cell_length_c 10.505554
_cell_angle_alpha 90.000000
_cell_angle_beta 39.284640
_cell_angle_gamma 90.000000
_cell_volume 2767.943193
_symmetry_space_group_name_H-M "C 2/M"
_symmetry_group_IT_number 12
_symmetry_cell_setting 'monoclinic'
loop_
_space_group_symop_operation_xyz
x,y,z
-x,y,-z
-x,-y,-z
x,-y,z
1/2+x,1/2+y,z
1/2-x,1/2+y,-z
1/2-x,1/2-y,-z
1/2+x,1/2-y,z
loop_
_atom_site_type_symbol
_atom_site_label
_atom_site_fract_x
_atom_site_fract_y
_atom_site_fract_z
Si Si1 0.301165 0.610695 0.824271
Si Si2 0.460479 0.768566 0.837869
Si Si3 0.838413 0.718345 0.906120
Si Si4 0.000000 0.190446 0.000000
Si Si5 0.557573 0.895402 0.485080
Si Si6 0.057150 0.106228 0.636860
O O1 0.291354 0.500000 0.884296
O O2 0.318036 0.673301 0.913901
O O3 0.362868 0.622947 0.585498
O O4 0.230067 0.653279 0.914127
O O5 0.385137 0.782948 0.932825
O O6 0.451227 0.754884 0.010536
O O7 0.515832 0.855493 0.698709
O O8 0.500329 0.675632 0.690180
O O9 0.878055 0.672391 0.698148
O O10 0.053784 0.126783 0.796939
O O11 0.500000 0.900463 0.500000
O O12 0.587940 0.000000 0.450799
O O13 0.031763 0.000000 0.662506
#
# Coordination Sequence:
#
# PCOD8082850 Si02
#       6
#     8   8   8   4   8   8
#     4  10  20  31  48  73 101 128 156 196 246 295
#     4   9  18  30  50  72  95 128 166 200 233 281
#     4  10  18  32  47  72 102 129 156 196 243 295
#     4   8  17  32  51  70  94 128 163 206 241 272
#     4   9  16  28  47  69  94 126 160 193 235 287
#     4   9  17  31  51  72  97 128 161 199 243 286
#
# _framework density 15.896280000000001
#
# number of rings (size 3 to 8) (size 9 to 14) (size 15 to 20)
#    1.091    1.636    1.818    0.818    0.000    1.455 
#    0.000    3.182    0.000    0.000    0.000    5.091 
#    0.000    0.000    0.000    0.000    0.000    0.000 
#
# Total GULP energy -272537.716568 kJ/mol
# GULP energy per Si atom -12388.078026 kJ/mol
# Density = 1.586010 g / cm^3
# Si number density = 15.896280 Si / 1000 Ang^3
#
#
#
# Elastic Constant Matrix: (Units=GPa)
#
#
# Indices 1 2 3 4 5 6 
#
# 1 66.0667 27.4488 20.6402 0.0000 -11.6923 0.0000
# 2 27.4488 108.2802 22.0482 0.0000 -6.4325 0.0000
# 3 20.6402 22.0482 49.9893 0.0000 -9.5349 0.0000
# 4 0.0000 0.0000 0.0000 26.0175 0.0000 0.2309
# 5 -11.6923 -6.4325 -9.5349 0.0000 20.7129 0.0000
# 6 0.0000 0.0000 0.0000 0.2309 0.0000 18.2312
#
#
#
# Elastic Compliance Matrix: (Units=1/GPa)
#
#
# Indices 1 2 3 4 5 6 
#
# 1 0.019505 -0.003459 -0.005078 0.000000 0.007598 0.000000
# 2 -0.003459 0.010787 -0.003358 0.000000 -0.000148 0.000000
# 3 -0.005078 -0.003358 0.025035 0.000000 0.007615 0.000000
# 4 0.000000 0.000000 0.000000 0.038440 0.000000 -0.000487
# 5 0.007598 -0.000148 0.007615 0.000000 0.056028 0.000000
# 6 0.000000 0.000000 0.000000 -0.000487 0.000000 0.054857
#
#
# Mechanical properties :
#
#
# Convention : Reuss Voigt Hill
#
# Bulk Modulus (GPa) = 31.70999 40.51230 36.11114
# Shear Modulus (GPa) = 20.92459 23.27225 22.09842
#
# Velocity S-wave (km/s) = 3.63205 3.83038 3.73253
# Velocity P-wave (km/s) = 6.13028 6.71589 6.42976
#
# Compressibility (1/GPa) = 0.03153581
#
# Stress axis : x y z
#
# Youngs Moduli (GPa) = 51.27004 92.70382 39.94477
#
# Poissons Ratio (x) = 0.32065 0.20286
# Poissons Ratio (y) = 0.17734 0.13413
# Poissons Ratio (z) = 0.26037 0.31129
#
# Static dielectric constant tensor:
#      x y z
#    x 2.654670 0.000000 -0.066610 
#    y 0.000000 3.296680 0.000000 
#    z -0.066610 0.000000 2.977330 
# 
# 
# High freq. dielectric constant tensor:
#      x y z
#    x 1.573440 0.000000 -0.008910 
#    y 0.000000 1.623180 0.000000 
#    z -0.008910 0.000000 1.603480 
# 
# From -- ./inp_files/182936.got.cif
#   From: 2010.06.25/outbox.cif.g09.slc.cpg/sg12_92_cif.got.tgz:182936.got - 2010.06.28 00:19:55.
