data_PCOD8082739
_publ_section_title
;
Structure prediction by ZEFSAII (Michael W. Deem and Ramdas Pophale) SiO2 
 PCOD8082739
Probable space group: C 2/M
;
_chemical_formula_sum "Si O2"
_cell_formula_units_Z 64
_cell_length_a 12.243803
_cell_length_b 21.457049
_cell_length_c 20.099548
_cell_angle_alpha 90.000000
_cell_angle_beta 41.142934
_cell_angle_gamma 90.000000
_cell_volume 3474.231340
_symmetry_space_group_name_H-M "C 2/M"
_symmetry_group_IT_number 12
_symmetry_cell_setting 'monoclinic'
loop_
_space_group_symop_operation_xyz
x,y,z
-x,y,-z
-x,-y,-z
x,-y,z
1/2+x,1/2+y,z
1/2-x,1/2+y,-z
1/2-x,1/2-y,-z
1/2+x,1/2-y,z
loop_
_atom_site_type_symbol
_atom_site_label
_atom_site_fract_x
_atom_site_fract_y
_atom_site_fract_z
Si Si1 0.617302 0.150821 0.817668
Si Si2 0.076150 0.364088 0.221103
Si Si3 0.629824 0.571623 0.232226
Si Si4 0.738478 0.426521 0.617372
Si Si5 0.778433 0.368607 0.042306
Si Si6 0.510552 0.073821 0.387208
Si Si7 0.322820 0.249734 0.106916
Si Si8 0.847002 0.071107 0.024461
O O1 0.571765 0.155501 0.760961
O O2 0.778313 0.106599 0.749488
O O3 0.660269 0.218420 0.828146
O O4 0.467219 0.122556 0.931097
O O5 0.999831 0.385390 0.325671
O O6 0.197400 0.305837 0.172661
O O7 0.178596 0.422214 0.144242
O O8 0.616137 0.500000 0.258460
O O9 0.446477 0.601605 0.304807
O O10 0.738811 0.579733 0.115775
O O11 0.726178 0.500000 0.626040
O O12 0.826012 0.405426 0.646097
O O13 0.848448 0.407100 0.503611
O O14 0.750803 0.299946 0.085957
O O15 0.655481 0.380820 0.036436
O O16 0.513246 0.000000 0.370312
O O17 0.500000 0.274919 0.000000
O O18 0.861846 0.000000 0.992160
O O19 0.000000 0.090071 0.000000
#
# Coordination Sequence:
#
# PCOD8082739 Si02
#       8
#     8   8   8   8   8   8   8   8
#     4   9  21  36  48  77 111 137 178 220 253 314
#     4  11  21  33  54  76 103 143 172 215 278 313
#     4  10  18  31  55  79 103 141 180 214 256 306
#     4   8  17  34  56  81 107 135 177 219 251 314
#     4   9  19  34  52  72 105 147 180 217 252 302
#     4   9  18  35  56  82 110 135 169 218 272 319
#     4   9  19  37  54  73 100 141 192 223 245 303
#     4  10  21  31  43  75 114 138 168 214 264 316
#
# _framework density 18.421340000000001
#
# number of rings (size 3 to 8) (size 9 to 14) (size 15 to 20)
#    0.000    2.625    0.000    3.000    1.750    9.000 
#    2.250    0.625    0.000    5.250    0.000    0.000 
#    0.000    0.000    0.000    0.000    0.000    0.000 
#
# Total GULP energy -396677.031150 kJ/mol
# GULP energy per Si atom -12396.157223 kJ/mol
# Density = 1.837941 g / cm^3
# Si number density = 18.421340 Si / 1000 Ang^3
#
#
#
# Elastic Constant Matrix: (Units=GPa)
#
#
# Indices 1 2 3 4 5 6 
#
# 1 155.2188 49.8988 59.0768 0.0059 4.7130 -0.0047
# 2 49.8988 66.0937 32.6250 0.0068 0.8425 -0.0072
# 3 59.0768 32.6250 70.7521 -0.0010 5.4543 0.0019
# 4 0.0059 0.0068 -0.0010 23.8634 0.0003 -2.4632
# 5 4.7130 0.8425 5.4543 0.0003 33.3287 -0.0014
# 6 -0.0047 -0.0072 0.0019 -2.4632 -0.0014 23.0193
#
#
#
# Elastic Compliance Matrix: (Units=1/GPa)
#
#
# Indices 1 2 3 4 5 6 
#
# 1 0.010437 -0.004642 -0.006553 -0.000001 -0.000286 0.000001
# 2 -0.004642 0.021686 -0.006211 -0.000005 0.001125 0.000006
# 3 -0.006553 -0.006211 0.022671 0.000004 -0.002627 -0.000005
# 4 -0.000001 -0.000005 0.000004 0.042373 0.000000 0.004534
# 5 -0.000286 0.001125 -0.002627 0.000000 0.030446 0.000002
# 6 0.000001 0.000006 -0.000005 0.004534 0.000002 0.043927
#
#
# Mechanical properties :
#
#
# Convention : Reuss Voigt Hill
#
# Bulk Modulus (GPa) = 50.03816 63.91842 56.97829
# Shear Modulus (GPa) = 23.47286 26.07322 24.77304
#
# Velocity S-wave (km/s) = 3.57350 3.76624 3.67113
# Velocity P-wave (km/s) = 6.65196 7.32708 6.99767
#
# Compressibility (1/GPa) = 0.01998475
#
# Stress axis : x y z
#
# Youngs Moduli (GPa) = 95.80987 46.11325 44.10855
#
# Poissons Ratio (x) = 0.21405 0.28902
# Poissons Ratio (y) = 0.44473 0.27394
# Poissons Ratio (z) = 0.62780 0.28639
#
# Static dielectric constant tensor:
#      x y z
#    x 3.730710 -0.000010 -0.173970 
#    y -0.000010 3.138630 0.000020 
#    z -0.173970 0.000020 3.349450 
# 
# 
# High freq. dielectric constant tensor:
#      x y z
#    x 1.727520 0.000000 -0.005100 
#    y 0.000000 1.694500 0.000000 
#    z -0.005100 0.000000 1.685330 
# 
# From -- ./inp_files/307114.got.cif
#   From: 2010.06.25/outbox.cif.g09.slc.cpg/sg12_154_cif.got.tgz:307114.got - 2010.06.28 00:19:55.
