data_PCOD8082953
_publ_section_title
;
Structure prediction by ZEFSAII (Michael W. Deem and Ramdas Pophale) SiO2 
 PCOD8082953
Probable space group: C 2/M
;
_chemical_formula_sum "Si O2"
_cell_formula_units_Z 56
_cell_length_a 11.955181
_cell_length_b 20.535712
_cell_length_c 13.510733
_cell_angle_alpha 90.000000
_cell_angle_beta 67.733516
_cell_angle_gamma 90.000000
_cell_volume 3069.651861
_symmetry_space_group_name_H-M "C 2/M"
_symmetry_group_IT_number 12
_symmetry_cell_setting 'monoclinic'
loop_
_space_group_symop_operation_xyz
x,y,z
-x,y,-z
-x,-y,-z
x,-y,z
1/2+x,1/2+y,z
1/2-x,1/2+y,-z
1/2-x,1/2-y,-z
1/2+x,1/2-y,z
loop_
_atom_site_type_symbol
_atom_site_label
_atom_site_fract_x
_atom_site_fract_y
_atom_site_fract_z
Si Si1 0.378219 0.930719 0.985440
Si Si2 0.914108 0.817654 0.937323
Si Si3 0.852464 0.075925 0.813390
Si Si4 0.845541 0.311797 0.878755
Si Si5 0.621782 0.641972 0.403658
Si Si6 0.405398 0.791829 0.647376
Si Si7 0.175874 0.684154 0.530185
O O1 0.406115 0.879561 0.889415
O O2 0.336904 0.000000 0.951380
O O3 0.500000 0.942142 0.000000
O O4 0.280991 0.909365 0.100615
O O5 0.937343 0.876676 0.851848
O O6 0.935319 0.747860 0.877531
O O7 0.779903 0.812162 0.022991
O O8 0.000000 0.829854 0.000000
O O9 0.858263 0.095354 0.696672
O O10 0.890489 0.000000 0.812262
O O11 0.823837 0.309747 0.768677
O O12 0.500000 0.619167 0.500000
O O13 0.607364 0.716069 0.373955
O O14 0.738842 0.633732 0.437731
O O15 0.354591 0.835835 0.573523
O O16 0.545723 0.806745 0.626619
O O17 0.250000 0.750000 0.500000
#
# Coordination Sequence:
#
# PCOD8082953 Si02
#       7
#     8   8   8   8   8   8   8
#     4   9  19  36  54  77 107 140 177 216 268 326
#     4  10  21  35  52  80 112 140 176 225 276 320
#     4  10  22  38  54  76 108 146 186 226 271 327
#     4  10  20  32  53  84 107 134 177 223 267 323
#     4  11  20  34  54  79 110 144 185 225 271 322
#     4  10  18  32  51  80 110 138 173 223 278 320
#     4   9  18  32  50  76 106 140 175 220 274 324
#
# _framework density 18.243110999999999
#
# number of rings (size 3 to 8) (size 9 to 14) (size 15 to 20)
#    0.000    2.143    4.286    0.429    2.000    4.000 
#    0.000    0.000    0.000    0.857    0.000    2.000 
#    0.000    0.000    0.000    0.000    0.000    0.000 
#
# Total GULP energy -346904.422195 kJ/mol
# GULP energy per Si atom -12389.443650 kJ/mol
# Density = 1.820159 g / cm^3
# Si number density = 18.243111 Si / 1000 Ang^3
#
#
#
# Elastic Constant Matrix: (Units=GPa)
#
#
# Indices 1 2 3 4 5 6 
#
# 1 90.4390 37.8139 21.6861 0.0000 20.5588 0.0000
# 2 37.8139 109.6419 54.8300 0.0000 16.6010 0.0000
# 3 21.6861 54.8300 108.2669 0.0000 22.3545 0.0000
# 4 0.0000 0.0000 0.0000 17.7970 0.0000 12.6104
# 5 20.5588 16.6010 22.3545 0.0000 24.7920 0.0000
# 6 0.0000 0.0000 0.0000 12.6104 0.0000 9.0336
#
#
#
# Elastic Compliance Matrix: (Units=1/GPa)
#
#
# Indices 1 2 3 4 5 6 
#
# 1 0.014943 -0.004200 0.001366 0.000000 -0.010811 0.000000
# 2 -0.004200 0.013604 -0.006004 0.000000 -0.000213 0.000000
# 3 0.001366 -0.006004 0.014017 0.000000 -0.009751 0.000000
# 4 0.000000 0.000000 0.000000 5.165960 0.000000 -7.211388
# 5 -0.010811 -0.000213 -0.009751 0.000000 0.058235 0.000000
# 6 0.000000 0.000000 0.000000 -7.211388 0.000000 10.177387
#
#
# Mechanical properties :
#
#
# Convention : Reuss Voigt Hill
#
# Bulk Modulus (GPa) = 40.18045 59.66754 49.92400
# Shear Modulus (GPa) = 0.32320 23.25904 11.79112
#
# Velocity S-wave (km/s) = 0.42137 3.57452 2.54507
# Velocity P-wave (km/s) = 4.72330 7.05791 6.00515
#
# Compressibility (1/GPa) = 0.02488772
#
# Stress axis : x y z
#
# Youngs Moduli (GPa) = 66.91970 73.50803 71.34206
#
# Poissons Ratio (x) = 0.30873 -0.09746
# Poissons Ratio (y) = 0.28106 0.42836
# Poissons Ratio (z) = -0.09142 0.44137
#
# Static dielectric constant tensor:
#      x y z
#    x 3.575510 0.000000 0.067000 
#    y 0.000000 3.861170 0.000000 
#    z 0.067000 0.000000 3.281460 
# 
# 
# High freq. dielectric constant tensor:
#      x y z
#    x 1.700730 0.000000 0.003600 
#    y 0.000000 1.681650 0.000000 
#    z 0.003600 0.000000 1.710820 
# 
# From -- ./inp_files/207238.got.cif
#   From: 2010.06.25/outbox.cif.g09.slc.cpg/sg12_104_cif.got.tgz:207238.got - 2010.06.28 00:19:55.
