data_PCOD8082390
_publ_section_title
;
Structure prediction by ZEFSAII (Michael W. Deem and Ramdas Pophale) SiO2 
 PCOD8082390
Probable space group: C 2/M
;
_chemical_formula_sum "Si O2"
_cell_formula_units_Z 64
_cell_length_a 26.227785
_cell_length_b 12.755114
_cell_length_c 12.140822
_cell_angle_alpha 90.000000
_cell_angle_beta 105.335995
_cell_angle_gamma 90.000000
_cell_volume 3916.944382
_symmetry_space_group_name_H-M "C 2/M"
_symmetry_group_IT_number 12
_symmetry_cell_setting 'monoclinic'
loop_
_space_group_symop_operation_xyz
x,y,z
-x,y,-z
-x,-y,-z
x,-y,z
1/2+x,1/2+y,z
1/2-x,1/2+y,-z
1/2-x,1/2-y,-z
1/2+x,1/2-y,z
loop_
_atom_site_type_symbol
_atom_site_label
_atom_site_fract_x
_atom_site_fract_y
_atom_site_fract_z
Si Si1 0.154499 0.377993 0.086100
Si Si2 0.197999 0.719780 0.906529
Si Si3 0.972152 0.120376 0.125805
Si Si4 0.077040 0.203373 0.110578
Si Si5 0.659891 0.621198 0.329258
Si Si6 0.744433 0.245829 0.267194
Si Si7 0.664475 0.377569 0.575099
Si Si8 0.117503 0.879063 0.771618
O O1 0.146775 0.500000 0.109501
O O2 0.100584 0.317698 0.092464
O O3 0.204012 0.330798 0.180305
O O4 0.165697 0.365741 0.960480
O O5 0.218728 0.686264 0.796819
O O6 0.160148 0.819611 0.870439
O O7 0.250000 0.750000 0.000000
O O8 0.942276 0.145613 0.223090
O O9 0.019366 0.204933 0.137006
O O10 0.993356 0.000000 0.136145
O O11 0.929294 0.134341 0.003410
O O12 0.114897 0.145535 0.216661
O O13 0.671889 0.500000 0.336767
O O14 0.714588 0.674159 0.327868
O O15 0.643168 0.658857 0.443013
O O16 0.780039 0.176198 0.366965
O O17 0.675933 0.500000 0.582295
O O18 0.621314 0.348421 0.644545
O O19 0.131013 0.000000 0.799005
#
# Coordination Sequence:
#
# PCOD8082390 Si02
#       8
#     8   8   8   8   8   8   8   8
#     4  10  19  31  46  67  96 126 157 194 233 278
#     4   9  17  29  42  66  92 120 152 192 223 266
#     4  10  18  31  52  71  93 123 153 190 235 288
#     4  10  19  32  47  69  94 119 155 192 238 281
#     4  10  19  30  45  69  98 123 154 196 234 268
#     4   9  18  30  47  66  93 128 163 187 224 278
#     4   9  17  30  47  68  96 127 156 188 226 273
#     4   9  17  30  49  69  90 122 156 184 226 282
#
# _framework density 16.339265999999999
#
# number of rings (size 3 to 8) (size 9 to 14) (size 15 to 20)
#    0.000    2.500    1.250    2.250    0.000    3.500 
#    0.000    1.875    0.000    3.000    0.000    0.000 
#    0.000    4.000    0.000    0.000    0.000    0.000 
#
# Total GULP energy -396453.560720 kJ/mol
# GULP energy per Si atom -12389.173772 kJ/mol
# Density = 1.630208 g / cm^3
# Si number density = 16.339266 Si / 1000 Ang^3
#
#
#
# Elastic Constant Matrix: (Units=GPa)
#
#
# Indices 1 2 3 4 5 6 
#
# 1 114.7666 45.0222 46.9553 0.0000 -22.3101 0.0000
# 2 45.0222 66.6243 28.1893 0.0000 -14.5869 0.0000
# 3 46.9553 28.1893 69.3893 0.0000 -19.8089 0.0000
# 4 0.0000 0.0000 0.0000 19.4625 0.0000 -1.9841
# 5 -22.3101 -14.5869 -19.8089 0.0000 22.6364 0.0000
# 6 0.0000 0.0000 0.0000 -1.9841 0.0000 21.5848
#
#
#
# Elastic Compliance Matrix: (Units=1/GPa)
#
#
# Indices 1 2 3 4 5 6 
#
# 1 0.014558 -0.006225 -0.005827 0.000000 0.005237 0.000000
# 2 -0.006225 0.021654 -0.003136 0.000000 0.005074 0.000000
# 3 -0.005827 -0.003136 0.023210 0.000000 0.012548 0.000000
# 4 0.000000 0.000000 0.000000 0.051867 0.000000 0.004768
# 5 0.005237 0.005074 0.012548 0.000000 0.063588 0.000000
# 6 0.000000 0.000000 0.000000 0.004768 0.000000 0.046767
#
#
# Mechanical properties :
#
#
# Convention : Reuss Voigt Hill
#
# Bulk Modulus (GPa) = 34.42810 54.56820 44.49815
# Shear Modulus (GPa) = 19.10564 21.44429 20.27497
#
# Velocity S-wave (km/s) = 3.42322 3.62669 3.52643
# Velocity P-wave (km/s) = 6.06145 7.14189 6.62374
#
# Compressibility (1/GPa) = 0.02904604
#
# Stress axis : x y z
#
# Youngs Moduli (GPa) = 68.69262 46.18044 43.08410
#
# Poissons Ratio (x) = 0.28750 0.25105
# Poissons Ratio (y) = 0.42764 0.13510
# Poissons Ratio (z) = 0.40027 0.14481
#
# Static dielectric constant tensor:
#      x y z
#    x 3.286050 0.000000 -0.333640 
#    y 0.000000 2.857530 0.000000 
#    z -0.333640 0.000000 3.373030 
# 
# 
# High freq. dielectric constant tensor:
#      x y z
#    x 1.631430 0.000000 -0.018380 
#    y 0.000000 1.598600 0.000000 
#    z -0.018380 0.000000 1.628350 
# 
# From -- ./inp_files/182149.got.cif
#   From: 2010.06.25/outbox.cif.g09.slc.cpg/sg12_92_cif.got.tgz:182149.got - 2010.06.28 00:19:55.
