data_PCOD8082308
_publ_section_title
;
Structure prediction by ZEFSAII (Michael W. Deem and Ramdas Pophale) SiO2 
 PCOD8082308
Probable space group: C 2/M
;
_chemical_formula_sum "Si O2"
_cell_formula_units_Z 64
_cell_length_a 23.234846
_cell_length_b 8.947152
_cell_length_c 19.693985
_cell_angle_alpha 90.000000
_cell_angle_beta 59.111895
_cell_angle_gamma 90.000000
_cell_volume 3513.438088
_symmetry_space_group_name_H-M "C 2/M"
_symmetry_group_IT_number 12
_symmetry_cell_setting 'monoclinic'
loop_
_space_group_symop_operation_xyz
x,y,z
-x,y,-z
-x,-y,-z
x,-y,z
1/2+x,1/2+y,z
1/2-x,1/2+y,-z
1/2-x,1/2-y,-z
1/2+x,1/2-y,z
loop_
_atom_site_type_symbol
_atom_site_label
_atom_site_fract_x
_atom_site_fract_y
_atom_site_fract_z
Si Si1 0.938521 0.174690 0.581687
Si Si2 0.945394 0.824032 0.734877
Si Si3 0.471315 0.824881 0.206270
Si Si4 0.805231 0.667229 0.664534
Si Si5 0.824649 0.323273 0.091452
Si Si6 0.325617 0.828061 0.246513
Si Si7 0.044643 0.823270 0.037040
Si Si8 0.689774 0.829966 0.177064
O O1 0.952646 0.214273 0.651278
O O2 0.870138 0.248700 0.595946
O O3 0.000000 0.237652 0.500000
O O4 0.929527 0.000000 0.576236
O O5 0.875764 0.760314 0.807320
O O6 0.006150 0.738626 0.734744
O O7 0.948677 0.000000 0.747033
O O8 0.392007 0.795246 0.249358
O O9 0.509241 0.732877 0.125924
O O10 0.487726 0.000000 0.188829
O O11 0.807260 0.500000 0.635286
O O12 0.735876 0.740651 0.681330
O O13 0.806665 0.674743 0.744403
O O14 0.821853 0.500000 0.082973
O O15 0.838253 0.277283 0.161300
O O16 0.755033 0.252044 0.107397
O O17 0.883399 0.255063 0.010529
O O18 0.304867 0.000000 0.259717
O O19 0.054607 0.000000 0.034141
O O20 0.000000 0.774295 0.000000
O O21 0.686237 0.000000 0.152209
#
# Coordination Sequence:
#
# PCOD8082308 Si02
#       8
#     8   8   8   8   8   8   8   8
#     4   9  18  34  57  82 108 138 169 204 251 307
#     4  10  20  35  54  78 106 136 172 211 255 310
#     4  11  22  36  53  74 103 141 178 214 260 310
#     4   9  17  28  48  78 107 132 165 212 256 296
#     4  10  18  31  51  74 100 132 174 221 265 307
#     4   9  18  31  49  72 100 136 175 212 253 304
#     4  11  22  34  50  74 104 136 175 222 266 306
#     4   9  17  31  50  73 101 134 171 212 260 310
#
# _framework density 18.215776000000002
#
# number of rings (size 3 to 8) (size 9 to 14) (size 15 to 20)
#    0.000    2.250    1.250    2.250    0.000    5.750 
#    0.000    0.625    0.000    0.750    0.000    0.000 
#    0.000    0.000    0.000    0.000    0.000    0.000 
#
# Total GULP energy -396864.424890 kJ/mol
# GULP energy per Si atom -12402.013278 kJ/mol
# Density = 1.817432 g / cm^3
# Si number density = 18.215776 Si / 1000 Ang^3
#
#
#
# Elastic Constant Matrix: (Units=GPa)
#
#
# Indices 1 2 3 4 5 6 
#
# 1 102.9347 44.3437 40.7833 0.0000 -22.0947 0.0002
# 2 44.3437 82.4371 36.7635 0.0004 -15.9145 0.0010
# 3 40.7833 36.7635 76.3509 0.0001 -27.9693 0.0000
# 4 0.0000 0.0004 0.0001 20.9068 -0.0001 -4.4969
# 5 -22.0947 -15.9145 -27.9693 -0.0001 28.9864 0.0001
# 6 0.0002 0.0010 0.0000 -4.4969 0.0001 32.8394
#
#
#
# Elastic Compliance Matrix: (Units=1/GPa)
#
#
# Indices 1 2 3 4 5 6 
#
# 1 0.014358 -0.005299 -0.003364 0.000000 0.004790 0.000000
# 2 -0.005299 0.017480 -0.005491 0.000000 0.000259 -0.000001
# 3 -0.003364 -0.005491 0.023966 0.000000 0.017546 0.000000
# 4 0.000000 0.000000 0.000000 0.049283 0.000000 0.006749
# 5 0.004790 0.000259 0.017546 0.000000 0.055223 0.000000
# 6 0.000000 -0.000001 0.000000 0.006749 0.000000 0.031375
#
#
# Mechanical properties :
#
#
# Convention : Reuss Voigt Hill
#
# Bulk Modulus (GPa) = 36.36793 56.16707 46.26750
# Shear Modulus (GPa) = 21.81902 25.86865 23.84384
#
# Velocity S-wave (km/s) = 3.46469 3.77254 3.62189
# Velocity P-wave (km/s) = 6.00116 7.06239 6.55329
#
# Compressibility (1/GPa) = 0.02749675
#
# Stress axis : x y z
#
# Youngs Moduli (GPa) = 69.64571 57.20939 41.72618
#
# Poissons Ratio (x) = 0.30314 0.14035
# Poissons Ratio (y) = 0.36904 0.22912
# Poissons Ratio (z) = 0.23426 0.31415
#
# Static dielectric constant tensor:
#      x y z
#    x 3.462640 0.000000 -0.236300 
#    y 0.000000 3.445110 0.000000 
#    z -0.236300 0.000000 3.119480 
# 
# 
# High freq. dielectric constant tensor:
#      x y z
#    x 1.703860 0.000000 -0.026410 
#    y 0.000000 1.717770 0.000000 
#    z -0.026410 0.000000 1.672480 
# 
# From -- ./inp_files/319849.got.cif
#   From: 2010.06.25/outbox.cif.g09.slc.cpg/sg12_160_cif.got.tgz:319849.got - 2010.06.28 00:19:55.
