data_PCOD8082268
_publ_section_title
;
Structure prediction by ZEFSAII (Michael W. Deem and Ramdas Pophale) SiO2 
 PCOD8082268
Probable space group: C 2/M
;
_chemical_formula_sum "Si O2"
_cell_formula_units_Z 56
_cell_length_a 24.248756
_cell_length_b 14.804879
_cell_length_c 12.392129
_cell_angle_alpha 90.000000
_cell_angle_beta 139.719855
_cell_angle_gamma 90.000000
_cell_volume 2876.244997
_symmetry_space_group_name_H-M "C 2/M"
_symmetry_group_IT_number 12
_symmetry_cell_setting 'monoclinic'
loop_
_space_group_symop_operation_xyz
x,y,z
-x,y,-z
-x,-y,-z
x,-y,z
1/2+x,1/2+y,z
1/2-x,1/2+y,-z
1/2-x,1/2-y,-z
1/2+x,1/2-y,z
loop_
_atom_site_type_symbol
_atom_site_label
_atom_site_fract_x
_atom_site_fract_y
_atom_site_fract_z
Si Si1 0.455659 0.695606 0.036189
Si Si2 0.639564 0.000000 0.170379
Si Si3 0.983561 0.500000 0.811953
Si Si4 0.306974 0.238441 0.308486
Si Si5 0.099130 0.104208 0.670198
Si Si6 0.322785 0.396504 0.980124
Si Si7 0.916109 0.312895 0.652243
Si Si8 0.323965 0.811981 0.730141
O O1 0.388901 0.624153 0.983256
O O2 0.519638 0.730670 0.224175
O O3 0.500000 0.645790 0.000000
O O4 0.412157 0.785316 0.920997
O O5 0.699936 0.086314 0.271143
O O6 0.568308 0.000000 0.155605
O O7 0.586084 0.000000 0.979516
O O8 0.960653 0.409624 0.714290
O O9 0.335216 0.331748 0.295586
O O10 0.389242 0.194363 0.486833
O O11 0.250452 0.251863 0.331906
O O12 0.258732 0.171364 0.152274
O O13 0.124307 0.118978 0.831925
O O14 0.000000 0.130248 0.500000
O O15 0.114605 0.000000 0.658305
O O16 0.290670 0.500000 0.922111
O O17 0.837396 0.305728 0.621072
#
# Coordination Sequence:
#
# PCOD8082268 Si02
#       8
#     8   4   4   8   8   8   8   8
#     4   9  17  32  55  81 109 147 187 220 258 309
#     4   9  14  28  48  74 106 145 186 223 257 310
#     4   9  16  26  50  74 106 150 184 216 266 312
#     4  11  22  34  57  81 111 145 176 220 281 332
#     4  10  22  42  64  81  99 134 190 238 273 318
#     4  10  22  39  57  81 113 145 178 222 275 329
#     4  10  18  31  50  79 115 147 182 220 266 321
#     4   9  18  30  49  79 113 146 179 225 265 309
#
# _framework density 19.469830000000002
#
# number of rings (size 3 to 8) (size 9 to 14) (size 15 to 20)
#    0.000    2.286    1.429    1.714    2.000    0.286 
#    0.000    0.000    0.000    1.286    0.000    0.000 
#    0.000    0.000    0.000    0.000    0.000    0.000 
#
# Total GULP energy -346909.211846 kJ/mol
# GULP energy per Si atom -12389.614709 kJ/mol
# Density = 1.942552 g / cm^3
# Si number density = 19.469830 Si / 1000 Ang^3
#
#
#
# Elastic Constant Matrix: (Units=GPa)
#
#
# Indices 1 2 3 4 5 6 
#
# 1 52.2630 28.9011 21.0908 0.0000 0.5393 0.0000
# 2 28.9011 97.6145 43.7894 0.0000 -1.6746 0.0000
# 3 21.0908 43.7894 122.9999 0.0000 -7.3788 0.0000
# 4 0.0000 0.0000 0.0000 0.4385 0.0000 -14.3951
# 5 0.5393 -1.6746 -7.3788 0.0000 19.6446 0.0000
# 6 0.0000 0.0000 0.0000 -14.3951 0.0000 17.9271
#
#
#
# Elastic Compliance Matrix: (Units=1/GPa)
#
#
# Indices 1 2 3 4 5 6 
#
# 1 0.023288 -0.006052 -0.001952 0.000000 -0.001888 0.000000
# 2 -0.006052 0.013771 -0.003872 0.000000 -0.000114 0.000000
# 3 -0.001952 -0.003872 0.010053 0.000000 0.003500 0.000000
# 4 0.000000 0.000000 0.000000 -0.089924 0.000000 -0.072207
# 5 -0.001888 -0.000114 0.003500 0.000000 0.052261 0.000000
# 6 0.000000 0.000000 0.000000 -0.072207 0.000000 -0.002200
#
#
# Mechanical properties :
#
#
# Convention : Reuss Voigt Hill
#
# Bulk Modulus (GPa) = 42.80638 51.16002 46.98320
# Shear Modulus (GPa) = 128.90632 19.54178 74.22405
#
# Velocity S-wave (km/s) = 8.14567 3.17155 6.18105
# Velocity P-wave (km/s) = 10.51204 6.30438 8.66742
#
# Compressibility (1/GPa) = 0.02336101
#
# Stress axis : x y z
#
# Youngs Moduli (GPa) = 42.94112 72.61612 99.47120
#
# Poissons Ratio (x) = 0.43945 0.19417
# Poissons Ratio (y) = 0.25986 0.38514
# Poissons Ratio (z) = 0.08382 0.28116
#
# Static dielectric constant tensor:
#      x y z
#    x 3.216090 0.000000 0.034630 
#    y 0.000000 3.540320 0.000000 
#    z 0.034630 0.000000 3.577270 
# 
# 
# High freq. dielectric constant tensor:
#      x y z
#    x 1.727290 0.000000 0.001890 
#    y 0.000000 1.753770 0.000000 
#    z 0.001890 0.000000 1.763690 
# 
# From -- ./inp_files/183576.got.cif
#   From: 2010.06.25/outbox.cif.g09.slc.cpg/sg12_92_cif.got.tgz:183576.got - 2010.06.28 00:19:55.
