data_PCOD8082995
_publ_section_title
;
Structure prediction by ZEFSAII (Michael W. Deem and Ramdas Pophale) SiO2 
 PCOD8082995
Probable space group: C 2/M
;
_chemical_formula_sum "Si O2"
_cell_formula_units_Z 56
_cell_length_a 29.120951
_cell_length_b 8.811955
_cell_length_c 16.603415
_cell_angle_alpha 90.000000
_cell_angle_beta 140.430933
_cell_angle_gamma 90.000000
_cell_volume 2714.063926
_symmetry_space_group_name_H-M "C 2/M"
_symmetry_group_IT_number 12
_symmetry_cell_setting 'monoclinic'
loop_
_space_group_symop_operation_xyz
x,y,z
-x,y,-z
-x,-y,-z
x,-y,z
1/2+x,1/2+y,z
1/2-x,1/2+y,-z
1/2-x,1/2-y,-z
1/2+x,1/2-y,z
loop_
_atom_site_type_symbol
_atom_site_label
_atom_site_fract_x
_atom_site_fract_y
_atom_site_fract_z
Si Si1 0.671246 0.321210 0.395219
Si Si2 0.717590 0.180265 0.035949
Si Si3 0.561920 0.677472 0.842433
Si Si4 0.328763 0.168808 0.760841
Si Si5 0.796935 0.820033 0.301092
Si Si6 0.533607 0.829473 0.962689
Si Si7 0.081935 0.820494 0.425083
O O1 0.676477 0.500000 0.407954
O O2 0.750000 0.250000 0.500000
O O3 0.636234 0.271423 0.262418
O O4 0.623989 0.253200 0.404383
O O5 0.767438 0.246176 0.176568
O O6 0.721385 0.000000 0.036881
O O7 0.750000 0.250000 0.000000
O O8 0.634192 0.227173 0.930001
O O9 0.580794 0.500000 0.865362
O O10 0.520926 0.717232 0.870714
O O11 0.503252 0.722933 0.693471
O O12 0.253288 0.234197 0.692413
O O13 0.317096 0.000000 0.709727
O O14 0.380477 0.163772 0.908198
O O15 0.878239 0.766890 0.437467
O O16 0.792346 0.000000 0.287379
O O17 0.503518 0.000000 0.904149
O O18 0.500000 0.765221 0.000000
O O19 0.088132 0.000000 0.427794
#
# Coordination Sequence:
#
# PCOD8082995 Si02
#       7
#     8   8   8   8   8   8   8
#     4  11  20  31  49  77 115 159 204 249 290 338
#     4  11  23  43  70  94 117 149 192 246 307 366
#     4  11  22  37  60  89 121 155 196 249 301 353
#     4  10  18  32  52  75 107 152 201 243 282 336
#     4   9  17  35  61  82 109 151 194 235 284 346
#     4  10  20  34  53  79 117 163 204 243 295 353
#     4   9  19  35  55  81 117 158 199 240 286 344
#
# _framework density 20.633265999999999
#
# number of rings (size 3 to 8) (size 9 to 14) (size 15 to 20)
#    0.000    1.857    2.857    2.143    0.000    0.857 
#    0.000    2.857    0.000    4.286    0.000    0.000 
#    0.000    0.000    0.000    0.000    0.000    0.000 
#
# Total GULP energy -346925.774433 kJ/mol
# GULP energy per Si atom -12390.206230 kJ/mol
# Density = 2.058630 g / cm^3
# Si number density = 20.633266 Si / 1000 Ang^3
#
#
#
# Elastic Constant Matrix: (Units=GPa)
#
#
# Indices 1 2 3 4 5 6 
#
# 1 85.7011 21.6379 54.2038 0.0000 -6.9312 0.0000
# 2 21.6379 50.7653 26.9998 0.0000 -2.8483 0.0000
# 3 54.2038 26.9998 165.8061 0.0000 -5.6080 0.0000
# 4 0.0000 0.0000 0.0000 23.5041 0.0000 -1.1446
# 5 -6.9312 -2.8483 -5.6080 0.0000 22.0679 0.0000
# 6 0.0000 0.0000 0.0000 -1.1446 0.0000 29.0312
#
#
#
# Elastic Compliance Matrix: (Units=1/GPa)
#
#
# Indices 1 2 3 4 5 6 
#
# 1 0.015751 -0.004214 -0.004352 0.000000 0.003298 0.000000
# 2 -0.004214 0.022774 -0.002296 0.000000 0.001032 0.000000
# 3 -0.004352 -0.002296 0.007839 0.000000 0.000329 0.000000
# 4 0.000000 0.000000 0.000000 0.042628 0.000000 0.001681
# 5 0.003298 0.001032 0.000329 0.000000 0.046567 0.000000
# 6 0.000000 0.000000 0.000000 0.001681 0.000000 0.034512
#
#
# Mechanical properties :
#
#
# Convention : Reuss Voigt Hill
#
# Bulk Modulus (GPa) = 40.58372 56.43949 48.51161
# Shear Modulus (GPa) = 24.99904 28.21604 26.60754
#
# Velocity S-wave (km/s) = 3.48456 3.70199 3.59492
# Velocity P-wave (km/s) = 5.99177 6.75914 6.38699
#
# Compressibility (1/GPa) = 0.02464042
#
# Stress axis : x y z
#
# Youngs Moduli (GPa) = 63.48636 43.91009 127.57268
#
# Poissons Ratio (x) = 0.18505 0.55513
# Poissons Ratio (y) = 0.26756 0.29288
# Poissons Ratio (z) = 0.27626 0.10081
#
# Static dielectric constant tensor:
#      x y z
#    x 3.635040 0.000000 -0.072620 
#    y 0.000000 3.515500 0.000000 
#    z -0.072620 0.000000 4.454690 
# 
# 
# High freq. dielectric constant tensor:
#      x y z
#    x 1.778640 0.000000 0.004800 
#    y 0.000000 1.767260 0.000000 
#    z 0.004800 0.000000 1.834180 
# 
# From -- ./inp_files/295178.got.cif
#   From: 2010.06.25/outbox.cif.g09.slc.cpg/sg12_148_cif.got.tgz:295178.got - 2010.06.28 00:19:55.
