data_PCOD8082729
_publ_section_title
;
Structure prediction by ZEFSAII (Michael W. Deem and Ramdas Pophale) SiO2 
 PCOD8082729
Probable space group: C 2/M
;
_chemical_formula_sum "Si O2"
_cell_formula_units_Z 48
_cell_length_a 14.735139
_cell_length_b 14.185454
_cell_length_c 12.109945
_cell_angle_alpha 90.000000
_cell_angle_beta 67.628326
_cell_angle_gamma 90.000000
_cell_volume 2340.758565
_symmetry_space_group_name_H-M "C 2/M"
_symmetry_group_IT_number 12
_symmetry_cell_setting 'monoclinic'
loop_
_space_group_symop_operation_xyz
x,y,z
-x,y,-z
-x,-y,-z
x,-y,z
1/2+x,1/2+y,z
1/2-x,1/2+y,-z
1/2-x,1/2-y,-z
1/2+x,1/2-y,z
loop_
_atom_site_type_symbol
_atom_site_label
_atom_site_fract_x
_atom_site_fract_y
_atom_site_fract_z
Si Si1 0.138747 0.605347 0.747105
Si Si2 0.902625 0.395791 0.600338
Si Si3 0.391416 0.105051 0.004275
Si Si4 0.262464 0.359653 0.492442
Si Si5 0.552489 0.783241 0.223913
Si Si6 0.514513 0.393164 0.620072
O O1 0.093497 0.500000 0.773111
O O2 0.236331 0.604331 0.627428
O O3 0.056851 0.672774 0.730587
O O4 0.171273 0.634933 0.857374
O O5 0.928629 0.500000 0.631524
O O6 0.811538 0.403482 0.561061
O O7 0.879044 0.330374 0.715034
O O8 0.000000 0.351342 0.500000
O O9 0.388441 0.190652 0.916250
O O10 0.359512 0.000000 0.973579
O O11 0.500000 0.097302 0.000000
O O12 0.250000 0.250000 0.500000
O O13 0.369962 0.391995 0.408355
O O14 0.540834 0.673079 0.263514
O O15 0.500000 0.358285 0.500000
O O16 0.474777 0.500000 0.653896
#
# Coordination Sequence:
#
# PCOD8082729 Si02
#       6
#     8   8   8   8   8   8
#     4  10  18  31  54  85 116 144 178 225 281 336
#     4  11  20  30  51  84 117 140 170 226 292 344
#     4   8  16  29  51  83 114 143 176 220 278 339
#     4  12  21  35  55  83 116 150 184 227 281 334
#     4  11  18  33  54  82 113 143 178 222 279 337
#     4  11  24  40  55  77 111 154 199 233 266 324
#
# _framework density 20.506171999999999
#
# number of rings (size 3 to 8) (size 9 to 14) (size 15 to 20)
#    0.000    1.500    3.333    5.500    0.000    0.000 
#    0.000    0.000    0.000    8.500    0.000    2.333 
#    0.000    0.000    0.000    0.000    0.000    0.000 
#
# Total GULP energy -297374.122715 kJ/mol
# GULP energy per Si atom -12390.588446 kJ/mol
# Density = 2.045950 g / cm^3
# Si number density = 20.506172 Si / 1000 Ang^3
#
#
#
# Elastic Constant Matrix: (Units=GPa)
#
#
# Indices 1 2 3 4 5 6 
#
# 1 55.4981 5.3751 26.0036 0.0000 10.0917 0.0000
# 2 5.3751 127.3214 59.2255 0.0000 10.5058 0.0000
# 3 26.0036 59.2255 154.1511 0.0000 12.7198 0.0000
# 4 0.0000 0.0000 0.0000 8.5222 0.0000 -9.3503
# 5 10.0917 10.5058 12.7198 0.0000 16.3110 0.0000
# 6 0.0000 0.0000 0.0000 -9.3503 0.0000 14.0089
#
#
#
# Elastic Compliance Matrix: (Units=1/GPa)
#
#
# Indices 1 2 3 4 5 6 
#
# 1 0.021543 0.001585 -0.003269 0.000000 -0.011800 0.000000
# 2 0.001585 0.009873 -0.003693 0.000000 -0.004460 0.000000
# 3 -0.003269 -0.003693 0.008651 0.000000 -0.002345 0.000000
# 4 0.000000 0.000000 0.000000 0.438330 0.000000 0.292564
# 5 -0.011800 -0.004460 -0.002345 0.000000 0.073311 0.000000
# 6 0.000000 0.000000 0.000000 0.292564 0.000000 0.266655
#
#
# Mechanical properties :
#
#
# Convention : Reuss Voigt Hill
#
# Bulk Modulus (GPa) = 34.11505 57.57547 45.84526
# Shear Modulus (GPa) = 5.96028 24.19285 15.07656
#
# Velocity S-wave (km/s) = 1.70672 3.43852 2.71444
# Velocity P-wave (km/s) = 4.53392 6.62591 5.67711
#
# Compressibility (1/GPa) = 0.02931258
#
# Stress axis : x y z
#
# Youngs Moduli (GPa) = 46.41963 101.28746 115.59581
#
# Poissons Ratio (x) = -0.16054 0.37792
# Poissons Ratio (y) = -0.07357 0.42684
# Poissons Ratio (z) = 0.15176 0.37401
#
# Static dielectric constant tensor:
#      x y z
#    x 3.286150 0.000000 -0.364800 
#    y 0.000000 3.802760 0.000000 
#    z -0.364800 0.000000 4.139550 
# 
# 
# High freq. dielectric constant tensor:
#      x y z
#    x 1.763490 0.000000 0.012400 
#    y 0.000000 1.802550 0.000000 
#    z 0.012400 0.000000 1.795030 
# 
# From -- ./inp_files/142830.got.cif
#   From: 2010.06.25/outbox.cif.g09.slc.cpg/sg12_72_cif.got.tgz:142830.got - 2010.06.28 00:19:55.
