data_PCOD8082543
_publ_section_title
;
Structure prediction by ZEFSAII (Michael W. Deem and Ramdas Pophale) SiO2 
 PCOD8082543
Probable space group: C 2/M
;
_chemical_formula_sum "Si O2"
_cell_formula_units_Z 56
_cell_length_a 20.635112
_cell_length_b 8.936558
_cell_length_c 19.862592
_cell_angle_alpha 90.000000
_cell_angle_beta 58.993502
_cell_angle_gamma 90.000000
_cell_volume 3139.417156
_symmetry_space_group_name_H-M "C 2/M"
_symmetry_group_IT_number 12
_symmetry_cell_setting 'monoclinic'
loop_
_space_group_symop_operation_xyz
x,y,z
-x,y,-z
-x,-y,-z
x,-y,z
1/2+x,1/2+y,z
1/2-x,1/2+y,-z
1/2-x,1/2-y,-z
1/2+x,1/2-y,z
loop_
_atom_site_type_symbol
_atom_site_label
_atom_site_fract_x
_atom_site_fract_y
_atom_site_fract_z
Si Si1 0.839868 0.821185 0.169551
Si Si2 0.050677 0.822775 0.412154
Si Si3 0.512708 0.677349 0.833160
Si Si4 0.960478 0.823689 0.329596
Si Si5 0.299588 0.823279 0.416377
Si Si6 0.922985 0.164175 0.999941
Si Si7 0.221175 0.823212 0.320519
O O1 0.861032 0.758889 0.082698
O O2 0.760718 0.750148 0.234364
O O3 0.904879 0.765972 0.186805
O O4 0.833685 0.000000 0.172522
O O5 0.135813 0.760370 0.371623
O O6 0.000000 0.755111 0.500000
O O7 0.016435 0.773988 0.358897
O O8 0.052082 0.000000 0.418303
O O9 0.510203 0.500000 0.844928
O O10 0.500119 0.721837 0.762219
O O11 0.445142 0.746516 0.917051
O O12 0.884033 0.733644 0.379410
O O13 0.942035 0.000000 0.341805
O O14 0.250000 0.750000 0.500000
O O15 0.265941 0.772713 0.362893
O O16 0.296863 0.000000 0.426161
O O17 0.890911 0.000000 0.000040
O O18 0.000000 0.148963 0.000000
O O19 0.221312 0.000000 0.310551
#
# Coordination Sequence:
#
# PCOD8082543 Si02
#       7
#     8   8   8   8   8   8   8
#     4   9  15  26  46  71  97 123 154 195 236 275
#     4   9  18  33  50  67  91 126 163 193 232 289
#     4   8  13  23  43  72  97 118 153 197 235 271
#     4  10  18  31  53  74  93 120 159 204 240 274
#     4  11  22  34  50  71  96 124 155 196 243 286
#     4   7  11  20  38  66  97 123 148 187 233 273
#     4  10  20  33  49  70  97 127 157 192 236 289
#
# _framework density 17.837706000000001
#
# number of rings (size 3 to 8) (size 9 to 14) (size 15 to 20)
#    0.000    2.857    1.429    3.000    0.000    2.857 
#    0.000    0.714    0.000    7.286    0.000    0.000 
#    0.000    0.000    0.000    0.000    0.000    0.000 
#
# Total GULP energy -346925.268128 kJ/mol
# GULP energy per Si atom -12390.188147 kJ/mol
# Density = 1.779711 g / cm^3
# Si number density = 17.837706 Si / 1000 Ang^3
#
#
#
# Elastic Constant Matrix: (Units=GPa)
#
#
# Indices 1 2 3 4 5 6 
#
# 1 73.0416 15.4221 48.1450 0.0002 -3.4544 0.0007
# 2 15.4221 21.2915 24.8923 0.0004 -0.6260 0.0019
# 3 48.1450 24.8923 183.9760 0.0000 0.0831 0.0000
# 4 0.0002 0.0004 0.0000 20.7096 -0.0001 -6.2824
# 5 -3.4544 -0.6260 0.0831 -0.0001 28.4557 0.0001
# 6 0.0007 0.0019 0.0000 -6.2824 0.0001 14.3844
#
#
#
# Elastic Compliance Matrix: (Units=1/GPa)
#
#
# Indices 1 2 3 4 5 6 
#
# 1 0.017965 -0.008858 -0.003504 0.000000 0.001996 0.000000
# 2 -0.008858 0.060204 -0.005828 -0.000004 0.000266 -0.000009
# 3 -0.003504 -0.005828 0.007141 0.000000 -0.000574 0.000001
# 4 0.000000 -0.000004 0.000000 0.055661 0.000000 0.024310
# 5 0.001996 0.000266 -0.000574 0.000000 0.035392 0.000000
# 6 0.000000 -0.000009 0.000001 0.024310 0.000000 0.080137
#
#
# Mechanical properties :
#
#
# Convention : Reuss Voigt Hill
#
# Bulk Modulus (GPa) = 20.43656 50.58085 35.50870
# Shear Modulus (GPa) = 16.17131 25.36661 20.76896
#
# Velocity S-wave (km/s) = 3.01421 3.77514 3.41593
# Velocity P-wave (km/s) = 4.85755 6.88621 5.95885
#
# Compressibility (1/GPa) = 0.04893192
#
# Stress axis : x y z
#
# Youngs Moduli (GPa) = 55.66411 16.61014 140.03298
#
# Poissons Ratio (x) = 0.14712 0.49064
# Poissons Ratio (y) = 0.49305 0.81610
# Poissons Ratio (z) = 0.19503 0.09680
#
# Static dielectric constant tensor:
#      x y z
#    x 3.119910 0.000000 0.125150 
#    y 0.000000 2.845560 0.000000 
#    z 0.125150 0.000000 3.644190 
# 
# 
# High freq. dielectric constant tensor:
#      x y z
#    x 1.656050 0.000000 0.005710 
#    y 0.000000 1.639190 0.000000 
#    z 0.005710 0.000000 1.720280 
# 
# From -- ./inp_files/319699.got.cif
#   From: 2010.06.25/outbox.cif.g09.slc.cpg/sg12_160_cif.got.tgz:319699.got - 2010.06.28 00:19:55.
