data_PCOD8082063
_publ_section_title
;
Structure prediction by ZEFSAII (Michael W. Deem and Ramdas Pophale) SiO2 
 PCOD8082063
Probable space group: C 2/M
;
_chemical_formula_sum "Si O2"
_cell_formula_units_Z 56
_cell_length_a 23.777710
_cell_length_b 8.662128
_cell_length_c 19.228663
_cell_angle_alpha 90.000000
_cell_angle_beta 128.750945
_cell_angle_gamma 90.000000
_cell_volume 3088.646756
_symmetry_space_group_name_H-M "C 2/M"
_symmetry_group_IT_number 12
_symmetry_cell_setting 'monoclinic'
loop_
_space_group_symop_operation_xyz
x,y,z
-x,y,-z
-x,-y,-z
x,-y,z
1/2+x,1/2+y,z
1/2-x,1/2+y,-z
1/2-x,1/2-y,-z
1/2+x,1/2-y,z
loop_
_atom_site_type_symbol
_atom_site_label
_atom_site_fract_x
_atom_site_fract_y
_atom_site_fract_z
Si Si1 0.187025 0.817545 0.800538
Si Si2 0.372492 0.678689 0.856321
Si Si3 0.722497 0.681790 0.407469
Si Si4 0.268935 0.678821 0.309273
Si Si5 0.156566 0.317049 0.031117
Si Si6 0.568552 0.322298 0.240050
Si Si7 0.414164 0.684172 0.157950
O O1 0.176742 0.766674 0.711230
O O2 0.262019 0.756234 0.891486
O O3 0.119151 0.761287 0.793960
O O4 0.192196 0.000000 0.806560
O O5 0.346977 0.500000 0.838183
O O6 0.309439 0.792242 0.783176
O O7 0.395708 0.737445 0.950876
O O8 0.435301 0.697725 0.847042
O O9 0.720708 0.500000 0.411578
O O10 0.750000 0.750000 0.500000
O O11 0.777846 0.727222 0.388043
O O12 0.642400 0.750365 0.328731
O O13 0.279637 0.500000 0.335553
O O14 0.148468 0.500000 0.028773
O O15 0.134776 0.257932 0.939086
O O16 0.570093 0.500000 0.262182
O O17 0.495894 0.248964 0.216380
O O18 0.412950 0.500000 0.148167
#
# Coordination Sequence:
#
# PCOD8082063 Si02
#       7
#     8   8   8   8   8   8   8
#     4   8  16  29  47  67  91 122 160 195 227 263
#     4   9  16  29  46  65  89 123 160 196 233 275
#     4  10  19  33  53  78  98 118 146 183 227 277
#     4   9  16  29  48  73  98 120 147 188 230 271
#     4  10  19  30  42  65  94 122 160 205 236 265
#     4   8  17  31  48  69  93 116 150 191 231 277
#     4  10  18  31  48  65  88 125 160 193 232 273
#
# _framework density 18.130918999999999
#
# number of rings (size 3 to 8) (size 9 to 14) (size 15 to 20)
#    0.000    2.857    0.000    3.857    0.000    0.571 
#    0.000   10.714    0.000    0.857    0.000    6.000 
#    0.000    0.000    0.000    0.000    0.000    0.000 
#
# Total GULP energy -346872.458334 kJ/mol
# GULP energy per Si atom -12388.302083 kJ/mol
# Density = 1.808965 g / cm^3
# Si number density = 18.130919 Si / 1000 Ang^3
#
#
#
# Elastic Constant Matrix: (Units=GPa)
#
#
# Indices 1 2 3 4 5 6 
#
# 1 150.5676 30.9664 66.8689 0.0000 -29.9441 0.0000
# 2 30.9664 45.0702 22.7972 0.0000 -8.7300 0.0000
# 3 66.8689 22.7972 84.3807 0.0000 -32.9902 0.0000
# 4 0.0000 0.0000 0.0000 25.9780 0.0000 -7.2366
# 5 -29.9441 -8.7300 -32.9902 0.0000 28.4253 0.0000
# 6 0.0000 0.0000 0.0000 -7.2366 0.0000 17.5063
#
#
#
# Elastic Compliance Matrix: (Units=1/GPa)
#
#
# Indices 1 2 3 4 5 6 
#
# 1 0.010830 -0.003603 -0.006556 0.000000 0.002693 0.000000
# 2 -0.003603 0.026900 -0.004881 0.000000 -0.001199 0.000000
# 3 -0.006556 -0.004881 0.027604 0.000000 0.023632 0.000000
# 4 0.000000 0.000000 0.000000 0.043504 0.000000 0.017983
# 5 0.002693 -0.001199 0.023632 0.000000 0.065076 0.000000
# 6 0.000000 0.000000 0.000000 0.017983 0.000000 0.064556
#
#
# Mechanical properties :
#
#
# Convention : Reuss Voigt Hill
#
# Bulk Modulus (GPa) = 28.36527 57.92037 43.14282
# Shear Modulus (GPa) = 17.83796 25.00765 21.42280
#
# Velocity S-wave (km/s) = 3.14003 3.71790 3.44111
# Velocity P-wave (km/s) = 5.36889 7.10249 6.29565
#
# Compressibility (1/GPa) = 0.03525438
#
# Stress axis : x y z
#
# Youngs Moduli (GPa) = 92.33902 37.17497 36.22601
#
# Poissons Ratio (x) = 0.13394 0.23749
# Poissons Ratio (y) = 0.33270 0.17682
# Poissons Ratio (z) = 0.60535 0.18145
#
# Static dielectric constant tensor:
#      x y z
#    x 4.029510 0.000000 -0.260520 
#    y 0.000000 3.171050 0.000000 
#    z -0.260520 0.000000 3.312120 
# 
# 
# High freq. dielectric constant tensor:
#      x y z
#    x 1.700360 0.000000 -0.033380 
#    y 0.000000 1.684330 0.000000 
#    z -0.033380 0.000000 1.672590 
# 
# From -- ./inp_files/287889.got.cif
#   From: 2010.06.25/outbox.cif.g09.slc.cpg/sg12_144_cif.got.tgz:287889.got - 2010.06.28 00:19:55.
