data_PCOD8082699
_publ_section_title
;
Structure prediction by ZEFSAII (Michael W. Deem and Ramdas Pophale) SiO2 
 PCOD8082699
Probable space group: C 2/M
;
_chemical_formula_sum "Si O2"
_cell_formula_units_Z 64
_cell_length_a 28.269990
_cell_length_b 13.948700
_cell_length_c 9.072105
_cell_angle_alpha 90.000000
_cell_angle_beta 117.162747
_cell_angle_gamma 90.000000
_cell_volume 3182.860326
_symmetry_space_group_name_H-M "C 2/M"
_symmetry_group_IT_number 12
_symmetry_cell_setting 'monoclinic'
loop_
_space_group_symop_operation_xyz
x,y,z
-x,y,-z
-x,-y,-z
x,-y,z
1/2+x,1/2+y,z
1/2-x,1/2+y,-z
1/2-x,1/2-y,-z
1/2+x,1/2-y,z
loop_
_atom_site_type_symbol
_atom_site_label
_atom_site_fract_x
_atom_site_fract_y
_atom_site_fract_z
Si Si1 0.679981 0.101123 0.218968
Si Si2 0.900365 0.610882 0.643190
Si Si3 0.765757 0.859908 0.532765
Si Si4 0.127987 0.890948 0.442794
Si Si5 0.146174 0.276997 0.685937
Si Si6 0.143477 0.774482 0.996382
Si Si7 0.558393 0.282286 0.134268
Si Si8 0.751116 0.893062 0.833931
O O1 0.652493 0.127209 0.335910
O O2 0.741489 0.089502 0.353158
O O3 0.674593 0.179621 0.088373
O O4 0.658220 0.000000 0.124848
O O5 0.919297 0.500000 0.663880
O O6 0.888657 0.647714 0.460041
O O7 0.943128 0.675602 0.793865
O O8 0.750000 0.750000 0.500000
O O9 0.828444 0.879938 0.624259
O O10 0.743174 0.905432 0.648652
O O11 0.148958 0.823767 0.604199
O O12 0.074028 0.854684 0.288708
O O13 0.120570 0.000000 0.487708
O O14 0.204136 0.319635 0.814474
O O15 0.117573 0.249836 0.800194
O O16 0.097012 0.795554 0.047620
O O17 0.189152 0.855556 0.045489
O O18 0.500000 0.310189 0.000000
O O19 0.744044 0.000000 0.895039
#
# Coordination Sequence:
#
# PCOD8082699 Si02
#       8
#     8   8   8   8   8   8   8   8
#     4  10  18  31  54  81 110 148 192 231 270 328
#     4   9  18  35  59  84 111 146 186 231 284 342
#     4  12  17  32  56  82 114 149 195 236 271 328
#     4  11  22  38  60  83 110 150 196 237 280 336
#     4  11  22  37  56  84 123 153 182 226 284 353
#     4  11  23  38  55  84 120 153 191 235 284 337
#     4  10  22  41  63  86 110 144 196 251 291 326
#     4  12  22  34  55  84 119 159 192 225 276 339
#
# _framework density 20.107699
#
# number of rings (size 3 to 8) (size 9 to 14) (size 15 to 20)
#    0.000    1.250    5.000    2.625    0.000    2.000 
#    0.000    2.500    0.000    1.500    0.000    0.000 
#    0.000    0.000    0.000    0.000    0.000    0.000 
#
# Total GULP energy -396447.341530 kJ/mol
# GULP energy per Si atom -12388.979423 kJ/mol
# Density = 2.006193 g / cm^3
# Si number density = 20.107699 Si / 1000 Ang^3
#
#
#
# Elastic Constant Matrix: (Units=GPa)
#
#
# Indices 1 2 3 4 5 6 
#
# 1 55.3063 20.5424 34.4501 0.0000 11.3436 0.0000
# 2 20.5424 148.7260 34.1218 0.0000 3.3687 0.0000
# 3 34.4501 34.1218 89.1108 0.0000 -3.4026 0.0000
# 4 0.0000 0.0000 0.0000 3.4412 0.0000 3.5775
# 5 11.3436 3.3687 -3.4026 0.0000 32.4890 0.0000
# 6 0.0000 0.0000 0.0000 3.5775 0.0000 12.3084
#
#
#
# Elastic Compliance Matrix: (Units=1/GPa)
#
#
# Indices 1 2 3 4 5 6 
#
# 1 0.027167 -0.001112 -0.010477 0.000000 -0.010467 0.000000
# 2 -0.001112 0.007454 -0.002449 0.000000 -0.000641 0.000000
# 3 -0.010477 -0.002449 0.016425 0.000000 0.005632 0.000000
# 4 0.000000 0.000000 0.000000 0.416435 0.000000 -0.121040
# 5 -0.010467 -0.000641 0.005632 0.000000 0.035091 0.000000
# 6 0.000000 0.000000 0.000000 -0.121040 0.000000 0.116427
#
#
# Mechanical properties :
#
#
# Convention : Reuss Voigt Hill
#
# Bulk Modulus (GPa) = 43.53280 52.37464 47.95372
# Shear Modulus (GPa) = 7.63674 23.24963 15.44319
#
# Velocity S-wave (km/s) = 1.95094 3.40406 2.77433
# Velocity P-wave (km/s) = 5.17414 6.44622 5.84489
#
# Compressibility (1/GPa) = 0.02297119
#
# Stress axis : x y z
#
# Youngs Moduli (GPa) = 36.80961 134.16212 60.88273
#
# Poissons Ratio (x) = 0.14914 0.63785
# Poissons Ratio (y) = 0.04092 0.14909
# Poissons Ratio (z) = 0.38564 0.32854
#
# Static dielectric constant tensor:
#      x y z
#    x 3.246030 0.000000 -0.019120 
#    y 0.000000 3.959590 0.000000 
#    z -0.019120 0.000000 3.619300 
# 
# 
# High freq. dielectric constant tensor:
#      x y z
#    x 1.732740 0.000000 -0.004160 
#    y 0.000000 1.796780 0.000000 
#    z -0.004160 0.000000 1.781590 
# 
# From -- ./inp_files/104688.got.cif
#   From: 2010.06.25/outbox.cif.g09.slc.cpg/sg12_53_cif.got.tgz:104688.got - 2010.06.28 00:19:55.
