data_PCOD8082769
_publ_section_title
;
Structure prediction by ZEFSAII (Michael W. Deem and Ramdas Pophale) SiO2 
 PCOD8082769
Probable space group: C 2/M
;
_chemical_formula_sum "Si O2"
_cell_formula_units_Z 64
_cell_length_a 15.474033
_cell_length_b 8.603503
_cell_length_c 32.819675
_cell_angle_alpha 90.000000
_cell_angle_beta 133.204519
_cell_angle_gamma 90.000000
_cell_volume 3184.855836
_symmetry_space_group_name_H-M "C 2/M"
_symmetry_group_IT_number 12
_symmetry_cell_setting 'monoclinic'
loop_
_space_group_symop_operation_xyz
x,y,z
-x,y,-z
-x,-y,-z
x,-y,z
1/2+x,1/2+y,z
1/2-x,1/2+y,-z
1/2-x,1/2-y,-z
1/2+x,1/2-y,z
loop_
_atom_site_type_symbol
_atom_site_label
_atom_site_fract_x
_atom_site_fract_y
_atom_site_fract_z
Si Si1 0.773560 0.183717 0.123566
Si Si2 0.838495 0.684007 0.995954
Si Si3 0.170304 0.183257 0.385067
Si Si4 0.092641 0.315944 0.497422
Si Si5 0.930366 0.684365 0.885724
Si Si6 0.474936 0.183487 0.810235
Si Si7 0.978500 0.683212 0.377128
Si Si8 0.728860 0.183173 0.316808
O O1 0.700779 0.245695 0.060903
O O2 0.698339 0.235103 0.139012
O O3 0.901445 0.260208 0.168295
O O4 0.789980 0.000000 0.126607
O O5 0.834034 0.500000 0.995375
O O6 0.750000 0.750000 0.000000
O O7 0.969817 0.743577 0.050225
O O8 0.275529 0.241788 0.448940
O O9 0.049726 0.269871 0.359377
O O10 0.206391 0.225415 0.351077
O O11 0.150139 0.000000 0.381658
O O12 0.087828 0.500000 0.498995
O O13 0.056686 0.259654 0.440876
O O14 0.000000 0.243999 0.500000
O O15 0.936982 0.500000 0.885144
O O16 0.952300 0.756166 0.847906
O O17 0.370659 0.239236 0.747005
O O18 0.477638 0.000000 0.814179
O O19 0.954719 0.500000 0.370427
O O20 0.854259 0.771907 0.337706
O O21 0.723445 0.000000 0.323343
#
# Coordination Sequence:
#
# PCOD8082769 Si02
#       8
#     8   8   8   8   8   8   8   8
#     4  10  20  34  57  87 112 143 190 233 276 341
#     4  10  18  31  55  83 113 146 183 226 278 339
#     4  11  22  39  63  89 120 156 194 240 295 351
#     4   9  17  34  60  89 119 153 191 232 287 355
#     4   9  18  35  57  80 111 149 182 222 280 339
#     4  10  22  40  59  79 110 150 189 236 287 336
#     4  11  22  39  63  90 122 155 191 240 295 350
#     4  11  24  41  59  84 116 155 206 249 291 347
#
# _framework density 20.095102000000001
#
# number of rings (size 3 to 8) (size 9 to 14) (size 15 to 20)
#    0.000    1.875    2.500    1.875    0.000    3.500 
#    0.000    5.000    0.000    1.500    0.000    0.000 
#    0.000    0.000    0.000    0.000    0.000    0.000 
#
# Total GULP energy -396814.288535 kJ/mol
# GULP energy per Si atom -12400.446517 kJ/mol
# Density = 2.004936 g / cm^3
# Si number density = 20.095102 Si / 1000 Ang^3
#
#
#
# Elastic Constant Matrix: (Units=GPa)
#
#
# Indices 1 2 3 4 5 6 
#
# 1 132.9588 2.4237 48.4988 0.0000 22.5729 0.0000
# 2 2.4237 18.6847 24.0009 0.0000 1.7815 0.0000
# 3 48.4988 24.0009 122.5557 0.0000 29.5446 0.0000
# 4 0.0000 0.0000 0.0000 20.2522 0.0000 0.6151
# 5 22.5729 1.7815 29.5446 0.0000 21.5528 0.0000
# 6 0.0000 0.0000 0.0000 0.6151 0.0000 32.1985
#
#
#
# Elastic Compliance Matrix: (Units=1/GPa)
#
#
# Indices 1 2 3 4 5 6 
#
# 1 0.009589 0.003020 -0.002845 0.000000 -0.006393 0.000000
# 2 0.003020 0.078632 -0.021305 0.000000 0.019543 0.000000
# 3 -0.002845 -0.021305 0.018393 0.000000 -0.020473 0.000000
# 4 0.000000 0.000000 0.000000 0.049406 0.000000 -0.000944
# 5 -0.006393 0.019543 -0.020473 0.000000 0.079542 0.000000
# 6 0.000000 0.000000 0.000000 -0.000944 0.000000 0.031075
#
#
# Mechanical properties :
#
#
# Convention : Reuss Voigt Hill
#
# Bulk Modulus (GPa) = 15.53911 47.11623 31.32767
# Shear Modulus (GPa) = 15.13550 28.08575 21.61063
#
# Velocity S-wave (km/s) = 2.74741 3.74256 3.28291
# Velocity P-wave (km/s) = 4.22066 6.49409 5.47664
#
# Compressibility (1/GPa) = 0.06435375
#
# Stress axis : x y z
#
# Youngs Moduli (GPa) = 104.28432 12.71747 54.36796
#
# Poissons Ratio (x) = -0.03841 0.15468
# Poissons Ratio (y) = -0.31497 1.15833
# Poissons Ratio (z) = 0.29670 0.27095
#
# Static dielectric constant tensor:
#      x y z
#    x 3.752330 0.000000 -0.012750 
#    y 0.000000 3.301020 0.000000 
#    z -0.012750 0.000000 4.011730 
# 
# 
# High freq. dielectric constant tensor:
#      x y z
#    x 1.800000 0.000000 0.002990 
#    y 0.000000 1.754300 0.000000 
#    z 0.002990 0.000000 1.785290 
# 
# From -- ./inp_files/375668.got.cif
#   From: 2010.06.25/outbox.cif.g09.slc.cpg/sg12_188_cif.got.tgz:375668.got - 2010.06.28 00:19:55.
