data_PCOD8082642
_publ_section_title
;
Structure prediction by ZEFSAII (Michael W. Deem and Ramdas Pophale) SiO2 
 PCOD8082642
Probable space group: C 2/M
;
_chemical_formula_sum "Si O2"
_cell_formula_units_Z 40
_cell_length_a 16.196058
_cell_length_b 14.130201
_cell_length_c 19.150240
_cell_angle_alpha 90.000000
_cell_angle_beta 158.093527
_cell_angle_gamma 90.000000
_cell_volume 1635.115828
_symmetry_space_group_name_H-M "C 2/M"
_symmetry_group_IT_number 12
_symmetry_cell_setting 'monoclinic'
loop_
_space_group_symop_operation_xyz
x,y,z
-x,y,-z
-x,-y,-z
x,-y,z
1/2+x,1/2+y,z
1/2-x,1/2+y,-z
1/2-x,1/2-y,-z
1/2+x,1/2-y,z
loop_
_atom_site_type_symbol
_atom_site_label
_atom_site_fract_x
_atom_site_fract_y
_atom_site_fract_z
Si Si1 0.806718 0.610089 0.797300
Si Si2 0.596379 0.607936 0.856656
Si Si3 0.073093 0.608549 0.266360
Si Si4 0.109743 0.606643 0.512777
Si Si5 0.977510 0.212538 0.628848
O O1 0.761338 0.500000 0.771396
O O2 0.872897 0.635082 0.770864
O O3 0.581096 0.662247 0.641999
O O4 0.000000 0.645960 0.000000
O O5 0.615234 0.500000 0.842188
O O6 0.375218 0.620635 0.729136
O O7 0.601526 0.680206 0.795891
O O8 0.811873 0.629254 0.073363
O O9 0.133793 0.500000 0.331708
O O10 0.218439 0.678031 0.429793
O O11 0.052344 0.500000 0.443994
O O12 0.011345 0.674576 0.375523
O O13 0.000000 0.631513 0.500000
#
# Coordination Sequence:
#
# PCOD8082642 Si02
#       5
#     8   8   8   8   8
#     4  10  18  31  53  87 129 162 186 231 304 375
#     4  10  21  39  63  93 127 157 193 253 314 364
#     4  10  20  33  56  93 129 160 192 238 308 380
#     4  10  23  43  64  84 117 167 216 258 299 345
#     4  12  21  36  63  92 119 160 205 249 301 366
#
# _framework density 24.463099
#
# number of rings (size 3 to 8) (size 9 to 14) (size 15 to 20)
#    0.000    1.600    2.000    4.200    0.000    2.400 
#    0.000    0.000    0.000    1.800    0.000    0.000 
#    0.000    0.000    0.000    0.000    0.000    0.000 
#
# Total GULP energy -248066.126627 kJ/mol
# GULP energy per Si atom -12403.306331 kJ/mol
# Density = 2.440742 g / cm^3
# Si number density = 24.463099 Si / 1000 Ang^3
#
#
#
# Elastic Constant Matrix: (Units=GPa)
#
#
# Indices 1 2 3 4 5 6 
#
# 1 82.7637 30.5948 13.9615 0.0017 20.2234 0.0036
# 2 30.5948 130.8249 43.1483 -0.0195 -3.5037 0.0158
# 3 13.9615 43.1483 104.2241 0.0092 4.5998 0.0160
# 4 0.0017 -0.0195 0.0092 32.5165 0.0098 -2.6134
# 5 20.2234 -3.5037 4.5998 0.0098 41.2640 0.0109
# 6 0.0036 0.0158 0.0160 -2.6134 0.0109 2.4777
#
#
#
# Elastic Compliance Matrix: (Units=1/GPa)
#
#
# Indices 1 2 3 4 5 6 
#
# 1 0.015422 -0.003764 -0.000161 0.000003 -0.007860 0.000040
# 2 -0.003764 0.009827 -0.003701 0.000003 0.003092 -0.000044
# 3 -0.000161 -0.003701 0.011214 -0.000009 -0.001486 -0.000051
# 4 0.000003 0.000003 -0.000009 0.033602 -0.000017 0.035443
# 5 -0.007860 0.003092 -0.001486 -0.000017 0.028514 -0.000142
# 6 0.000040 -0.000044 -0.000051 0.035443 -0.000142 0.440986
#
#
# Mechanical properties :
#
#
# Convention : Reuss Voigt Hill
#
# Bulk Modulus (GPa) = 47.14288 54.80245 50.97267
# Shear Modulus (GPa) = 8.89858 30.59218 19.74538
#
# Velocity S-wave (km/s) = 1.90931 3.54014 2.84412
# Velocity P-wave (km/s) = 4.91665 6.25786 5.62736
#
# Compressibility (1/GPa) = 0.02121211
#
# Stress axis : x y z
#
# Youngs Moduli (GPa) = 64.84382 101.75588 89.17509
#
# Poissons Ratio (x) = 0.38301 0.01433
# Poissons Ratio (y) = 0.24407 0.33001
# Poissons Ratio (z) = 0.01042 0.37657
#
# Static dielectric constant tensor:
#      x y z
#    x 4.365570 -0.000110 0.386440 
#    y -0.000110 4.535520 -0.000190 
#    z 0.386440 -0.000190 4.555520 
# 
# 
# High freq. dielectric constant tensor:
#      x y z
#    x 1.974520 -0.000010 0.019730 
#    y -0.000010 1.978470 -0.000020 
#    z 0.019730 -0.000020 1.965240 
# 
# From -- ./inp_files/316832.got.cif
#   From: 2010.06.25/outbox.cif.g09.slc.cpg/sg12_159_cif.got.tgz:316832.got - 2010.06.28 00:19:55.
