data_PCOD8082767
_publ_section_title
;
Structure prediction by ZEFSAII (Michael W. Deem and Ramdas Pophale) SiO2 
 PCOD8082767
Probable space group: C 2/M
;
_chemical_formula_sum "Si O2"
_cell_formula_units_Z 64
_cell_length_a 18.535723
_cell_length_b 22.124499
_cell_length_c 17.470027
_cell_angle_alpha 90.000000
_cell_angle_beta 29.615895
_cell_angle_gamma 90.000000
_cell_volume 3540.498451
_symmetry_space_group_name_H-M "C 2/M"
_symmetry_group_IT_number 12
_symmetry_cell_setting 'monoclinic'
loop_
_space_group_symop_operation_xyz
x,y,z
-x,y,-z
-x,-y,-z
x,-y,z
1/2+x,1/2+y,z
1/2-x,1/2+y,-z
1/2-x,1/2-y,-z
1/2+x,1/2-y,z
loop_
_atom_site_type_symbol
_atom_site_label
_atom_site_fract_x
_atom_site_fract_y
_atom_site_fract_z
Si Si1 0.698084 0.428900 0.519547
Si Si2 0.216544 0.567253 0.178661
Si Si3 0.381669 0.645685 0.546652
Si Si4 0.046044 0.740939 0.369019
Si Si5 0.293140 0.637874 0.255455
Si Si6 0.169170 0.269286 0.823489
Si Si7 0.430341 0.876098 0.408414
Si Si8 0.999419 0.067960 0.840112
O O1 0.735670 0.500000 0.486590
O O2 0.657914 0.410403 0.470535
O O3 0.836194 0.388258 0.418889
O O4 0.560529 0.412229 0.701012
O O5 0.234952 0.500000 0.197542
O O6 0.245399 0.619195 0.214521
O O7 0.055383 0.573621 0.293847
O O8 0.324714 0.574835 0.006033
O O9 0.500000 0.623068 0.500000
O O10 0.456511 0.699292 0.428355
O O11 0.232621 0.671692 0.721945
O O12 0.220875 0.755163 0.206060
O O13 0.000000 0.722531 0.500000
O O14 0.003803 0.690387 0.345529
O O15 0.319987 0.709528 0.239315
O O16 0.170075 0.613428 0.425629
O O17 0.443767 0.607119 0.140837
O O18 0.000000 0.281852 0.000000
O O19 0.051678 0.000000 0.807484
#
# Coordination Sequence:
#
# PCOD8082767 Si02
#       8
#     8   8   8   8   8   8   8   8
#     4  10  22  39  58  78 104 139 181 225 270 324
#     4  11  20  29  47  74 109 154 188 215 251 299
#     4   9  20  39  62  81  99 134 173 226 282 330
#     4   9  16  33  51  78 109 142 177 211 254 308
#     4  11  18  29  49  73 107 153 188 218 247 299
#     4  10  18  31  55  83 110 133 174 227 267 305
#     4  11  19  32  49  76 114 146 179 213 259 310
#     4   9  20  34  46  72 109 143 186 229 259 294
#
# _framework density 18.076550999999998
#
# number of rings (size 3 to 8) (size 9 to 14) (size 15 to 20)
#    0.000    2.250    3.750    2.250    0.000    3.750 
#    0.000    2.500    0.000    1.875    0.000    0.000 
#    0.000    0.000    0.000    0.000    0.000    0.000 
#
# Total GULP energy -396540.245040 kJ/mol
# GULP energy per Si atom -12391.882657 kJ/mol
# Density = 1.803541 g / cm^3
# Si number density = 18.076551 Si / 1000 Ang^3
#
#
#
# Elastic Constant Matrix: (Units=GPa)
#
#
# Indices 1 2 3 4 5 6 
#
# 1 88.6348 38.2272 41.6664 -0.0091 -5.7913 -0.0003
# 2 38.2272 51.7915 20.9613 -0.0059 -2.0022 -0.0010
# 3 41.6664 20.9613 112.4236 -0.0102 -26.8991 0.0144
# 4 -0.0091 -0.0059 -0.0102 15.2079 0.0216 -0.7248
# 5 -5.7913 -2.0022 -26.8991 0.0216 19.5077 -0.0109
# 6 -0.0003 -0.0010 0.0144 -0.7248 -0.0109 30.9383
#
#
#
# Elastic Compliance Matrix: (Units=1/GPa)
#
#
# Indices 1 2 3 4 5 6 
#
# 1 0.018719 -0.011701 -0.005542 0.000008 -0.003286 0.000001
# 2 -0.011701 0.028505 -0.001656 0.000007 -0.002831 0.000001
# 3 -0.005542 -0.001656 0.016152 -0.000022 0.020457 -0.000001
# 4 0.000008 0.000007 -0.000022 0.065829 -0.000100 0.001542
# 5 -0.003286 -0.002831 0.020457 -0.000100 0.078204 0.000015
# 6 0.000001 0.000001 -0.000001 0.001542 0.000015 0.032359
#
#
# Mechanical properties :
#
#
# Convention : Reuss Voigt Hill
#
# Bulk Modulus (GPa) = 39.09366 50.50661 44.80013
# Shear Modulus (GPa) = 17.47688 23.26378 20.37033
#
# Velocity S-wave (km/s) = 3.11276 3.59131 3.36056
# Velocity P-wave (km/s) = 5.88155 6.72293 6.31627
#
# Compressibility (1/GPa) = 0.02557960
#
# Stress axis : x y z
#
# Youngs Moduli (GPa) = 53.42086 35.08159 61.91000
#
# Poissons Ratio (x) = 0.41047 0.34313
# Poissons Ratio (y) = 0.62505 0.10250
# Poissons Ratio (z) = 0.29608 0.05808
#
# Static dielectric constant tensor:
#      x y z
#    x 3.012440 -0.000020 -0.297220 
#    y -0.000020 3.205310 0.000050 
#    z -0.297220 0.000050 3.427720 
# 
# 
# High freq. dielectric constant tensor:
#      x y z
#    x 1.660020 0.000000 -0.029350 
#    y 0.000000 1.691090 0.000010 
#    z -0.029350 0.000010 1.698430 
# 
# From -- ./inp_files/279368.got.cif
#   From: 2010.06.25/outbox.cif.g09.slc.cpg/sg12_140_cif.got.tgz:279368.got - 2010.06.28 00:19:55.
