data_PCOD8082363
_publ_section_title
;
Structure prediction by ZEFSAII (Michael W. Deem and Ramdas Pophale) SiO2 
 PCOD8082363
Probable space group: C 2/M
;
_chemical_formula_sum "Si O2"
_cell_formula_units_Z 56
_cell_length_a 29.963998
_cell_length_b 14.128999
_cell_length_c 9.558122
_cell_angle_alpha 90.000000
_cell_angle_beta 46.771456
_cell_angle_gamma 90.000000
_cell_volume 2948.419566
_symmetry_space_group_name_H-M "C 2/M"
_symmetry_group_IT_number 12
_symmetry_cell_setting 'monoclinic'
loop_
_space_group_symop_operation_xyz
x,y,z
-x,y,-z
-x,-y,-z
x,-y,z
1/2+x,1/2+y,z
1/2-x,1/2+y,-z
1/2-x,1/2-y,-z
1/2+x,1/2-y,z
loop_
_atom_site_type_symbol
_atom_site_label
_atom_site_fract_x
_atom_site_fract_y
_atom_site_fract_z
Si Si1 0.964617 0.704725 0.323631
Si Si2 0.147039 0.106084 0.081904
Si Si3 0.721425 0.107929 0.278851
Si Si4 0.142234 0.708067 0.237276
Si Si5 0.987319 0.893836 0.690345
Si Si6 0.405747 0.110397 0.924303
Si Si7 0.118666 0.609622 0.709455
O O1 0.917105 0.678261 0.547250
O O2 0.936573 0.672129 0.235879
O O3 0.976619 0.817913 0.292932
O O4 0.025657 0.648890 0.229766
O O5 0.205752 0.122491 0.854405
O O6 0.148191 0.000000 0.144040
O O7 0.147769 0.178494 0.210457
O O8 0.085222 0.119607 0.124297
O O9 0.702357 0.171056 0.186929
O O10 0.683796 0.136874 0.498805
O O11 0.706125 0.000000 0.273020
O O12 0.137473 0.662674 0.093901
O O13 0.000000 0.873114 0.500000
O O14 0.008845 0.000000 0.684425
O O15 0.406961 0.000000 0.887334
O O16 0.375884 0.132054 0.138923
O O17 0.101720 0.500000 0.720314
#
# Coordination Sequence:
#
# PCOD8082363 Si02
#       7
#     8   8   8   8   8   8   8
#     4  11  19  32  52  77 107 136 171 211 255 304
#     4  10  19  33  54  77 104 138 173 211 259 308
#     4   9  19  35  54  78 105 136 172 213 255 303
#     4  11  20  32  52  81 107 132 169 218 259 299
#     4  10  18  31  51  78 106 133 171 216 259 304
#     4  11  21  33  51  77 107 140 171 207 259 314
#     4   9  20  36  53  75 106 142 173 204 254 317
#
# _framework density 18.993224999999999
#
# number of rings (size 3 to 8) (size 9 to 14) (size 15 to 20)
#    0.000    1.857    2.857    2.143    0.000    3.429 
#    0.000    0.714    0.000    2.571    0.000    0.000 
#    0.000    0.000    0.000    0.000    0.000    0.000 
#
# Total GULP energy -347187.357992 kJ/mol
# GULP energy per Si atom -12399.548500 kJ/mol
# Density = 1.895000 g / cm^3
# Si number density = 18.993225 Si / 1000 Ang^3
#
#
#
# Elastic Constant Matrix: (Units=GPa)
#
#
# Indices 1 2 3 4 5 6 
#
# 1 66.7850 35.4639 43.0562 0.0000 -0.7677 0.0000
# 2 35.4639 99.1098 31.8972 0.0000 8.2178 0.0000
# 3 43.0562 31.8972 83.3306 0.0000 -3.2144 0.0000
# 4 0.0000 0.0000 0.0000 22.7449 0.0000 -3.8229
# 5 -0.7677 8.2178 -3.2144 0.0000 29.0961 0.0000
# 6 0.0000 0.0000 0.0000 -3.8229 0.0000 20.7306
#
#
#
# Elastic Compliance Matrix: (Units=1/GPa)
#
#
# Indices 1 2 3 4 5 6 
#
# 1 0.024788 -0.005528 -0.010652 0.000000 0.001038 0.000000
# 2 -0.005528 0.013163 -0.002341 0.000000 -0.004122 0.000000
# 3 -0.010652 -0.002341 0.018494 0.000000 0.002423 0.000000
# 4 0.000000 0.000000 0.000000 0.045372 0.000000 0.008367
# 5 0.001038 -0.004122 0.002423 0.000000 0.035828 0.000000
# 6 0.000000 0.000000 0.000000 0.008367 0.000000 0.049781
#
#
# Mechanical properties :
#
#
# Convention : Reuss Voigt Hill
#
# Bulk Modulus (GPa) = 51.53841 52.22887 51.88364
# Shear Modulus (GPa) = 21.65108 23.76819 22.70964
#
# Velocity S-wave (km/s) = 3.37996 3.54136 3.46160
# Velocity P-wave (km/s) = 6.51354 6.65432 6.58431
#
# Compressibility (1/GPa) = 0.01940300
#
# Stress axis : x y z
#
# Youngs Moduli (GPa) = 40.34247 75.96971 54.07224
#
# Poissons Ratio (x) = 0.41994 0.57596
# Poissons Ratio (y) = 0.22300 0.12661
# Poissons Ratio (z) = 0.42972 0.17788
#
# Static dielectric constant tensor:
#      x y z
#    x 3.258460 0.000000 -0.219510 
#    y 0.000000 3.693900 0.000000 
#    z -0.219510 0.000000 3.585850 
# 
# 
# High freq. dielectric constant tensor:
#      x y z
#    x 1.705990 0.000000 -0.023720 
#    y 0.000000 1.748620 0.000000 
#    z -0.023720 0.000000 1.736830 
# 
# From -- ./inp_files/86379.got.cif
#   From: 2010.06.25/outbox.cif.g09.slc.cpg/sg12_44_cif.got.tgz:86379.got - 2010.06.28 00:19:55.
