data_PCOD8082427
_publ_section_title
;
Structure prediction by ZEFSAII (Michael W. Deem and Ramdas Pophale) SiO2 
 PCOD8082427
Probable space group: C 2/M
;
_chemical_formula_sum "Si O2"
_cell_formula_units_Z 48
_cell_length_a 22.632475
_cell_length_b 7.740206
_cell_length_c 24.897436
_cell_angle_alpha 90.000000
_cell_angle_beta 142.051210
_cell_angle_gamma 90.000000
_cell_volume 2682.155083
_symmetry_space_group_name_H-M "C 2/M"
_symmetry_group_IT_number 12
_symmetry_cell_setting 'monoclinic'
loop_
_space_group_symop_operation_xyz
x,y,z
-x,y,-z
-x,-y,-z
x,-y,z
1/2+x,1/2+y,z
1/2-x,1/2+y,-z
1/2-x,1/2-y,-z
1/2+x,1/2-y,z
loop_
_atom_site_type_symbol
_atom_site_label
_atom_site_fract_x
_atom_site_fract_y
_atom_site_fract_z
Si Si1 0.378982 0.796133 0.550015
Si Si2 0.656252 0.500000 0.109013
Si Si3 0.092325 0.691180 0.204098
Si Si4 0.961472 0.802644 0.417572
Si Si5 0.995502 0.000000 0.084004
Si Si6 0.167379 0.199892 0.368221
Si Si7 0.755107 0.201296 0.235487
O O1 0.461564 0.710216 0.574343
O O2 0.275946 0.731244 0.454369
O O3 0.393175 0.733018 0.621161
O O4 0.387577 0.000000 0.552730
O O5 0.570669 0.500000 0.089959
O O6 0.717828 0.324148 0.160600
O O7 0.612184 0.500000 0.017344
O O8 0.052564 0.500000 0.161922
O O9 0.117810 0.695914 0.285033
O O10 0.189155 0.728701 0.240373
O O11 0.009921 0.829130 0.130564
O O12 0.860003 0.724130 0.326116
O O13 0.000000 0.710991 0.500000
O O14 0.939468 0.000000 0.415706
O O15 0.167335 0.000000 0.352616
O O16 0.755803 0.000000 0.217018
#
# Coordination Sequence:
#
# PCOD8082427 Si02
#       7
#     8   4   8   8   4   8   8
#     4  10  21  32  47  72  99 135 175 207 248 293
#     4   9  18  32  51  70 106 134 161 212 253 306
#     4  10  18  31  52  75 103 133 166 207 255 301
#     4  10  20  34  49  70 103 137 175 209 244 292
#     4   9  18  32  48  78 102 128 167 206 259 307
#     4  10  19  33  49  69 103 135 168 212 252 293
#     4   9  19  32  49  74 103 138 172 203 250 301
#
# _framework density 17.896056999999999
#
# number of rings (size 3 to 8) (size 9 to 14) (size 15 to 20)
#    0.000    2.333    0.833    2.000    1.167    4.333 
#    0.000    3.333    0.000    0.000    0.000    1.167 
#    0.000    0.000    0.000    0.000    0.000    0.000 
#
# Total GULP energy -297588.825945 kJ/mol
# GULP energy per Si atom -12399.534414 kJ/mol
# Density = 1.785532 g / cm^3
# Si number density = 17.896057 Si / 1000 Ang^3
#
#
#
# Elastic Constant Matrix: (Units=GPa)
#
#
# Indices 1 2 3 4 5 6 
#
# 1 75.0134 15.8834 45.1033 0.0000 -5.3787 0.0001
# 2 15.8834 84.8536 53.1578 0.0000 -4.8535 0.0003
# 3 45.1033 53.1578 144.9369 0.0000 -10.0798 0.0000
# 4 0.0000 0.0000 0.0000 21.5186 0.0000 -1.4703
# 5 -5.3787 -4.8535 -10.0798 0.0000 19.8357 0.0000
# 6 0.0001 0.0003 0.0000 -1.4703 0.0000 19.6603
#
#
#
# Elastic Compliance Matrix: (Units=1/GPa)
#
#
# Indices 1 2 3 4 5 6 
#
# 1 0.016473 0.000200 -0.005065 0.000000 0.001942 0.000000
# 2 0.000200 0.015319 -0.005615 0.000000 0.000949 0.000000
# 3 -0.005065 -0.005615 0.010723 0.000000 0.002702 0.000000
# 4 0.000000 0.000000 0.000000 0.046710 0.000000 0.003493
# 5 0.001942 0.000949 0.002702 0.000000 0.052546 0.000000
# 6 0.000000 0.000000 0.000000 0.003493 0.000000 0.051125
#
#
# Mechanical properties :
#
#
# Convention : Reuss Voigt Hill
#
# Bulk Modulus (GPa) = 46.38896 59.23253 52.81075
# Shear Modulus (GPa) = 22.62025 24.91354 23.76689
#
# Velocity S-wave (km/s) = 3.55911 3.73517 3.64820
# Velocity P-wave (km/s) = 6.54731 7.19527 6.87892
#
# Compressibility (1/GPa) = 0.02155685
#
# Stress axis : x y z
#
# Youngs Moduli (GPa) = 60.70521 65.27688 93.25817
#
# Poissons Ratio (x) = -0.01308 0.47233
# Poissons Ratio (y) = -0.01217 0.52364
# Poissons Ratio (z) = 0.30746 0.36653
#
# Static dielectric constant tensor:
#      x y z
#    x 3.019820 0.000000 -0.056180 
#    y 0.000000 3.389980 0.000000 
#    z -0.056180 0.000000 3.421450 
# 
# 
# High freq. dielectric constant tensor:
#      x y z
#    x 1.659380 0.000000 -0.010270 
#    y 0.000000 1.703930 0.000000 
#    z -0.010270 0.000000 1.679020 
# 
# From -- ./inp_files/345718.got.cif
#   From: 2010.06.25/outbox.cif.g09.slc.cpg/sg12_173_cif.got.tgz:345718.got - 2010.06.28 00:19:55.
