data_PCOD8082189
_publ_section_title
;
Structure prediction by ZEFSAII (Michael W. Deem and Ramdas Pophale) SiO2 
 PCOD8082189
Probable space group: C 2/M
;
_chemical_formula_sum "Si O2"
_cell_formula_units_Z 48
_cell_length_a 27.264842
_cell_length_b 8.563154
_cell_length_c 23.451777
_cell_angle_alpha 90.000000
_cell_angle_beta 149.399162
_cell_angle_gamma 90.000000
_cell_volume 2787.252759
_symmetry_space_group_name_H-M "C 2/M"
_symmetry_group_IT_number 12
_symmetry_cell_setting 'monoclinic'
loop_
_space_group_symop_operation_xyz
x,y,z
-x,y,-z
-x,-y,-z
x,-y,z
1/2+x,1/2+y,z
1/2-x,1/2+y,-z
1/2-x,1/2-y,-z
1/2+x,1/2-y,z
loop_
_atom_site_type_symbol
_atom_site_label
_atom_site_fract_x
_atom_site_fract_y
_atom_site_fract_z
Si Si1 0.645917 0.315358 0.667587
Si Si2 0.139034 0.315894 0.112660
Si Si3 0.354864 0.181117 0.671904
Si Si4 0.539188 0.681598 0.120299
Si Si5 0.464006 0.315243 0.553251
Si Si6 0.348136 0.181716 0.535184
O O1 0.648589 0.500000 0.665837
O O2 0.752518 0.250248 0.786858
O O3 0.573002 0.266186 0.645213
O O4 0.607336 0.254528 0.567999
O O5 0.133225 0.500000 0.096177
O O6 0.104705 0.279887 0.142350
O O7 0.072380 0.228845 0.999763
O O8 0.429310 0.279929 0.784058
O O9 0.375763 0.226750 0.627404
O O10 0.245266 0.222640 0.578687
O O11 0.372310 0.000000 0.701514
O O12 0.552476 0.500000 0.120463
O O13 0.455619 0.500000 0.554020
O O14 0.437875 0.227278 0.585355
O O15 0.323407 0.000000 0.505848
#
# Coordination Sequence:
#
# PCOD8082189 Si02
#       6
#     8   8   8   8   8   8
#     4   8  16  29  48  72  95 125 162 193 222 273
#     4  10  18  31  50  71  97 130 163 191 231 284
#     4  10  20  34  50  68  94 128 160 191 233 285
#     4  11  21  32  47  71  99 124 157 200 241 278
#     4   9  16  30  50  71  97 127 158 190 229 277
#     4  10  20  32  48  73  99 122 154 195 237 281
#
# _framework density 17.221257999999999
#
# number of rings (size 3 to 8) (size 9 to 14) (size 15 to 20)
#    0.000    2.333    0.000    6.000    0.000    3.333 
#    0.000    4.167    0.000    1.000    0.000    0.000 
#    0.000    0.000    0.000    0.000    0.000    0.000 
#
# Total GULP energy -297612.809093 kJ/mol
# GULP energy per Si atom -12400.533712 kJ/mol
# Density = 1.718206 g / cm^3
# Si number density = 17.221258 Si / 1000 Ang^3
#
#
#
# Elastic Constant Matrix: (Units=GPa)
#
#
# Indices 1 2 3 4 5 6 
#
# 1 103.8333 15.3889 57.8066 0.0000 8.1912 0.0000
# 2 15.3889 41.9587 23.0248 0.0000 -3.7832 0.0000
# 3 57.8066 23.0248 129.4785 0.0000 7.5449 0.0000
# 4 0.0000 0.0000 0.0000 20.9251 0.0000 -3.3497
# 5 8.1912 -3.7832 7.5449 0.0000 28.1348 0.0000
# 6 0.0000 0.0000 0.0000 -3.3497 0.0000 23.4117
#
#
#
# Elastic Compliance Matrix: (Units=1/GPa)
#
#
# Indices 1 2 3 4 5 6 
#
# 1 0.013122 -0.002133 -0.005323 0.000000 -0.002680 0.000000
# 2 -0.002133 0.027435 -0.004244 0.000000 0.005448 0.000000
# 3 -0.005323 -0.004244 0.010969 0.000000 -0.001962 0.000000
# 4 0.000000 0.000000 0.000000 0.048910 0.000000 0.006998
# 5 -0.002680 0.005448 -0.001962 0.000000 0.037582 0.000000
# 6 0.000000 0.000000 0.000000 0.006998 0.000000 0.043715
#
#
# Mechanical properties :
#
#
# Convention : Reuss Voigt Hill
#
# Bulk Modulus (GPa) = 35.55425 51.96788 43.76107
# Shear Modulus (GPa) = 23.30918 26.43100 24.87009
#
# Velocity S-wave (km/s) = 3.68300 3.92189 3.80432
# Velocity P-wave (km/s) = 6.22707 7.12393 6.69054
#
# Compressibility (1/GPa) = 0.02812603
#
# Stress axis : x y z
#
# Youngs Moduli (GPa) = 76.20955 36.44930 91.16851
#
# Poissons Ratio (x) = 0.07776 0.48527
# Poissons Ratio (y) = 0.16258 0.38690
# Poissons Ratio (z) = 0.40565 0.15468
#
# Static dielectric constant tensor:
#      x y z
#    x 3.175370 0.000000 0.116150 
#    y 0.000000 3.058660 0.000000 
#    z 0.116150 0.000000 3.398600 
# 
# 
# High freq. dielectric constant tensor:
#      x y z
#    x 1.651660 0.000000 0.001740 
#    y 0.000000 1.660120 0.000000 
#    z 0.001740 0.000000 1.657140 
# 
# From -- ./inp_files/351149.got.cif
#   From: 2010.06.25/outbox.cif.g09.slc.cpg/sg12_176_cif.got.tgz:351149.got - 2010.06.28 00:19:55.
