data_PCOD8082365
_publ_section_title
;
Structure prediction by ZEFSAII (Michael W. Deem and Ramdas Pophale) SiO2 
 PCOD8082365
Probable space group: C 2/M
;
_chemical_formula_sum "Si O2"
_cell_formula_units_Z 40
_cell_length_a 20.681547
_cell_length_b 8.631194
_cell_length_c 18.230874
_cell_angle_alpha 90.000000
_cell_angle_beta 137.139439
_cell_angle_gamma 90.000000
_cell_volume 2213.647838
_symmetry_space_group_name_H-M "C 2/M"
_symmetry_group_IT_number 12
_symmetry_cell_setting 'monoclinic'
loop_
_space_group_symop_operation_xyz
x,y,z
-x,y,-z
-x,-y,-z
x,-y,z
1/2+x,1/2+y,z
1/2-x,1/2+y,-z
1/2-x,1/2-y,-z
1/2+x,1/2-y,z
loop_
_atom_site_type_symbol
_atom_site_label
_atom_site_fract_x
_atom_site_fract_y
_atom_site_fract_z
Si Si1 0.038968 0.817947 0.269938
Si Si2 0.819046 0.182561 0.496713
Si Si3 0.393296 0.182025 0.931270
Si Si4 0.807243 0.816964 0.719236
Si Si5 0.345228 0.317269 0.046523
O O1 0.075004 0.779712 0.383042
O O2 0.111418 0.753370 0.268437
O O3 0.037627 0.000000 0.256758
O O4 0.933789 0.750415 0.168314
O O5 0.750000 0.250000 0.500000
O O6 0.795750 0.267115 0.400252
O O7 0.803668 0.000000 0.474918
O O8 0.320978 0.230661 0.807313
O O9 0.358593 0.269963 0.974034
O O10 0.387911 0.000000 0.940762
O O11 0.500000 0.235653 0.000000
O O12 0.810200 0.000000 0.733814
O O13 0.340027 0.500000 0.047849
O O14 0.250000 0.250000 0.000000
#
# Coordination Sequence:
#
# PCOD8082365 Si02
#       5
#     8   8   8   8   8
#     4   8  16  30  50  73 104 141 176 212 264 320
#     4   9  16  28  46  74 105 138 174 217 266 318
#     4  11  22  35  54  82 110 140 180 227 271 318
#     4  10  18  31  51  78 107 141 175 216 271 322
#     4  11  22  38  56  78 109 147 184 221 266 323
#
# _framework density 18.069723
#
# number of rings (size 3 to 8) (size 9 to 14) (size 15 to 20)
#    0.000    2.200    2.000    3.600    0.000    0.800 
#    0.000    3.000    0.000    1.200    0.000    8.400 
#    0.000    0.000    0.000    0.000    0.000    0.000 
#
# Total GULP energy -247872.988878 kJ/mol
# GULP energy per Si atom -12393.649444 kJ/mol
# Density = 1.802860 g / cm^3
# Si number density = 18.069723 Si / 1000 Ang^3
#
#
#
# Elastic Constant Matrix: (Units=GPa)
#
#
# Indices 1 2 3 4 5 6 
#
# 1 75.6357 17.8943 50.6726 0.0000 5.0472 0.0000
# 2 17.8943 49.0395 24.8208 0.0000 2.6940 0.0000
# 3 50.6726 24.8208 174.1081 0.0000 -4.2409 0.0000
# 4 0.0000 0.0000 0.0000 29.7972 0.0000 -4.3236
# 5 5.0472 2.6940 -4.2409 0.0000 18.6241 0.0000
# 6 0.0000 0.0000 0.0000 -4.3236 0.0000 23.7825
#
#
#
# Elastic Compliance Matrix: (Units=1/GPa)
#
#
# Indices 1 2 3 4 5 6 
#
# 1 0.017629 -0.003749 -0.004726 0.000000 -0.005311 0.000000
# 2 -0.003749 0.023062 -0.002266 0.000000 -0.002836 0.000000
# 3 -0.004726 -0.002266 0.007523 0.000000 0.003321 0.000000
# 4 0.000000 0.000000 0.000000 0.034469 0.000000 0.006266
# 5 -0.005311 -0.002836 0.003321 0.000000 0.056300 0.000000
# 6 0.000000 0.000000 0.000000 0.006266 0.000000 0.043187
#
#
# Mechanical properties :
#
#
# Convention : Reuss Voigt Hill
#
# Bulk Modulus (GPa) = 37.40684 53.95096 45.67890
# Shear Modulus (GPa) = 23.52263 28.13381 25.82822
#
# Velocity S-wave (km/s) = 3.61192 3.95011 3.78480
# Velocity P-wave (km/s) = 6.17584 7.12225 6.66586
#
# Compressibility (1/GPa) = 0.02673308
#
# Stress axis : x y z
#
# Youngs Moduli (GPa) = 56.72615 43.36085 132.92939
#
# Poissons Ratio (x) = 0.16256 0.62816
# Poissons Ratio (y) = 0.21267 0.30118
# Poissons Ratio (z) = 0.26806 0.09824
#
# Static dielectric constant tensor:
#      x y z
#    x 2.915030 0.000000 0.108730 
#    y 0.000000 3.311300 0.000000 
#    z 0.108730 0.000000 4.113250 
# 
# 
# High freq. dielectric constant tensor:
#      x y z
#    x 1.641540 0.000000 -0.009420 
#    y 0.000000 1.698390 0.000000 
#    z -0.009420 0.000000 1.728600 
# 
# From -- ./inp_files/221220.got.cif
#   From: 2010.06.25/outbox.cif.g09.slc.cpg/sg12_111_cif.got.tgz:221220.got - 2010.06.28 00:19:55.
