data_PCOD8082892
_publ_section_title
;
Structure prediction by ZEFSAII (Michael W. Deem and Ramdas Pophale) SiO2 
 PCOD8082892
Probable space group: C 2/M
;
_chemical_formula_sum "Si O2"
_cell_formula_units_Z 64
_cell_length_a 24.605682
_cell_length_b 8.886573
_cell_length_c 23.724038
_cell_angle_alpha 90.000000
_cell_angle_beta 46.473625
_cell_angle_gamma 90.000000
_cell_volume 3761.237299
_symmetry_space_group_name_H-M "C 2/M"
_symmetry_group_IT_number 12
_symmetry_cell_setting 'monoclinic'
loop_
_space_group_symop_operation_xyz
x,y,z
-x,y,-z
-x,-y,-z
x,-y,z
1/2+x,1/2+y,z
1/2-x,1/2+y,-z
1/2-x,1/2-y,-z
1/2+x,1/2-y,z
loop_
_atom_site_type_symbol
_atom_site_label
_atom_site_fract_x
_atom_site_fract_y
_atom_site_fract_z
Si Si1 0.153583 0.674257 0.420042
Si Si2 0.275574 0.323049 0.423963
Si Si3 0.695892 0.823626 0.993532
Si Si4 0.929073 0.324771 0.317726
Si Si5 0.083892 0.675445 0.163004
Si Si6 0.516314 0.828333 0.597094
Si Si7 0.210111 0.321598 0.158902
Si Si8 0.361250 0.323599 0.686871
O O1 0.162090 0.500000 0.397009
O O2 0.218950 0.725803 0.415351
O O3 0.072929 0.702646 0.505762
O O4 0.159869 0.776977 0.360956
O O5 0.274398 0.500000 0.433654
O O6 0.250000 0.250000 0.500000
O O7 0.357852 0.268147 0.347361
O O8 0.711341 0.744868 0.922234
O O9 0.712260 0.000000 0.977183
O O10 0.750000 0.750000 0.000000
O O11 0.611945 0.794385 0.078602
O O12 0.915049 0.500000 0.315018
O O13 0.940398 0.296731 0.375930
O O14 0.000892 0.258377 0.232274
O O15 0.078838 0.500000 0.179789
O O16 0.142441 0.739312 0.167451
O O17 0.446056 0.719671 0.641314
O O18 0.486553 0.000000 0.617107
O O19 0.216280 0.500000 0.155676
O O20 0.197470 0.259228 0.230270
O O21 0.351370 0.500000 0.701223
#
# Coordination Sequence:
#
# PCOD8082892 Si02
#       8
#     8   8   8   8   8   8   8   8
#     4  10  22  39  54  69  96 139 178 208 254 312
#     4  11  22  37  55  76  99 130 172 218 261 301
#     4   9  16  27  44  71 102 136 171 206 245 297
#     4  10  18  33  54  77 102 137 174 206 249 304
#     4   8  15  28  48  71 101 135 167 199 243 301
#     4  10  19  35  55  72  99 140 175 202 248 314
#     4  10  18  32  50  69  99 140 172 203 251 310
#     4  12  24  34  49  77 105 131 170 220 258 298
#
# _framework density 17.015677
#
# number of rings (size 3 to 8) (size 9 to 14) (size 15 to 20)
#    0.000    2.000    2.500    3.375    0.000    3.500 
#    0.000    1.250    0.000    0.000    0.000    0.875 
#    0.000    7.000    0.000    0.000    0.000    0.000 
#
# Total GULP energy -396735.679001 kJ/mol
# GULP energy per Si atom -12397.989969 kJ/mol
# Density = 1.697695 g / cm^3
# Si number density = 17.015677 Si / 1000 Ang^3
#
#
#
# Elastic Constant Matrix: (Units=GPa)
#
#
# Indices 1 2 3 4 5 6 
#
# 1 49.8748 29.0643 30.5099 0.0003 2.7061 0.0004
# 2 29.0643 81.2880 45.3936 0.0015 5.7864 0.0049
# 3 30.5099 45.3936 133.0266 0.0001 4.5506 0.0007
# 4 0.0003 0.0015 0.0001 30.2823 0.0000 0.0311
# 5 2.7061 5.7864 4.5506 0.0000 18.6663 -0.0004
# 6 0.0004 0.0049 0.0007 0.0311 -0.0004 23.8971
#
#
#
# Elastic Compliance Matrix: (Units=1/GPa)
#
#
# Indices 1 2 3 4 5 6 
#
# 1 0.026612 -0.007501 -0.003521 0.000000 -0.000674 0.000001
# 2 -0.007501 0.017539 -0.004151 -0.000001 -0.003338 -0.000003
# 3 -0.003521 -0.004151 0.009761 0.000000 -0.000583 0.000001
# 4 0.000000 -0.000001 0.000000 0.033023 0.000000 -0.000043
# 5 -0.000674 -0.003338 -0.000583 0.000000 0.054847 0.000002
# 6 0.000001 -0.000003 0.000001 -0.000043 0.000002 0.041846
#
#
# Mechanical properties :
#
#
# Convention : Reuss Voigt Hill
#
# Bulk Modulus (GPa) = 42.43109 52.68056 47.55583
# Shear Modulus (GPa) = 22.54001 25.18392 23.86197
#
# Velocity S-wave (km/s) = 3.64354 3.85131 3.74886
# Velocity P-wave (km/s) = 6.53384 7.12769 6.83722
#
# Compressibility (1/GPa) = 0.02356762
#
# Stress axis : x y z
#
# Youngs Moduli (GPa) = 37.57757 57.01519 102.44814
#
# Poissons Ratio (x) = 0.42766 0.36070
# Poissons Ratio (y) = 0.28186 0.42521
# Poissons Ratio (z) = 0.13230 0.23664
#
# Static dielectric constant tensor:
#      x y z
#    x 2.967730 0.000000 -0.092280 
#    y 0.000000 3.136280 0.000000 
#    z -0.092280 0.000000 3.657520 
# 
# 
# High freq. dielectric constant tensor:
#      x y z
#    x 1.613680 0.000000 -0.001420 
#    y 0.000000 1.651280 0.000000 
#    z -0.001420 0.000000 1.672230 
# 
# From -- ./inp_files/348560.got.cif
#   From: 2010.06.25/outbox.cif.g09.slc.cpg/sg12_175_cif.got.tgz:348560.got - 2010.06.28 00:19:55.
