data_PCOD8082303
_publ_section_title
;
Structure prediction by ZEFSAII (Michael W. Deem and Ramdas Pophale) SiO2 
 PCOD8082303
Probable space group: C 2/M
;
_chemical_formula_sum "Si O2"
_cell_formula_units_Z 64
_cell_length_a 22.549750
_cell_length_b 14.170890
_cell_length_c 11.979050
_cell_angle_alpha 90.000000
_cell_angle_beta 105.766458
_cell_angle_gamma 90.000000
_cell_volume 3683.889317
_symmetry_space_group_name_H-M "C 2/M"
_symmetry_group_IT_number 12
_symmetry_cell_setting 'monoclinic'
loop_
_space_group_symop_operation_xyz
x,y,z
-x,y,-z
-x,-y,-z
x,-y,z
1/2+x,1/2+y,z
1/2-x,1/2+y,-z
1/2-x,1/2-y,-z
1/2+x,1/2-y,z
loop_
_atom_site_type_symbol
_atom_site_label
_atom_site_fract_x
_atom_site_fract_y
_atom_site_fract_z
Si Si1 0.067952 0.705497 0.497284
Si Si2 0.247530 0.890917 0.465589
Si Si3 0.635955 0.888176 0.344299
Si Si4 0.683725 0.777920 0.922218
Si Si5 0.685625 0.396887 0.795415
Si Si6 0.172148 0.609805 0.695835
Si Si7 0.371036 0.606880 0.477021
Si Si8 0.330868 0.892039 0.881375
O O1 0.079403 0.658953 0.381763
O O2 0.115403 0.666613 0.613842
O O3 0.072735 0.819529 0.489407
O O4 0.000000 0.677584 0.500000
O O5 0.300319 0.846520 0.571971
O O6 0.266040 0.873562 0.346317
O O7 0.179692 0.852032 0.460668
O O8 0.243664 0.000000 0.495046
O O9 0.632264 0.862848 0.211483
O O10 0.632782 0.000000 0.362433
O O11 0.653255 0.681766 0.858149
O O12 0.688282 0.855458 0.827266
O O13 0.750000 0.750000 0.000000
O O14 0.646015 0.824342 0.005816
O O15 0.672131 0.500000 0.840723
O O16 0.659103 0.390017 0.659300
O O17 0.758392 0.378874 0.822860
O O18 0.154220 0.500000 0.688936
O O19 0.393807 0.500000 0.517104
O O20 0.345683 0.000000 0.921043
#
# Coordination Sequence:
#
# PCOD8082303 Si02
#       8
#     8   8   8   8   8   8   8   8
#     4  11  23  35  51  75 102 137 181 215 254 301
#     4   8  15  28  49  75 101 128 160 200 258 317
#     4   9  17  31  51  75 102 132 165 205 255 311
#     4  10  19  29  46  74 106 139 168 198 254 313
#     4   9  16  28  45  69 101 134 165 198 242 303
#     4  10  20  34  51  77 109 136 165 211 262 308
#     4  10  18  31  51  73 101 132 166 210 257 305
#     4   9  16  28  48  73 103 132 164 199 242 309
#
# _framework density 17.372942999999999
#
# number of rings (size 3 to 8) (size 9 to 14) (size 15 to 20)
#    0.000    2.500    2.500    1.500    0.000    5.750 
#    0.000    0.000    0.000    1.500    0.000    2.625 
#    0.000    2.000    0.000    0.000    0.000    0.000 
#
# Total GULP energy -396562.653943 kJ/mol
# GULP energy per Si atom -12392.582936 kJ/mol
# Density = 1.733340 g / cm^3
# Si number density = 17.372943 Si / 1000 Ang^3
#
#
#
# Elastic Constant Matrix: (Units=GPa)
#
#
# Indices 1 2 3 4 5 6 
#
# 1 59.2128 22.8079 29.8737 0.0000 -17.1599 0.0000
# 2 22.8079 89.6423 38.5893 0.0000 -17.7566 0.0000
# 3 29.8737 38.5893 86.4947 0.0000 -30.2882 0.0000
# 4 0.0000 0.0000 0.0000 27.0316 0.0000 -5.6590
# 5 -17.1599 -17.7566 -30.2882 0.0000 22.4808 0.0000
# 6 0.0000 0.0000 0.0000 -5.6590 0.0000 17.5215
#
#
#
# Elastic Compliance Matrix: (Units=1/GPa)
#
#
# Indices 1 2 3 4 5 6 
#
# 1 0.022519 -0.002250 -0.002607 0.000000 0.011899 0.000000
# 2 -0.002250 0.014327 -0.004266 0.000000 0.003851 0.000000
# 3 -0.002607 -0.004266 0.023643 0.000000 0.026494 0.000000
# 4 0.000000 0.000000 0.000000 0.039676 0.000000 0.012815
# 5 0.011899 0.003851 0.026494 0.000000 0.092302 0.000000
# 6 0.000000 0.000000 0.000000 0.012815 0.000000 0.061212
#
#
# Mechanical properties :
#
#
# Convention : Reuss Voigt Hill
#
# Bulk Modulus (GPa) = 23.67324 46.43239 35.05281
# Shear Modulus (GPa) = 17.48214 23.01203 20.24709
#
# Velocity S-wave (km/s) = 3.17564 3.64344 3.41755
# Velocity P-wave (km/s) = 5.20599 6.66966 5.98276
#
# Compressibility (1/GPa) = 0.04224180
#
# Stress axis : x y z
#
# Youngs Moduli (GPa) = 44.40773 69.79637 42.29646
#
# Poissons Ratio (x) = 0.15706 0.11025
# Poissons Ratio (y) = 0.09993 0.18046
# Poissons Ratio (z) = 0.11576 0.29779
#
# Static dielectric constant tensor:
#      x y z
#    x 2.909240 0.000000 -0.332270 
#    y 0.000000 3.689750 0.000000 
#    z -0.332270 0.000000 3.259070 
# 
# 
# High freq. dielectric constant tensor:
#      x y z
#    x 1.618110 0.000000 -0.028610 
#    y 0.000000 1.688560 0.000000 
#    z -0.028610 0.000000 1.656400 
# 
# From -- ./inp_files/167293.got.cif
#   From: 2010.06.25/outbox.cif.g09.slc.cpg/sg12_84_cif.got.tgz:167293.got - 2010.06.28 00:19:55.
