data_PCOD8082168
_publ_section_title
;
Structure prediction by ZEFSAII (Michael W. Deem and Ramdas Pophale) SiO2 
 PCOD8082168
Probable space group: C 2/M
;
_chemical_formula_sum "Si O2"
_cell_formula_units_Z 48
_cell_length_a 24.465997
_cell_length_b 8.664070
_cell_length_c 23.666192
_cell_angle_alpha 90.000000
_cell_angle_beta 34.673622
_cell_angle_gamma 90.000000
_cell_volume 2853.973408
_symmetry_space_group_name_H-M "C 2/M"
_symmetry_group_IT_number 12
_symmetry_cell_setting 'monoclinic'
loop_
_space_group_symop_operation_xyz
x,y,z
-x,y,-z
-x,-y,-z
x,-y,z
1/2+x,1/2+y,z
1/2-x,1/2+y,-z
1/2-x,1/2-y,-z
1/2+x,1/2-y,z
loop_
_atom_site_type_symbol
_atom_site_label
_atom_site_fract_x
_atom_site_fract_y
_atom_site_fract_z
Si Si1 0.460854 0.818626 0.767784
Si Si2 0.657038 0.184089 0.549388
Si Si3 0.211527 0.680465 0.162041
Si Si4 0.116699 0.681402 0.355012
Si Si5 0.671687 0.819693 0.025288
Si Si6 0.412483 0.682606 0.504654
O O1 0.565529 0.752998 0.663159
O O2 0.380217 0.749886 0.793864
O O3 0.432154 0.779869 0.857771
O O4 0.463850 0.000000 0.755352
O O5 0.750000 0.250000 0.500000
O O6 0.652791 0.254135 0.490311
O O7 0.661551 0.000000 0.542512
O O8 0.217158 0.500000 0.147020
O O9 0.199401 0.719479 0.238663
O O10 0.311052 0.751519 0.052387
O O11 0.111772 0.500000 0.372367
O O12 0.140965 0.775114 0.391186
O O13 0.014875 0.732778 0.415735
O O14 0.686626 0.000000 0.009176
O O15 0.750000 0.750000 0.000000
O O16 0.426590 0.500000 0.488418
#
# Coordination Sequence:
#
# PCOD8082168 Si02
#       6
#     8   8   8   8   8   8
#     4   8  15  29  45  62  91 126 157 190 233 283
#     4  11  21  36  52  69  94 129 167 203 240 283
#     4   9  16  28  45  68  94 126 157 186 234 288
#     4  10  18  31  50  69  96 133 161 191 242 293
#     4   9  16  26  41  64  91 123 156 189 231 282
#     4  11  21  32  46  71  98 124 163 203 240 284
#
# _framework density 16.818657000000002
#
# number of rings (size 3 to 8) (size 9 to 14) (size 15 to 20)
#    0.000    2.333    1.667    5.000    0.000    1.333 
#    0.000    2.500    0.000    0.000    0.000    1.167 
#    0.000    9.333    0.000    0.000    0.000    0.000 
#
# Total GULP energy -297395.572758 kJ/mol
# GULP energy per Si atom -12391.482198 kJ/mol
# Density = 1.678038 g / cm^3
# Si number density = 16.818657 Si / 1000 Ang^3
#
#
#
# Elastic Constant Matrix: (Units=GPa)
#
#
# Indices 1 2 3 4 5 6 
#
# 1 84.4055 20.9321 49.3335 0.0045 13.0037 -0.0035
# 2 20.9321 52.8173 32.1335 0.0097 11.0434 -0.0087
# 3 49.3335 32.1335 119.1184 0.0047 28.3627 -0.0054
# 4 0.0045 0.0097 0.0047 25.3054 -0.0041 5.4246
# 5 13.0037 11.0434 28.3627 -0.0041 26.2707 0.0039
# 6 -0.0035 -0.0087 -0.0054 5.4246 0.0039 23.7295
#
#
#
# Elastic Compliance Matrix: (Units=1/GPa)
#
#
# Indices 1 2 3 4 5 6 
#
# 1 0.015966 -0.002714 -0.005748 -0.000001 -0.000557 0.000000
# 2 -0.002714 0.023419 -0.004266 -0.000011 -0.003896 0.000010
# 3 -0.005748 -0.004266 0.014566 -0.000003 -0.011088 0.000003
# 4 -0.000001 -0.000011 -0.000003 0.041553 0.000016 -0.009499
# 5 -0.000557 -0.003896 -0.011088 0.000016 0.051949 -0.000016
# 6 0.000000 0.000010 0.000003 -0.009499 -0.000016 0.044313
#
#
# Mechanical properties :
#
#
# Convention : Reuss Voigt Hill
#
# Bulk Modulus (GPa) = 35.09332 51.23769 43.16551
# Shear Modulus (GPa) = 22.05362 25.32395 23.68878
#
# Velocity S-wave (km/s) = 3.62506 3.88455 3.75705
# Velocity P-wave (km/s) = 6.19939 7.11692 6.67394
#
# Compressibility (1/GPa) = 0.02849545
#
# Stress axis : x y z
#
# Youngs Moduli (GPa) = 62.63383 42.70101 68.65197
#
# Poissons Ratio (x) = 0.11590 0.39458
# Poissons Ratio (y) = 0.17001 0.29285
# Poissons Ratio (z) = 0.35999 0.18215
#
# Static dielectric constant tensor:
#      x y z
#    x 2.818520 0.000000 0.519190 
#    y 0.000000 3.154580 0.000000 
#    z 0.519190 0.000000 3.517190 
# 
# 
# High freq. dielectric constant tensor:
#      x y z
#    x 1.599940 0.000000 0.040650 
#    y 0.000000 1.648630 0.000000 
#    z 0.040650 0.000000 1.651490 
# 
# From -- ./inp_files/345402.got.cif
#   From: 2010.06.25/outbox.cif.g09.slc.cpg/sg12_173_cif.got.tgz:345402.got - 2010.06.28 00:19:55.
