data_PCOD8082204
_publ_section_title
;
Structure prediction by ZEFSAII (Michael W. Deem and Ramdas Pophale) SiO2 
 PCOD8082204
Probable space group: C 2/M
;
_chemical_formula_sum "Si O2"
_cell_formula_units_Z 48
_cell_length_a 24.914952
_cell_length_b 8.637910
_cell_length_c 12.589390
_cell_angle_alpha 90.000000
_cell_angle_beta 85.785266
_cell_angle_gamma 90.000000
_cell_volume 2702.074535
_symmetry_space_group_name_H-M "C 2/M"
_symmetry_group_IT_number 12
_symmetry_cell_setting 'monoclinic'
loop_
_space_group_symop_operation_xyz
x,y,z
-x,y,-z
-x,-y,-z
x,-y,z
1/2+x,1/2+y,z
1/2-x,1/2+y,-z
1/2-x,1/2-y,-z
1/2+x,1/2-y,z
loop_
_atom_site_type_symbol
_atom_site_label
_atom_site_fract_x
_atom_site_fract_y
_atom_site_fract_z
Si Si1 0.690541 0.683442 0.019649
Si Si2 0.621066 0.320835 0.401681
Si Si3 0.602166 0.817465 0.631277
Si Si4 0.014517 0.329757 0.375178
Si Si5 0.181391 0.682727 0.806696
Si Si6 0.798837 0.681751 0.768528
O O1 0.690160 0.500000 0.023647
O O2 0.668198 0.750580 0.134271
O O3 0.750000 0.750000 0.000000
O O4 0.658840 0.743334 0.920115
O O5 0.634729 0.500000 0.386715
O O6 0.619900 0.276473 0.525094
O O7 0.564055 0.287028 0.351323
O O8 0.668131 0.221303 0.341569
O O9 0.540614 0.774368 0.674430
O O10 0.640403 0.766028 0.721171
O O11 0.606163 0.000000 0.605223
O O12 0.032184 0.500000 0.331177
O O13 0.000000 0.340818 0.500000
O O14 0.183830 0.500000 0.820073
O O15 0.240138 0.743184 0.767071
O O16 0.791662 0.500000 0.782581
#
# Coordination Sequence:
#
# PCOD8082204 Si02
#       6
#     8   8   8   8   8   8
#     4  10  18  31  50  72  97 126 163 202 240 284
#     4  11  21  32  49  74 101 129 163 204 247 288
#     4   9  19  34  52  73 100 133 164 196 238 291
#     4   8  15  31  51  70  94 127 165 199 235 285
#     4  10  19  33  52  75 101 129 163 200 240 287
#     4  11  21  34  51  71  98 132 166 201 244 290
#
# _framework density 17.764129000000001
#
# number of rings (size 3 to 8) (size 9 to 14) (size 15 to 20)
#    0.000    2.167    0.000    8.000    0.000    5.000 
#    0.000    0.000    0.000    1.000    0.000    7.000 
#    0.000    0.000    0.000    0.000    0.000    0.000 
#
# Total GULP energy -297501.028885 kJ/mol
# GULP energy per Si atom -12395.876204 kJ/mol
# Density = 1.772370 g / cm^3
# Si number density = 17.764129 Si / 1000 Ang^3
#
#
#
# Elastic Constant Matrix: (Units=GPa)
#
#
# Indices 1 2 3 4 5 6 
#
# 1 73.3713 14.0648 39.7447 0.0000 25.8844 0.0000
# 2 14.0648 77.7363 28.5559 0.0000 5.8265 0.0000
# 3 39.7447 28.5559 79.2685 0.0000 25.7451 0.0000
# 4 0.0000 0.0000 0.0000 28.5634 0.0000 -0.8609
# 5 25.8844 5.8265 25.7451 0.0000 15.2617 0.0000
# 6 0.0000 0.0000 0.0000 -0.8609 0.0000 24.4715
#
#
#
# Elastic Compliance Matrix: (Units=1/GPa)
#
#
# Indices 1 2 3 4 5 6 
#
# 1 0.035148 -0.003332 0.005586 0.000000 -0.067763 0.000000
# 2 -0.003332 0.015531 -0.008480 0.000000 0.014027 0.000000
# 3 0.005586 -0.008480 0.032945 0.000000 -0.061811 0.000000
# 4 0.000000 0.000000 0.000000 0.035047 0.000000 0.001233
# 5 -0.067763 0.014027 -0.061811 0.000000 0.279368 0.000000
# 6 0.000000 0.000000 0.000000 0.001233 0.000000 0.040907
#
#
# Mechanical properties :
#
#
# Convention : Reuss Voigt Hill
#
# Bulk Modulus (GPa) = 14.05068 43.90077 28.97573
# Shear Modulus (GPa) = 10.52361 23.52668 17.02515
#
# Velocity S-wave (km/s) = 2.43658 3.64317 3.09916
# Velocity P-wave (km/s) = 3.98028 6.51642 5.39937
#
# Compressibility (1/GPa) = 0.07117093
#
# Stress axis : x y z
#
# Youngs Moduli (GPa) = 28.45084 64.38919 30.35384
#
# Poissons Ratio (x) = 0.21456 -0.16955
# Poissons Ratio (y) = 0.09481 0.25739
# Poissons Ratio (z) = -0.15892 0.54601
#
# Static dielectric constant tensor:
#      x y z
#    x 3.432480 0.000000 0.213560 
#    y 0.000000 3.309430 0.000000 
#    z 0.213560 0.000000 3.606540 
# 
# 
# High freq. dielectric constant tensor:
#      x y z
#    x 1.667430 0.000000 0.008820 
#    y 0.000000 1.696810 0.000000 
#    z 0.008820 0.000000 1.675200 
# 
# From -- ./inp_files/179278.got.cif
#   From: 2010.06.25/outbox.cif.g09.slc.cpg/sg12_90_cif.got.tgz:179278.got - 2010.06.28 00:19:55.
