data_PCOD8082144
_publ_section_title
;
Structure prediction by ZEFSAII (Michael W. Deem and Ramdas Pophale) SiO2 
 PCOD8082144
Probable space group: C 2/M
;
_chemical_formula_sum "Si O2"
_cell_formula_units_Z 64
_cell_length_a 28.832393
_cell_length_b 8.805200
_cell_length_c 14.360425
_cell_angle_alpha 90.000000
_cell_angle_beta 87.525255
_cell_angle_gamma 90.000000
_cell_volume 3642.352501
_symmetry_space_group_name_H-M "C 2/M"
_symmetry_group_IT_number 12
_symmetry_cell_setting 'monoclinic'
loop_
_space_group_symop_operation_xyz
x,y,z
-x,y,-z
-x,-y,-z
x,-y,z
1/2+x,1/2+y,z
1/2-x,1/2+y,-z
1/2-x,1/2-y,-z
1/2+x,1/2-y,z
loop_
_atom_site_type_symbol
_atom_site_label
_atom_site_fract_x
_atom_site_fract_y
_atom_site_fract_z
Si Si1 0.847558 0.821016 0.340578
Si Si2 0.812492 0.824711 0.730601
Si Si3 0.276940 0.678733 0.188844
Si Si4 0.348294 0.179192 0.055296
Si Si5 0.081104 0.180201 0.809017
Si Si6 0.201148 0.180390 0.476523
Si Si7 0.615155 0.323741 0.126061
Si Si8 0.987371 0.820161 0.899206
O O1 0.805722 0.768505 0.277217
O O2 0.896580 0.763694 0.291629
O O3 0.837485 0.759057 0.445555
O O4 0.848899 0.000000 0.345035
O O5 0.775727 0.730125 0.793628
O O6 0.814878 0.764707 0.624132
O O7 0.862921 0.801803 0.773148
O O8 0.797176 0.000000 0.733593
O O9 0.279148 0.500000 0.173081
O O10 0.299140 0.758320 0.096686
O O11 0.391306 0.247702 0.108032
O O12 0.348672 0.000000 0.063919
O O13 0.353684 0.228971 0.948180
O O14 0.027251 0.230205 0.821849
O O15 0.086723 0.000000 0.819066
O O16 0.250000 0.250000 0.500000
O O17 0.205769 0.000000 0.481233
O O18 0.615875 0.500000 0.096101
O O19 0.562403 0.259244 0.131736
O O20 0.985702 0.000000 0.905553
O O21 0.000000 0.753213 0.000000
#
# Coordination Sequence:
#
# PCOD8082144 Si02
#       8
#     8   8   8   8   8   8   8   8
#     4   8  15  27  47  72  96 123 157 197 240 286
#     4  10  21  33  49  72 101 131 164 210 254 289
#     4  10  19  33  52  71  97 134 168 199 239 295
#     4  11  21  32  48  73 102 131 163 204 247 292
#     4   9  16  30  51  74  97 128 167 205 244 292
#     4  10  18  31  49  73  99 128 163 204 249 292
#     4  10  20  35  50  69  98 134 170 204 248 298
#     4   9  15  27  52  75  92 124 172 211 239 288
#
# _framework density 17.571062999999999
#
# number of rings (size 3 to 8) (size 9 to 14) (size 15 to 20)
#    0.000    2.375    2.500    2.250    0.000    1.000 
#    0.000    1.250    0.000    0.750    0.000    5.250 
#    0.000    0.000    0.000    6.625    0.000    8.000 
#
# Total GULP energy -396634.414024 kJ/mol
# GULP energy per Si atom -12394.825438 kJ/mol
# Density = 1.753107 g / cm^3
# Si number density = 17.571063 Si / 1000 Ang^3
#
#
#
# Elastic Constant Matrix: (Units=GPa)
#
#
# Indices 1 2 3 4 5 6 
#
# 1 126.2597 21.1966 75.1311 0.0000 -12.3883 0.0000
# 2 21.1966 42.7419 21.6518 0.0000 -2.0722 0.0000
# 3 75.1311 21.6518 122.3338 0.0000 -11.8579 0.0000
# 4 0.0000 0.0000 0.0000 14.3688 0.0000 -2.2698
# 5 -12.3883 -2.0722 -11.8579 0.0000 26.7157 0.0000
# 6 0.0000 0.0000 0.0000 -2.2698 0.0000 16.4567
#
#
#
# Elastic Compliance Matrix: (Units=1/GPa)
#
#
# Indices 1 2 3 4 5 6 
#
# 1 0.012904 -0.002622 -0.007211 0.000000 0.002580 0.000000
# 2 -0.002622 0.026233 -0.003086 0.000000 -0.000551 0.000000
# 3 -0.007211 -0.003086 0.013378 0.000000 0.002354 0.000000
# 4 0.000000 0.000000 0.000000 0.071145 0.000000 0.009813
# 5 0.002580 -0.000551 0.002354 0.000000 0.039630 0.000000
# 6 0.000000 0.000000 0.000000 0.009813 0.000000 0.062119
#
#
# Mechanical properties :
#
#
# Convention : Reuss Voigt Hill
#
# Bulk Modulus (GPa) = 37.48556 58.58825 48.03690
# Shear Modulus (GPa) = 19.22045 23.06531 21.14288
#
# Velocity S-wave (km/s) = 3.31096 3.62703 3.47259
# Velocity P-wave (km/s) = 5.99972 7.13838 6.59367
#
# Compressibility (1/GPa) = 0.02667694
#
# Stress axis : x y z
#
# Youngs Moduli (GPa) = 77.49263 38.11981 74.75199
#
# Poissons Ratio (x) = 0.09993 0.53905
# Poissons Ratio (y) = 0.20315 0.23071
# Poissons Ratio (z) = 0.55882 0.11765
#
# Static dielectric constant tensor:
#      x y z
#    x 3.429860 0.000000 -0.317030 
#    y 0.000000 2.992860 0.000000 
#    z -0.317030 0.000000 3.545040 
# 
# 
# High freq. dielectric constant tensor:
#      x y z
#    x 1.670370 0.000000 -0.019300 
#    y 0.000000 1.652070 0.000000 
#    z -0.019300 0.000000 1.670570 
# 
# From -- ./inp_files/248427.got.cif
#   From: 2010.06.25/outbox.cif.g09.slc.cpg/sg12_125_cif.got.tgz:248427.got - 2010.06.28 00:19:55.
