data_PCOD8082959
_publ_section_title
;
Structure prediction by ZEFSAII (Michael W. Deem and Ramdas Pophale) SiO2 
 PCOD8082959
Probable space group: C 2/M
;
_chemical_formula_sum "Si O2"
_cell_formula_units_Z 40
_cell_length_a 29.311604
_cell_length_b 17.647779
_cell_length_c 8.800276
_cell_angle_alpha 90.000000
_cell_angle_beta 31.153133
_cell_angle_gamma 90.000000
_cell_volume 2355.001651
_symmetry_space_group_name_H-M "C 2/M"
_symmetry_group_IT_number 12
_symmetry_cell_setting 'monoclinic'
loop_
_space_group_symop_operation_xyz
x,y,z
-x,y,-z
-x,-y,-z
x,-y,z
1/2+x,1/2+y,z
1/2-x,1/2+y,-z
1/2-x,1/2-y,-z
1/2+x,1/2-y,z
loop_
_atom_site_type_symbol
_atom_site_label
_atom_site_fract_x
_atom_site_fract_y
_atom_site_fract_z
Si Si1 0.413773 0.247492 0.814621
Si Si2 0.977923 0.000000 0.806495
Si Si3 0.708485 0.655366 0.011958
Si Si4 0.933731 0.161380 0.061859
Si Si5 0.731625 0.301471 0.280105
Si Si6 0.646294 0.500000 0.126288
O O1 0.500000 0.205738 0.500000
O O2 0.387777 0.312807 0.765084
O O3 0.439612 0.285759 0.899090
O O4 0.331525 0.188810 0.062689
O O5 0.909418 0.000000 0.866208
O O6 0.079411 0.000000 0.460621
O O7 0.959836 0.074531 0.957410
O O8 0.718877 0.650805 0.163308
O O9 0.713795 0.570361 0.935359
O O10 0.781671 0.711514 0.726369
O O11 0.833862 0.167767 0.406628
O O12 0.000000 0.194322 0.000000
#
# Coordination Sequence:
#
# PCOD8082959 Si02
#       6
#     8   4   8   8   8   4
#     4  10  18  32  52  71 102 137 170 215 253 302
#     4  11  21  30  48  76 116 138 169 199 259 323
#     4   9  19  33  54  69 106 135 176 206 256 316
#     4  12  22  31  49  79 111 140 172 207 257 306
#     4   9  20  35  49  73 106 135 177 217 251 304
#     4  11  18  32  52  78 101 147 165 203 263 327
#
# _framework density 16.985126000000001
#
# number of rings (size 3 to 8) (size 9 to 14) (size 15 to 20)
#    1.200    0.600    2.000    4.500    0.000    0.800 
#    0.000    0.000    0.000    0.000    0.000    3.500 
#    0.000    0.000    0.000    0.000    0.000    0.000 
#
# Total GULP energy -247778.015460 kJ/mol
# GULP energy per Si atom -12388.900773 kJ/mol
# Density = 1.694647 g / cm^3
# Si number density = 16.985126 Si / 1000 Ang^3
#
#
#
# Elastic Constant Matrix: (Units=GPa)
#
#
# Indices 1 2 3 4 5 6 
#
# 1 107.6894 15.6847 30.5758 0.0000 -5.5887 0.0000
# 2 15.6847 42.9428 4.2708 0.0000 -4.8737 0.0000
# 3 30.5758 4.2708 85.9308 0.0000 -0.7200 0.0000
# 4 0.0000 0.0000 0.0000 20.5481 0.0000 1.9789
# 5 -5.5887 -4.8737 -0.7200 0.0000 21.6458 0.0000
# 6 0.0000 0.0000 0.0000 1.9789 0.0000 21.3682
#
#
#
# Elastic Compliance Matrix: (Units=1/GPa)
#
#
# Indices 1 2 3 4 5 6 
#
# 1 0.010934 -0.003406 -0.003705 0.000000 0.001933 0.000000
# 2 -0.003406 0.025071 0.000006 0.000000 0.004766 0.000000
# 3 -0.003705 0.000006 0.012951 0.000000 -0.000525 0.000000
# 4 0.000000 0.000000 0.000000 0.049104 0.000000 -0.004547
# 5 0.001933 0.004766 -0.000525 0.000000 0.047753 0.000000
# 6 0.000000 0.000000 0.000000 -0.004547 0.000000 0.047220
#
#
# Mechanical properties :
#
#
# Convention : Reuss Voigt Hill
#
# Bulk Modulus (GPa) = 28.78044 37.51396 33.14720
# Shear Modulus (GPa) = 22.84922 25.11452 23.98187
#
# Velocity S-wave (km/s) = 3.67174 3.84945 3.76165
# Velocity P-wave (km/s) = 5.91243 6.47240 6.19875
#
# Compressibility (1/GPa) = 0.03474582
#
# Stress axis : x y z
#
# Youngs Moduli (GPa) = 91.45500 39.88657 77.21430
#
# Poissons Ratio (x) = 0.13585 0.28609
# Poissons Ratio (y) = 0.31148 -0.00044
# Poissons Ratio (z) = 0.33886 -0.00023
#
# Static dielectric constant tensor:
#      x y z
#    x 3.304040 0.000000 0.005130 
#    y 0.000000 2.931690 0.000000 
#    z 0.005130 0.000000 3.050790 
# 
# 
# High freq. dielectric constant tensor:
#      x y z
#    x 1.672740 0.000000 0.007240 
#    y 0.000000 1.618200 0.000000 
#    z 0.007240 0.000000 1.636110 
# 
# From -- ./inp_files/113068.got.cif
#   From: 2010.06.25/outbox.cif.g09.slc.cpg/sg12_57_cif.got.tgz:113068.got - 2010.06.28 00:19:55.
