data_PCOD8082076
_publ_section_title
;
Structure prediction by ZEFSAII (Michael W. Deem and Ramdas Pophale) SiO2 
 PCOD8082076
Probable space group: C 2/M
;
_chemical_formula_sum "Si O2"
_cell_formula_units_Z 56
_cell_length_a 17.905051
_cell_length_b 18.487919
_cell_length_c 14.802122
_cell_angle_alpha 90.000000
_cell_angle_beta 41.388355
_cell_angle_gamma 90.000000
_cell_volume 3239.617572
_symmetry_space_group_name_H-M "C 2/M"
_symmetry_group_IT_number 12
_symmetry_cell_setting 'monoclinic'
loop_
_space_group_symop_operation_xyz
x,y,z
-x,y,-z
-x,-y,-z
x,-y,z
1/2+x,1/2+y,z
1/2-x,1/2+y,-z
1/2-x,1/2-y,-z
1/2+x,1/2-y,z
loop_
_atom_site_type_symbol
_atom_site_label
_atom_site_fract_x
_atom_site_fract_y
_atom_site_fract_z
Si Si1 0.951775 0.838253 0.946605
Si Si2 0.609337 0.185146 0.009444
Si Si3 0.175418 0.416365 0.591985
Si Si4 0.911375 0.582488 0.816780
Si Si5 0.750101 0.917904 0.195956
Si Si6 0.806920 0.164327 0.319589
Si Si7 0.346239 0.175648 0.227126
O O1 0.882975 0.769767 0.968387
O O2 0.061823 0.861531 0.789578
O O3 0.866157 0.904947 0.034403
O O4 0.000000 0.810791 0.000000
O O5 0.650274 0.133801 0.053749
O O6 0.479809 0.167230 0.109418
O O7 0.686391 0.170675 0.849750
O O8 0.210553 0.500000 0.548256
O O9 0.244889 0.363920 0.463932
O O10 0.203548 0.391100 0.669115
O O11 0.044378 0.403642 0.687511
O O12 0.886187 0.500000 0.868522
O O13 0.857743 0.599596 0.768000
O O14 0.744940 0.867921 0.288171
O O15 0.749122 0.000000 0.230276
O O16 0.802228 0.250847 0.314173
#
# Coordination Sequence:
#
# PCOD8082076 Si02
#       7
#     8   8   8   8   8   8   8
#     4   9  16  30  48  71  90 112 155 196 235 269
#     4   9  14  30  51  67  93 120 150 193 237 265
#     4  10  20  31  46  70  97 127 155 181 225 282
#     4   9  20  32  44  69  99 126 155 183 221 278
#     4  10  19  31  46  68  96 124 154 190 229 272
#     4  10  18  31  48  68  95 123 151 192 234 269
#     4   9  16  30  49  70  93 119 152 196 233 268
#
# _framework density 17.285992
#
# number of rings (size 3 to 8) (size 9 to 14) (size 15 to 20)
#    0.000    2.571    4.286    0.857    0.000    4.857 
#    0.000    5.000    0.000    0.000    0.000    0.000 
#    0.000    3.429    0.000    0.000    0.000    0.000 
#
# Total GULP energy -347007.938699 kJ/mol
# GULP energy per Si atom -12393.140668 kJ/mol
# Density = 1.724665 g / cm^3
# Si number density = 17.285992 Si / 1000 Ang^3
#
#
#
# Elastic Constant Matrix: (Units=GPa)
#
#
# Indices 1 2 3 4 5 6 
#
# 1 47.2970 29.7315 26.8071 0.0000 8.5095 0.0000
# 2 29.7315 73.4635 37.2059 0.0000 13.0237 0.0000
# 3 26.8071 37.2059 86.2118 0.0000 17.9082 0.0000
# 4 0.0000 0.0000 0.0000 22.9842 0.0000 7.9981
# 5 8.5095 13.0237 17.9082 0.0000 17.9730 0.0000
# 6 0.0000 0.0000 0.0000 7.9981 0.0000 23.7411
#
#
#
# Elastic Compliance Matrix: (Units=1/GPa)
#
#
# Indices 1 2 3 4 5 6 
#
# 1 0.030213 -0.009303 -0.004803 0.000000 -0.002778 0.000000
# 2 -0.009303 0.020902 -0.004914 0.000000 -0.005846 0.000000
# 3 -0.004803 -0.004914 0.017656 0.000000 -0.011758 0.000000
# 4 0.000000 0.000000 0.000000 0.049286 0.000000 -0.016604
# 5 -0.002778 -0.005846 -0.011758 0.000000 0.072906 0.000000
# 6 0.000000 0.000000 0.000000 -0.016604 0.000000 0.047715
#
#
# Mechanical properties :
#
#
# Convention : Reuss Voigt Hill
#
# Bulk Modulus (GPa) = 32.53900 43.82904 38.18402
# Shear Modulus (GPa) = 17.42413 20.48818 18.95616
#
# Velocity S-wave (km/s) = 3.17833 3.44648 3.31512
# Velocity P-wave (km/s) = 5.68629 6.42245 6.06555
#
# Compressibility (1/GPa) = 0.03073235
#
# Stress axis : x y z
#
# Youngs Moduli (GPa) = 33.09881 47.84247 56.63928
#
# Poissons Ratio (x) = 0.44506 0.27202
# Poissons Ratio (y) = 0.30790 0.27831
# Poissons Ratio (z) = 0.15896 0.23508
#
# Static dielectric constant tensor:
#      x y z
#    x 3.069820 0.000000 0.166580 
#    y 0.000000 3.277490 0.000000 
#    z 0.166580 0.000000 3.294090 
# 
# 
# High freq. dielectric constant tensor:
#      x y z
#    x 1.633580 0.000000 0.014110 
#    y 0.000000 1.671770 0.000000 
#    z 0.014110 0.000000 1.655020 
# 
# From -- ./inp_files/226546.got.cif
#   From: 2010.06.25/outbox.cif.g09.slc.cpg/sg12_114_cif.got.tgz:226546.got - 2010.06.28 00:19:55.
