data_PCOD8082877
_publ_section_title
;
Structure prediction by ZEFSAII (Michael W. Deem and Ramdas Pophale) SiO2 
 PCOD8082877
Probable space group: C 2/M
;
_chemical_formula_sum "Si O2"
_cell_formula_units_Z 48
_cell_length_a 14.302598
_cell_length_b 14.292589
_cell_length_c 27.209886
_cell_angle_alpha 90.000000
_cell_angle_beta 149.614977
_cell_angle_gamma 90.000000
_cell_volume 2813.445460
_symmetry_space_group_name_H-M "C 2/M"
_symmetry_group_IT_number 12
_symmetry_cell_setting 'monoclinic'
loop_
_space_group_symop_operation_xyz
x,y,z
-x,y,-z
-x,-y,-z
x,-y,z
1/2+x,1/2+y,z
1/2-x,1/2+y,-z
1/2-x,1/2-y,-z
1/2+x,1/2-y,z
loop_
_atom_site_type_symbol
_atom_site_label
_atom_site_fract_x
_atom_site_fract_y
_atom_site_fract_z
Si Si1 0.217640 0.000000 0.546116
Si Si2 0.031464 0.657127 0.214034
Si Si3 0.811524 0.000000 0.350534
Si Si4 0.865037 0.773694 0.823611
Si Si5 0.294422 0.396340 0.001996
Si Si6 0.040126 0.606563 0.711699
Si Si7 0.483342 0.107296 0.935945
O O1 0.345063 0.092941 0.593365
O O2 0.184551 0.000000 0.589296
O O3 0.026186 0.000000 0.429189
O O4 0.205367 0.589905 0.282121
O O5 0.088521 0.753836 0.212782
O O6 0.993386 0.668461 0.254561
O O7 0.844894 0.616236 0.106329
O O8 0.683998 0.838215 0.743098
O O9 0.037413 0.825304 0.926952
O O10 0.840719 0.676367 0.842924
O O11 0.378941 0.500000 0.038563
O O12 0.185670 0.380325 0.003714
O O13 0.109113 0.500000 0.756887
O O14 0.412763 0.000000 0.898320
O O15 0.500000 0.136840 0.000000
#
# Coordination Sequence:
#
# PCOD8082877 Si02
#       7
#     4   8   4   8   8   8   8
#     4   7  16  32  55  75  96 122 160 209 269 299
#     4  10  18  32  49  75  98 131 172 204 240 295
#     4   9  14  32  57  73  91 132 163 209 254 298
#     4  11  22  28  50  74 105 132 165 209 245 289
#     4  10  19  32  45  69 104 133 166 204 240 291
#     4   9  19  35  51  74 105 127 164 209 252 310
#     4   9  19  32  43  60  94 139 175 200 228 282
#
# _framework density 17.060931
#
# number of rings (size 3 to 8) (size 9 to 14) (size 15 to 20)
#    0.500    2.000    1.667    2.500    5.833    0.000 
#    0.000    2.500    0.000    0.000    0.000    0.000 
#    0.000    1.333    0.000    0.000    0.000    0.000 
#
# Total GULP energy -297327.024077 kJ/mol
# GULP energy per Si atom -12388.626003 kJ/mol
# Density = 1.702210 g / cm^3
# Si number density = 17.060931 Si / 1000 Ang^3
#
#
#
# Elastic Constant Matrix: (Units=GPa)
#
#
# Indices 1 2 3 4 5 6 
#
# 1 39.3526 18.7848 3.2018 0.0000 8.7176 -0.0002
# 2 18.7848 72.2978 28.2990 0.0001 14.1525 -0.0001
# 3 3.2018 28.2990 85.9970 0.0010 25.4101 0.0008
# 4 0.0000 0.0001 0.0010 17.7879 0.0000 5.0167
# 5 8.7176 14.1525 25.4101 0.0000 20.7458 0.0001
# 6 -0.0002 -0.0001 0.0008 5.0167 0.0001 15.3624
#
#
#
# Elastic Compliance Matrix: (Units=1/GPa)
#
#
# Indices 1 2 3 4 5 6 
#
# 1 0.031976 -0.007581 0.005871 0.000000 -0.015456 0.000000
# 2 -0.007581 0.018339 -0.004697 0.000000 -0.003572 0.000000
# 3 0.005871 -0.004697 0.019962 -0.000001 -0.023713 -0.000001
# 4 0.000000 0.000000 -0.000001 0.061921 0.000001 -0.020220
# 5 -0.015456 -0.003572 -0.023713 0.000001 0.086178 0.000000
# 6 0.000000 0.000000 -0.000001 -0.020220 0.000000 0.071697
#
#
# Mechanical properties :
#
#
# Convention : Reuss Voigt Hill
#
# Bulk Modulus (GPa) = 17.40230 33.13539 25.26884
# Shear Modulus (GPa) = 15.52594 20.60333 18.06463
#
# Velocity S-wave (km/s) = 3.01994 3.47887 3.25750
# Velocity P-wave (km/s) = 4.73099 5.96663 5.38437
#
# Compressibility (1/GPa) = 0.05746368
#
# Stress axis : x y z
#
# Youngs Moduli (GPa) = 31.27331 54.52820 50.09509
#
# Poissons Ratio (x) = 0.41336 -0.29411
# Poissons Ratio (y) = 0.23707 0.23531
# Poissons Ratio (z) = -0.18361 0.25613
#
# Static dielectric constant tensor:
#      x y z
#    x 3.065480 0.000000 0.185670 
#    y 0.000000 3.246810 0.000000 
#    z 0.185670 0.000000 3.196940 
# 
# 
# High freq. dielectric constant tensor:
#      x y z
#    x 1.642480 0.000000 0.011730 
#    y 0.000000 1.652890 0.000000 
#    z 0.011730 0.000000 1.628190 
# 
# From -- ./inp_files/376321.got.cif
#   From: 2010.06.25/outbox.cif.g09.slc.cpg/sg12_189_cif.got.tgz:376321.got - 2010.06.28 00:19:55.
