data_PCOD8082847
_publ_section_title
;
Structure prediction by ZEFSAII (Michael W. Deem and Ramdas Pophale) SiO2 
 PCOD8082847
Probable space group: C 2/M
;
_chemical_formula_sum "Si O2"
_cell_formula_units_Z 64
_cell_length_a 9.928399
_cell_length_b 19.665496
_cell_length_c 22.414274
_cell_angle_alpha 90.000000
_cell_angle_beta 131.239489
_cell_angle_gamma 90.000000
_cell_volume 3290.818858
_symmetry_space_group_name_H-M "C 2/M"
_symmetry_group_IT_number 12
_symmetry_cell_setting 'monoclinic'
loop_
_space_group_symop_operation_xyz
x,y,z
-x,y,-z
-x,-y,-z
x,-y,z
1/2+x,1/2+y,z
1/2-x,1/2+y,-z
1/2-x,1/2-y,-z
1/2+x,1/2-y,z
loop_
_atom_site_type_symbol
_atom_site_label
_atom_site_fract_x
_atom_site_fract_y
_atom_site_fract_z
Si Si1 0.936517 0.571922 0.255641
Si Si2 0.466028 0.215743 0.314829
Si Si3 0.164709 0.076821 0.670747
Si Si4 0.616555 0.183123 0.913010
Si Si5 0.375385 0.601809 0.913040
Si Si6 0.657596 0.337851 0.914299
Si Si7 0.281306 0.341507 0.204209
Si Si8 0.618100 0.708977 0.591362
O O1 0.938281 0.500000 0.293362
O O2 0.789898 0.559141 0.160662
O O3 0.894762 0.638364 0.283656
O O4 0.124616 0.580172 0.278001
O O5 0.360799 0.266321 0.239676
O O6 0.430284 0.236179 0.372342
O O7 0.675442 0.219335 0.363277
O O8 0.121531 0.102534 0.725517
O O9 0.074013 0.131351 0.599172
O O10 0.088324 0.000000 0.639109
O O11 0.783037 0.167390 0.917547
O O12 0.584633 0.262587 0.901267
O O13 0.427147 0.152080 0.838561
O O14 0.663194 0.155539 0.993121
O O15 0.498032 0.616002 0.891872
O O16 0.500000 0.564997 0.000000
O O17 0.694083 0.360135 0.857475
O O18 0.500000 0.726702 0.500000
#
# Coordination Sequence:
#
# PCOD8082847 Si02
#       8
#     8   8   8   8   8   8   8   8
#     4  10  19  35  56  76 109 150 190 229 268 323
#     4  10  22  35  59  89 112 140 184 221 272 328
#     4   9  20  37  58  84 109 145 186 222 267 325
#     4  10  18  32  46  74 108 150 189 231 281 324
#     4  10  20  32  48  74 106 145 195 236 274 320
#     4  10  20  28  48  75 111 144 187 239 281 319
#     4  11  20  32  56  79 110 147 183 233 278 318
#     4  10  21  39  63  89 116 143 170 218 273 331
#
# _framework density 19.448046999999999
#
# number of rings (size 3 to 8) (size 9 to 14) (size 15 to 20)
#    0.000    2.000    1.250    3.000    5.250    2.500 
#    0.000    0.625    0.000    2.625    0.000    0.000 
#    0.000    0.000    0.000    0.000    0.000    0.000 
#
# Total GULP energy -396463.730723 kJ/mol
# GULP energy per Si atom -12389.491585 kJ/mol
# Density = 1.940378 g / cm^3
# Si number density = 19.448047 Si / 1000 Ang^3
#
#
#
# Elastic Constant Matrix: (Units=GPa)
#
#
# Indices 1 2 3 4 5 6 
#
# 1 50.2207 -12.3476 50.8628 0.0000 60.8565 0.0000
# 2 -12.3476 15.9912 75.0100 0.0001 145.2393 0.0001
# 3 50.8628 75.0100 78.9876 -0.0001 -78.6657 -0.0001
# 4 0.0000 0.0001 -0.0001 1.5031 -0.0001 0.8420
# 5 60.8565 145.2393 -78.6657 -0.0001 -240.4074 -0.0002
# 6 0.0000 0.0001 -0.0001 0.8420 -0.0002 12.6523
#
#
#
# Elastic Compliance Matrix: (Units=1/GPa)
#
#
# Indices 1 2 3 4 5 6 
#
# 1 0.018612 -0.003142 -0.004676 0.000001 0.004343 0.000000
# 2 -0.003142 0.010891 -0.001930 0.000000 0.006415 0.000000
# 3 -0.004676 -0.001930 0.011437 0.000000 -0.006092 0.000000
# 4 0.000001 0.000000 0.000000 0.691042 0.000000 -0.045990
# 5 0.004343 0.006415 -0.006092 0.000000 0.002809 0.000000
# 6 0.000000 0.000000 0.000000 -0.045990 0.000000 0.082097
#
#
# Mechanical properties :
#
#
# Convention : Reuss Voigt Hill
#
# Bulk Modulus (GPa) = 46.63170 41.36109 43.99640
# Shear Modulus (GPa) = 5.92747 -43.13877 -18.60565
#
# Velocity S-wave (km/s) = 1.74770 -4.71484 -3.09639
# Velocity P-wave (km/s) = 5.30116 2.88547 3.14454
#
# Compressibility (1/GPa) = 0.02144464
#
# Stress axis : x y z
#
# Youngs Moduli (GPa) = 53.72844 91.82087 87.43823
#
# Poissons Ratio (x) = 0.28852 0.40883
# Poissons Ratio (y) = 0.16883 0.16872
# Poissons Ratio (z) = 0.25121 0.17718
#
# Static dielectric constant tensor:
#      x y z
#    x 3.374200 0.000000 0.053830 
#    y 0.000000 3.569790 0.000000 
#    z 0.053830 0.000000 3.450720 
# 
# 
# High freq. dielectric constant tensor:
#      x y z
#    x 1.747860 0.000000 0.003320 
#    y 0.000000 1.740830 0.000000 
#    z 0.003320 0.000000 1.751860 
# 
# From -- ./inp_files/301757.got.cif
#   From: 2010.06.25/outbox.cif.g09.slc.cpg/sg12_151_cif.got.tgz:301757.got - 2010.06.28 00:19:55.
