data_PCOD8082202
_publ_section_title
;
Structure prediction by ZEFSAII (Michael W. Deem and Ramdas Pophale) SiO2 
 PCOD8082202
Probable space group: C 2/M
;
_chemical_formula_sum "Si O2"
_cell_formula_units_Z 64
_cell_length_a 23.546923
_cell_length_b 9.113871
_cell_length_c 17.581810
_cell_angle_alpha 90.000000
_cell_angle_beta 72.313422
_cell_angle_gamma 90.000000
_cell_volume 3594.774766
_symmetry_space_group_name_H-M "C 2/M"
_symmetry_group_IT_number 12
_symmetry_cell_setting 'monoclinic'
loop_
_space_group_symop_operation_xyz
x,y,z
-x,y,-z
-x,-y,-z
x,-y,z
1/2+x,1/2+y,z
1/2-x,1/2+y,-z
1/2-x,1/2-y,-z
1/2+x,1/2-y,z
loop_
_atom_site_type_symbol
_atom_site_label
_atom_site_fract_x
_atom_site_fract_y
_atom_site_fract_z
Si Si1 0.262978 0.169563 0.071828
Si Si2 0.064268 0.327687 0.824128
Si Si3 0.898826 0.668047 0.023783
Si Si4 0.944169 0.174389 0.857476
Si Si5 0.156633 0.173576 0.215509
Si Si6 0.326621 0.169100 0.316520
Si Si7 0.311563 0.170214 0.489102
Si Si8 0.308493 0.674365 0.635761
O O1 0.329997 0.196911 0.072145
O O2 0.218125 0.232352 0.153726
O O3 0.250013 0.000000 0.062214
O O4 0.250000 0.250000 0.000000
O O5 0.057872 0.500000 0.809341
O O6 0.065039 0.297983 0.914132
O O7 0.123388 0.261157 0.759204
O O8 0.007936 0.243430 0.812529
O O9 0.909224 0.500000 0.993312
O O10 0.920229 0.774667 0.948941
O O11 0.899761 0.232291 0.809343
O O12 0.948930 0.000000 0.856500
O O13 0.155284 0.224757 0.303908
O O14 0.156837 0.000000 0.213065
O O15 0.348566 0.189795 0.395467
O O16 0.260059 0.233393 0.330178
O O17 0.321827 0.000000 0.296186
O O18 0.250000 0.250000 0.500000
O O19 0.341453 0.248164 0.550432
O O20 0.300954 0.000000 0.511398
O O21 0.309778 0.500000 0.622706
#
# Coordination Sequence:
#
# PCOD8082202 Si02
#       8
#     8   8   8   8   8   8   8   8
#     4  10  18  31  50  72  96 126 160 199 245 293
#     4  10  20  35  52  70  92 125 169 209 238 280
#     4  10  20  33  52  73  93 122 166 208 243 288
#     4  11  22  35  49  68  96 131 166 203 248 292
#     4   9  18  32  50  70  97 131 163 195 241 299
#     4   8  15  29  51  74  96 123 156 193 237 287
#     4   9  16  28  48  76 105 130 155 189 239 294
#     4   9  16  30  52  76  99 127 160 195 240 292
#
# _framework density 17.803618
#
# number of rings (size 3 to 8) (size 9 to 14) (size 15 to 20)
#    0.000    2.500    1.250    2.625    0.000    5.000 
#    0.000    5.000    0.000    3.750    0.000    5.250 
#    0.000    0.000    0.000    0.000    0.000    0.000 
#
# Total GULP energy -396616.853411 kJ/mol
# GULP energy per Si atom -12394.276669 kJ/mol
# Density = 1.776310 g / cm^3
# Si number density = 17.803618 Si / 1000 Ang^3
#
#
#
# Elastic Constant Matrix: (Units=GPa)
#
#
# Indices 1 2 3 4 5 6 
#
# 1 85.0305 24.7503 35.4106 0.0000 10.9744 0.0000
# 2 24.7503 49.6296 31.3627 0.0000 5.3434 0.0000
# 3 35.4106 31.3627 104.5581 0.0000 17.3433 0.0000
# 4 0.0000 0.0000 0.0000 26.9826 0.0000 2.4515
# 5 10.9744 5.3434 17.3433 0.0000 20.3162 0.0000
# 6 0.0000 0.0000 0.0000 2.4515 0.0000 22.6282
#
#
#
# Elastic Compliance Matrix: (Units=1/GPa)
#
#
# Indices 1 2 3 4 5 6 
#
# 1 0.015012 -0.005258 -0.002786 0.000000 -0.004348 0.000000
# 2 -0.005258 0.026704 -0.006449 0.000000 0.001322 0.000000
# 3 -0.002786 -0.006449 0.013876 0.000000 -0.008644 0.000000
# 4 0.000000 0.000000 0.000000 0.037429 0.000000 -0.004055
# 5 -0.004348 0.001322 -0.008644 0.000000 0.058602 0.000000
# 6 0.000000 0.000000 0.000000 -0.004055 0.000000 0.044632
#
#
# Mechanical properties :
#
#
# Convention : Reuss Voigt Hill
#
# Bulk Modulus (GPa) = 37.58348 46.91839 42.25093
# Shear Modulus (GPa) = 21.35750 23.83171 22.59461
#
# Velocity S-wave (km/s) = 3.46730 3.66264 3.56631
# Velocity P-wave (km/s) = 6.09799 6.65561 6.38289
#
# Compressibility (1/GPa) = 0.02660743
#
# Stress axis : x y z
#
# Youngs Moduli (GPa) = 66.61201 37.44720 72.06861
#
# Poissons Ratio (x) = 0.19690 0.20077
# Poissons Ratio (y) = 0.35025 0.46474
# Poissons Ratio (z) = 0.18557 0.24148
#
# Static dielectric constant tensor:
#      x y z
#    x 3.096850 0.000000 -0.049380 
#    y 0.000000 3.080340 0.000000 
#    z -0.049380 0.000000 3.904670 
# 
# 
# High freq. dielectric constant tensor:
#      x y z
#    x 1.670500 0.000000 0.009480 
#    y 0.000000 1.662220 0.000000 
#    z 0.009480 0.000000 1.694470 
# 
# From -- ./inp_files/287580.got.cif
#   From: 2010.06.25/outbox.cif.g09.slc.cpg/sg12_144_cif.got.tgz:287580.got - 2010.06.28 00:19:55.
