data_PCOD8082374
_publ_section_title
;
Structure prediction by ZEFSAII (Michael W. Deem and Ramdas Pophale) SiO2 
 PCOD8082374
Probable space group: C 2/M
;
_chemical_formula_sum "Si O2"
_cell_formula_units_Z 64
_cell_length_a 18.295975
_cell_length_b 17.994256
_cell_length_c 13.989254
_cell_angle_alpha 90.000000
_cell_angle_beta 51.337914
_cell_angle_gamma 90.000000
_cell_volume 3596.236727
_symmetry_space_group_name_H-M "C 2/M"
_symmetry_group_IT_number 12
_symmetry_cell_setting 'monoclinic'
loop_
_space_group_symop_operation_xyz
x,y,z
-x,y,-z
-x,-y,-z
x,-y,z
1/2+x,1/2+y,z
1/2-x,1/2+y,-z
1/2-x,1/2-y,-z
1/2+x,1/2-y,z
loop_
_atom_site_type_symbol
_atom_site_label
_atom_site_fract_x
_atom_site_fract_y
_atom_site_fract_z
Si Si1 0.756164 0.914583 0.415793
Si Si2 0.169535 0.205938 0.011620
Si Si3 0.577871 0.586296 0.577580
Si Si4 0.206366 0.861639 0.319270
Si Si5 0.516975 0.789322 0.877841
Si Si6 0.874451 0.087167 0.804815
Si Si7 0.127376 0.584114 0.694114
Si Si8 0.701258 0.706570 0.767567
O O1 0.850955 0.896884 0.395109
O O2 0.666966 0.896757 0.556105
O O3 0.754535 0.862881 0.324240
O O4 0.753985 0.000000 0.383770
O O5 0.153331 0.127182 0.074931
O O6 0.076152 0.255539 0.091261
O O7 0.250000 0.250000 0.000000
O O8 0.197987 0.185490 0.881090
O O9 0.574662 0.500000 0.554331
O O10 0.609408 0.627794 0.455265
O O11 0.476780 0.615727 0.690442
O O12 0.198592 0.890161 0.217488
O O13 0.287731 0.910494 0.300346
O O14 0.229736 0.775203 0.303662
O O15 0.544829 0.859458 0.789261
O O16 0.598283 0.727030 0.812038
O O17 0.500000 0.817725 0.000000
O O18 0.872559 0.000000 0.826579
O O19 0.088289 0.500000 0.728652
#
# Coordination Sequence:
#
# PCOD8082374 Si02
#       8
#     8   8   8   8   8   8   8   8
#     4   9  18  33  54  79 106 137 175 221 263 309
#     4  11  22  39  53  72 107 140 177 224 258 308
#     4   9  18  31  49  79 112 136 166 212 264 318
#     4  10  18  31  51  79 111 138 168 211 266 319
#     4   9  20  35  54  78 105 140 179 220 268 310
#     4  11  21  33  52  76 106 142 173 209 265 323
#     4   9  18  33  54  81 110 137 175 222 263 307
#     4  10  20  35  55  77 105 139 179 220 262 311
#
# _framework density 17.796382000000001
#
# number of rings (size 3 to 8) (size 9 to 14) (size 15 to 20)
#    0.000    2.250    1.250    3.000    0.000    7.250 
#    0.000    0.625    0.000    4.500    0.000    1.750 
#    0.000    0.000    0.000    0.000    0.000    0.000 
#
# Total GULP energy -396861.645655 kJ/mol
# GULP energy per Si atom -12401.926427 kJ/mol
# Density = 1.775588 g / cm^3
# Si number density = 17.796382 Si / 1000 Ang^3
#
#
#
# Elastic Constant Matrix: (Units=GPa)
#
#
# Indices 1 2 3 4 5 6 
#
# 1 72.0706 44.4088 43.4270 0.0000 8.0956 0.0000
# 2 44.4088 103.4076 71.6054 0.0000 14.9769 0.0000
# 3 43.4270 71.6054 111.4496 0.0000 18.3794 0.0000
# 4 0.0000 0.0000 0.0000 40.4055 0.0000 3.6700
# 5 8.0956 14.9769 18.3794 0.0000 24.2754 0.0000
# 6 0.0000 0.0000 0.0000 3.6700 0.0000 21.2375
#
#
#
# Elastic Compliance Matrix: (Units=1/GPa)
#
#
# Indices 1 2 3 4 5 6 
#
# 1 0.019841 -0.005704 -0.004062 0.000000 -0.000021 0.000000
# 2 -0.005704 0.019206 -0.009686 0.000000 -0.002613 0.000000
# 3 -0.004062 -0.009686 0.017791 0.000000 -0.006140 0.000000
# 4 0.000000 0.000000 0.000000 0.025144 0.000000 -0.004345
# 5 -0.000021 -0.002613 -0.006140 0.000000 0.047462 0.000000
# 6 0.000000 0.000000 0.000000 -0.004345 0.000000 0.047837
#
#
# Mechanical properties :
#
#
# Convention : Reuss Voigt Hill
#
# Bulk Modulus (GPa) = 55.76559 67.31223 61.53891
# Shear Modulus (GPa) = 22.50599 25.68279 24.09439
#
# Velocity S-wave (km/s) = 3.56003 3.80300 3.68352
# Velocity P-wave (km/s) = 6.94995 7.56237 7.26262
#
# Compressibility (1/GPa) = 0.01793221
#
# Stress axis : x y z
#
# Youngs Moduli (GPa) = 50.40193 52.06772 56.20786
#
# Poissons Ratio (x) = 0.29702 0.22834
# Poissons Ratio (y) = 0.28752 0.54442
# Poissons Ratio (z) = 0.20475 0.50432
#
# Static dielectric constant tensor:
#      x y z
#    x 3.165810 0.000000 -0.037290 
#    y 0.000000 3.171830 0.000000 
#    z -0.037290 0.000000 3.427340 
# 
# 
# High freq. dielectric constant tensor:
#      x y z
#    x 1.672050 0.000000 0.002280 
#    y 0.000000 1.681780 0.000000 
#    z 0.002280 0.000000 1.694720 
# 
# From -- ./inp_files/225670.got.cif
#   From: 2010.06.25/outbox.cif.g09.slc.cpg/sg12_113_cif.got.tgz:225670.got - 2010.06.28 00:19:55.
