data_PCOD8082351
_publ_section_title
;
Structure prediction by ZEFSAII (Michael W. Deem and Ramdas Pophale) SiO2 
 PCOD8082351
Probable space group: C 2/M
;
_chemical_formula_sum "Si O2"
_cell_formula_units_Z 56
_cell_length_a 14.221963
_cell_length_b 13.575240
_cell_length_c 27.271664
_cell_angle_alpha 90.000000
_cell_angle_beta 33.441380
_cell_angle_gamma 90.000000
_cell_volume 2901.590604
_symmetry_space_group_name_H-M "C 2/M"
_symmetry_group_IT_number 12
_symmetry_cell_setting 'monoclinic'
loop_
_space_group_symop_operation_xyz
x,y,z
-x,y,-z
-x,-y,-z
x,-y,z
1/2+x,1/2+y,z
1/2-x,1/2+y,-z
1/2-x,1/2-y,-z
1/2+x,1/2-y,z
loop_
_atom_site_type_symbol
_atom_site_label
_atom_site_fract_x
_atom_site_fract_y
_atom_site_fract_z
Si Si1 0.842693 0.107573 0.361053
Si Si2 0.171959 0.885821 0.064689
Si Si3 0.520612 0.797150 0.885281
Si Si4 0.759704 0.612734 0.292938
Si Si5 0.286227 0.613250 0.840109
Si Si6 0.877256 0.889281 0.456368
Si Si7 0.697438 0.306197 0.416243
O O1 0.793529 0.111163 0.439568
O O2 0.731550 0.193309 0.384982
O O3 0.043233 0.126340 0.266031
O O4 0.793172 0.000000 0.360602
O O5 0.177743 0.856237 0.119607
O O6 0.034929 0.817566 0.095497
O O7 0.119109 0.000000 0.080776
O O8 0.356988 0.867369 0.961196
O O9 0.613154 0.823954 0.794742
O O10 0.642917 0.815162 0.879111
O O11 0.775352 0.500000 0.269379
O O12 0.568440 0.654915 0.368907
O O13 0.803730 0.626608 0.331675
O O14 0.221552 0.500000 0.865485
O O15 0.754138 0.828875 0.547877
O O16 0.892119 0.000000 0.470676
O O17 0.500000 0.334218 0.500000
#
# Coordination Sequence:
#
# PCOD8082351 Si02
#       7
#     8   8   8   8   8   8   8
#     4  10  19  32  51  72  98 134 178 218 256 309
#     4  10  22  36  55  85 115 142 177 223 273 324
#     4  11  20  34  59  83 108 142 183 222 267 319
#     4  10  18  31  51  76  99 126 169 217 261 306
#     4  10  19  35  58  82 107 140 184 229 267 314
#     4   9  17  31  50  71  95 127 166 214 259 302
#     4  10  20  31  47  73 104 135 165 209 272 323
#
# _framework density 19.299759000000002
#
# number of rings (size 3 to 8) (size 9 to 14) (size 15 to 20)
#    0.000    2.000    1.429    3.429    0.000    3.143 
#    0.000    0.000    0.000   12.857    0.000    0.000 
#    0.000    0.000    0.000    0.000    0.000    0.000 
#
# Total GULP energy -347055.743192 kJ/mol
# GULP energy per Si atom -12394.847971 kJ/mol
# Density = 1.925583 g / cm^3
# Si number density = 19.299759 Si / 1000 Ang^3
#
#
#
# Elastic Constant Matrix: (Units=GPa)
#
#
# Indices 1 2 3 4 5 6 
#
# 1 51.6038 26.0270 10.2404 0.0000 10.5028 -0.0001
# 2 26.0270 95.2278 25.0310 0.0000 -1.0447 -0.0001
# 3 10.2404 25.0310 60.4918 -0.0001 12.7816 -0.0002
# 4 0.0000 0.0000 -0.0001 27.2565 0.0000 -1.8240
# 5 10.5028 -1.0447 12.7816 0.0000 18.8129 0.0001
# 6 -0.0001 -0.0001 -0.0002 -1.8240 0.0001 31.9072
#
#
#
# Elastic Compliance Matrix: (Units=1/GPa)
#
#
# Indices 1 2 3 4 5 6 
#
# 1 0.026367 -0.008023 0.002406 0.000000 -0.016800 0.000000
# 2 -0.008023 0.014580 -0.006763 0.000000 0.009884 0.000000
# 3 0.002406 -0.006763 0.022518 0.000000 -0.017018 0.000000
# 4 0.000000 0.000000 0.000000 0.036829 0.000000 0.002105
# 5 -0.016800 0.009884 -0.017018 0.000000 0.074645 0.000000
# 6 0.000000 0.000000 0.000000 0.002105 0.000000 0.031461
#
#
# Mechanical properties :
#
#
# Convention : Reuss Voigt Hill
#
# Bulk Modulus (GPa) = 25.83670 36.65781 31.24726
# Shear Modulus (GPa) = 20.48647 25.33032 22.90839
#
# Velocity S-wave (km/s) = 3.26158 3.62673 3.44899
# Velocity P-wave (km/s) = 5.25357 6.04754 5.66448
#
# Compressibility (1/GPa) = 0.03870463
#
# Stress axis : x y z
#
# Youngs Moduli (GPa) = 37.92644 68.58620 44.40838
#
# Poissons Ratio (x) = 0.55028 -0.10686
# Poissons Ratio (y) = 0.30429 0.30035
# Poissons Ratio (z) = -0.09126 0.46387
#
# Static dielectric constant tensor:
#      x y z
#    x 3.321650 0.000000 0.315670 
#    y 0.000000 3.583250 0.000000 
#    z 0.315670 0.000000 3.658100 
# 
# 
# High freq. dielectric constant tensor:
#      x y z
#    x 1.721350 0.000000 0.027070 
#    y 0.000000 1.745010 0.000000 
#    z 0.027070 0.000000 1.758090 
# 
# From -- ./inp_files/251141.got.cif
#   From: 2010.06.25/outbox.cif.g09.slc.cpg/sg12_126_cif.got.tgz:251141.got - 2010.06.28 00:19:55.
