data_PCOD8082219
_publ_section_title
;
Structure prediction by ZEFSAII (Michael W. Deem and Ramdas Pophale) SiO2 
 PCOD8082219
Probable space group: C 2/M
;
_chemical_formula_sum "Si O2"
_cell_formula_units_Z 64
_cell_length_a 24.362637
_cell_length_b 8.877211
_cell_length_c 17.478915
_cell_angle_alpha 90.000000
_cell_angle_beta 102.907567
_cell_angle_gamma 90.000000
_cell_volume 3684.685270
_symmetry_space_group_name_H-M "C 2/M"
_symmetry_group_IT_number 12
_symmetry_cell_setting 'monoclinic'
loop_
_space_group_symop_operation_xyz
x,y,z
-x,y,-z
-x,-y,-z
x,-y,z
1/2+x,1/2+y,z
1/2-x,1/2+y,-z
1/2-x,1/2-y,-z
1/2+x,1/2-y,z
loop_
_atom_site_type_symbol
_atom_site_label
_atom_site_fract_x
_atom_site_fract_y
_atom_site_fract_z
Si Si1 0.736257 0.677437 0.576640
Si Si2 0.661422 0.324924 0.319963
Si Si3 0.959169 0.672995 0.313034
Si Si4 0.586905 0.675362 0.154990
Si Si5 0.434918 0.169784 0.001115
Si Si6 0.567334 0.675549 0.415166
Si Si7 0.619917 0.827265 0.571148
Si Si8 0.040190 0.823978 0.841661
O O1 0.736532 0.500000 0.566544
O O2 0.750000 0.750000 0.500000
O O3 0.782377 0.727387 0.653219
O O4 0.675624 0.727545 0.587368
O O5 0.677614 0.500000 0.322699
O O6 0.632386 0.274555 0.231959
O O7 0.620354 0.291223 0.377724
O O8 0.978831 0.500000 0.312824
O O9 0.907132 0.689768 0.354124
O O10 0.937535 0.733550 0.224823
O O11 0.011028 0.774196 0.355749
O O12 0.590587 0.500000 0.137267
O O13 0.600370 0.763622 0.080900
O O14 0.525577 0.714720 0.168878
O O15 0.414916 0.000000 0.010459
O O16 0.500000 0.177751 0.000000
O O17 0.424441 0.268231 0.073793
O O18 0.562513 0.500000 0.433241
O O19 0.574796 0.768551 0.495291
O O20 0.634910 0.000000 0.557138
O O21 0.050761 0.000000 0.833215
#
# Coordination Sequence:
#
# PCOD8082219 Si02
#       8
#     8   8   8   8   8   8   8   8
#     4  12  24  38  57  78 101 134 176 223 270 314
#     4  10  20  35  54  78 106 138 176 216 262 312
#     4  11  23  36  52  76 108 141 177 219 263 311
#     4   9  17  31  49  72 103 137 172 209 253 307
#     4   9  17  28  44  71 104 137 171 208 254 305
#     4  11  21  35  55  78 105 140 177 215 262 314
#     4  11  24  40  55  74 102 140 180 222 267 310
#     4  10  18  31  50  73 103 140 177 210 254 310
#
# _framework density 17.36919
#
# number of rings (size 3 to 8) (size 9 to 14) (size 15 to 20)
#    0.000    1.625    2.500    3.375    0.000    6.500 
#    0.000    0.000    0.000    0.000    0.000    0.875 
#    0.000    0.000    0.000    0.000    0.000    0.000 
#
# Total GULP energy -396937.310184 kJ/mol
# GULP energy per Si atom -12404.290943 kJ/mol
# Density = 1.732966 g / cm^3
# Si number density = 17.369190 Si / 1000 Ang^3
#
#
#
# Elastic Constant Matrix: (Units=GPa)
#
#
# Indices 1 2 3 4 5 6 
#
# 1 36.4857 37.3392 29.0657 0.0000 -2.5299 0.0000
# 2 37.3392 99.4254 57.1390 0.0000 0.6671 0.0000
# 3 29.0657 57.1390 135.1791 0.0000 0.9673 0.0000
# 4 0.0000 0.0000 0.0000 34.5972 0.0000 1.7657
# 5 -2.5299 0.6671 0.9673 0.0000 17.2806 0.0000
# 6 0.0000 0.0000 0.0000 1.7657 0.0000 24.3471
#
#
#
# Elastic Compliance Matrix: (Units=1/GPa)
#
#
# Indices 1 2 3 4 5 6 
#
# 1 0.046651 -0.015553 -0.003511 0.000000 0.007627 0.000000
# 2 -0.015553 0.018471 -0.004444 0.000000 -0.002741 0.000000
# 3 -0.003511 -0.004444 0.010037 0.000000 -0.000904 0.000000
# 4 0.000000 0.000000 0.000000 0.029011 0.000000 -0.002104
# 5 0.007627 -0.002741 -0.000904 0.000000 0.059141 0.000000
# 6 0.000000 0.000000 0.000000 -0.002104 0.000000 0.041225
#
#
# Mechanical properties :
#
#
# Convention : Reuss Voigt Hill
#
# Bulk Modulus (GPa) = 35.53248 57.57531 46.55390
# Shear Modulus (GPa) = 19.16195 25.08141 22.12168
#
# Velocity S-wave (km/s) = 3.32507 3.80415 3.57265
# Velocity P-wave (km/s) = 5.93659 7.24674 6.62414
#
# Compressibility (1/GPa) = 0.02814326
#
# Stress axis : x y z
#
# Youngs Moduli (GPa) = 21.43588 54.13929 99.62822
#
# Poissons Ratio (x) = 0.84203 0.34980
# Poissons Ratio (y) = 0.33339 0.44272
# Poissons Ratio (z) = 0.07526 0.24058
#
# Static dielectric constant tensor:
#      x y z
#    x 2.963930 0.000000 0.037420 
#    y 0.000000 3.354360 0.000000 
#    z 0.037420 0.000000 3.403910 
# 
# 
# High freq. dielectric constant tensor:
#      x y z
#    x 1.628040 0.000000 0.003160 
#    y 0.000000 1.685250 0.000000 
#    z 0.003160 0.000000 1.679380 
# 
# From -- ./inp_files/287758.got.cif
#   From: 2010.06.25/outbox.cif.g09.slc.cpg/sg12_144_cif.got.tgz:287758.got - 2010.06.28 00:19:55.
