data_PCOD8082513
_publ_section_title
;
Structure prediction by ZEFSAII (Michael W. Deem and Ramdas Pophale) SiO2 
 PCOD8082513
Probable space group: C 2/M
;
_chemical_formula_sum "Si O2"
_cell_formula_units_Z 32
_cell_length_a 28.409302
_cell_length_b 8.510613
_cell_length_c 12.326287
_cell_angle_alpha 90.000000
_cell_angle_beta 149.208751
_cell_angle_gamma 90.000000
_cell_volume 1525.628204
_symmetry_space_group_name_H-M "C 2/M"
_symmetry_group_IT_number 12
_symmetry_cell_setting 'monoclinic'
loop_
_space_group_symop_operation_xyz
x,y,z
-x,y,-z
-x,-y,-z
x,-y,z
1/2+x,1/2+y,z
1/2-x,1/2+y,-z
1/2-x,1/2-y,-z
1/2+x,1/2-y,z
loop_
_atom_site_type_symbol
_atom_site_label
_atom_site_fract_x
_atom_site_fract_y
_atom_site_fract_z
Si Si1 0.014118 0.316089 0.909193
Si Si2 0.351796 0.685425 0.185562
Si Si3 0.679138 0.818011 0.090586
Si Si4 0.122342 0.315480 0.541920
O O1 0.993371 0.500000 0.875373
O O2 0.941612 0.244170 0.679745
O O3 0.118652 0.285092 0.077861
O O4 0.000000 0.238291 0.000000
O O5 0.354230 0.500000 0.176846
O O6 0.408640 0.735122 0.405243
O O7 0.250000 0.750000 0.000000
O O8 0.384874 0.766015 0.138884
O O9 0.772154 0.718260 0.281191
O O10 0.705695 0.000000 0.131318
O O11 0.107972 0.500000 0.527414
#
# Coordination Sequence:
#
# PCOD8082513 Si02
#       4
#     8   8   8   8
#     4   9  20  37  55  76 104 141 182 217 254 311
#     4  10  18  31  52  79 110 138 170 211 261 317
#     4  10  19  34  56  80 107 138 174 215 261 311
#     4  10  19  34  56  80 107 138 174 215 261 311
#
# _framework density 20.974966999999999
#
# number of rings (size 3 to 8) (size 9 to 14) (size 15 to 20)
#    0.000    2.250    0.000    6.750    0.000    2.000 
#    0.000   10.000    0.000   10.500    0.000    0.000 
#    0.000    0.000    0.000    0.000    0.000    0.000 
#
# Total GULP energy -198328.140923 kJ/mol
# GULP energy per Si atom -12395.508808 kJ/mol
# Density = 2.092723 g / cm^3
# Si number density = 20.974967 Si / 1000 Ang^3
#
#
#
# Elastic Constant Matrix: (Units=GPa)
#
#
# Indices 1 2 3 4 5 6 
#
# 1 86.9874 9.8060 0.3487 0.0000 -27.6597 0.0000
# 2 9.8060 68.6490 -5.9703 0.0000 -7.8536 0.0000
# 3 0.3487 -5.9703 64.0451 0.0000 -20.9180 0.0000
# 4 0.0000 0.0000 0.0000 19.5531 0.0000 0.1105
# 5 -27.6597 -7.8536 -20.9180 0.0000 29.7713 0.0000
# 6 0.0000 0.0000 0.0000 0.1105 0.0000 22.9845
#
#
#
# Elastic Compliance Matrix: (Units=1/GPa)
#
#
# Indices 1 2 3 4 5 6 
#
# 1 0.018570 0.000562 0.007313 0.000000 0.022540 0.000000
# 2 0.000562 0.015666 0.003864 0.000000 0.007370 0.000000
# 3 0.007313 0.003864 0.023992 0.000000 0.024671 0.000000
# 4 0.000000 0.000000 0.000000 0.051144 0.000000 -0.000246
# 5 0.022540 0.007370 0.024671 0.000000 0.073809 0.000000
# 6 0.000000 0.000000 0.000000 -0.000246 0.000000 0.043509
#
#
# Mechanical properties :
#
#
# Convention : Reuss Voigt Hill
#
# Bulk Modulus (GPa) = 12.23881 25.33892 18.78886
# Shear Modulus (GPa) = 21.69692 28.82825 25.26259
#
# Velocity S-wave (km/s) = 3.21973 3.71133 3.47423
# Velocity P-wave (km/s) = 4.43507 5.52015 5.00709
#
# Compressibility (1/GPa) = 0.08170728
#
# Stress axis : x y z
#
# Youngs Moduli (GPa) = 53.84954 63.83333 41.67983
#
# Poissons Ratio (x) = -0.03587 -0.30481
# Poissons Ratio (y) = -0.03026 -0.16107
# Poissons Ratio (z) = -0.39380 -0.24668
#
# Static dielectric constant tensor:
#      x y z
#    x 4.190930 0.000000 -0.562200 
#    y 0.000000 3.535100 0.000000 
#    z -0.562200 0.000000 4.032190 
# 
# 
# High freq. dielectric constant tensor:
#      x y z
#    x 1.825670 0.000000 -0.009470 
#    y 0.000000 1.801860 0.000000 
#    z -0.009470 0.000000 1.815100 
# 
# From -- ./inp_files/150978.got.cif
#   From: 2010.06.25/outbox.cif.g09.slc.cpg/sg12_76_cif.got.tgz:150978.got - 2010.06.28 00:19:55.
