data_PCOD8082635
_publ_section_title
;
Structure prediction by ZEFSAII (Michael W. Deem and Ramdas Pophale) SiO2 
 PCOD8082635
Probable space group: C 2/M
;
_chemical_formula_sum "Si O2"
_cell_formula_units_Z 52
_cell_length_a 14.755251
_cell_length_b 20.720243
_cell_length_c 11.618630
_cell_angle_alpha 90.000000
_cell_angle_beta 132.188846
_cell_angle_gamma 90.000000
_cell_volume 2631.944229
_symmetry_space_group_name_H-M "C 2/M"
_symmetry_group_IT_number 12
_symmetry_cell_setting 'monoclinic'
loop_
_space_group_symop_operation_xyz
x,y,z
-x,y,-z
-x,-y,-z
x,-y,z
1/2+x,1/2+y,z
1/2-x,1/2+y,-z
1/2-x,1/2-y,-z
1/2+x,1/2-y,z
loop_
_atom_site_type_symbol
_atom_site_label
_atom_site_fract_x
_atom_site_fract_y
_atom_site_fract_z
Si Si1 0.632584 0.573691 0.806057
Si Si2 0.500000 0.344426 0.500000
Si Si3 0.633526 0.923854 0.872356
Si Si4 0.822866 0.813361 0.532690
Si Si5 0.136650 0.576296 0.385768
Si Si6 0.548949 0.382172 0.162317
Si Si7 0.304879 0.928236 0.318180
O O1 0.639435 0.500000 0.771878
O O2 0.575518 0.612002 0.652493
O O3 0.553854 0.577983 0.856564
O O4 0.769257 0.601982 0.950198
O O5 0.408670 0.299533 0.495654
O O6 0.492810 0.909378 0.787736
O O7 0.663567 0.890527 0.773366
O O8 0.656332 0.000000 0.883555
O O9 0.750000 0.750000 0.500000
O O10 0.741324 0.876169 0.426399
O O11 0.903836 0.824971 0.715413
O O12 0.174146 0.500000 0.404231
O O13 0.120067 0.596480 0.506197
O O14 0.661421 0.428647 0.226849
O O15 0.500000 0.352902 0.000000
O O16 0.350124 0.000000 0.334453
#
# Coordination Sequence:
#
# PCOD8082635 Si02
#       7
#     8   4   8   8   8   8   8
#     4  10  19  31  54  86 123 159 193 243 295 347
#     4  10  23  42  60  78 111 152 208 240 286 360
#     4   9  16  27  46  80 121 152 186 230 284 343
#     4  10  23  44  62  84 114 156 198 243 294 353
#     4   9  18  33  55  84 116 149 190 237 289 347
#     4  10  18  31  53  83 117 148 197 245 294 344
#     4   9  15  24  44  77 118 153 182 226 286 343
#
# _framework density 19.757256999999999
#
# number of rings (size 3 to 8) (size 9 to 14) (size 15 to 20)
#    0.000    2.462    1.538    1.154    0.000    6.769 
#    5.538    2.308    0.000    6.462    0.000    0.000 
#    0.000    0.000    0.000    0.000    0.000    0.000 
#
# Total GULP energy -322100.791569 kJ/mol
# GULP energy per Si atom -12388.491983 kJ/mol
# Density = 1.971229 g / cm^3
# Si number density = 19.757257 Si / 1000 Ang^3
#
#
#
# Elastic Constant Matrix: (Units=GPa)
#
#
# Indices 1 2 3 4 5 6 
#
# 1 97.3139 37.6770 49.9528 0.0000 -0.5424 0.0000
# 2 37.6770 64.4135 24.1492 0.0000 3.6409 0.0000
# 3 49.9528 24.1492 134.3002 0.0000 10.9028 0.0000
# 4 0.0000 0.0000 0.0000 13.0575 0.0000 7.0020
# 5 -0.5424 3.6409 10.9028 0.0000 32.8896 0.0000
# 6 0.0000 0.0000 0.0000 7.0020 0.0000 22.4515
#
#
#
# Elastic Compliance Matrix: (Units=1/GPa)
#
#
# Indices 1 2 3 4 5 6 
#
# 1 0.015597 -0.007524 -0.004662 0.000000 0.002636 0.000000
# 2 -0.007524 0.020301 -0.000678 0.000000 -0.002147 0.000000
# 3 -0.004662 -0.000678 0.009559 0.000000 -0.003171 0.000000
# 4 0.000000 0.000000 0.000000 0.091964 0.000000 -0.028681
# 5 0.002636 -0.002147 -0.003171 0.000000 0.031737 0.000000
# 6 0.000000 0.000000 0.000000 -0.028681 0.000000 0.053485
#
#
# Mechanical properties :
#
#
# Convention : Reuss Voigt Hill
#
# Bulk Modulus (GPa) = 50.68547 57.73174 54.20861
# Shear Modulus (GPa) = 19.61180 25.96298 22.78739
#
# Velocity S-wave (km/s) = 3.15403 3.62898 3.39981
# Velocity P-wave (km/s) = 6.24289 6.84422 6.55046
#
# Compressibility (1/GPa) = 0.01972952
#
# Stress axis : x y z
#
# Youngs Moduli (GPa) = 64.11458 49.25835 104.60903
#
# Poissons Ratio (x) = 0.37063 0.48772
# Poissons Ratio (y) = 0.48241 0.07088
# Poissons Ratio (z) = 0.29892 0.03338
#
# Static dielectric constant tensor:
#      x y z
#    x 3.712270 0.000000 0.099340 
#    y 0.000000 2.985520 0.000000 
#    z 0.099340 0.000000 3.935420 
# 
# 
# High freq. dielectric constant tensor:
#      x y z
#    x 1.768710 0.000000 0.010450 
#    y 0.000000 1.704240 0.000000 
#    z 0.010450 0.000000 1.786560 
# 
# From -- ./inp_files/147742.got.cif
#   From: 2010.06.25/outbox.cif.g09.slc.cpg/sg12_74_cif.got.tgz:147742.got - 2010.06.28 00:19:55.
