data_PCOD8082429
_publ_section_title
;
Structure prediction by ZEFSAII (Michael W. Deem and Ramdas Pophale) SiO2 
 PCOD8082429
Probable space group: C 2/M
;
_chemical_formula_sum "Si O2"
_cell_formula_units_Z 40
_cell_length_a 25.159665
_cell_length_b 8.998326
_cell_length_c 29.437217
_cell_angle_alpha 90.000000
_cell_angle_beta 160.225446
_cell_angle_gamma 90.000000
_cell_volume 2254.711773
_symmetry_space_group_name_H-M "C 2/M"
_symmetry_group_IT_number 12
_symmetry_cell_setting 'monoclinic'
loop_
_space_group_symop_operation_xyz
x,y,z
-x,y,-z
-x,-y,-z
x,-y,z
1/2+x,1/2+y,z
1/2-x,1/2+y,-z
1/2-x,1/2-y,-z
1/2+x,1/2-y,z
loop_
_atom_site_type_symbol
_atom_site_label
_atom_site_fract_x
_atom_site_fract_y
_atom_site_fract_z
Si Si1 0.416424 0.673176 0.633805
Si Si2 0.417143 0.323559 0.140619
Si Si3 0.820195 0.674151 0.705469
Si Si4 0.663347 0.832630 0.657563
Si Si5 0.501340 0.671677 0.603061
O O1 0.380851 0.500000 0.607657
O O2 0.250000 0.750000 0.500000
O O3 0.519415 0.726547 0.759096
O O4 0.511230 0.712599 0.664131
O O5 0.404101 0.500000 0.125823
O O6 0.530791 0.262398 0.193153
O O7 0.250000 0.250000 0.000000
O O8 0.857898 0.500000 0.737464
O O9 0.787955 0.732318 0.730547
O O10 0.673059 0.710885 0.554752
O O11 0.500000 0.828522 0.500000
O O12 0.634851 0.766255 0.684805
O O13 0.728055 0.000000 0.713955
O O14 0.537714 0.500000 0.622685
#
# Coordination Sequence:
#
# PCOD8082429 Si02
#       5
#     8   8   8   8   8
#     4  10  20  34  54  79 107 139 175 219 266 313
#     4  11  23  37  54  77 108 144 181 218 262 315
#     4  10  18  31  52  75 104 139 175 216 263 312
#     4   9  17  28  45  73 106 137 171 212 259 310
#     4   9  17  30  49  76 106 135 170 213 263 314
#
# _framework density 17.740627
#
# number of rings (size 3 to 8) (size 9 to 14) (size 15 to 20)
#    0.000    2.200    2.000    1.800    0.000    4.800 
#    0.000    0.000    0.000    1.200    0.000    8.400 
#    0.000    0.000    0.000    0.000    0.000    0.000 
#
# Total GULP energy -248027.036718 kJ/mol
# GULP energy per Si atom -12401.351836 kJ/mol
# Density = 1.770025 g / cm^3
# Si number density = 17.740627 Si / 1000 Ang^3
#
#
#
# Elastic Constant Matrix: (Units=GPa)
#
#
# Indices 1 2 3 4 5 6 
#
# 1 137.5601 54.2191 64.0360 -0.0056 14.2407 -0.0009
# 2 54.2191 85.9819 48.1818 -0.0023 7.3109 0.0001
# 3 64.0360 48.1818 84.8643 0.0104 4.7160 -0.0017
# 4 -0.0056 -0.0023 0.0104 25.3070 0.0037 8.7721
# 5 14.2407 7.3109 4.7160 0.0037 20.7804 0.0005
# 6 -0.0009 0.0001 -0.0017 8.7721 0.0005 34.4147
#
#
#
# Elastic Compliance Matrix: (Units=1/GPa)
#
#
# Indices 1 2 3 4 5 6 
#
# 1 0.012573 -0.003374 -0.007251 0.000007 -0.005784 -0.000002
# 2 -0.003374 0.018272 -0.007697 0.000005 -0.002370 -0.000002
# 3 -0.007251 -0.007697 0.021469 -0.000013 0.002804 0.000004
# 4 0.000007 0.000005 -0.000013 0.043344 -0.000011 -0.011048
# 5 -0.005784 -0.002370 0.002804 -0.000011 0.052283 0.000002
# 6 -0.000002 -0.000002 0.000004 -0.011048 0.000002 0.031873
#
#
# Mechanical properties :
#
#
# Convention : Reuss Voigt Hill
#
# Bulk Modulus (GPa) = 63.80755 71.25334 67.53044
# Shear Modulus (GPa) = 22.55490 25.56506 24.05998
#
# Velocity S-wave (km/s) = 3.56950 3.80023 3.68667
# Velocity P-wave (km/s) = 7.28240 7.71406 7.50134
#
# Compressibility (1/GPa) = 0.01567213
#
# Stress axis : x y z
#
# Youngs Moduli (GPa) = 79.53346 54.72763 46.57976
#
# Poissons Ratio (x) = 0.18464 0.33773
# Poissons Ratio (y) = 0.26833 0.35851
# Poissons Ratio (z) = 0.57666 0.42122
#
# Static dielectric constant tensor:
#      x y z
#    x 3.299270 0.000250 -0.020320 
#    y 0.000250 3.365420 0.000040 
#    z -0.020320 0.000040 2.904490 
# 
# 
# High freq. dielectric constant tensor:
#      x y z
#    x 1.701880 0.000000 0.015270 
#    y 0.000000 1.695980 0.000000 
#    z 0.015270 0.000000 1.638150 
# 
# From -- ./inp_files/92938.got.cif
#   From: 2010.06.25/outbox.cif.g09.slc.cpg/sg12_47_cif.got.tgz:92938.got - 2010.06.28 00:19:55.
