data_PCOD8082141
_publ_section_title
;
Structure prediction by ZEFSAII (Michael W. Deem and Ramdas Pophale) SiO2 
 PCOD8082141
Probable space group: C 2/M
;
_chemical_formula_sum "Si O2"
_cell_formula_units_Z 64
_cell_length_a 15.155974
_cell_length_b 22.048784
_cell_length_c 12.763241
_cell_angle_alpha 90.000000
_cell_angle_beta 112.974363
_cell_angle_gamma 90.000000
_cell_volume 3926.792762
_symmetry_space_group_name_H-M "C 2/M"
_symmetry_group_IT_number 12
_symmetry_cell_setting 'monoclinic'
loop_
_space_group_symop_operation_xyz
x,y,z
-x,y,-z
-x,-y,-z
x,-y,z
1/2+x,1/2+y,z
1/2-x,1/2+y,-z
1/2-x,1/2-y,-z
1/2+x,1/2-y,z
loop_
_atom_site_type_symbol
_atom_site_label
_atom_site_fract_x
_atom_site_fract_y
_atom_site_fract_z
Si Si1 0.411550 0.826944 0.527788
Si Si2 0.018620 0.569003 0.297964
Si Si3 0.076870 0.364162 0.124647
Si Si4 0.573698 0.751530 0.265675
Si Si5 0.857737 0.250803 0.157319
Si Si6 0.793119 0.430124 0.166772
Si Si7 0.250459 0.823043 0.285424
Si Si8 0.219380 0.348435 0.023434
O O1 0.500000 0.801555 0.500000
O O2 0.441639 0.892439 0.586838
O O3 0.386307 0.782450 0.611119
O O4 0.315360 0.832305 0.417096
O O5 0.042564 0.500000 0.335310
O O6 0.906000 0.580845 0.233879
O O7 0.069727 0.586456 0.213007
O O8 0.068857 0.296792 0.165772
O O9 0.180245 0.370094 0.117407
O O10 0.000000 0.378420 0.000000
O O11 0.464817 0.731218 0.238472
O O12 0.643591 0.696338 0.269307
O O13 0.797667 0.272653 0.230938
O O14 0.814550 0.190876 0.084168
O O15 0.858539 0.306247 0.074204
O O16 0.763927 0.500000 0.168750
O O17 0.738387 0.388395 0.225312
O O18 0.760085 0.408215 0.036165
#
# Coordination Sequence:
#
# PCOD8082141 Si02
#       8
#     8   8   8   8   8   8   8   8
#     4  11  19  34  51  72 107 131 159 212 256 295
#     4  10  21  32  48  74 103 136 170 199 246 310
#     4  11  17  29  48  74 105 134 162 203 243 296
#     4  11  21  32  50  75 104 132 169 206 252 305
#     4  10  19  31  50  77 102 131 171 201 243 312
#     4  10  20  33  49  75 104 133 170 202 242 302
#     4  11  20  34  53  75 100 136 166 206 258 296
#     4  10  18  31  49  73 106 136 163 203 249 288
#
# _framework density 16.298287999999999
#
# number of rings (size 3 to 8) (size 9 to 14) (size 15 to 20)
#    0.000    1.500    6.250    1.875    0.000    1.500 
#    0.000    0.000    0.000    1.500    0.000    0.000 
#    0.000    1.500    0.000    0.000    0.000    0.000 
#
# Total GULP energy -396786.539500 kJ/mol
# GULP energy per Si atom -12399.579359 kJ/mol
# Density = 1.626119 g / cm^3
# Si number density = 16.298288 Si / 1000 Ang^3
#
#
#
# Elastic Constant Matrix: (Units=GPa)
#
#
# Indices 1 2 3 4 5 6 
#
# 1 69.5716 46.8483 22.6526 0.0000 -7.0207 0.0000
# 2 46.8483 101.1240 33.5914 0.0000 2.0326 0.0000
# 3 22.6526 33.5914 77.3333 0.0000 -3.4677 0.0000
# 4 0.0000 0.0000 0.0000 16.9071 0.0000 1.2256
# 5 -7.0207 2.0326 -3.4677 0.0000 23.6641 0.0000
# 6 0.0000 0.0000 0.0000 1.2256 0.0000 22.0861
#
#
#
# Elastic Compliance Matrix: (Units=1/GPa)
#
#
# Indices 1 2 3 4 5 6 
#
# 1 0.022377 -0.009865 -0.001947 0.000000 0.007201 0.000000
# 2 -0.009865 0.015977 -0.004271 0.000000 -0.004925 0.000000
# 3 -0.001947 -0.004271 0.015449 0.000000 0.002053 0.000000
# 4 0.000000 0.000000 0.000000 0.059386 0.000000 -0.003296
# 5 0.007201 -0.004925 0.002053 0.000000 0.045118 0.000000
# 6 0.000000 0.000000 0.000000 -0.003296 0.000000 0.045460
#
#
# Mechanical properties :
#
#
# Convention : Reuss Voigt Hill
#
# Bulk Modulus (GPa) = 46.21720 50.46821 48.34271
# Shear Modulus (GPa) = 20.56391 22.19388 21.37889
#
# Velocity S-wave (km/s) = 3.55593 3.69417 3.62571
# Velocity P-wave (km/s) = 6.72890 7.01629 6.87410
#
# Compressibility (1/GPa) = 0.02163696
#
# Stress axis : x y z
#
# Youngs Moduli (GPa) = 44.68873 62.59111 64.73079
#
# Poissons Ratio (x) = 0.61745 0.12602
# Poissons Ratio (y) = 0.44084 0.27647
# Poissons Ratio (z) = 0.08700 0.26733
#
# Static dielectric constant tensor:
#      x y z
#    x 2.974530 0.000000 -0.136300 
#    y 0.000000 2.920830 0.000000 
#    z -0.136300 0.000000 3.183090 
# 
# 
# High freq. dielectric constant tensor:
#      x y z
#    x 1.609950 0.000000 -0.014750 
#    y 0.000000 1.603910 0.000000 
#    z -0.014750 0.000000 1.635980 
# 
# From -- ./inp_files/147682.got.cif
#   From: 2010.06.25/outbox.cif.g09.slc.cpg/sg12_74_cif.got.tgz:147682.got - 2010.06.28 00:19:55.
