data_PCOD8082418
_publ_section_title
;
Structure prediction by ZEFSAII (Michael W. Deem and Ramdas Pophale) SiO2 
 PCOD8082418
Probable space group: C 2/M
;
_chemical_formula_sum "Si O2"
_cell_formula_units_Z 64
_cell_length_a 14.701148
_cell_length_b 8.636870
_cell_length_c 30.487154
_cell_angle_alpha 90.000000
_cell_angle_beta 120.156792
_cell_angle_gamma 90.000000
_cell_volume 3347.085597
_symmetry_space_group_name_H-M "C 2/M"
_symmetry_group_IT_number 12
_symmetry_cell_setting 'monoclinic'
loop_
_space_group_symop_operation_xyz
x,y,z
-x,y,-z
-x,-y,-z
x,-y,z
1/2+x,1/2+y,z
1/2-x,1/2+y,-z
1/2-x,1/2-y,-z
1/2+x,1/2-y,z
loop_
_atom_site_type_symbol
_atom_site_label
_atom_site_fract_x
_atom_site_fract_y
_atom_site_fract_z
Si Si1 0.258295 0.315687 0.367932
Si Si2 0.478547 0.178805 0.884428
Si Si3 0.961641 0.184220 0.709098
Si Si4 0.854557 0.316331 0.005841
Si Si5 0.066967 0.817892 0.822835
Si Si6 0.793062 0.320881 0.898298
Si Si7 0.696654 0.316323 0.444250
Si Si8 0.964103 0.817623 0.366617
O O1 0.260496 0.500000 0.370242
O O2 0.153730 0.259856 0.317695
O O3 0.258396 0.250490 0.417268
O O4 0.361686 0.249412 0.367010
O O5 0.550238 0.246669 0.941320
O O6 0.487736 0.276821 0.842581
O O7 0.358797 0.202027 0.870120
O O8 0.505362 0.000000 0.881323
O O9 0.023753 0.248325 0.766509
O O10 0.029417 0.235557 0.682843
O O11 0.945768 0.000000 0.705693
O O12 0.858381 0.500000 0.008209
O O13 0.750000 0.250000 0.000000
O O14 0.857196 0.255008 0.956066
O O15 0.179808 0.741086 0.862629
O O16 0.078069 0.000000 0.820374
O O17 0.772892 0.500000 0.903699
O O18 0.705927 0.500000 0.444907
O O19 0.750000 0.250000 0.500000
O O20 0.574011 0.264104 0.415454
O O21 0.954572 0.000000 0.366480
#
# Coordination Sequence:
#
# PCOD8082418 Si02
#       8
#     8   8   8   8   8   8   8   8
#     4  10  19  34  57  82 104 136 181 223 260 301
#     4  10  20  33  52  76 100 128 166 212 254 300
#     4   9  19  36  54  74 102 137 173 213 262 312
#     4  10  18  31  52  74  98 129 165 205 251 304
#     4  10  20  35  54  74 101 135 169 208 258 315
#     4   9  18  33  52  73  99 133 169 202 249 315
#     4  10  20  36  55  80 115 149 179 215 257 304
#     4   8  17  34  55  76 103 140 179 213 252 308
#
# _framework density 19.121112
#
# number of rings (size 3 to 8) (size 9 to 14) (size 15 to 20)
#    0.000    2.500    1.250    1.875    0.000    3.500 
#    0.000   12.500    0.000    1.500    0.000    0.000 
#    0.000    0.000    0.000    0.000    0.000    0.000 
#
# Total GULP energy -396600.112180 kJ/mol
# GULP energy per Si atom -12393.753506 kJ/mol
# Density = 1.907759 g / cm^3
# Si number density = 19.121112 Si / 1000 Ang^3
#
#
#
# Elastic Constant Matrix: (Units=GPa)
#
#
# Indices 1 2 3 4 5 6 
#
# 1 138.7681 19.0664 65.0256 0.0000 -12.9840 0.0000
# 2 19.0664 27.3231 25.3154 0.0000 -0.6451 0.0000
# 3 65.0256 25.3154 165.3994 0.0000 -17.0880 0.0000
# 4 0.0000 0.0000 0.0000 24.2720 0.0000 -2.0601
# 5 -12.9840 -0.6451 -17.0880 0.0000 18.0807 0.0000
# 6 0.0000 0.0000 0.0000 -2.0601 0.0000 27.7966
#
#
#
# Elastic Compliance Matrix: (Units=1/GPa)
#
#
# Indices 1 2 3 4 5 6 
#
# 1 0.009381 -0.003989 -0.002655 0.000000 0.004085 0.000000
# 2 -0.003989 0.044780 -0.006003 0.000000 -0.006940 0.000000
# 3 -0.002655 -0.006003 0.008632 0.000000 0.006037 0.000000
# 4 0.000000 0.000000 0.000000 0.041460 0.000000 0.003073
# 5 0.004085 -0.006940 0.006037 0.000000 0.063699 0.000000
# 6 0.000000 0.000000 0.000000 0.003073 0.000000 0.036203
#
#
# Mechanical properties :
#
#
# Convention : Reuss Voigt Hill
#
# Bulk Modulus (GPa) = 26.66730 61.14504 43.90617
# Shear Modulus (GPa) = 20.66533 28.83542 24.75038
#
# Velocity S-wave (km/s) = 3.29106 3.88756 3.60168
# Velocity P-wave (km/s) = 5.33087 7.22482 6.34887
#
# Compressibility (1/GPa) = 0.03749911
#
# Stress axis : x y z
#
# Youngs Moduli (GPa) = 106.59968 22.33115 115.84246
#
# Poissons Ratio (x) = 0.08909 0.30761
# Poissons Ratio (y) = 0.42526 0.69535
# Poissons Ratio (z) = 0.28307 0.13404
#
# Static dielectric constant tensor:
#      x y z
#    x 3.663620 0.000000 0.049680 
#    y 0.000000 3.204500 0.000000 
#    z 0.049680 0.000000 3.796010 
# 
# 
# High freq. dielectric constant tensor:
#      x y z
#    x 1.750220 0.000000 -0.002930 
#    y 0.000000 1.709410 0.000000 
#    z -0.002930 0.000000 1.749300 
# 
# From -- ./inp_files/375035.got.cif
#   From: 2010.06.25/outbox.cif.g09.slc.cpg/sg12_188_cif.got.tgz:375035.got - 2010.06.28 00:19:55.
