data_PCOD8082160
_publ_section_title
;
Structure prediction by ZEFSAII (Michael W. Deem and Ramdas Pophale) SiO2 
 PCOD8082160
Probable space group: C 2/M
;
_chemical_formula_sum "Si O2"
_cell_formula_units_Z 60
_cell_length_a 15.315412
_cell_length_b 19.413120
_cell_length_c 23.831120
_cell_angle_alpha 90.000000
_cell_angle_beta 147.604357
_cell_angle_gamma 90.000000
_cell_volume 3796.128108
_symmetry_space_group_name_H-M "C 2/M"
_symmetry_group_IT_number 12
_symmetry_cell_setting 'monoclinic'
loop_
_space_group_symop_operation_xyz
x,y,z
-x,y,-z
-x,-y,-z
x,-y,z
1/2+x,1/2+y,z
1/2-x,1/2+y,-z
1/2-x,1/2-y,-z
1/2+x,1/2-y,z
loop_
_atom_site_type_symbol
_atom_site_label
_atom_site_fract_x
_atom_site_fract_y
_atom_site_fract_z
Si Si1 0.000000 0.829488 0.000000
Si Si2 0.486373 0.750517 0.878659
Si Si3 0.125285 0.580125 0.296623
Si Si4 0.767045 0.419741 0.094917
Si Si5 0.692386 0.921495 0.110618
Si Si6 0.928740 0.922861 0.522597
Si Si7 0.717725 0.353625 0.953048
Si Si8 0.726657 0.643295 0.729169
O O1 0.035262 0.782347 0.072305
O O2 0.154800 0.877979 0.076192
O O3 0.558037 0.695594 0.872633
O O4 0.309218 0.781097 0.763272
O O5 0.614664 0.812006 0.953351
O O6 0.107346 0.500000 0.295305
O O7 0.245458 0.607068 0.411727
O O8 0.190706 0.590928 0.269229
O O9 0.945822 0.612356 0.204285
O O10 0.753487 0.500000 0.101476
O O11 0.716851 0.408539 0.003014
O O12 0.790528 0.893396 0.110098
O O13 0.742046 0.876103 0.190131
O O14 0.745967 0.000000 0.149355
O O15 0.500000 0.915390 0.000000
O O16 0.000000 0.933189 0.500000
O O17 0.031009 0.864943 0.612708
O O18 0.928685 0.000000 0.551287
#
# Coordination Sequence:
#
# PCOD8082160 Si02
#       8
#     4   8   8   8   8   8   8   8
#     4  10  21  32  44  66  91 124 156 184 214 260
#     4  10  19  30  44  58  87 123 155 176 207 262
#     4   9  16  28  46  70  93 116 144 185 235 270
#     4  10  18  31  50  68  90 114 149 194 230 258
#     4  11  19  26  40  64  92 115 141 181 227 270
#     4   8  15  26  43  67  93 114 143 185 229 272
#     4  10  19  31  41  62  89 122 154 175 210 267
#     4  11  17  28  43  67  89 118 147 176 218 264
#
# _framework density 15.805578000000001
#
# number of rings (size 3 to 8) (size 9 to 14) (size 15 to 20)
#    0.000    2.133    2.667    3.400    0.000    2.133 
#    0.000    0.000    0.000    0.800    3.467    0.000 
#    0.000    0.000    0.000   18.000    0.000    0.000 
#
# Total GULP energy -371712.432522 kJ/mol
# GULP energy per Si atom -12390.414417 kJ/mol
# Density = 1.576960 g / cm^3
# Si number density = 15.805578 Si / 1000 Ang^3
#
#
#
# Elastic Constant Matrix: (Units=GPa)
#
#
# Indices 1 2 3 4 5 6 
#
# 1 67.4699 18.0110 23.4654 0.0006 3.0666 0.0000
# 2 18.0110 51.7238 26.0816 0.0008 2.4141 0.0003
# 3 23.4654 26.0816 92.0837 -0.0015 6.5540 0.0017
# 4 0.0006 0.0008 -0.0015 21.6979 -0.0003 2.4408
# 5 3.0666 2.4141 6.5540 -0.0003 13.7728 0.0004
# 6 0.0000 0.0003 0.0017 2.4408 0.0004 21.9680
#
#
#
# Elastic Compliance Matrix: (Units=1/GPa)
#
#
# Indices 1 2 3 4 5 6 
#
# 1 0.017106 -0.004364 -0.003008 -0.000001 -0.001612 0.000000
# 2 -0.004364 0.023680 -0.005557 -0.000001 -0.000535 0.000000
# 3 -0.003008 -0.005557 0.013542 0.000001 -0.004800 -0.000001
# 4 -0.000001 -0.000001 0.000001 0.046671 0.000001 -0.005185
# 5 -0.001612 -0.000535 -0.004800 0.000001 0.075344 -0.000001
# 6 0.000000 0.000000 -0.000001 -0.005185 -0.000001 0.046097
#
#
# Mechanical properties :
#
#
# Convention : Reuss Voigt Hill
#
# Bulk Modulus (GPa) = 35.12586 38.48815 36.80701
# Shear Modulus (GPa) = 19.39574 21.06901 20.23237
#
# Velocity S-wave (km/s) = 3.50686 3.65500 3.58170
# Velocity P-wave (km/s) = 6.21847 6.49738 6.35946
#
# Compressibility (1/GPa) = 0.02846905
#
# Stress axis : x y z
#
# Youngs Moduli (GPa) = 58.45906 42.22926 73.84529
#
# Poissons Ratio (x) = 0.18431 0.22214
# Poissons Ratio (y) = 0.25514 0.41035
# Poissons Ratio (z) = 0.17585 0.23466
#
# Static dielectric constant tensor:
#      x y z
#    x 2.932280 0.000000 0.220010 
#    y 0.000000 2.983730 0.000000 
#    z 0.220010 0.000000 3.636560 
# 
# 
# High freq. dielectric constant tensor:
#      x y z
#    x 1.592190 0.000000 0.004140 
#    y 0.000000 1.595540 0.000000 
#    z 0.004140 0.000000 1.590090 
# 
# From -- ./inp_files/341123.got.cif
#   From: 2010.06.25/outbox.cif.g09.slc.cpg/sg12_171_cif.got.tgz:341123.got - 2010.06.28 00:19:55.
