data_PCOD8082015
_publ_section_title
;
Structure prediction by ZEFSAII (Michael W. Deem and Ramdas Pophale) SiO2 
 PCOD8082015
Probable space group: C 2/M
;
_chemical_formula_sum "Si O2"
_cell_formula_units_Z 60
_cell_length_a 29.197222
_cell_length_b 9.244151
_cell_length_c 28.381962
_cell_angle_alpha 90.000000
_cell_angle_beta 155.313610
_cell_angle_gamma 90.000000
_cell_volume 3199.372213
_symmetry_space_group_name_H-M "C 2/M"
_symmetry_group_IT_number 12
_symmetry_cell_setting 'monoclinic'
loop_
_space_group_symop_operation_xyz
x,y,z
-x,y,-z
-x,-y,-z
x,-y,z
1/2+x,1/2+y,z
1/2-x,1/2+y,-z
1/2-x,1/2-y,-z
1/2+x,1/2-y,z
loop_
_atom_site_type_symbol
_atom_site_label
_atom_site_fract_x
_atom_site_fract_y
_atom_site_fract_z
Si Si1 0.995809 0.667328 0.640317
Si Si2 0.000000 0.247482 0.000000
Si Si3 0.441324 0.159194 0.045785
Si Si4 0.297533 0.829118 0.392756
Si Si5 0.913519 0.828513 0.749419
Si Si6 0.259055 0.662317 0.762232
Si Si7 0.697011 0.333119 0.793781
Si Si8 0.364856 0.830216 0.613167
O O1 0.027033 0.500000 0.663377
O O2 0.915312 0.718661 0.522786
O O3 0.937169 0.695107 0.634778
O O4 0.105276 0.761399 0.740824
O O5 0.890934 0.152311 0.890453
O O6 0.017790 0.343531 0.970103
O O7 0.495746 0.284663 0.127422
O O8 0.468292 0.000000 0.091709
O O9 0.311911 0.189136 0.927538
O O10 0.204201 0.775831 0.341451
O O11 0.275712 0.766481 0.320258
O O12 0.287086 0.000000 0.380221
O O13 0.933217 0.741894 0.719570
O O14 0.920398 0.000000 0.747017
O O15 0.212867 0.500000 0.724011
O O16 0.199762 0.759396 0.745385
O O17 0.668909 0.500000 0.759841
O O18 0.250000 0.750000 0.500000
O O19 0.343953 0.000000 0.602552
#
# Coordination Sequence:
#
# PCOD8082015 Si02
#       8
#     8   4   8   8   8   8   8   8
#     4  10  21  40  62  81 111 152 195 236 283 344
#     4  10  18  30  56  86 114 150 194 242 282 338
#     4  10  21  37  56  82 118 155 190 237 295 344
#     4   9  18  34  55  84 117 148 184 235 284 334
#     4  11  21  37  59  89 122 149 189 240 290 346
#     4  10  19  33  55  83 115 153 195 234 283 341
#     4  10  23  40  56  80 117 155 196 241 285 340
#     4  11  22  38  62  91 119 150 189 238 295 350
#
# _framework density 18.753679000000002
#
# number of rings (size 3 to 8) (size 9 to 14) (size 15 to 20)
#    0.000    1.867    2.667    1.600    0.000    4.800 
#    0.000    4.000    0.000    0.000    0.000    0.000 
#    0.000    0.000    0.000    0.000    0.000    0.000 
#
# Total GULP energy -372000.049544 kJ/mol
# GULP energy per Si atom -12400.001651 kJ/mol
# Density = 1.871099 g / cm^3
# Si number density = 18.753679 Si / 1000 Ang^3
#
#
#
# Elastic Constant Matrix: (Units=GPa)
#
#
# Indices 1 2 3 4 5 6 
#
# 1 98.3964 59.3791 55.4199 0.0000 1.1771 0.0000
# 2 59.3791 106.8192 47.7442 0.0001 4.9466 0.0001
# 3 55.4199 47.7442 89.4515 -0.0005 0.3092 -0.0002
# 4 0.0000 0.0001 -0.0005 30.5695 -0.0002 -2.7615
# 5 1.1771 4.9466 0.3092 -0.0002 33.7759 -0.0001
# 6 0.0000 0.0001 -0.0002 -2.7615 -0.0001 27.2018
#
#
#
# Elastic Compliance Matrix: (Units=1/GPa)
#
#
# Indices 1 2 3 4 5 6 
#
# 1 0.018823 -0.006922 -0.007969 0.000000 0.000431 0.000000
# 2 -0.006922 0.014943 -0.003681 0.000000 -0.001914 0.000000
# 3 -0.007969 -0.003681 0.018079 0.000000 0.000651 0.000000
# 4 0.000000 0.000000 0.000000 0.033015 0.000000 0.003352
# 5 0.000431 -0.001914 0.000651 0.000000 0.029866 0.000000
# 6 0.000000 0.000000 0.000000 0.003352 0.000000 0.037103
#
#
# Mechanical properties :
#
#
# Convention : Reuss Voigt Hill
#
# Bulk Modulus (GPa) = 68.01765 68.86150 68.43958
# Shear Modulus (GPa) = 25.79012 27.11771 26.45391
#
# Velocity S-wave (km/s) = 3.71240 3.80675 3.75987
# Velocity P-wave (km/s) = 7.39754 7.49136 7.44459
#
# Compressibility (1/GPa) = 0.01470207
#
# Stress axis : x y z
#
# Youngs Moduli (GPa) = 53.12590 66.92086 55.31314
#
# Poissons Ratio (x) = 0.46320 0.44080
# Poissons Ratio (y) = 0.36772 0.20360
# Poissons Ratio (z) = 0.42337 0.24633
#
# Static dielectric constant tensor:
#      x y z
#    x 3.458780 0.000000 -0.104850 
#    y 0.000000 3.319950 0.000000 
#    z -0.104850 0.000000 3.482300 
# 
# 
# High freq. dielectric constant tensor:
#      x y z
#    x 1.725100 0.000000 -0.006200 
#    y 0.000000 1.720720 0.000000 
#    z -0.006200 0.000000 1.726890 
# 
# From -- ./inp_files/368892.got.cif
#   From: 2010.06.25/outbox.cif.g09.slc.cpg/sg12_185_cif.got.tgz:368892.got - 2010.06.28 00:19:55.
