data_PCOD8082617
_publ_section_title
;
Structure prediction by ZEFSAII (Michael W. Deem and Ramdas Pophale) SiO2 
 PCOD8082617
Probable space group: C 2/M
;
_chemical_formula_sum "Si O2"
_cell_formula_units_Z 48
_cell_length_a 15.255864
_cell_length_b 8.905026
_cell_length_c 17.146964
_cell_angle_alpha 90.000000
_cell_angle_beta 93.930680
_cell_angle_gamma 90.000000
_cell_volume 2324.001740
_symmetry_space_group_name_H-M "C 2/M"
_symmetry_group_IT_number 12
_symmetry_cell_setting 'monoclinic'
loop_
_space_group_symop_operation_xyz
x,y,z
-x,y,-z
-x,-y,-z
x,-y,z
1/2+x,1/2+y,z
1/2-x,1/2+y,-z
1/2-x,1/2-y,-z
1/2+x,1/2-y,z
loop_
_atom_site_type_symbol
_atom_site_label
_atom_site_fract_x
_atom_site_fract_y
_atom_site_fract_z
Si Si1 0.605789 0.173822 0.303433
Si Si2 0.415795 0.825349 0.333579
Si Si3 0.660350 0.176064 0.830838
Si Si4 0.154911 0.322766 0.998781
Si Si5 0.732293 0.677615 0.581495
Si Si6 0.140715 0.822622 0.150188
O O1 0.519981 0.198400 0.352725
O O2 0.691326 0.232296 0.354705
O O3 0.589456 0.265367 0.222954
O O4 0.615423 0.000000 0.281392
O O5 0.393058 0.759982 0.245963
O O6 0.362429 0.731648 0.394170
O O7 0.390055 0.000000 0.340772
O O8 0.612056 0.213406 0.910733
O O9 0.759636 0.238872 0.835327
O O10 0.667558 0.000000 0.821362
O O11 0.162195 0.500000 0.012741
O O12 0.250000 0.250000 0.000000
O O13 0.101236 0.249185 0.067529
O O14 0.733160 0.500000 0.572585
O O15 0.750000 0.750000 0.500000
O O16 0.132885 0.000000 0.143228
#
# Coordination Sequence:
#
# PCOD8082617 Si02
#       6
#     8   8   8   8   8   8
#     4  10  22  38  60  88 117 149 191 237 287 340
#     4  10  20  39  63  87 116 152 190 236 286 340
#     4   8  15  29  52  79 107 147 193 233 279 332
#     4   9  16  27  46  77 112 149 196 242 286 334
#     4  11  24  42  63  90 117 148 185 230 287 346
#     4  10  18  31  53  80 112 153 197 238 286 338
#
# _framework density 20.654029999999999
#
# number of rings (size 3 to 8) (size 9 to 14) (size 15 to 20)
#    0.000    2.333    1.667    2.500    0.000    2.000 
#    0.000    5.000    0.000    5.000    0.000    0.000 
#    0.000    0.000    0.000    0.000    0.000    0.000 
#
# Total GULP energy -297461.916422 kJ/mol
# GULP energy per Si atom -12394.246518 kJ/mol
# Density = 2.060702 g / cm^3
# Si number density = 20.654030 Si / 1000 Ang^3
#
#
#
# Elastic Constant Matrix: (Units=GPa)
#
#
# Indices 1 2 3 4 5 6 
#
# 1 65.3106 22.7560 27.3293 0.0000 -20.9384 0.0000
# 2 22.7560 81.1322 51.7702 0.0000 -12.9045 0.0000
# 3 27.3293 51.7702 135.4567 0.0000 -28.0107 0.0000
# 4 0.0000 0.0000 0.0000 36.7118 0.0000 -8.2428
# 5 -20.9384 -12.9045 -28.0107 0.0000 19.6856 0.0000
# 6 0.0000 0.0000 0.0000 -8.2428 0.0000 22.6251
#
#
#
# Elastic Compliance Matrix: (Units=1/GPa)
#
#
# Indices 1 2 3 4 5 6 
#
# 1 0.024171 -0.003919 0.001993 0.000000 0.025975 0.000000
# 2 -0.003919 0.017030 -0.006052 0.000000 -0.001617 0.000000
# 3 0.001993 -0.006052 0.012627 0.000000 0.016119 0.000000
# 4 0.000000 0.000000 0.000000 0.029666 0.000000 0.010808
# 5 0.025975 -0.001617 0.016119 0.000000 0.100301 0.000000
# 6 0.000000 0.000000 0.000000 0.010808 0.000000 0.048136
#
#
# Mechanical properties :
#
#
# Convention : Reuss Voigt Hill
#
# Bulk Modulus (GPa) = 26.40686 53.95671 40.18178
# Shear Modulus (GPa) = 19.19302 27.80744 23.50023
#
# Velocity S-wave (km/s) = 3.05169 3.67324 3.37679
# Velocity P-wave (km/s) = 5.02296 6.64613 5.89072
#
# Compressibility (1/GPa) = 0.03786895
#
# Stress axis : x y z
#
# Youngs Moduli (GPa) = 41.37228 58.72152 79.19808
#
# Poissons Ratio (x) = 0.23016 -0.15782
# Poissons Ratio (y) = 0.16216 0.47932
# Poissons Ratio (z) = -0.08244 0.35539
#
# Static dielectric constant tensor:
#      x y z
#    x 3.593910 0.000000 0.046630 
#    y 0.000000 3.529720 0.000000 
#    z 0.046630 0.000000 4.107920 
# 
# 
# High freq. dielectric constant tensor:
#      x y z
#    x 1.785610 0.000000 -0.008010 
#    y 0.000000 1.790110 0.000000 
#    z -0.008010 0.000000 1.818180 
# 
# From -- ./inp_files/267684.got.cif
#   From: 2010.06.25/outbox.cif.g09.slc.cpg/sg12_134_cif.got.tgz:267684.got - 2010.06.28 00:19:55.
