data_PCOD8082403
_publ_section_title
;
Structure prediction by ZEFSAII (Michael W. Deem and Ramdas Pophale) SiO2 
 PCOD8082403
Probable space group: C 2/M
;
_chemical_formula_sum "Si O2"
_cell_formula_units_Z 56
_cell_length_a 28.535730
_cell_length_b 8.827186
_cell_length_c 17.673134
_cell_angle_alpha 90.000000
_cell_angle_beta 43.742614
_cell_angle_gamma 90.000000
_cell_volume 3077.986631
_symmetry_space_group_name_H-M "C 2/M"
_symmetry_group_IT_number 12
_symmetry_cell_setting 'monoclinic'
loop_
_space_group_symop_operation_xyz
x,y,z
-x,y,-z
-x,-y,-z
x,-y,z
1/2+x,1/2+y,z
1/2-x,1/2+y,-z
1/2-x,1/2-y,-z
1/2+x,1/2-y,z
loop_
_atom_site_type_symbol
_atom_site_label
_atom_site_fract_x
_atom_site_fract_y
_atom_site_fract_z
Si Si1 0.067883 0.179847 0.074833
Si Si2 0.685282 0.819696 0.365930
Si Si3 0.605035 0.678260 0.588385
Si Si4 0.070836 0.677400 0.388271
Si Si5 0.081776 0.822321 0.783217
Si Si6 0.163051 0.180324 0.830280
Si Si7 0.960875 0.322743 0.740225
O O1 0.081648 0.254119 0.140530
O O2 0.995447 0.238617 0.127721
O O3 0.067275 0.000000 0.086162
O O4 0.126018 0.235412 0.949845
O O5 0.665257 0.753895 0.470897
O O6 0.634056 0.755183 0.361676
O O7 0.760147 0.759557 0.258166
O O8 0.684281 0.000000 0.371973
O O9 0.603318 0.500000 0.576190
O O10 0.618165 0.716633 0.661352
O O11 0.533590 0.745533 0.645496
O O12 0.068400 0.500000 0.407845
O O13 0.081442 0.710337 0.286936
O O14 0.000000 0.749890 0.500000
O O15 0.123968 0.749305 0.803077
O O16 0.078372 0.000000 0.800365
O O17 0.161476 0.000000 0.827871
O O18 0.972517 0.500000 0.739066
#
# Coordination Sequence:
#
# PCOD8082403 Si02
#       7
#     8   8   8   8   8   8   8
#     4   9  17  31  51  74  99 123 157 202 240 274
#     4  10  19  32  50  71  96 127 166 199 229 282
#     4  10  19  31  48  73 102 126 153 196 247 286
#     4   9  16  29  49  71  94 123 158 196 237 281
#     4   8  15  28  48  72  96 124 159 195 236 283
#     4   9  17  30  50  72  94 129 168 196 226 279
#     4  10  18  31  52  73  95 124 161 199 238 283
#
# _framework density 18.193709999999999
#
# number of rings (size 3 to 8) (size 9 to 14) (size 15 to 20)
#    0.000    2.714    1.429    2.143    0.000    2.286 
#    0.000    3.571    0.000   11.143    0.000    0.000 
#    0.000    0.000    0.000    0.000    0.000    0.000 
#
# Total GULP energy -347109.209029 kJ/mol
# GULP energy per Si atom -12396.757465 kJ/mol
# Density = 1.815230 g / cm^3
# Si number density = 18.193710 Si / 1000 Ang^3
#
#
#
# Elastic Constant Matrix: (Units=GPa)
#
#
# Indices 1 2 3 4 5 6 
#
# 1 106.2929 18.7686 81.9264 0.0055 6.0673 -0.0101
# 2 18.7686 28.3350 26.9633 -0.0147 2.4076 0.0002
# 3 81.9264 26.9633 173.1777 -0.0107 3.8507 0.0003
# 4 0.0055 -0.0147 -0.0107 26.0019 -0.0088 6.8092
# 5 6.0673 2.4076 3.8507 -0.0088 25.5237 0.0090
# 6 -0.0101 0.0002 0.0003 6.8092 0.0090 15.2779
#
#
#
# Elastic Compliance Matrix: (Units=1/GPa)
#
#
# Indices 1 2 3 4 5 6 
#
# 1 0.015275 -0.003634 -0.006609 -0.000013 -0.002291 0.000018
# 2 -0.003634 0.042516 -0.004847 0.000025 -0.002415 -0.000013
# 3 -0.006609 -0.004847 0.009643 0.000005 0.000573 -0.000007
# 4 -0.000013 0.000025 0.000005 0.043540 0.000022 -0.019405
# 5 -0.002291 -0.002415 0.000573 0.000022 0.039865 -0.000035
# 6 0.000018 -0.000013 -0.000007 -0.019405 -0.000035 0.074103
#
#
# Mechanical properties :
#
#
# Convention : Reuss Voigt Hill
#
# Bulk Modulus (GPa) = 26.84258 62.56911 44.70584
# Shear Modulus (GPa) = 18.68874 25.37052 22.02963
#
# Velocity S-wave (km/s) = 3.20849 3.73831 3.48348
# Velocity P-wave (km/s) = 5.33963 7.28687 6.38788
#
# Compressibility (1/GPa) = 0.03725424
#
# Stress axis : x y z
#
# Youngs Moduli (GPa) = 65.46823 23.52029 103.70127
#
# Poissons Ratio (x) = 0.08546 0.68540
# Poissons Ratio (y) = 0.23788 0.50265
# Poissons Ratio (z) = 0.43270 0.11400
#
# Static dielectric constant tensor:
#      x y z
#    x 3.542280 -0.000020 0.080680 
#    y -0.000020 2.962540 0.000030 
#    z 0.080680 0.000030 3.475790 
# 
# 
# High freq. dielectric constant tensor:
#      x y z
#    x 1.702180 0.000000 0.015720 
#    y 0.000000 1.662640 0.000000 
#    z 0.015720 0.000000 1.705660 
# 
# From -- ./inp_files/288185.got.cif
#   From: 2010.06.25/outbox.cif.g09.slc.cpg/sg12_145_cif.got.tgz:288185.got - 2010.06.28 00:19:55.
