data_PCOD8082978
_publ_section_title
;
Structure prediction by ZEFSAII (Michael W. Deem and Ramdas Pophale) SiO2 
 PCOD8082978
Probable space group: C 2/M
;
_chemical_formula_sum "Si O2"
_cell_formula_units_Z 40
_cell_length_a 28.782288
_cell_length_b 8.883203
_cell_length_c 10.115207
_cell_angle_alpha 90.000000
_cell_angle_beta 59.669359
_cell_angle_gamma 90.000000
_cell_volume 2232.254361
_symmetry_space_group_name_H-M "C 2/M"
_symmetry_group_IT_number 12
_symmetry_cell_setting 'monoclinic'
loop_
_space_group_symop_operation_xyz
x,y,z
-x,y,-z
-x,-y,-z
x,-y,z
1/2+x,1/2+y,z
1/2-x,1/2+y,-z
1/2-x,1/2-y,-z
1/2+x,1/2-y,z
loop_
_atom_site_type_symbol
_atom_site_label
_atom_site_fract_x
_atom_site_fract_y
_atom_site_fract_z
Si Si1 0.743423 0.176449 0.367814
Si Si2 0.137713 0.821615 0.513250
Si Si3 0.532616 0.327409 0.087886
Si Si4 0.139374 0.175688 0.810582
Si Si5 0.469512 0.175649 0.410318
O O1 0.750000 0.250000 0.500000
O O2 0.692614 0.254329 0.368247
O O3 0.801165 0.206717 0.212502
O O4 0.732600 0.000000 0.397654
O O5 0.133722 0.759029 0.669671
O O6 0.086660 0.764497 0.505354
O O7 0.140836 0.000000 0.501186
O O8 0.533043 0.500000 0.137928
O O9 0.506244 0.223185 0.235166
O O10 0.500000 0.314776 0.000000
O O11 0.592940 0.261922 0.974231
O O12 0.128184 0.000000 0.810846
O O13 0.500000 0.218375 0.500000
O O14 0.457009 0.000000 0.418020
#
# Coordination Sequence:
#
# PCOD8082978 Si02
#       5
#     8   8   8   8   8
#     4   9  16  27  45  73 107 139 170 208 259 311
#     4  10  18  32  52  74 102 136 176 218 262 310
#     4  10  18  33  56  79 105 137 173 216 260 310
#     4   8  15  28  48  76 106 133 163 208 260 306
#     4  11  24  38  51  74 108 142 176 217 265 316
#
# _framework density 17.919105999999999
#
# number of rings (size 3 to 8) (size 9 to 14) (size 15 to 20)
#    0.000    2.400    2.000    3.000    0.000    2.000 
#    0.000    2.000    0.000    1.200    0.000    0.000 
#    0.000    0.000    0.000    0.000    0.000    0.000 
#
# Total GULP energy -247861.238832 kJ/mol
# GULP energy per Si atom -12393.061942 kJ/mol
# Density = 1.787832 g / cm^3
# Si number density = 17.919106 Si / 1000 Ang^3
#
#
#
# Elastic Constant Matrix: (Units=GPa)
#
#
# Indices 1 2 3 4 5 6 
#
# 1 147.3485 56.7994 53.0856 0.0000 -36.4977 0.0000
# 2 56.7994 74.9793 23.3462 0.0000 -8.7442 0.0000
# 3 53.0856 23.3462 48.9693 0.0000 -16.4545 0.0000
# 4 0.0000 0.0000 0.0000 18.8372 0.0000 -8.1070
# 5 -36.4977 -8.7442 -16.4545 0.0000 34.8348 0.0000
# 6 0.0000 0.0000 0.0000 -8.1070 0.0000 29.4970
#
#
#
# Elastic Compliance Matrix: (Units=1/GPa)
#
#
# Indices 1 2 3 4 5 6 
#
# 1 0.015888 -0.007697 -0.010234 0.000000 0.009880 0.000000
# 2 -0.007697 0.019397 -0.002351 0.000000 -0.004306 0.000000
# 3 -0.010234 -0.002351 0.034275 0.000000 0.004877 0.000000
# 4 0.000000 0.000000 0.000000 0.060208 0.000000 0.016548
# 5 0.009880 -0.004306 0.004877 0.000000 0.040282 0.000000
# 6 0.000000 0.000000 0.000000 0.016548 0.000000 0.038450
#
#
# Mechanical properties :
#
#
# Convention : Reuss Voigt Hill
#
# Bulk Modulus (GPa) = 34.48625 59.75107 47.11866
# Shear Modulus (GPa) = 19.32527 25.83818 22.58172
#
# Velocity S-wave (km/s) = 3.28757 3.80140 3.55379
# Velocity P-wave (km/s) = 5.80501 7.25843 6.57202
#
# Compressibility (1/GPa) = 0.02899707
#
# Stress axis : x y z
#
# Youngs Moduli (GPa) = 62.94096 51.55318 29.17592
#
# Poissons Ratio (x) = 0.39680 0.29859
# Poissons Ratio (y) = 0.48445 0.06858
# Poissons Ratio (z) = 0.64414 0.12118
#
# Static dielectric constant tensor:
#      x y z
#    x 3.737530 0.000000 -0.734310 
#    y 0.000000 3.271310 0.000000 
#    z -0.734310 0.000000 9.291070 
# 
# 
# High freq. dielectric constant tensor:
#      x y z
#    x 1.701350 0.000000 -0.040540 
#    y 0.000000 1.685450 0.000000 
#    z -0.040540 0.000000 1.656090 
# 
# From -- ./inp_files/100991.got.cif
#   From: 2010.06.25/outbox.cif.g09.slc.cpg/sg12_51_cif.got.tgz:100991.got - 2010.06.28 00:19:55.
