data_PCOD8082095
_publ_section_title
;
Structure prediction by ZEFSAII (Michael W. Deem and Ramdas Pophale) SiO2 
 PCOD8082095
Probable space group: C 2/M
;
_chemical_formula_sum "Si O2"
_cell_formula_units_Z 40
_cell_length_a 22.545899
_cell_length_b 7.543714
_cell_length_c 21.469688
_cell_angle_alpha 90.000000
_cell_angle_beta 141.903740
_cell_angle_gamma 90.000000
_cell_volume 2252.956277
_symmetry_space_group_name_H-M "C 2/M"
_symmetry_group_IT_number 12
_symmetry_cell_setting 'monoclinic'
loop_
_space_group_symop_operation_xyz
x,y,z
-x,y,-z
-x,-y,-z
x,-y,z
1/2+x,1/2+y,z
1/2-x,1/2+y,-z
1/2-x,1/2-y,-z
1/2+x,1/2-y,z
loop_
_atom_site_type_symbol
_atom_site_label
_atom_site_fract_x
_atom_site_fract_y
_atom_site_fract_z
Si Si1 0.852404 0.293252 0.056444
Si Si2 0.312121 0.800590 0.701779
Si Si3 0.593254 0.500000 0.993955
Si Si4 0.959724 0.708308 0.720897
Si Si5 0.131518 0.000000 0.166380
Si Si6 0.174162 0.294079 0.490196
O O1 0.861809 0.500000 0.046134
O O2 0.930517 0.239556 0.174009
O O3 0.870987 0.177474 0.010772
O O4 0.750000 0.250000 0.000000
O O5 0.390756 0.718170 0.718785
O O6 0.314378 0.675156 0.763831
O O7 0.206771 0.801603 0.581068
O O8 0.336875 0.000000 0.743925
O O9 0.479211 0.500000 0.905138
O O10 0.643623 0.500000 0.102454
O O11 0.942535 0.500000 0.707394
O O12 0.927088 0.775029 0.624497
O O13 0.169592 0.500000 0.502274
O O14 0.250000 0.250000 0.500000
#
# Coordination Sequence:
#
# PCOD8082095 Si02
#       6
#     8   8   4   8   4   8
#     4  11  21  37  57  79 108 140 181 230 270 312
#     4  10  18  31  48  74 107 143 173 213 267 321
#     4  11  24  38  54  83 103 150 191 217 269 315
#     4   8  16  28  46  74 106 137 172 217 268 318
#     4  11  22  36  56  75 115 149 182 218 261 334
#     4   9  15  25  43  70 103 138 172 208 263 326
#
# _framework density 17.754449999999999
#
# number of rings (size 3 to 8) (size 9 to 14) (size 15 to 20)
#    0.000    2.200    4.000    1.800    0.000    0.800 
#    1.800    2.000    0.000    0.000    0.000    2.800 
#    0.000    3.200    0.000    0.000    0.000    0.000 
#
# Total GULP energy -247797.038486 kJ/mol
# GULP energy per Si atom -12389.851924 kJ/mol
# Density = 1.771404 g / cm^3
# Si number density = 17.754450 Si / 1000 Ang^3
#
#
#
# Elastic Constant Matrix: (Units=GPa)
#
#
# Indices 1 2 3 4 5 6 
#
# 1 54.7452 26.6786 52.1861 0.0000 -1.7364 0.0000
# 2 26.6786 101.2703 49.3166 0.0000 -11.8087 0.0000
# 3 52.1861 49.3166 170.1162 0.0000 -9.6632 0.0000
# 4 0.0000 0.0000 0.0000 24.5202 0.0000 -4.3100
# 5 -1.7364 -11.8087 -9.6632 0.0000 23.4163 0.0000
# 6 0.0000 0.0000 0.0000 -4.3100 0.0000 15.7697
#
#
#
# Elastic Compliance Matrix: (Units=1/GPa)
#
#
# Indices 1 2 3 4 5 6 
#
# 1 0.027075 -0.003905 -0.007344 0.000000 -0.002992 0.000000
# 2 -0.003905 0.012550 -0.002147 0.000000 0.005153 0.000000
# 3 -0.007344 -0.002147 0.008869 0.000000 0.002033 0.000000
# 4 0.000000 0.000000 0.000000 0.042841 0.000000 0.011709
# 5 -0.002992 0.005153 0.002033 0.000000 0.045921 0.000000
# 6 0.000000 0.000000 0.000000 0.011709 0.000000 0.066613
#
#
# Mechanical properties :
#
#
# Convention : Reuss Voigt Hill
#
# Bulk Modulus (GPa) = 46.08012 64.72159 55.40086
# Shear Modulus (GPa) = 21.01765 25.93792 23.47778
#
# Velocity S-wave (km/s) = 3.44437 3.82635 3.64037
# Velocity P-wave (km/s) = 6.46751 7.48693 6.99581
#
# Compressibility (1/GPa) = 0.02170133
#
# Stress axis : x y z
#
# Youngs Moduli (GPa) = 36.93445 79.68088 112.75099
#
# Poissons Ratio (x) = 0.31119 0.82799
# Poissons Ratio (y) = 0.14424 0.24213
# Poissons Ratio (z) = 0.27123 0.17111
#
# Static dielectric constant tensor:
#      x y z
#    x 2.700030 0.000000 0.032310 
#    y 0.000000 3.366890 0.000000 
#    z 0.032310 0.000000 3.916790 
# 
# 
# High freq. dielectric constant tensor:
#      x y z
#    x 1.603970 0.000000 0.000670 
#    y 0.000000 1.696010 0.000000 
#    z 0.000670 0.000000 1.711410 
# 
# From -- ./inp_files/236390.got.cif
#   From: 2010.06.25/outbox.cif.g09.slc.cpg/sg12_119_cif.got.tgz:236390.got - 2010.06.28 00:19:55.
