data_PCOD8082880
_publ_section_title
;
Structure prediction by ZEFSAII (Michael W. Deem and Ramdas Pophale) SiO2 
 PCOD8082880
Probable space group: C 2/M
;
_chemical_formula_sum "Si O2"
_cell_formula_units_Z 36
_cell_length_a 18.088254
_cell_length_b 22.339872
_cell_length_c 14.108540
_cell_angle_alpha 90.000000
_cell_angle_beta 157.999601
_cell_angle_gamma 90.000000
_cell_volume 2135.710116
_symmetry_space_group_name_H-M "C 2/M"
_symmetry_group_IT_number 12
_symmetry_cell_setting 'monoclinic'
loop_
_space_group_symop_operation_xyz
x,y,z
-x,y,-z
-x,-y,-z
x,-y,z
1/2+x,1/2+y,z
1/2-x,1/2+y,-z
1/2-x,1/2-y,-z
1/2+x,1/2-y,z
loop_
_atom_site_type_symbol
_atom_site_label
_atom_site_fract_x
_atom_site_fract_y
_atom_site_fract_z
Si Si1 0.250147 0.121254 0.151163
Si Si2 0.500000 0.770623 0.500000
Si Si3 0.613901 0.930863 0.495825
Si Si4 0.699955 0.227635 0.289869
Si Si5 0.318828 0.345214 0.609104
O O1 0.343310 0.187822 0.258155
O O2 0.251207 0.095987 0.259441
O O3 0.382051 0.077414 0.242995
O O4 0.031376 0.123705 0.850368
O O5 0.383868 0.729046 0.436122
O O6 0.665386 0.895331 0.461401
O O7 0.663450 0.000000 0.540157
O O8 0.668860 0.292089 0.300232
O O9 0.745944 0.177129 0.421264
O O10 0.500000 0.208632 0.000000
#
# Coordination Sequence:
#
# PCOD8082880 Si02
#       5
#     8   4   8   8   8
#     4  10  18  32  49  80 109 137 166 203 259 321
#     4  10  18  32  51  70 111 138 164 206 254 302
#     4  10  20  34  53  79 109 137 169 215 260 308
#     4  11  21  35  51  78 108 140 173 213 256 308
#     4  11  21  32  55  78 105 140 176 209 257 312
#
# _framework density 16.85622
#
# number of rings (size 3 to 8) (size 9 to 14) (size 15 to 20)
#    0.000    1.778    6.667    2.000    0.000    5.333 
#    0.000    0.000    0.000    0.667    0.000    2.333 
#    0.000    0.000    0.000    0.000    0.000    0.000 
#
# Total GULP energy -223240.028468 kJ/mol
# GULP energy per Si atom -12402.223804 kJ/mol
# Density = 1.681785 g / cm^3
# Si number density = 16.856220 Si / 1000 Ang^3
#
#
#
# Elastic Constant Matrix: (Units=GPa)
#
#
# Indices 1 2 3 4 5 6 
#
# 1 100.9999 56.6341 52.5396 0.0000 4.7441 0.0000
# 2 56.6341 94.7053 40.5514 0.0000 -2.1393 0.0000
# 3 52.5396 40.5514 76.7175 0.0001 -1.0220 0.0000
# 4 0.0000 0.0000 0.0001 11.9636 0.0000 5.7697
# 5 4.7441 -2.1393 -1.0220 0.0000 19.8667 0.0000
# 6 0.0000 0.0000 0.0000 5.7697 0.0000 24.6865
#
#
#
# Elastic Compliance Matrix: (Units=1/GPa)
#
#
# Indices 1 2 3 4 5 6 
#
# 1 0.019310 -0.007736 -0.009214 0.000000 -0.005918 0.000000
# 2 -0.007736 0.016771 -0.003521 0.000000 0.003472 0.000000
# 3 -0.009214 -0.003521 0.021245 0.000000 0.002914 0.000000
# 4 0.000000 0.000000 0.000000 0.094206 0.000000 -0.022018
# 5 -0.005918 0.003472 0.002914 0.000000 0.052272 0.000000
# 6 0.000000 0.000000 0.000000 -0.022018 0.000000 0.045654
#
#
# Mechanical properties :
#
#
# Convention : Reuss Voigt Hill
#
# Bulk Modulus (GPa) = 61.03334 63.54141 62.28737
# Shear Modulus (GPa) = 16.89987 19.48321 18.19154
#
# Velocity S-wave (km/s) = 3.16980 3.40346 3.28871
# Velocity P-wave (km/s) = 7.04867 7.29539 7.17309
#
# Compressibility (1/GPa) = 0.01638449
#
# Stress axis : x y z
#
# Youngs Moduli (GPa) = 51.78729 59.62668 47.06999
#
# Poissons Ratio (x) = 0.46125 0.43371
# Poissons Ratio (y) = 0.40061 0.16573
# Poissons Ratio (z) = 0.47717 0.20994
#
# Static dielectric constant tensor:
#      x y z
#    x 3.143400 0.000000 0.241530 
#    y 0.000000 2.936420 0.000000 
#    z 0.241530 0.000000 3.045520 
# 
# 
# High freq. dielectric constant tensor:
#      x y z
#    x 1.639780 0.000000 0.028870 
#    y 0.000000 1.625310 0.000000 
#    z 0.028870 0.000000 1.640930 
# 
# From -- ./inp_files/148509.got.cif
#   From: 2010.06.25/outbox.cif.g09.slc.cpg/sg12_75_cif.got.tgz:148509.got - 2010.06.28 00:19:55.
