data_PCOD8082770
_publ_section_title
;
Structure prediction by ZEFSAII (Michael W. Deem and Ramdas Pophale) SiO2 
 PCOD8082770
Probable space group: C 2/M
;
_chemical_formula_sum "Si O2"
_cell_formula_units_Z 64
_cell_length_a 15.450739
_cell_length_b 8.690981
_cell_length_c 28.351606
_cell_angle_alpha 90.000000
_cell_angle_beta 123.374560
_cell_angle_gamma 90.000000
_cell_volume 3179.290039
_symmetry_space_group_name_H-M "C 2/M"
_symmetry_group_IT_number 12
_symmetry_cell_setting 'monoclinic'
loop_
_space_group_symop_operation_xyz
x,y,z
-x,y,-z
-x,-y,-z
x,-y,z
1/2+x,1/2+y,z
1/2-x,1/2+y,-z
1/2-x,1/2-y,-z
1/2+x,1/2-y,z
loop_
_atom_site_type_symbol
_atom_site_label
_atom_site_fract_x
_atom_site_fract_y
_atom_site_fract_z
Si Si1 0.699137 0.818570 0.110752
Si Si2 0.839234 0.682137 0.495467
Si Si3 0.780695 0.317948 0.375115
Si Si4 0.424952 0.819598 0.179858
Si Si5 0.466199 0.678176 0.875232
Si Si6 0.480316 0.817559 0.384683
Si Si7 0.559734 0.818968 0.309299
Si Si8 0.156156 0.178651 0.000692
O O1 0.819256 0.774290 0.144233
O O2 0.644165 0.739166 0.139072
O O3 0.642907 0.763090 0.046397
O O4 0.688162 0.000000 0.112151
O O5 0.832626 0.500000 0.494351
O O6 0.750000 0.750000 0.500000
O O7 0.824535 0.744356 0.438126
O O8 0.947927 0.738493 0.550329
O O9 0.769823 0.500000 0.373412
O O10 0.862756 0.264385 0.359822
O O11 0.670660 0.248413 0.328842
O O12 0.502461 0.773813 0.161301
O O13 0.477864 0.773338 0.244843
O O14 0.400449 0.000000 0.169508
O O15 0.455751 0.500000 0.858209
O O16 0.550536 0.703927 0.941060
O O17 0.519567 0.747353 0.346801
O O18 0.484955 0.000000 0.382561
O O19 0.572616 0.000000 0.317080
O O20 0.179707 0.000000 0.016675
O O21 0.250000 0.250000 0.000000
#
# Coordination Sequence:
#
# PCOD8082770 Si02
#       8
#     8   8   8   8   8   8   8   8
#     4  12  25  41  64  94 127 164 202 247 306 364
#     4  10  18  31  55  83 114 149 189 235 289 349
#     4  10  20  34  57  87 113 149 196 239 287 350
#     4  11  24  42  63  87 119 160 210 258 303 360
#     4  11  24  42  65  93 124 161 203 250 306 362
#     4   9  18  35  57  81 115 153 188 232 289 353
#     4  10  22  40  60  83 113 153 194 241 299 349
#     4  11  22  38  64  95 128 162 202 248 300 363
#
# _framework density 20.130279999999999
#
# number of rings (size 3 to 8) (size 9 to 14) (size 15 to 20)
#    0.000    1.500    2.500    3.000    0.000    6.500 
#    0.000    2.500    0.000    1.500    0.000    0.000 
#    0.000    0.000    0.000    0.000    0.000    0.000 
#
# Total GULP energy -396880.290132 kJ/mol
# GULP energy per Si atom -12402.509067 kJ/mol
# Density = 2.008446 g / cm^3
# Si number density = 20.130280 Si / 1000 Ang^3
#
#
#
# Elastic Constant Matrix: (Units=GPa)
#
#
# Indices 1 2 3 4 5 6 
#
# 1 118.1142 13.8213 18.2341 0.0000 2.5896 0.0000
# 2 13.8213 47.2209 36.5156 0.0000 0.8312 0.0000
# 3 18.2341 36.5156 61.0052 0.0000 -5.3474 0.0000
# 4 0.0000 0.0000 0.0000 25.1991 0.0000 3.1094
# 5 2.5896 0.8312 -5.3474 0.0000 16.8253 0.0000
# 6 0.0000 0.0000 0.0000 3.1094 0.0000 33.9291
#
#
#
# Elastic Compliance Matrix: (Units=1/GPa)
#
#
# Indices 1 2 3 4 5 6 
#
# 1 0.008973 -0.000690 -0.002455 0.000000 -0.002127 0.000000
# 2 -0.000690 0.041087 -0.025259 0.000000 -0.009951 0.000000
# 3 -0.002455 -0.025259 0.033316 0.000000 0.012214 0.000000
# 4 0.000000 0.000000 0.000000 0.040138 0.000000 -0.003678
# 5 -0.002127 -0.009951 0.012214 0.000000 0.064135 0.000000
# 6 0.000000 0.000000 0.000000 -0.003678 0.000000 0.029810
#
#
# Mechanical properties :
#
#
# Convention : Reuss Voigt Hill
#
# Bulk Modulus (GPa) = 37.64173 40.38691 39.01432
# Shear Modulus (GPa) = 17.66010 25.70864 21.68437
#
# Velocity S-wave (km/s) = 2.96512 3.57755 3.28564
# Velocity P-wave (km/s) = 5.51926 6.09684 5.81523
#
# Compressibility (1/GPa) = 0.02656626
#
# Stress axis : x y z
#
# Youngs Moduli (GPa) = 111.44760 24.33861 30.01576
#
# Poissons Ratio (x) = 0.01680 0.07370
# Poissons Ratio (y) = 0.07692 0.75817
# Poissons Ratio (z) = 0.27363 0.61477
#
# Static dielectric constant tensor:
#      x y z
#    x 3.844360 0.000000 -0.129720 
#    y 0.000000 3.599820 0.000000 
#    z -0.129720 0.000000 3.935060 
# 
# 
# High freq. dielectric constant tensor:
#      x y z
#    x 1.802110 0.000000 -0.000470 
#    y 0.000000 1.770880 0.000000 
#    z -0.000470 0.000000 1.785620 
# 
# From -- ./inp_files/375593.got.cif
#   From: 2010.06.25/outbox.cif.g09.slc.cpg/sg12_188_cif.got.tgz:375593.got - 2010.06.28 00:19:55.
