data_PCOD8082555
_publ_section_title
;
Structure prediction by ZEFSAII (Michael W. Deem and Ramdas Pophale) SiO2 
 PCOD8082555
Probable space group: C 2/M
;
_chemical_formula_sum "Si O2"
_cell_formula_units_Z 64
_cell_length_a 19.824321
_cell_length_b 9.038426
_cell_length_c 24.468695
_cell_angle_alpha 90.000000
_cell_angle_beta 128.942570
_cell_angle_gamma 90.000000
_cell_volume 3410.018048
_symmetry_space_group_name_H-M "C 2/M"
_symmetry_group_IT_number 12
_symmetry_cell_setting 'monoclinic'
loop_
_space_group_symop_operation_xyz
x,y,z
-x,y,-z
-x,-y,-z
x,-y,z
1/2+x,1/2+y,z
1/2-x,1/2+y,-z
1/2-x,1/2-y,-z
1/2+x,1/2-y,z
loop_
_atom_site_type_symbol
_atom_site_label
_atom_site_fract_x
_atom_site_fract_y
_atom_site_fract_z
Si Si1 0.667819 0.825519 0.984413
Si Si2 0.275330 0.174569 0.871138
Si Si3 0.483876 0.675166 0.383605
Si Si4 0.507590 0.175259 0.830991
Si Si5 0.678242 0.676217 0.502346
Si Si6 0.672297 0.675888 0.623765
Si Si7 0.918998 0.825153 0.232706
Si Si8 0.824007 0.676526 0.779008
O O1 0.580872 0.769102 0.910747
O O2 0.679343 0.000000 0.983869
O O3 0.750000 0.750000 0.000000
O O4 0.664454 0.780185 0.046856
O O5 0.177503 0.231201 0.830583
O O6 0.312221 0.242720 0.833912
O O7 0.271857 0.000000 0.862342
O O8 0.487266 0.500000 0.389052
O O9 0.582122 0.735036 0.437784
O O10 0.420842 0.733891 0.400377
O O11 0.443364 0.727387 0.305783
O O12 0.517269 0.245567 0.776584
O O13 0.416279 0.234771 0.805964
O O14 0.509605 0.000000 0.826453
O O15 0.686321 0.500000 0.500248
O O16 0.750000 0.750000 0.500000
O O17 0.691368 0.728358 0.571736
O O18 0.671268 0.500000 0.625258
O O19 0.748829 0.738561 0.701196
O O20 0.929105 0.000000 0.231459
O O21 0.820986 0.500000 0.778018
#
# Coordination Sequence:
#
# PCOD8082555 Si02
#       8
#     8   8   8   8   8   8   8   8
#     4  10  19  31  48  72  99 130 165 203 247 293
#     4   9  16  29  50  72  95 126 167 207 241 284
#     4   9  17  31  52  77  99 127 172 213 238 278
#     4  10  21  32  47  75 106 130 158 204 256 299
#     4  10  21  34  51  78 107 132 162 203 249 293
#     4   9  16  30  52  74  98 130 168 207 243 283
#     4  10  18  31  53  75  96 129 170 206 242 289
#     4   9  17  30  48  74 102 127 162 208 251 289
#
# _framework density 18.768229000000002
#
# number of rings (size 3 to 8) (size 9 to 14) (size 15 to 20)
#    0.000    2.500    2.500    0.375    1.750    2.000 
#    0.000    2.500    0.000    3.750    0.000    1.750 
#    0.000    0.000    0.000    0.000    0.000    0.000 
#
# Total GULP energy -396666.540584 kJ/mol
# GULP energy per Si atom -12395.829393 kJ/mol
# Density = 1.872551 g / cm^3
# Si number density = 18.768229 Si / 1000 Ang^3
#
#
#
# Elastic Constant Matrix: (Units=GPa)
#
#
# Indices 1 2 3 4 5 6 
#
# 1 179.3140 21.5998 77.0038 0.0000 -4.0713 0.0000
# 2 21.5998 11.2672 16.6126 0.0000 -2.0046 0.0000
# 3 77.0038 16.6126 122.8573 0.0000 -4.1468 0.0000
# 4 0.0000 0.0000 0.0000 13.5491 0.0000 -1.4994
# 5 -4.0713 -2.0046 -4.1468 0.0000 37.4646 0.0000
# 6 0.0000 0.0000 0.0000 -1.4994 0.0000 25.3149
#
#
#
# Elastic Compliance Matrix: (Units=1/GPa)
#
#
# Indices 1 2 3 4 5 6 
#
# 1 0.008534 -0.010596 -0.003919 0.000000 -0.000073 0.000000
# 2 -0.010596 0.124701 -0.010072 0.000000 0.004406 0.000000
# 3 -0.003919 -0.010072 0.011970 0.000000 0.000360 0.000000
# 4 0.000000 0.000000 0.000000 0.074293 0.000000 0.004400
# 5 -0.000073 0.004406 0.000360 0.000000 0.026960 0.000000
# 6 0.000000 0.000000 0.000000 0.004400 0.000000 0.039763
#
#
# Mechanical properties :
#
#
# Convention : Reuss Voigt Hill
#
# Bulk Modulus (GPa) = 10.41324 60.43009 35.42167
# Shear Modulus (GPa) = 13.60900 28.48054 21.04477
#
# Velocity S-wave (km/s) = 2.69571 3.89972 3.35221
# Velocity P-wave (km/s) = 3.90506 7.24880 5.82214
#
# Compressibility (1/GPa) = 0.09603154
#
# Stress axis : x y z
#
# Youngs Moduli (GPa) = 117.17288 8.01921 83.54342
#
# Poissons Ratio (x) = 0.08497 0.32739
# Poissons Ratio (y) = 1.24155 0.84144
# Poissons Ratio (z) = 0.45918 0.08077
#
# Static dielectric constant tensor:
#      x y z
#    x 3.755760 0.000000 -0.123550 
#    y 0.000000 2.832050 0.000000 
#    z -0.123550 0.000000 3.913900 
# 
# 
# High freq. dielectric constant tensor:
#      x y z
#    x 1.739920 0.000000 -0.004740 
#    y 0.000000 1.661330 0.000000 
#    z -0.004740 0.000000 1.746230 
# 
# From -- ./inp_files/315715.got.cif
#   From: 2010.06.25/outbox.cif.g09.slc.cpg/sg12_158_cif.got.tgz:315715.got - 2010.06.28 00:19:55.
