data_PCOD8082322
_publ_section_title
;
Structure prediction by ZEFSAII (Michael W. Deem and Ramdas Pophale) SiO2 
 PCOD8082322
Probable space group: C 2/M
;
_chemical_formula_sum "Si O2"
_cell_formula_units_Z 56
_cell_length_a 27.551659
_cell_length_b 13.115688
_cell_length_c 15.140034
_cell_angle_alpha 90.000000
_cell_angle_beta 35.593533
_cell_angle_gamma 90.000000
_cell_volume 3184.285077
_symmetry_space_group_name_H-M "C 2/M"
_symmetry_group_IT_number 12
_symmetry_cell_setting 'monoclinic'
loop_
_space_group_symop_operation_xyz
x,y,z
-x,y,-z
-x,-y,-z
x,-y,z
1/2+x,1/2+y,z
1/2-x,1/2+y,-z
1/2-x,1/2-y,-z
1/2+x,1/2-y,z
loop_
_atom_site_type_symbol
_atom_site_label
_atom_site_fract_x
_atom_site_fract_y
_atom_site_fract_z
Si Si1 0.620156 0.880149 0.306328
Si Si2 0.941181 0.195935 0.170691
Si Si3 0.025965 0.117118 0.214673
Si Si4 0.906121 0.384363 0.329018
Si Si5 0.273997 0.379113 0.338280
Si Si6 0.988934 0.692973 0.374692
Si Si7 0.703719 0.380340 0.890851
O O1 0.578542 0.820107 0.448757
O O2 0.580091 0.842375 0.273982
O O3 0.718390 0.854242 0.160721
O O4 0.603826 0.000000 0.344837
O O5 0.942421 0.314420 0.197175
O O6 0.847089 0.164303 0.290217
O O7 0.973141 0.125186 0.202999
O O8 0.000000 0.178146 0.000000
O O9 0.988320 0.187971 0.347422
O O10 0.025250 0.000000 0.248265
O O11 0.118977 0.161171 0.059337
O O12 0.904837 0.500000 0.296334
O O13 0.814132 0.344423 0.490933
O O14 0.965654 0.377368 0.326144
O O15 0.278952 0.500000 0.328382
O O16 0.281978 0.332901 0.227627
O O17 0.693239 0.500000 0.894271
#
# Coordination Sequence:
#
# PCOD8082322 Si02
#       7
#     8   8   8   8   8   8   8
#     4  10  18  32  55  80 100 124 164 207 244 286
#     4  11  21  32  51  75  98 132 168 202 244 291
#     4  10  21  35  49  72 103 131 163 203 245 293
#     4  10  20  34  50  73 103 130 162 203 247 294
#     4  10  18  31  51  74  98 126 163 207 246 284
#     4  10  19  31  52  78  99 127 162 202 249 289
#     4   9  17  30  51  74  98 127 160 204 249 284
#
# _framework density 17.586365000000001
#
# number of rings (size 3 to 8) (size 9 to 14) (size 15 to 20)
#    0.000    2.000    2.857    2.571    0.000    1.429 
#    0.000    1.429    0.000    0.000    0.000    6.000 
#    0.000    0.000    0.000    0.000    0.000    0.000 
#
# Total GULP energy -347193.856641 kJ/mol
# GULP energy per Si atom -12399.780594 kJ/mol
# Density = 1.754634 g / cm^3
# Si number density = 17.586365 Si / 1000 Ang^3
#
#
#
# Elastic Constant Matrix: (Units=GPa)
#
#
# Indices 1 2 3 4 5 6 
#
# 1 118.6293 19.8004 34.9052 0.0000 -18.2761 0.0000
# 2 19.8004 69.6203 33.2894 0.0000 2.0395 0.0000
# 3 34.9052 33.2894 39.9915 0.0000 -1.5717 0.0000
# 4 0.0000 0.0000 0.0000 19.9936 0.0000 -3.5616
# 5 -18.2761 2.0395 -1.5717 0.0000 27.0794 0.0000
# 6 0.0000 0.0000 0.0000 -3.5616 0.0000 11.6766
#
#
#
# Elastic Compliance Matrix: (Units=1/GPa)
#
#
# Indices 1 2 3 4 5 6 
#
# 1 0.013097 0.002260 -0.013002 0.000000 0.007915 0.000000
# 2 0.002260 0.024489 -0.022422 0.000000 -0.001620 0.000000
# 3 -0.013002 -0.022422 0.054864 0.000000 -0.003902 0.000000
# 4 0.000000 0.000000 0.000000 0.052890 0.000000 0.016132
# 5 0.007915 -0.001620 -0.003902 0.000000 0.042166 0.000000
# 6 0.000000 0.000000 0.000000 0.016132 0.000000 0.090562
#
#
# Mechanical properties :
#
#
# Convention : Reuss Voigt Hill
#
# Bulk Modulus (GPa) = 38.27866 44.91458 41.59662
# Shear Modulus (GPa) = 14.16017 21.09965 17.62991
#
# Velocity S-wave (km/s) = 2.84065 3.46753 3.16963
# Velocity P-wave (km/s) = 5.70722 6.45187 6.09093
#
# Compressibility (1/GPa) = 0.02612422
#
# Stress axis : x y z
#
# Youngs Moduli (GPa) = 76.35123 40.83413 18.22685
#
# Poissons Ratio (x) = -0.09229 0.23698
# Poissons Ratio (y) = -0.17256 0.40867
# Poissons Ratio (z) = 0.99271 0.91556
#
# Static dielectric constant tensor:
#      x y z
#    x 3.508580 0.000000 -0.199560 
#    y 0.000000 3.036990 0.000000 
#    z -0.199560 0.000000 3.209520 
# 
# 
# High freq. dielectric constant tensor:
#      x y z
#    x 1.694290 0.000000 -0.016640 
#    y 0.000000 1.657530 0.000000 
#    z -0.016640 0.000000 1.665720 
# 
# From -- ./inp_files/223151.got.cif
#   From: 2010.06.25/outbox.cif.g09.slc.cpg/sg12_112_cif.got.tgz:223151.got - 2010.06.28 00:19:55.
