data_PCOD8082005
_publ_section_title
;
Structure prediction by ZEFSAII (Michael W. Deem and Ramdas Pophale) SiO2 
 PCOD8082005
Probable space group: C 2/M
;
_chemical_formula_sum "Si O2"
_cell_formula_units_Z 60
_cell_length_a 25.007828
_cell_length_b 9.164577
_cell_length_c 14.517766
_cell_angle_alpha 90.000000
_cell_angle_beta 74.194246
_cell_angle_gamma 90.000000
_cell_volume 3201.469142
_symmetry_space_group_name_H-M "C 2/M"
_symmetry_group_IT_number 12
_symmetry_cell_setting 'monoclinic'
loop_
_space_group_symop_operation_xyz
x,y,z
-x,y,-z
-x,-y,-z
x,-y,z
1/2+x,1/2+y,z
1/2-x,1/2+y,-z
1/2-x,1/2-y,-z
1/2+x,1/2-y,z
loop_
_atom_site_type_symbol
_atom_site_label
_atom_site_fract_x
_atom_site_fract_y
_atom_site_fract_z
Si Si1 0.000000 0.753855 0.500000
Si Si2 0.506366 0.336288 0.293636
Si Si3 0.124567 0.829234 0.179322
Si Si4 0.190993 0.826866 0.773383
Si Si5 0.802434 0.827512 0.688110
Si Si6 0.301807 0.670195 0.019200
Si Si7 0.120540 0.660199 0.479154
Si Si8 0.898060 0.331115 0.303648
O O1 0.994453 0.849873 0.594922
O O2 0.944543 0.657296 0.516974
O O3 0.497488 0.500000 0.258975
O O4 0.564092 0.264111 0.230740
O O5 0.460391 0.229615 0.274128
O O6 0.171257 0.770771 0.228240
O O7 0.119706 0.000000 0.199520
O O8 0.143307 0.790719 0.066689
O O9 0.244610 0.755417 0.700406
O O10 0.187841 0.779760 0.881653
O O11 0.136369 0.763087 0.752462
O O12 0.192990 0.000000 0.759529
O O13 0.845097 0.786284 0.587209
O O14 0.791605 0.000000 0.690548
O O15 0.288704 0.500000 0.019257
O O16 0.250000 0.750000 0.000000
O O17 0.144071 0.500000 0.442121
O O18 0.128724 0.689269 0.583414
O O19 0.899064 0.500000 0.273367
#
# Coordination Sequence:
#
# PCOD8082005 Si02
#       8
#     4   8   8   8   8   8   8   8
#     4  10  18  30  54  86 114 150 188 230 282 330
#     4  10  19  34  57  84 115 149 189 233 275 334
#     4   9  18  34  55  85 118 147 179 224 284 338
#     4  11  23  39  60  85 111 148 193 238 282 336
#     4  11  21  35  58  86 117 152 184 229 286 339
#     4  10  20  36  59  86 114 144 185 232 284 339
#     4  10  21  36  54  81 115 151 193 234 278 333
#     4  10  23  41  58  79 112 157 194 232 283 334
#
# _framework density 18.741396999999999
#
# number of rings (size 3 to 8) (size 9 to 14) (size 15 to 20)
#    0.000    1.867    2.667    1.600    0.000    4.267 
#    0.000    1.333    0.000    4.000    0.000    0.000 
#    0.000    0.000    0.000    0.000    0.000    0.000 
#
# Total GULP energy -371988.245602 kJ/mol
# GULP energy per Si atom -12399.608187 kJ/mol
# Density = 1.869874 g / cm^3
# Si number density = 18.741397 Si / 1000 Ang^3
#
#
#
# Elastic Constant Matrix: (Units=GPa)
#
#
# Indices 1 2 3 4 5 6 
#
# 1 122.6148 44.2152 57.5536 0.0000 1.2166 0.0000
# 2 44.2152 83.9437 36.2229 0.0000 4.4438 0.0000
# 3 57.5536 36.2229 93.8840 0.0000 -3.5277 0.0000
# 4 0.0000 0.0000 0.0000 22.4526 0.0000 -0.6923
# 5 1.2166 4.4438 -3.5277 0.0000 31.9885 0.0000
# 6 0.0000 0.0000 0.0000 -0.6923 0.0000 27.7080
#
#
#
# Elastic Compliance Matrix: (Units=1/GPa)
#
#
# Indices 1 2 3 4 5 6 
#
# 1 0.012448 -0.003865 -0.006163 0.000000 -0.000616 0.000000
# 2 -0.003865 0.015711 -0.003785 0.000000 -0.002453 0.000000
# 3 -0.006163 -0.003785 0.015985 0.000000 0.002523 0.000000
# 4 0.000000 0.000000 0.000000 0.044573 0.000000 0.001114
# 5 -0.000616 -0.002453 0.002523 0.000000 0.031904 0.000000
# 6 0.000000 0.000000 0.000000 0.001114 0.000000 0.036118
#
#
# Mechanical properties :
#
#
# Convention : Reuss Voigt Hill
#
# Bulk Modulus (GPa) = 60.53659 64.04732 62.29196
# Shear Modulus (GPa) = 26.33365 27.25988 26.79676
#
# Velocity S-wave (km/s) = 3.75254 3.81796 3.78539
# Velocity P-wave (km/s) = 7.15168 7.32695 7.23985
#
# Compressibility (1/GPa) = 0.01651893
#
# Stress axis : x y z
#
# Youngs Moduli (GPa) = 80.33243 63.64782 62.55947
#
# Poissons Ratio (x) = 0.24598 0.38557
# Poissons Ratio (y) = 0.31046 0.23678
# Poissons Ratio (z) = 0.49511 0.24090
#
# Static dielectric constant tensor:
#      x y z
#    x 3.462920 0.000000 -0.068480 
#    y 0.000000 3.290300 0.000000 
#    z -0.068480 0.000000 3.545300 
# 
# 
# High freq. dielectric constant tensor:
#      x y z
#    x 1.725950 0.000000 -0.007000 
#    y 0.000000 1.720720 0.000000 
#    z -0.007000 0.000000 1.723650 
# 
# From -- ./inp_files/238545.got.cif
#   From: 2010.06.25/outbox.cif.g09.slc.cpg/sg12_120_cif.got.tgz:238545.got - 2010.06.28 00:19:55.
