data_PCOD8082400
_publ_section_title
;
Structure prediction by ZEFSAII (Michael W. Deem and Ramdas Pophale) SiO2 
 PCOD8082400
Probable space group: C 2/M
;
_chemical_formula_sum "Si O2"
_cell_formula_units_Z 64
_cell_length_a 14.696541
_cell_length_b 8.665405
_cell_length_c 30.455210
_cell_angle_alpha 90.000000
_cell_angle_beta 120.202986
_cell_angle_gamma 90.000000
_cell_volume 3352.002022
_symmetry_space_group_name_H-M "C 2/M"
_symmetry_group_IT_number 12
_symmetry_cell_setting 'monoclinic'
loop_
_space_group_symop_operation_xyz
x,y,z
-x,y,-z
-x,-y,-z
x,-y,z
1/2+x,1/2+y,z
1/2-x,1/2+y,-z
1/2-x,1/2-y,-z
1/2+x,1/2-y,z
loop_
_atom_site_type_symbol
_atom_site_label
_atom_site_fract_x
_atom_site_fract_y
_atom_site_fract_z
Si Si1 0.527830 0.183803 0.290757
Si Si2 0.260346 0.318410 0.366941
Si Si3 0.977283 0.821531 0.883738
Si Si4 0.188718 0.317009 0.444246
Si Si5 0.532287 0.683826 0.632958
Si Si6 0.433147 0.182009 0.177138
Si Si7 0.793380 0.821153 0.898748
Si Si8 0.854907 0.816884 0.006438
O O1 0.650327 0.236526 0.318198
O O2 0.465774 0.259424 0.316290
O O3 0.472877 0.247121 0.233284
O O4 0.520761 0.000000 0.294461
O O5 0.269073 0.500000 0.365658
O O6 0.254045 0.267484 0.416526
O O7 0.363235 0.250282 0.366946
O O8 0.858031 0.796160 0.870082
O O9 0.985797 0.726224 0.841237
O O10 0.050299 0.753547 0.940592
O O11 0.003284 0.000000 0.880902
O O12 0.179543 0.500000 0.445117
O O13 0.250000 0.250000 0.500000
O O14 0.071058 0.249052 0.416062
O O15 0.529052 0.500000 0.630777
O O16 0.320453 0.257401 0.136463
O O17 0.425208 0.000000 0.179382
O O18 0.773760 0.000000 0.903710
O O19 0.858381 0.756687 0.956718
O O20 0.858118 0.000000 0.008918
O O21 0.750000 0.750000 0.000000
#
# Coordination Sequence:
#
# PCOD8082400 Si02
#       8
#     8   8   8   8   8   8   8   8
#     4   9  19  36  54  74 102 137 172 211 263 314
#     4   8  17  34  54  74 103 141 176 210 258 313
#     4  10  20  33  51  74  99 130 168 208 252 309
#     4  10  20  36  55  80 115 149 179 215 257 304
#     4  10  19  34  56  79 102 137 181 219 257 303
#     4  10  20  35  54  74 101 134 167 209 260 311
#     4   9  18  33  51  72 100 133 166 202 256 316
#     4  10  18  31  52  72  96 130 166 204 251 308
#
# _framework density 19.093067999999999
#
# number of rings (size 3 to 8) (size 9 to 14) (size 15 to 20)
#    0.000    2.500    1.250    1.875    0.000    3.500 
#    0.000   10.000    0.000    1.500    0.000    0.000 
#    0.000    0.000    0.000    0.000    0.000    0.000 
#
# Total GULP energy -396602.127503 kJ/mol
# GULP energy per Si atom -12393.816484 kJ/mol
# Density = 1.904961 g / cm^3
# Si number density = 19.093068 Si / 1000 Ang^3
#
#
#
# Elastic Constant Matrix: (Units=GPa)
#
#
# Indices 1 2 3 4 5 6 
#
# 1 134.9437 20.3155 59.3424 0.0000 -12.4777 0.0000
# 2 20.3155 28.1811 27.0581 0.0000 -0.8840 0.0000
# 3 59.3424 27.0581 152.9870 0.0000 -16.8757 0.0000
# 4 0.0000 0.0000 0.0000 22.3167 0.0000 -3.7469
# 5 -12.4777 -0.8840 -16.8757 0.0000 18.8095 0.0000
# 6 0.0000 0.0000 0.0000 -3.7469 0.0000 27.3594
#
#
#
# Elastic Compliance Matrix: (Units=1/GPa)
#
#
# Indices 1 2 3 4 5 6 
#
# 1 0.009521 -0.004344 -0.002498 0.000000 0.003871 0.000000
# 2 -0.004344 0.045206 -0.007096 0.000000 -0.007124 0.000000
# 3 -0.002498 -0.007096 0.009479 0.000000 0.006514 0.000000
# 4 0.000000 0.000000 0.000000 0.045864 0.000000 0.006281
# 5 0.003871 -0.007124 0.006514 0.000000 0.061242 0.000000
# 6 0.000000 0.000000 0.000000 0.006281 0.000000 0.037411
#
#
# Mechanical properties :
#
#
# Convention : Reuss Voigt Hill
#
# Bulk Modulus (GPa) = 27.52522 58.83818 43.18170
# Shear Modulus (GPa) = 20.10388 27.65685 23.88037
#
# Velocity S-wave (km/s) = 3.24843 3.81008 3.54041
# Velocity P-wave (km/s) = 5.34016 7.08795 6.27520
#
# Compressibility (1/GPa) = 0.03633032
#
# Stress axis : x y z
#
# Youngs Moduli (GPa) = 105.03348 22.12085 105.49627
#
# Poissons Ratio (x) = 0.09609 0.26351
# Poissons Ratio (y) = 0.45624 0.74863
# Poissons Ratio (z) = 0.26235 0.15698
#
# Static dielectric constant tensor:
#      x y z
#    x 3.664030 0.000000 0.059880 
#    y 0.000000 3.196470 0.000000 
#    z 0.059880 0.000000 3.793470 
# 
# 
# High freq. dielectric constant tensor:
#      x y z
#    x 1.749390 0.000000 -0.002270 
#    y 0.000000 1.708930 0.000000 
#    z -0.002270 0.000000 1.747640 
# 
# From -- ./inp_files/359839.got.cif
#   From: 2010.06.25/outbox.cif.g09.slc.cpg/sg12_180_cif.got.tgz:359839.got - 2010.06.28 00:19:55.
