data_PCOD8082604
_publ_section_title
;
Structure prediction by ZEFSAII (Michael W. Deem and Ramdas Pophale) SiO2 
 PCOD8082604
Probable space group: C 2/M
;
_chemical_formula_sum "Si O2"
_cell_formula_units_Z 48
_cell_length_a 16.633308
_cell_length_b 13.897890
_cell_length_c 11.266866
_cell_angle_alpha 90.000000
_cell_angle_beta 110.765264
_cell_angle_gamma 90.000000
_cell_volume 2435.348881
_symmetry_space_group_name_H-M "C 2/M"
_symmetry_group_IT_number 12
_symmetry_cell_setting 'monoclinic'
loop_
_space_group_symop_operation_xyz
x,y,z
-x,y,-z
-x,-y,-z
x,-y,z
1/2+x,1/2+y,z
1/2-x,1/2+y,-z
1/2-x,1/2-y,-z
1/2+x,1/2-y,z
loop_
_atom_site_type_symbol
_atom_site_label
_atom_site_fract_x
_atom_site_fract_y
_atom_site_fract_z
Si Si1 0.187181 0.714139 0.067542
Si Si2 0.514122 0.268311 0.643967
Si Si3 0.351556 0.608835 0.580411
Si Si4 0.717891 0.606916 0.207540
Si Si5 0.899283 0.610734 0.176266
Si Si6 0.318819 0.612108 0.299083
O O1 0.155202 0.812190 0.116683
O O2 0.233820 0.646159 0.187211
O O3 0.250000 0.750000 0.000000
O O4 0.112824 0.653063 0.963633
O O5 0.500000 0.242937 0.500000
O O6 0.432328 0.324120 0.652254
O O7 0.523821 0.168903 0.721126
O O8 0.598126 0.333545 0.708498
O O9 0.387031 0.500000 0.590384
O O10 0.282260 0.618991 0.649871
O O11 0.306271 0.635887 0.432285
O O12 0.685526 0.500000 0.153703
O O13 0.814849 0.623512 0.213990
O O14 0.926716 0.500000 0.179985
O O15 0.332593 0.500000 0.282406
#
# Coordination Sequence:
#
# PCOD8082604 Si02
#       6
#     8   8   8   8   8   8
#     4  10  18  33  52  78 103 137 179 218 259 303
#     4  10  19  34  52  80 106 142 177 208 259 315
#     4   9  19  34  54  82 112 135 165 219 274 313
#     4   9  18  34  55  81 108 133 171 223 269 304
#     4  10  20  36  57  78 104 137 181 222 253 307
#     4  10  18  31  53  79 107 138 175 215 261 313
#
# _framework density 19.709702
#
# number of rings (size 3 to 8) (size 9 to 14) (size 15 to 20)
#    0.000    2.333    3.333    1.000    0.000    3.667 
#    0.000    0.833    0.000    5.000    0.000    0.000 
#    0.000    0.000    0.000    0.000    0.000    0.000 
#
# Total GULP energy -297490.291397 kJ/mol
# GULP energy per Si atom -12395.428808 kJ/mol
# Density = 1.966484 g / cm^3
# Si number density = 19.709702 Si / 1000 Ang^3
#
#
#
# Elastic Constant Matrix: (Units=GPa)
#
#
# Indices 1 2 3 4 5 6 
#
# 1 25.5142 17.7519 27.8282 0.0000 -3.1501 0.0000
# 2 17.7519 144.1134 66.2998 0.0000 7.7782 0.0000
# 3 27.8282 66.2998 111.8976 0.0000 5.4996 0.0000
# 4 0.0000 0.0000 0.0000 40.3508 0.0000 0.7067
# 5 -3.1501 7.7782 5.4996 0.0000 25.3592 0.0000
# 6 0.0000 0.0000 0.0000 0.7067 0.0000 17.2749
#
#
#
# Elastic Compliance Matrix: (Units=1/GPa)
#
#
# Indices 1 2 3 4 5 6 
#
# 1 0.056374 -0.001126 -0.013862 0.000000 0.010354 0.000000
# 2 -0.001126 0.009636 -0.005334 0.000000 -0.001939 0.000000
# 3 -0.013862 -0.005334 0.015716 0.000000 -0.003494 0.000000
# 4 0.000000 0.000000 0.000000 0.024800 0.000000 -0.001015
# 5 0.010354 -0.001939 -0.003494 0.000000 0.042072 0.000000
# 6 0.000000 0.000000 0.000000 -0.001015 0.000000 0.057929
#
#
# Mechanical properties :
#
#
# Convention : Reuss Voigt Hill
#
# Bulk Modulus (GPa) = 24.34077 56.14278 40.24178
# Shear Modulus (GPa) = 19.16687 27.90668 23.53678
#
# Velocity S-wave (km/s) = 3.12181 3.76691 3.45943
# Velocity P-wave (km/s) = 5.03694 6.88957 6.03477
#
# Compressibility (1/GPa) = 0.04108333
#
# Stress axis : x y z
#
# Youngs Moduli (GPa) = 17.73852 103.77356 63.62786
#
# Poissons Ratio (x) = 0.11684 0.88199
# Poissons Ratio (y) = 0.01997 0.33941
# Poissons Ratio (z) = 0.24589 0.55356
#
# Static dielectric constant tensor:
#      x y z
#    x 3.108430 0.000000 -0.184650 
#    y 0.000000 4.014380 0.000000 
#    z -0.184650 0.000000 3.895450 
# 
# 
# High freq. dielectric constant tensor:
#      x y z
#    x 1.715280 0.000000 -0.017580 
#    y 0.000000 1.787600 0.000000 
#    z -0.017580 0.000000 1.772780 
# 
# From -- ./inp_files/166334.got.cif
#   From: 2010.06.25/outbox.cif.g09.slc.cpg/sg12_84_cif.got.tgz:166334.got - 2010.06.28 00:19:55.
