data_PCOD8082185
_publ_section_title
;
Structure prediction by ZEFSAII (Michael W. Deem and Ramdas Pophale) SiO2 
 PCOD8082185
Probable space group: C 2/M
;
_chemical_formula_sum "Si O2"
_cell_formula_units_Z 56
_cell_length_a 19.197534
_cell_length_b 9.728054
_cell_length_c 31.850419
_cell_angle_alpha 90.000000
_cell_angle_beta 146.458148
_cell_angle_gamma 90.000000
_cell_volume 3286.661454
_symmetry_space_group_name_H-M "C 2/M"
_symmetry_group_IT_number 12
_symmetry_cell_setting 'monoclinic'
loop_
_space_group_symop_operation_xyz
x,y,z
-x,y,-z
-x,-y,-z
x,-y,z
1/2+x,1/2+y,z
1/2-x,1/2+y,-z
1/2-x,1/2-y,-z
1/2+x,1/2-y,z
loop_
_atom_site_type_symbol
_atom_site_label
_atom_site_fract_x
_atom_site_fract_y
_atom_site_fract_z
Si Si1 0.116132 0.662601 0.312033
Si Si2 0.130581 0.342017 0.706233
Si Si3 0.436933 0.843300 0.092561
Si Si4 0.835933 0.342545 0.572021
Si Si5 0.340781 0.162793 0.186929
Si Si6 0.797215 0.661423 0.733346
Si Si7 0.792769 0.841801 0.960929
O O1 0.100594 0.500000 0.301405
O O2 0.186654 0.702215 0.390767
O O3 0.193572 0.713080 0.310319
O O4 0.975652 0.727978 0.241472
O O5 0.164848 0.500000 0.713494
O O6 0.192383 0.295412 0.781900
O O7 0.183393 0.244975 0.696527
O O8 0.981179 0.321870 0.633028
O O9 0.573317 0.801990 0.178105
O O10 0.337160 0.819288 0.079449
O O11 0.433913 0.000000 0.075562
O O12 0.404909 0.748317 0.036588
O O13 0.795597 0.500000 0.545108
O O14 0.750000 0.250000 0.500000
O O15 0.232635 0.209054 0.099726
O O16 0.355641 0.000000 0.191951
O O17 0.767055 0.500000 0.721036
O O18 0.836081 0.000000 0.984204
#
# Coordination Sequence:
#
# PCOD8082185 Si02
#       7
#     8   8   8   8   8   8   8
#     4   8  14  28  51  73  91 121 163 197 225 269
#     4   9  19  33  50  72  98 125 154 193 239 280
#     4   9  17  27  42  67  96 122 152 198 246 278
#     4   9  18  34  56  77  97 122 154 192 232 276
#     4   8  13  27  49  68  87 120 166 204 230 270
#     4  10  18  31  50  71  96 127 161 195 234 280
#     4   9  15  26  46  68  88 118 162 204 238 273
#
# _framework density 17.038565999999999
#
# number of rings (size 3 to 8) (size 9 to 14) (size 15 to 20)
#    0.000    3.143    1.429    1.714    0.000    1.143 
#    0.000    2.857    0.000   10.286    0.000    0.000 
#    0.000    0.000    0.000    0.000    0.000    0.000 
#
# Total GULP energy -347035.240727 kJ/mol
# GULP energy per Si atom -12394.115740 kJ/mol
# Density = 1.699979 g / cm^3
# Si number density = 17.038566 Si / 1000 Ang^3
#
#
#
# Elastic Constant Matrix: (Units=GPa)
#
#
# Indices 1 2 3 4 5 6 
#
# 1 110.2109 45.8583 54.8148 0.0000 -23.7482 0.0000
# 2 45.8583 57.9724 50.5917 0.0000 -11.0743 0.0000
# 3 54.8148 50.5917 95.1506 0.0000 -25.1649 0.0000
# 4 0.0000 0.0000 0.0000 30.2571 0.0000 0.0583
# 5 -23.7482 -11.0743 -25.1649 0.0000 22.5247 0.0000
# 6 0.0000 0.0000 0.0000 0.0583 0.0000 24.7380
#
#
#
# Elastic Compliance Matrix: (Units=1/GPa)
#
#
# Indices 1 2 3 4 5 6 
#
# 1 0.015966 -0.009380 -0.001389 0.000000 0.010671 0.000000
# 2 -0.009380 0.038044 -0.017733 0.000000 -0.010996 0.000000
# 3 -0.001389 -0.017733 0.025613 0.000000 0.018433 0.000000
# 4 0.000000 0.000000 0.000000 0.033050 0.000000 -0.000078
# 5 0.010671 -0.010996 0.018433 0.000000 0.070833 0.000000
# 6 0.000000 0.000000 0.000000 -0.000078 0.000000 0.040424
#
#
# Mechanical properties :
#
#
# Convention : Reuss Voigt Hill
#
# Bulk Modulus (GPa) = 44.20602 62.87373 53.53987
# Shear Modulus (GPa) = 17.33267 22.97525 20.15396
#
# Velocity S-wave (km/s) = 3.19291 3.67608 3.44298
# Velocity P-wave (km/s) = 6.29237 7.41613 6.87724
#
# Compressibility (1/GPa) = 0.02262136
#
# Stress axis : x y z
#
# Youngs Moduli (GPa) = 62.63181 26.28559 39.04254
#
# Poissons Ratio (x) = 0.24655 0.05422
# Poissons Ratio (y) = 0.58747 0.69232
# Poissons Ratio (z) = 0.08697 0.46611
#
# Static dielectric constant tensor:
#      x y z
#    x 3.276820 0.000000 -0.316800 
#    y 0.000000 2.891420 0.000000 
#    z -0.316800 0.000000 3.188520 
# 
# 
# High freq. dielectric constant tensor:
#      x y z
#    x 1.649230 0.000000 -0.017250 
#    y 0.000000 1.624290 0.000000 
#    z -0.017250 0.000000 1.650960 
# 
# From -- ./inp_files/276358.got.cif
#   From: 2010.06.25/outbox.cif.g09.slc.cpg/sg12_139_cif.got.tgz:276358.got - 2010.06.28 00:19:55.
