data_PCOD8082536
_publ_section_title
;
Structure prediction by ZEFSAII (Michael W. Deem and Ramdas Pophale) SiO2 
 PCOD8082536
Probable space group: C 2/M
;
_chemical_formula_sum "Si O2"
_cell_formula_units_Z 48
_cell_length_a 9.682672
_cell_length_b 26.450365
_cell_length_c 15.358868
_cell_angle_alpha 90.000000
_cell_angle_beta 38.912389
_cell_angle_gamma 90.000000
_cell_volume 2470.794055
_symmetry_space_group_name_H-M "C 2/M"
_symmetry_group_IT_number 12
_symmetry_cell_setting 'monoclinic'
loop_
_space_group_symop_operation_xyz
x,y,z
-x,y,-z
-x,-y,-z
x,-y,z
1/2+x,1/2+y,z
1/2-x,1/2+y,-z
1/2-x,1/2-y,-z
1/2+x,1/2-y,z
loop_
_atom_site_type_symbol
_atom_site_label
_atom_site_fract_x
_atom_site_fract_y
_atom_site_fract_z
Si Si1 0.162877 0.410821 0.693367
Si Si2 0.375786 0.720964 0.360715
Si Si3 0.782060 0.942282 0.161176
Si Si4 0.759723 0.386501 0.643207
Si Si5 0.059847 0.056505 0.597416
Si Si6 0.207384 0.803144 0.333369
O O1 0.283942 0.409417 0.540333
O O2 0.308285 0.444257 0.688287
O O3 0.151666 0.354168 0.735684
O O4 0.921971 0.434406 0.804351
O O5 0.250000 0.750000 0.500000
O O6 0.256840 0.671704 0.378938
O O7 0.378280 0.759562 0.278317
O O8 0.617145 0.707123 0.279469
O O9 0.774359 0.898593 0.238400
O O10 0.774776 0.000000 0.201965
O O11 0.000000 0.933073 0.000000
O O12 0.573632 0.419432 0.685946
O O13 0.000000 0.406727 0.500000
O O14 0.153363 0.000000 0.551484
O O15 0.000000 0.807395 0.500000
#
# Coordination Sequence:
#
# PCOD8082536 Si02
#       6
#     8   8   8   8   8   8
#     4  11  19  36  58  86 122 158 198 250 309 368
#     4  10  20  33  52  92 128 155 185 247 312 365
#     4  11  26  44  61  86 125 171 211 252 308 368
#     4  12  22  36  61  93 123 156 206 259 302 361
#     4  11  20  32  55  89 119 148 194 258 314 355
#     4  10  18  31  52  85 124 152 190 239 307 365
#
# _framework density 19.426953000000001
#
# number of rings (size 3 to 8) (size 9 to 14) (size 15 to 20)
#    0.000    1.167    5.000    5.000    2.333    0.667 
#    0.000    0.833    0.000    4.000    0.000    0.000 
#    0.000    0.000    0.000    0.000    0.000    0.000 
#
# Total GULP energy -297482.007934 kJ/mol
# GULP energy per Si atom -12395.083664 kJ/mol
# Density = 1.938274 g / cm^3
# Si number density = 19.426953 Si / 1000 Ang^3
#
#
#
# Elastic Constant Matrix: (Units=GPa)
#
#
# Indices 1 2 3 4 5 6 
#
# 1 102.2558 47.6965 36.4513 0.0000 -11.3739 0.0000
# 2 47.6965 137.4520 25.5828 0.0000 2.7928 0.0000
# 3 36.4513 25.5828 62.4423 0.0000 -11.7389 0.0000
# 4 0.0000 0.0000 0.0000 11.6515 0.0000 0.4941
# 5 -11.3739 2.7928 -11.7389 0.0000 20.1461 0.0000
# 6 0.0000 0.0000 0.0000 0.4941 0.0000 38.4686
#
#
#
# Elastic Compliance Matrix: (Units=1/GPa)
#
#
# Indices 1 2 3 4 5 6 
#
# 1 0.014261 -0.003996 -0.005694 0.000000 0.005288 0.000000
# 2 -0.003996 0.009201 -0.002359 0.000000 -0.004906 0.000000
# 3 -0.005694 -0.002359 0.022193 0.000000 0.010044 0.000000
# 4 0.000000 0.000000 0.000000 0.085873 0.000000 -0.001103
# 5 0.005288 -0.004906 0.010044 0.000000 0.059156 0.000000
# 6 0.000000 0.000000 0.000000 -0.001103 0.000000 0.026009
#
#
# Mechanical properties :
#
#
# Convention : Reuss Voigt Hill
#
# Bulk Modulus (GPa) = 46.38844 57.95680 52.17262
# Shear Modulus (GPa) = 20.16312 26.88121 23.52216
#
# Velocity S-wave (km/s) = 3.22513 3.72386 3.48343
# Velocity P-wave (km/s) = 6.14808 6.95611 6.56454
#
# Compressibility (1/GPa) = 0.02155709
#
# Stress axis : x y z
#
# Youngs Moduli (GPa) = 70.11964 108.68611 45.05863
#
# Poissons Ratio (x) = 0.43436 0.25655
# Poissons Ratio (y) = 0.28023 0.10629
# Poissons Ratio (z) = 0.39924 0.25639
#
# Static dielectric constant tensor:
#      x y z
#    x 4.114320 0.000000 -0.120840 
#    y 0.000000 3.725910 0.000000 
#    z -0.120840 0.000000 2.810970 
# 
# 
# High freq. dielectric constant tensor:
#      x y z
#    x 1.785060 0.000000 -0.011760 
#    y 0.000000 1.775010 0.000000 
#    z -0.011760 0.000000 1.666410 
# 
# From -- ./inp_files/123529.got.cif
#   From: 2010.06.25/outbox.cif.g09.slc.cpg/sg12_62_cif.got.tgz:123529.got - 2010.06.28 00:19:55.
