data_PCOD8082038
_publ_section_title
;
Structure prediction by ZEFSAII (Michael W. Deem and Ramdas Pophale) SiO2 
 PCOD8082038
Probable space group: C 2/M
;
_chemical_formula_sum "Si O2"
_cell_formula_units_Z 56
_cell_length_a 5.283819
_cell_length_b 34.177211
_cell_length_c 18.824588
_cell_angle_alpha 90.000000
_cell_angle_beta 65.434752
_cell_angle_gamma 90.000000
_cell_volume 3091.770229
_symmetry_space_group_name_H-M "C 2/M"
_symmetry_group_IT_number 12
_symmetry_cell_setting 'monoclinic'
loop_
_space_group_symop_operation_xyz
x,y,z
-x,y,-z
-x,-y,-z
x,-y,z
1/2+x,1/2+y,z
1/2-x,1/2+y,-z
1/2-x,1/2-y,-z
1/2+x,1/2-y,z
loop_
_atom_site_type_symbol
_atom_site_label
_atom_site_fract_x
_atom_site_fract_y
_atom_site_fract_z
Si Si1 0.356696 0.456149 0.928075
Si Si2 0.622163 0.774546 0.410381
Si Si3 0.399485 0.877947 0.232222
Si Si4 0.892574 0.425890 0.903835
Si Si5 0.259162 0.043751 0.327713
Si Si6 0.360105 0.929801 0.592066
Si Si7 0.281668 0.352284 0.311728
O O1 0.307042 0.500000 0.962188
O O2 0.681381 0.448449 0.875096
O O3 0.188055 0.448665 0.875298
O O4 0.247956 0.425861 0.001484
O O5 0.500000 0.788804 0.500000
O O6 0.381249 0.754223 0.392516
O O7 0.730183 0.811147 0.354135
O O8 0.545231 0.882987 0.137297
O O9 0.357995 0.923033 0.261412
O O10 0.604041 0.854302 0.259985
O O11 0.109789 0.855411 0.257224
O O12 0.432842 0.047478 0.379962
O O13 0.932127 0.048195 0.381382
O O14 0.310523 0.000000 0.290942
O O15 0.500000 0.927400 0.500000
O O16 0.315019 0.885617 0.623390
#
# Coordination Sequence:
#
# PCOD8082038 Si02
#       7
#     8   8   8   8   8   8   8
#     4  10  19  30  47  71  96 127 167 215 269 305
#     4  10  20  34  56  84 107 130 160 198 246 297
#     4  10  21  34  49  67  95 136 166 196 246 291
#     4  10  18  31  46  66  93 125 166 205 238 298
#     4  10  21  32  43  63  85 112 161 210 243 279
#     4  10  20  33  48  62  82 118 156 196 246 283
#     4  10  20  36  51  71 100 128 160 193 234 301
#
# _framework density 18.112598999999999
#
# number of rings (size 3 to 8) (size 9 to 14) (size 15 to 20)
#    0.000    2.000    0.000    5.143    0.000    3.429 
#    0.000    4.286    0.000    0.000    0.000    0.000 
#    0.000    0.000    0.000  180.000    0.000    0.000 
#
# Total GULP energy -346990.063271 kJ/mol
# GULP energy per Si atom -12392.502260 kJ/mol
# Density = 1.807137 g / cm^3
# Si number density = 18.112599 Si / 1000 Ang^3
#
#
#
# Elastic Constant Matrix: (Units=GPa)
#
#
# Indices 1 2 3 4 5 6 
#
# 1 172.9394 21.9761 27.3523 0.0000 -12.3395 0.0000
# 2 21.9761 72.4185 36.4367 0.0000 -6.1268 0.0000
# 3 27.3523 36.4367 65.0059 0.0000 -3.2999 0.0000
# 4 0.0000 0.0000 0.0000 14.4438 0.0000 -4.4243
# 5 -12.3395 -6.1268 -3.2999 0.0000 14.0316 0.0000
# 6 0.0000 0.0000 0.0000 -4.4243 0.0000 36.1320
#
#
#
# Elastic Compliance Matrix: (Units=1/GPa)
#
#
# Indices 1 2 3 4 5 6 
#
# 1 0.006554 -0.000422 -0.002265 0.000000 0.005047 0.000000
# 2 -0.000422 0.019761 -0.010606 0.000000 0.005763 0.000000
# 3 -0.002265 -0.010606 0.022210 0.000000 -0.001400 0.000000
# 4 0.000000 0.000000 0.000000 0.071932 0.000000 0.008808
# 5 0.005047 0.005763 -0.001400 0.000000 0.077893 0.000000
# 6 0.000000 0.000000 0.000000 0.008808 0.000000 0.028755
#
#
# Mechanical properties :
#
#
# Convention : Reuss Voigt Hill
#
# Bulk Modulus (GPa) = 45.58186 53.54377 49.56281
# Shear Modulus (GPa) = 19.15682 27.89472 23.52577
#
# Velocity S-wave (km/s) = 3.25568 3.92863 3.60788
# Velocity P-wave (km/s) = 6.27320 7.08553 6.69170
#
# Compressibility (1/GPa) = 0.02193855
#
# Stress axis : x y z
#
# Youngs Moduli (GPa) = 152.56995 50.60579 45.02503
#
# Poissons Ratio (x) = 0.02138 0.10198
# Poissons Ratio (y) = 0.06445 0.47753
# Poissons Ratio (z) = 0.34555 0.53672
#
# Static dielectric constant tensor:
#      x y z
#    x 4.363630 0.000000 -0.049310 
#    y 0.000000 3.027890 0.000000 
#    z -0.049310 0.000000 3.107780 
# 
# 
# High freq. dielectric constant tensor:
#      x y z
#    x 1.742780 0.000000 -0.003380 
#    y 0.000000 1.657310 0.000000 
#    z -0.003380 0.000000 1.683670 
# 
# From -- ./inp_files/298265.got.cif
#   From: 2010.06.25/outbox.cif.g09.slc.cpg/sg12_150_cif.got.tgz:298265.got - 2010.06.28 00:19:55.
