data_PCOD8082661
_publ_section_title
;
Structure prediction by ZEFSAII (Michael W. Deem and Ramdas Pophale) SiO2 
 PCOD8082661
Probable space group: C 2/M
;
_chemical_formula_sum "Si O2"
_cell_formula_units_Z 56
_cell_length_a 15.844886
_cell_length_b 9.456241
_cell_length_c 26.239709
_cell_angle_alpha 90.000000
_cell_angle_beta 133.777715
_cell_angle_gamma 90.000000
_cell_volume 2838.713317
_symmetry_space_group_name_H-M "C 2/M"
_symmetry_group_IT_number 12
_symmetry_cell_setting 'monoclinic'
loop_
_space_group_symop_operation_xyz
x,y,z
-x,y,-z
-x,-y,-z
x,-y,z
1/2+x,1/2+y,z
1/2-x,1/2+y,-z
1/2-x,1/2-y,-z
1/2+x,1/2-y,z
loop_
_atom_site_type_symbol
_atom_site_label
_atom_site_fract_x
_atom_site_fract_y
_atom_site_fract_z
Si Si1 0.003771 0.664654 0.226888
Si Si2 0.275230 0.334088 0.157196
Si Si3 0.330433 0.835952 0.995711
Si Si4 0.929795 0.333444 0.857967
Si Si5 0.951243 0.657453 0.422552
Si Si6 0.653876 0.343770 0.484922
Si Si7 0.247054 0.154498 0.636256
O O1 0.967712 0.500000 0.208825
O O2 0.896949 0.750154 0.206703
O O3 0.041960 0.724208 0.187044
O O4 0.115552 0.690470 0.310321
O O5 0.303729 0.500000 0.174131
O O6 0.202794 0.302014 0.075897
O O7 0.193526 0.278171 0.169888
O O8 0.313095 0.000000 0.001751
O O9 0.250000 0.750000 0.000000
O O10 0.464700 0.789675 0.060412
O O11 0.918489 0.500000 0.850323
O O12 0.951120 0.500000 0.398538
O O13 0.820776 0.720948 0.362648
O O14 0.000000 0.649027 0.500000
O O15 0.032258 0.763684 0.424490
O O16 0.646839 0.500000 0.456910
O O17 0.750000 0.250000 0.500000
O O18 0.685173 0.359176 0.556565
O O19 0.234216 0.000000 0.658431
#
# Coordination Sequence:
#
# PCOD8082661 Si02
#       7
#     8   8   8   8   8   8   8
#     4  10  20  37  57  76 108 148 181 215 267 329
#     4  10  20  34  54  80 108 139 182 229 269 315
#     4  10  18  31  54  79 104 138 180 226 275 316
#     4   9  18  34  55  77 105 142 180 218 267 326
#     4   9  17  31  53  77 100 129 168 210 256 309
#     4  10  19  33  53  78 107 136 173 220 267 312
#     4   9  19  35  54  75 104 140 174 211 262 319
#
# _framework density 19.727247999999999
#
# number of rings (size 3 to 8) (size 9 to 14) (size 15 to 20)
#    0.000    2.429    1.429    1.286    0.000    4.571 
#    2.571    1.429    0.000    1.714    0.000    0.000 
#    0.000    0.000    0.000    0.000    0.000    0.000 
#
# Total GULP energy -347015.166558 kJ/mol
# GULP energy per Si atom -12393.398806 kJ/mol
# Density = 1.968235 g / cm^3
# Si number density = 19.727248 Si / 1000 Ang^3
#
#
#
# Elastic Constant Matrix: (Units=GPa)
#
#
# Indices 1 2 3 4 5 6 
#
# 1 123.1057 53.0340 18.5224 0.0000 36.2321 0.0000
# 2 53.0340 114.8317 24.2371 0.0000 27.1968 0.0000
# 3 18.5224 24.2371 56.7770 0.0000 31.9696 0.0000
# 4 0.0000 0.0000 0.0000 23.2077 0.0000 9.9206
# 5 36.2321 27.1968 31.9696 0.0000 33.3766 0.0000
# 6 0.0000 0.0000 0.0000 9.9206 0.0000 35.7577
#
#
#
# Elastic Compliance Matrix: (Units=1/GPa)
#
#
# Indices 1 2 3 4 5 6 
#
# 1 0.014632 -0.003540 0.008807 0.000000 -0.021435 0.000000
# 2 -0.003540 0.011662 -0.001382 0.000000 -0.004337 0.000000
# 3 0.008807 -0.001382 0.043587 0.000000 -0.050184 0.000000
# 4 0.000000 0.000000 0.000000 0.048887 0.000000 -0.013563
# 5 -0.021435 -0.004337 -0.050184 0.000000 0.104832 0.000000
# 6 0.000000 0.000000 0.000000 -0.013563 0.000000 0.031729
#
#
# Mechanical properties :
#
#
# Convention : Reuss Voigt Hill
#
# Bulk Modulus (GPa) = 12.87794 54.03350 33.45572
# Shear Modulus (GPa) = 18.28549 31.72979 25.00764
#
# Velocity S-wave (km/s) = 3.04783 4.01487 3.56430
# Velocity P-wave (km/s) = 4.35062 6.99585 5.82537
#
# Compressibility (1/GPa) = 0.07765214
#
# Stress axis : x y z
#
# Youngs Moduli (GPa) = 68.34538 85.74938 22.94272
#
# Poissons Ratio (x) = 0.30353 -0.20206
# Poissons Ratio (y) = 0.24192 0.03170
# Poissons Ratio (z) = -0.60194 0.11847
#
# Static dielectric constant tensor:
#      x y z
#    x 3.901580 0.000000 0.144320 
#    y 0.000000 3.668000 0.000000 
#    z 0.144320 0.000000 3.579580 
# 
# 
# High freq. dielectric constant tensor:
#      x y z
#    x 1.763920 0.000000 0.019440 
#    y 0.000000 1.754910 0.000000 
#    z 0.019440 0.000000 1.757770 
# 
# From -- ./inp_files/377722.got.cif
#   From: 2010.06.25/outbox.cif.g09.slc.cpg/sg12_189_cif.got.tgz:377722.got - 2010.06.28 00:19:55.
