data_PCOD8082450
_publ_section_title
;
Structure prediction by ZEFSAII (Michael W. Deem and Ramdas Pophale) SiO2 
 PCOD8082450
Probable space group: C 2/M
;
_chemical_formula_sum "Si O2"
_cell_formula_units_Z 56
_cell_length_a 30.280194
_cell_length_b 9.333751
_cell_length_c 11.890438
_cell_angle_alpha 90.000000
_cell_angle_beta 60.946043
_cell_angle_gamma 90.000000
_cell_volume 2937.683599
_symmetry_space_group_name_H-M "C 2/M"
_symmetry_group_IT_number 12
_symmetry_cell_setting 'monoclinic'
loop_
_space_group_symop_operation_xyz
x,y,z
-x,y,-z
-x,-y,-z
x,-y,z
1/2+x,1/2+y,z
1/2-x,1/2+y,-z
1/2-x,1/2-y,-z
1/2+x,1/2-y,z
loop_
_atom_site_type_symbol
_atom_site_label
_atom_site_fract_x
_atom_site_fract_y
_atom_site_fract_z
Si Si1 0.904329 0.840215 0.235274
Si Si2 0.095102 0.668210 0.140758
Si Si3 0.940916 0.670323 0.577304
Si Si4 0.243432 0.830835 0.389943
Si Si5 0.342008 0.168637 0.137142
Si Si6 0.503280 0.159371 0.863596
Si Si7 0.134143 0.159685 0.479126
O O1 0.883899 0.743995 0.160649
O O2 0.865589 0.844191 0.385930
O O3 0.954613 0.771519 0.225679
O O4 0.915131 0.000000 0.176117
O O5 0.093993 0.500000 0.157637
O O6 0.087226 0.731955 0.275583
O O7 0.048590 0.719224 0.122082
O O8 0.146467 0.712496 0.008590
O O9 0.938317 0.500000 0.570850
O O10 0.908439 0.734813 0.515692
O O11 0.000000 0.719239 0.500000
O O12 0.250000 0.750000 0.500000
O O13 0.286681 0.784636 0.246897
O O14 0.191943 0.789327 0.386601
O O15 0.245676 0.000000 0.412997
O O16 0.350883 0.000000 0.141292
O O17 0.515439 0.000000 0.800343
O O18 0.500000 0.153603 0.000000
O O19 0.124391 0.000000 0.442410
#
# Coordination Sequence:
#
# PCOD8082450 Si02
#       7
#     8   8   8   8   8   8   8
#     4  11  21  32  49  77 114 144 174 224 274 325
#     4   9  18  34  54  79 108 137 182 236 274 316
#     4  10  21  38  60  82 106 143 191 237 272 319
#     4  10  20  35  57  83 112 146 183 227 277 332
#     4  10  19  34  56  79 106 143 180 220 275 331
#     4  10  18  31  52  76 105 141 180 221 271 334
#     4  10  22  38  54  79 114 147 182 227 280 332
#
# _framework density 19.062638
#
# number of rings (size 3 to 8) (size 9 to 14) (size 15 to 20)
#    0.000    2.000    2.857    1.286    0.000    3.429 
#    0.000    2.143    0.000    0.000    0.000    0.000 
#    0.000    0.000    0.000    0.000    0.000    0.000 
#
# Total GULP energy -346953.235394 kJ/mol
# GULP energy per Si atom -12391.186978 kJ/mol
# Density = 1.901925 g / cm^3
# Si number density = 19.062638 Si / 1000 Ang^3
#
#
#
# Elastic Constant Matrix: (Units=GPa)
#
#
# Indices 1 2 3 4 5 6 
#
# 1 84.7689 28.1525 36.4371 0.0000 -11.6362 0.0000
# 2 28.1525 45.8609 27.3714 0.0000 -8.7126 0.0000
# 3 36.4371 27.3714 121.8449 0.0000 -14.3071 0.0000
# 4 0.0000 0.0000 0.0000 19.2404 0.0000 -0.2862
# 5 -11.6362 -8.7126 -14.3071 0.0000 31.9288 0.0000
# 6 0.0000 0.0000 0.0000 -0.2862 0.0000 18.3689
#
#
#
# Elastic Compliance Matrix: (Units=1/GPa)
#
#
# Indices 1 2 3 4 5 6 
#
# 1 0.015843 -0.007624 -0.002735 0.000000 0.002468 0.000000
# 2 -0.007624 0.029500 -0.003935 0.000000 0.003508 0.000000
# 3 -0.002735 -0.003935 0.010203 0.000000 0.002501 0.000000
# 4 0.000000 0.000000 0.000000 0.051986 0.000000 0.000810
# 5 0.002468 0.003508 0.002501 0.000000 0.034297 0.000000
# 6 0.000000 0.000000 0.000000 0.000810 0.000000 0.054452
#
#
# Mechanical properties :
#
#
# Convention : Reuss Voigt Hill
#
# Bulk Modulus (GPa) = 37.09605 48.48856 42.79230
# Shear Modulus (GPa) = 21.38054 24.60855 22.99455
#
# Velocity S-wave (km/s) = 3.35265 3.59685 3.47690
# Velocity P-wave (km/s) = 5.87277 6.53769 6.21413
#
# Compressibility (1/GPa) = 0.02695705
#
# Stress axis : x y z
#
# Youngs Moduli (GPa) = 63.11764 33.89777 98.01212
#
# Poissons Ratio (x) = 0.25845 0.26810
# Poissons Ratio (y) = 0.48123 0.38569
# Poissons Ratio (z) = 0.17265 0.13339
#
# Static dielectric constant tensor:
#      x y z
#    x 3.402600 0.000000 -0.257550 
#    y 0.000000 3.349240 0.000000 
#    z -0.257550 0.000000 3.886230 
# 
# 
# High freq. dielectric constant tensor:
#      x y z
#    x 1.723530 0.000000 -0.015430 
#    y 0.000000 1.718390 0.000000 
#    z -0.015430 0.000000 1.751890 
# 
# From -- ./inp_files/187187.got.cif
#   From: 2010.06.25/outbox.cif.g09.slc.cpg/sg12_94_cif.got.tgz:187187.got - 2010.06.28 00:19:55.
