data_PCOD8082781
_publ_section_title
;
Structure prediction by ZEFSAII (Michael W. Deem and Ramdas Pophale) SiO2 
 PCOD8082781
Probable space group: C 2/M
;
_chemical_formula_sum "Si O2"
_cell_formula_units_Z 56
_cell_length_a 13.670071
_cell_length_b 14.434973
_cell_length_c 18.176772
_cell_angle_alpha 90.000000
_cell_angle_beta 51.578509
_cell_angle_gamma 90.000000
_cell_volume 2810.092171
_symmetry_space_group_name_H-M "C 2/M"
_symmetry_group_IT_number 12
_symmetry_cell_setting 'monoclinic'
loop_
_space_group_symop_operation_xyz
x,y,z
-x,y,-z
-x,-y,-z
x,-y,z
1/2+x,1/2+y,z
1/2-x,1/2+y,-z
1/2-x,1/2-y,-z
1/2+x,1/2-y,z
loop_
_atom_site_type_symbol
_atom_site_label
_atom_site_fract_x
_atom_site_fract_y
_atom_site_fract_z
Si Si1 0.289515 0.603208 0.795053
Si Si2 0.829189 0.695722 0.403147
Si Si3 0.577883 0.749568 0.890363
Si Si4 0.462207 0.141062 0.595526
Si Si5 0.956511 0.244364 0.793715
Si Si6 0.387204 0.351959 0.598281
Si Si7 0.288441 0.896333 0.799246
O O1 0.256950 0.500000 0.838627
O O2 0.164730 0.661149 0.838288
O O3 0.373128 0.654201 0.816908
O O4 0.365416 0.593336 0.683500
O O5 0.750000 0.750000 0.500000
O O6 0.737403 0.640459 0.392444
O O7 0.919199 0.627141 0.406190
O O8 0.914771 0.763240 0.312749
O O9 0.481274 0.745491 0.868565
O O10 0.655598 0.654411 0.857575
O O11 0.500000 0.762914 0.000000
O O12 0.500000 0.094573 0.500000
O O13 0.425794 0.247768 0.601005
O O14 0.343906 0.094036 0.690247
O O15 0.882858 0.338062 0.806223
O O16 0.500000 0.398772 0.500000
O O17 0.270231 0.000000 0.839960
#
# Coordination Sequence:
#
# PCOD8082781 Si02
#       7
#     8   8   8   8   8   8   8
#     4  11  23  40  62  93 126 159 202 256 306 360
#     4  11  16  28  58  85 113 165 204 234 293 363
#     4  11  24  44  67  89 119 163 205 251 311 365
#     4  10  18  31  55  85 121 162 204 244 296 353
#     4  10  21  41  62  88 123 161 199 253 307 360
#     4  11  18  33  55  88 122 165 200 246 294 360
#     4  10  22  40  62  92 123 158 203 255 305 361
#
# _framework density 19.928172
#
# number of rings (size 3 to 8) (size 9 to 14) (size 15 to 20)
#    0.000    1.429    8.571    0.000    0.000    4.571 
#    0.000    1.429    0.000    0.857    0.000    0.000 
#    0.000    0.000    0.000    0.000    0.000    0.000 
#
# Total GULP energy -347118.194909 kJ/mol
# GULP energy per Si atom -12397.078390 kJ/mol
# Density = 1.988281 g / cm^3
# Si number density = 19.928172 Si / 1000 Ang^3
#
#
#
# Elastic Constant Matrix: (Units=GPa)
#
#
# Indices 1 2 3 4 5 6 
#
# 1 139.4843 37.5151 33.2349 0.0000 18.2383 0.0000
# 2 37.5151 127.1200 22.6764 0.0000 0.2478 0.0000
# 3 33.2349 22.6764 101.6990 0.0000 14.9167 0.0000
# 4 0.0000 0.0000 0.0000 4.4832 0.0000 1.6485
# 5 18.2383 0.2478 14.9167 0.0000 31.9440 0.0000
# 6 0.0000 0.0000 0.0000 1.6485 0.0000 5.8330
#
#
#
# Elastic Compliance Matrix: (Units=1/GPa)
#
#
# Indices 1 2 3 4 5 6 
#
# 1 0.008735 -0.002259 -0.001741 0.000000 -0.004157 0.000000
# 2 -0.002259 0.008798 -0.001506 0.000000 0.001925 0.000000
# 3 -0.001741 -0.001506 0.011369 0.000000 -0.004303 0.000000
# 4 0.000000 0.000000 0.000000 0.248926 0.000000 -0.070352
# 5 -0.004157 0.001925 -0.004303 0.000000 0.035672 0.000000
# 6 0.000000 0.000000 0.000000 -0.070352 0.000000 0.191322
#
#
# Mechanical properties :
#
#
# Convention : Reuss Voigt Hill
#
# Bulk Modulus (GPa) = 55.89752 61.68399 58.79075
# Shear Modulus (GPa) = 9.58224 26.77717 18.17971
#
# Velocity S-wave (km/s) = 2.19518 3.66961 3.02364
# Velocity P-wave (km/s) = 5.87669 6.99822 6.46183
#
# Compressibility (1/GPa) = 0.01788988
#
# Stress axis : x y z
#
# Youngs Moduli (GPa) = 114.47816 113.66004 87.95956
#
# Poissons Ratio (x) = 0.25678 0.15316
# Poissons Ratio (y) = 0.25863 0.13245
# Poissons Ratio (z) = 0.19933 0.17115
#
# Static dielectric constant tensor:
#      x y z
#    x 4.057150 0.000000 -0.115270 
#    y 0.000000 3.317280 0.000000 
#    z -0.115270 0.000000 3.815300 
# 
# 
# High freq. dielectric constant tensor:
#      x y z
#    x 1.784190 0.000000 -0.001050 
#    y 0.000000 1.745800 0.000000 
#    z -0.001050 0.000000 1.777730 
# 
# From -- ./inp_files/270221.got.cif
#   From: 2010.06.25/outbox.cif.g09.slc.cpg/sg12_136_cif.got.tgz:270221.got - 2010.06.28 00:19:55.
