data_PCOD8082808
_publ_section_title
;
Structure prediction by ZEFSAII (Michael W. Deem and Ramdas Pophale) SiO2 
 PCOD8082808
Probable space group: C 2/M
;
_chemical_formula_sum "Si O2"
_cell_formula_units_Z 56
_cell_length_a 22.443308
_cell_length_b 17.015056
_cell_length_c 9.443247
_cell_angle_alpha 90.000000
_cell_angle_beta 129.656664
_cell_angle_gamma 90.000000
_cell_volume 2776.297698
_symmetry_space_group_name_H-M "C 2/M"
_symmetry_group_IT_number 12
_symmetry_cell_setting 'monoclinic'
loop_
_space_group_symop_operation_xyz
x,y,z
-x,y,-z
-x,-y,-z
x,-y,z
1/2+x,1/2+y,z
1/2-x,1/2+y,-z
1/2-x,1/2-y,-z
1/2+x,1/2-y,z
loop_
_atom_site_type_symbol
_atom_site_label
_atom_site_fract_x
_atom_site_fract_y
_atom_site_fract_z
Si Si1 0.415879 0.910438 0.581176
Si Si2 0.172707 0.091730 0.026627
Si Si3 0.829172 0.742312 0.458596
Si Si4 0.079935 0.815975 0.667680
Si Si5 0.161047 0.413223 0.816281
Si Si6 0.347806 0.279191 0.791178
Si Si7 0.932605 0.317669 0.132471
O O1 0.349474 0.848882 0.527926
O O2 0.411896 0.911883 0.403084
O O3 0.497753 0.880183 0.765444
O O4 0.400815 0.000000 0.615014
O O5 0.132666 0.117979 0.819674
O O6 0.159834 0.000000 0.033414
O O7 0.262786 0.116173 0.151092
O O8 0.138036 0.137916 0.108405
O O9 0.872597 0.773035 0.385183
O O10 0.737717 0.753709 0.303534
O O11 0.859360 0.791707 0.641047
O O12 0.048584 0.752345 0.731941
O O13 0.000000 0.857736 0.500000
O O14 0.177163 0.500000 0.899159
O O15 0.144548 0.359997 0.926523
O O16 0.410959 0.216120 0.945006
#
# Coordination Sequence:
#
# PCOD8082808 Si02
#       7
#     8   8   8   8   8   8   8
#     4  11  21  34  58  89 125 156 188 238 291 351
#     4  10  21  38  60  86 110 147 199 249 303 346
#     4  11  21  40  57  88 114 157 206 229 288 347
#     4  11  20  36  60  84 114 148 189 250 291 347
#     4  10  18  31  56  86 117 151 193 243 287 342
#     4  10  23  37  61  80 117 159 196 245 279 349
#     4  11  19  35  54  90 115 156 193 233 286 345
#
# _framework density 20.170749000000001
#
# number of rings (size 3 to 8) (size 9 to 14) (size 15 to 20)
#    0.000    1.429    4.286    1.714    0.000    4.286 
#    0.000    2.857    0.000    3.429    0.000    0.000 
#    0.000    0.000    0.000    0.000    0.000    0.000 
#
# Total GULP energy -347047.271581 kJ/mol
# GULP energy per Si atom -12394.545414 kJ/mol
# Density = 2.012484 g / cm^3
# Si number density = 20.170749 Si / 1000 Ang^3
#
#
#
# Elastic Constant Matrix: (Units=GPa)
#
#
# Indices 1 2 3 4 5 6 
#
# 1 27.9744 14.8360 28.0906 0.0000 5.2988 0.0000
# 2 14.8360 81.4166 41.5693 0.0000 10.2950 0.0000
# 3 28.0906 41.5693 115.8717 0.0000 4.9282 0.0000
# 4 0.0000 0.0000 0.0000 27.4490 0.0000 8.4228
# 5 5.2988 10.2950 4.9282 0.0000 28.6881 0.0000
# 6 0.0000 0.0000 0.0000 8.4228 0.0000 25.0711
#
#
#
# Elastic Compliance Matrix: (Units=1/GPa)
#
#
# Indices 1 2 3 4 5 6 
#
# 1 0.049072 -0.002708 -0.010659 0.000000 -0.006261 0.000000
# 2 -0.002708 0.015787 -0.004822 0.000000 -0.004337 0.000000
# 3 -0.010659 -0.004822 0.012881 0.000000 0.001486 0.000000
# 4 0.000000 0.000000 0.000000 0.040619 0.000000 -0.013646
# 5 -0.006261 -0.004337 0.001486 0.000000 0.037315 0.000000
# 6 0.000000 0.000000 0.000000 -0.013646 0.000000 0.044471
#
#
# Mechanical properties :
#
#
# Convention : Reuss Voigt Hill
#
# Bulk Modulus (GPa) = 24.17747 43.80608 33.99178
# Shear Modulus (GPa) = 19.97523 25.62609 22.80066
#
# Velocity S-wave (km/s) = 3.15033 3.56822 3.36576
# Velocity P-wave (km/s) = 5.02446 6.22423 5.65624
#
# Compressibility (1/GPa) = 0.04136082
#
# Stress axis : x y z
#
# Youngs Moduli (GPa) = 20.37822 63.34482 77.63362
#
# Poissons Ratio (x) = 0.17156 0.82746
# Poissons Ratio (y) = 0.05519 0.37438
# Poissons Ratio (z) = 0.21720 0.30548
#
# Static dielectric constant tensor:
#      x y z
#    x 3.396910 0.000000 0.110550 
#    y 0.000000 3.602680 0.000000 
#    z 0.110550 0.000000 3.782460 
# 
# 
# High freq. dielectric constant tensor:
#      x y z
#    x 1.764300 0.000000 0.013530 
#    y 0.000000 1.773830 0.000000 
#    z 0.013530 0.000000 1.795520 
# 
# From -- ./inp_files/98194.got.cif
#   From: 2010.06.25/outbox.cif.g09.slc.cpg/sg12_50_cif.got.tgz:98194.got - 2010.06.28 00:19:55.
