data_PCOD8082388
_publ_section_title
;
Structure prediction by ZEFSAII (Michael W. Deem and Ramdas Pophale) SiO2 
 PCOD8082388
Probable space group: C 2/M
;
_chemical_formula_sum "Si O2"
_cell_formula_units_Z 48
_cell_length_a 20.485677
_cell_length_b 9.343683
_cell_length_c 27.164263
_cell_angle_alpha 90.000000
_cell_angle_beta 32.647256
_cell_angle_gamma 90.000000
_cell_volume 2804.981270
_symmetry_space_group_name_H-M "C 2/M"
_symmetry_group_IT_number 12
_symmetry_cell_setting 'monoclinic'
loop_
_space_group_symop_operation_xyz
x,y,z
-x,y,-z
-x,-y,-z
x,-y,z
1/2+x,1/2+y,z
1/2-x,1/2+y,-z
1/2-x,1/2-y,-z
1/2+x,1/2-y,z
loop_
_atom_site_type_symbol
_atom_site_label
_atom_site_fract_x
_atom_site_fract_y
_atom_site_fract_z
Si Si1 0.493999 0.832951 0.733370
Si Si2 0.744019 0.667096 0.453458
Si Si3 0.500331 0.331752 0.443504
Si Si4 0.368925 0.330922 0.070335
Si Si5 0.639935 0.831112 0.276683
Si Si6 0.225823 0.330270 0.065593
O O1 0.634105 0.796329 0.655111
O O2 0.454762 0.774534 0.704538
O O3 0.407045 0.776067 0.831935
O O4 0.467463 0.000000 0.747179
O O5 0.739035 0.500000 0.469065
O O6 0.750000 0.750000 0.500000
O O7 0.629492 0.716986 0.494936
O O8 0.500000 0.283283 0.500000
O O9 0.522204 0.500000 0.423930
O O10 0.608821 0.251012 0.346760
O O11 0.379143 0.500000 0.062668
O O12 0.274168 0.287011 0.173222
O O13 0.322747 0.281479 0.045716
O O14 0.500000 0.262185 0.000000
O O15 0.629735 0.000000 0.292891
O O16 0.231059 0.500000 0.053150
O O17 0.250000 0.250000 0.000000
#
# Coordination Sequence:
#
# PCOD8082388 Si02
#       6
#     8   8   8   8   8   8
#     4   8  15  29  49  70  90 120 160 191 227 276
#     4  10  18  31  52  71  92 123 160 198 229 275
#     4  10  21  34  46  68 102 132 153 186 242 290
#     4   8  15  30  52  73  93 122 160 196 234 280
#     4   9  16  30  53  73  90 121 163 201 230 270
#     4   9  17  31  50  71  97 125 152 191 237 281
#
# _framework density 17.112414000000001
#
# number of rings (size 3 to 8) (size 9 to 14) (size 15 to 20)
#    0.000    3.000    1.667    2.000    0.000    0.333 
#    3.000    4.167    0.000    1.000    0.000    0.000 
#    0.000    0.000    0.000    0.000    0.000    0.000 
#
# Total GULP energy -297439.842717 kJ/mol
# GULP energy per Si atom -12393.326780 kJ/mol
# Density = 1.707346 g / cm^3
# Si number density = 17.112414 Si / 1000 Ang^3
#
#
#
# Elastic Constant Matrix: (Units=GPa)
#
#
# Indices 1 2 3 4 5 6 
#
# 1 117.7286 33.4620 87.4249 0.0000 2.2325 0.0000
# 2 33.4620 29.7448 42.0578 0.0001 6.3309 0.0000
# 3 87.4249 42.0578 155.4733 0.0001 8.5075 0.0000
# 4 0.0000 0.0001 0.0001 28.2842 -0.0001 7.7208
# 5 2.2325 6.3309 8.5075 -0.0001 35.6477 0.0000
# 6 0.0000 0.0000 0.0000 7.7208 0.0000 19.6855
#
#
#
# Elastic Compliance Matrix: (Units=1/GPa)
#
#
# Indices 1 2 3 4 5 6 
#
# 1 0.015954 -0.009003 -0.006655 0.000000 0.002188 0.000000
# 2 -0.009003 0.060927 -0.011002 0.000000 -0.007631 0.000000
# 3 -0.006655 -0.011002 0.013193 0.000000 -0.000778 0.000000
# 4 0.000000 0.000000 0.000000 0.039594 0.000000 -0.015529
# 5 0.002188 -0.007631 -0.000778 0.000000 0.029456 0.000000
# 6 0.000000 0.000000 0.000000 -0.015529 0.000000 0.056890
#
#
# Mechanical properties :
#
#
# Convention : Reuss Voigt Hill
#
# Bulk Modulus (GPa) = 27.20765 69.87067 48.53916
# Shear Modulus (GPa) = 17.75658 26.05695 21.90676
#
# Velocity S-wave (km/s) = 3.22474 3.90640 3.58183
# Velocity P-wave (km/s) = 5.45886 7.82724 6.74777
#
# Compressibility (1/GPa) = 0.03675437
#
# Stress axis : x y z
#
# Youngs Moduli (GPa) = 62.68124 16.41296 75.79737
#
# Poissons Ratio (x) = 0.14776 0.50446
# Poissons Ratio (y) = 0.56431 0.83390
# Poissons Ratio (z) = 0.41717 0.18057
#
# Static dielectric constant tensor:
#      x y z
#    x 3.366090 0.000000 -0.356450 
#    y 0.000000 2.821240 0.000000 
#    z -0.356450 0.000000 3.732210 
# 
# 
# High freq. dielectric constant tensor:
#      x y z
#    x 1.648790 0.000000 -0.007730 
#    y 0.000000 1.622680 0.000000 
#    z -0.007730 0.000000 1.673560 
# 
# From -- ./inp_files/345387.got.cif
#   From: 2010.06.25/outbox.cif.g09.slc.cpg/sg12_173_cif.got.tgz:345387.got - 2010.06.28 00:19:55.
