data_PCOD8082909
_publ_section_title
;
Structure prediction by ZEFSAII (Michael W. Deem and Ramdas Pophale) SiO2 
 PCOD8082909
Probable space group: C 2/M
;
_chemical_formula_sum "Si O2"
_cell_formula_units_Z 36
_cell_length_a 26.046153
_cell_length_b 7.538246
_cell_length_c 25.592658
_cell_angle_alpha 90.000000
_cell_angle_beta 155.418542
_cell_angle_gamma 90.000000
_cell_volume 2090.299654
_symmetry_space_group_name_H-M "C 2/M"
_symmetry_group_IT_number 12
_symmetry_cell_setting 'monoclinic'
loop_
_space_group_symop_operation_xyz
x,y,z
-x,y,-z
-x,-y,-z
x,-y,z
1/2+x,1/2+y,z
1/2-x,1/2+y,-z
1/2-x,1/2-y,-z
1/2+x,1/2-y,z
loop_
_atom_site_type_symbol
_atom_site_label
_atom_site_fract_x
_atom_site_fract_y
_atom_site_fract_z
Si Si1 0.797223 0.796581 0.486866
Si Si2 0.781578 0.500000 0.210863
Si Si3 0.306383 0.000000 0.349896
Si Si4 0.149532 0.300108 0.250426
Si Si5 0.918570 0.702597 0.974774
Si Si6 0.038512 0.500000 0.406175
O O1 0.750000 0.750000 0.500000
O O2 0.683111 0.758187 0.341765
O O3 0.913130 0.674720 0.578859
O O4 0.841049 0.000000 0.524383
O O5 0.849513 0.500000 0.329984
O O6 0.699855 0.325036 0.127891
O O7 0.889892 0.500000 0.267783
O O8 0.224548 0.825212 0.281355
O O9 0.419526 0.000000 0.494631
O O10 0.188401 0.500000 0.271485
O O11 0.003636 0.273315 0.105319
O O12 0.873074 0.500000 0.926710
O O13 0.000000 0.759263 0.000000
#
# Coordination Sequence:
#
# PCOD8082909 Si02
#       6
#     8   4   4   8   8   4
#     4  10  19  36  59  80  98 127 171 228 272 302
#     4  12  21  32  51  76 114 147 172 205 253 309
#     4  10  18  32  50  73 110 143 170 208 251 305
#     4   9  18  31  51  80 103 129 178 216 251 304
#     4  10  19  32  51  76 106 143 178 210 248 299
#     4  10  23  35  50  80 109 138 173 210 264 321
#
# _framework density 17.222411000000001
#
# number of rings (size 3 to 8) (size 9 to 14) (size 15 to 20)
#    0.000    2.000    3.333    1.333    0.000    0.889 
#    0.000    0.000    0.000    8.000    0.000    0.000 
#    0.000    0.000    0.000    0.000    0.000    0.000 
#
# Total GULP energy -223163.161268 kJ/mol
# GULP energy per Si atom -12397.953404 kJ/mol
# Density = 1.718321 g / cm^3
# Si number density = 17.222411 Si / 1000 Ang^3
#
#
#
# Elastic Constant Matrix: (Units=GPa)
#
#
# Indices 1 2 3 4 5 6 
#
# 1 97.0946 46.5207 56.9820 0.0000 3.9368 0.0000
# 2 46.5207 120.4043 58.7182 0.0001 13.4655 -0.0001
# 3 56.9820 58.7182 100.9927 -0.0007 17.4113 -0.0002
# 4 0.0000 0.0001 -0.0007 23.6754 -0.0001 -3.3724
# 5 3.9368 13.4655 17.4113 -0.0001 21.9268 0.0000
# 6 0.0000 -0.0001 -0.0002 -3.3724 0.0000 15.7847
#
#
#
# Elastic Compliance Matrix: (Units=1/GPa)
#
#
# Indices 1 2 3 4 5 6 
#
# 1 0.016479 -0.002776 -0.008652 0.000000 0.005616 0.000000
# 2 -0.002776 0.012140 -0.004974 0.000000 -0.003007 0.000000
# 3 -0.008652 -0.004974 0.019558 0.000001 -0.010923 0.000000
# 4 0.000000 0.000000 0.000001 0.043564 0.000000 0.009307
# 5 0.005616 -0.003007 -0.010923 0.000000 0.055118 0.000000
# 6 0.000000 0.000000 0.000000 0.009307 0.000000 0.065341
#
#
# Mechanical properties :
#
#
# Convention : Reuss Voigt Hill
#
# Bulk Modulus (GPa) = 65.04481 71.43705 68.24093
# Shear Modulus (GPa) = 19.98979 22.69544 21.34261
#
# Velocity S-wave (km/s) = 3.41058 3.63407 3.52410
# Velocity P-wave (km/s) = 7.30472 7.69271 7.50122
#
# Compressibility (1/GPa) = 0.01537402
#
# Stress axis : x y z
#
# Youngs Moduli (GPa) = 60.68247 82.37521 51.12917
#
# Poissons Ratio (x) = 0.22864 0.44239
# Poissons Ratio (y) = 0.16843 0.25429
# Poissons Ratio (z) = 0.52505 0.40970
#
# Static dielectric constant tensor:
#      x y z
#    x 3.072660 0.000000 -0.323830 
#    y 0.000000 2.525890 0.000000 
#    z -0.323830 0.000000 3.121940 
# 
# 
# High freq. dielectric constant tensor:
#      x y z
#    x 1.641100 0.000000 -0.026180 
#    y 0.000000 1.685990 0.000000 
#    z -0.026180 0.000000 1.647520 
# 
# From -- ./inp_files/320414.got.cif
#   From: 2010.06.25/outbox.cif.g09.slc.cpg/sg12_161_cif.got.tgz:320414.got - 2010.06.28 00:19:55.
