data_PCOD8082167
_publ_section_title
;
Structure prediction by ZEFSAII (Michael W. Deem and Ramdas Pophale) SiO2 
 PCOD8082167
Probable space group: C 2/M
;
_chemical_formula_sum "Si O2"
_cell_formula_units_Z 64
_cell_length_a 23.738001
_cell_length_b 8.976223
_cell_length_c 17.048619
_cell_angle_alpha 90.000000
_cell_angle_beta 93.874741
_cell_angle_gamma 90.000000
_cell_volume 3624.374961
_symmetry_space_group_name_H-M "C 2/M"
_symmetry_group_IT_number 12
_symmetry_cell_setting 'monoclinic'
loop_
_space_group_symop_operation_xyz
x,y,z
-x,y,-z
-x,-y,-z
x,-y,z
1/2+x,1/2+y,z
1/2-x,1/2+y,-z
1/2-x,1/2-y,-z
1/2+x,1/2-y,z
loop_
_atom_site_type_symbol
_atom_site_label
_atom_site_fract_x
_atom_site_fract_y
_atom_site_fract_z
Si Si1 0.733066 0.174330 0.078496
Si Si2 0.805952 0.824134 0.233386
Si Si3 0.783261 0.832621 0.679342
Si Si4 0.377429 0.176775 0.601392
Si Si5 0.048526 0.176178 0.259518
Si Si6 0.063535 0.174327 0.531997
Si Si7 0.927196 0.824236 0.290364
Si Si8 0.642332 0.665042 0.158380
O O1 0.778167 0.225129 0.148479
O O2 0.669843 0.223546 0.098001
O O3 0.732906 0.000000 0.065563
O O4 0.750000 0.250000 0.000000
O O5 0.775352 0.747024 0.304192
O O6 0.871047 0.769423 0.239747
O O7 0.799948 0.000000 0.244345
O O8 0.815246 0.740554 0.614955
O O9 0.822252 0.835135 0.759068
O O10 0.771034 0.000000 0.648501
O O11 0.424014 0.236245 0.666175
O O12 0.393360 0.231468 0.516407
O O13 0.375379 0.000000 0.605315
O O14 0.079085 0.214807 0.179152
O O15 0.983016 0.226315 0.247644
O O16 0.054975 0.000000 0.278301
O O17 0.071236 0.236246 0.620796
O O18 0.000000 0.206599 0.500000
O O19 0.078160 0.000000 0.525343
O O20 0.926688 0.000000 0.295581
O O21 0.641450 0.500000 0.120538
#
# Coordination Sequence:
#
# PCOD8082167 Si02
#       8
#     8   8   8   8   8   8   8   8
#     4  10  19  31  51  76 102 126 155 193 239 289
#     4   9  18  33  52  76 101 125 158 203 247 286
#     4   9  17  31  50  69  93 128 166 203 246 299
#     4  11  20  29  45  70  99 126 163 216 256 283
#     4   9  16  30  50  72  97 131 168 199 239 294
#     4  10  18  31  50  69  94 130 170 204 244 298
#     4   9  17  31  52  73  97 130 165 201 244 294
#     4   8  15  27  47  73  98 121 156 199 235 277
#
# _framework density 17.658218000000002
#
# number of rings (size 3 to 8) (size 9 to 14) (size 15 to 20)
#    0.000    2.625    1.250    2.625    0.000    3.750 
#    0.000    1.875    0.000    0.750    0.000    5.250 
#    0.000    0.000    0.000    0.000    0.000    0.000 
#
# Total GULP energy -396676.517100 kJ/mol
# GULP energy per Si atom -12396.141159 kJ/mol
# Density = 1.761803 g / cm^3
# Si number density = 17.658218 Si / 1000 Ang^3
#
#
#
# Elastic Constant Matrix: (Units=GPa)
#
#
# Indices 1 2 3 4 5 6 
#
# 1 152.3877 45.5297 63.4938 0.0000 -23.4297 0.0000
# 2 45.5297 72.3255 37.3170 0.0000 -13.4678 0.0000
# 3 63.4938 37.3170 78.3682 0.0000 -21.9906 0.0000
# 4 0.0000 0.0000 0.0000 20.1211 0.0000 -9.4466
# 5 -23.4297 -13.4678 -21.9906 0.0000 28.4636 0.0000
# 6 0.0000 0.0000 0.0000 -9.4466 0.0000 23.9049
#
#
#
# Elastic Compliance Matrix: (Units=1/GPa)
#
#
# Indices 1 2 3 4 5 6 
#
# 1 0.010457 -0.002808 -0.006502 0.000000 0.002256 0.000000
# 2 -0.002808 0.019220 -0.006351 0.000000 0.001876 0.000000
# 3 -0.006502 -0.006351 0.023886 0.000000 0.010097 0.000000
# 4 0.000000 0.000000 0.000000 0.061020 0.000000 0.024114
# 5 0.002256 0.001876 0.010097 0.000000 0.045678 0.000000
# 6 0.000000 0.000000 0.000000 0.024114 0.000000 0.051362
#
#
# Mechanical properties :
#
#
# Convention : Reuss Voigt Hill
#
# Bulk Modulus (GPa) = 44.96198 66.19582 55.57890
# Shear Modulus (GPa) = 19.97140 24.94729 22.45935
#
# Velocity S-wave (km/s) = 3.36668 3.76278 3.57023
# Velocity P-wave (km/s) = 6.37419 7.51310 6.96696
#
# Compressibility (1/GPa) = 0.02224101
#
# Stress axis : x y z
#
# Youngs Moduli (GPa) = 95.62730 52.02894 41.86597
#
# Poissons Ratio (x) = 0.14609 0.27223
# Poissons Ratio (y) = 0.26852 0.26587
# Poissons Ratio (z) = 0.62181 0.33042
#
# Static dielectric constant tensor:
#      x y z
#    x 3.755160 0.000000 -0.217920 
#    y 0.000000 3.186340 0.000000 
#    z -0.217920 0.000000 3.038700 
# 
# 
# High freq. dielectric constant tensor:
#      x y z
#    x 1.688880 0.000000 -0.025950 
#    y 0.000000 1.670010 0.000000 
#    z -0.025950 0.000000 1.645770 
# 
# From -- ./inp_files/287719.got.cif
#   From: 2010.06.25/outbox.cif.g09.slc.cpg/sg12_144_cif.got.tgz:287719.got - 2010.06.28 00:19:55.
