data_PCOD8082922
_publ_section_title
;
Structure prediction by ZEFSAII (Michael W. Deem and Ramdas Pophale) SiO2 
 PCOD8082922
Probable space group: C 2/M
;
_chemical_formula_sum "Si O2"
_cell_formula_units_Z 48
_cell_length_a 21.129622
_cell_length_b 14.854870
_cell_length_c 14.780363
_cell_angle_alpha 90.000000
_cell_angle_beta 34.411228
_cell_angle_gamma 90.000000
_cell_volume 2621.760624
_symmetry_space_group_name_H-M "C 2/M"
_symmetry_group_IT_number 12
_symmetry_cell_setting 'monoclinic'
loop_
_space_group_symop_operation_xyz
x,y,z
-x,y,-z
-x,-y,-z
x,-y,z
1/2+x,1/2+y,z
1/2-x,1/2+y,-z
1/2-x,1/2-y,-z
1/2+x,1/2-y,z
loop_
_atom_site_type_symbol
_atom_site_label
_atom_site_fract_x
_atom_site_fract_y
_atom_site_fract_z
Si Si1 0.233752 0.597771 0.285762
Si Si2 0.083152 0.898642 0.257619
Si Si3 0.588416 0.656781 0.048312
Si Si4 0.178155 0.102491 0.435533
Si Si5 0.272750 0.278124 0.781393
Si Si6 0.653218 0.604154 0.664602
O O1 0.173154 0.500000 0.345208
O O2 0.167316 0.682436 0.319790
O O3 0.253114 0.617167 0.369470
O O4 0.355283 0.591747 0.093245
O O5 0.110919 0.884099 0.120382
O O6 0.151227 0.827486 0.235957
O O7 0.952855 0.884020 0.431513
O O8 0.118904 0.000000 0.242941
O O9 0.456152 0.664662 0.184701
O O10 0.650162 0.754861 0.968237
O O11 0.248342 0.162695 0.283212
O O12 0.205062 0.133383 0.506659
O O13 0.214970 0.000000 0.376970
O O14 0.613198 0.500000 0.703804
#
# Coordination Sequence:
#
# PCOD8082922 Si02
#       6
#     8   8   8   8   8   8
#     4   9  18  29  46  70  97 123 149 186 228 273
#     4  10  18  32  51  68  92 121 154 194 232 269
#     4   9  18  28  45  72  95 119 145 189 230 272
#     4   9  18  32  50  70  92 119 154 193 232 270
#     4  10  20  27  43  73 100 121 146 186 235 276
#     4   9  16  30  51  70  91 120 153 190 232 271
#
# _framework density 18.308308
#
# number of rings (size 3 to 8) (size 9 to 14) (size 15 to 20)
#    1.000    1.667    0.000    4.500    0.000    3.333 
#    0.000    0.000    0.000    2.000    0.000   16.333 
#    0.000    0.000    0.000    0.000    0.000    0.000 
#
# Total GULP energy -297321.951553 kJ/mol
# GULP energy per Si atom -12388.414648 kJ/mol
# Density = 1.826664 g / cm^3
# Si number density = 18.308308 Si / 1000 Ang^3
#
#
#
# Elastic Constant Matrix: (Units=GPa)
#
#
# Indices 1 2 3 4 5 6 
#
# 1 52.8398 27.8913 5.8231 0.0000 12.1822 0.0000
# 2 27.8913 94.0521 14.3647 0.0000 -0.5157 0.0000
# 3 5.8231 14.3647 35.3076 0.0000 7.0434 0.0000
# 4 0.0000 0.0000 0.0000 29.7472 0.0000 6.7378
# 5 12.1822 -0.5157 7.0434 0.0000 16.5599 0.0000
# 6 0.0000 0.0000 0.0000 6.7378 0.0000 26.4328
#
#
#
# Elastic Compliance Matrix: (Units=1/GPa)
#
#
# Indices 1 2 3 4 5 6 
#
# 1 0.028643 -0.009164 0.003568 0.000000 -0.022874 0.000000
# 2 -0.009164 0.014367 -0.006303 0.000000 0.009870 0.000000
# 3 0.003568 -0.006303 0.033722 0.000000 -0.017164 0.000000
# 4 0.000000 0.000000 0.000000 0.035676 0.000000 -0.009094
# 5 -0.022874 0.009870 -0.017164 0.000000 0.084822 0.000000
# 6 0.000000 0.000000 0.000000 -0.009094 0.000000 0.040150
#
#
# Mechanical properties :
#
#
# Convention : Reuss Voigt Hill
#
# Bulk Modulus (GPa) = 18.89164 30.92864 24.91014
# Shear Modulus (GPa) = 17.93249 23.48934 20.71091
#
# Velocity S-wave (km/s) = 3.13305 3.58577 3.36703
# Velocity P-wave (km/s) = 4.84035 5.83726 5.36202
#
# Compressibility (1/GPa) = 0.05293345
#
# Stress axis : x y z
#
# Youngs Moduli (GPa) = 34.91256 69.60471 29.65399
#
# Poissons Ratio (x) = 0.63789 -0.10580
# Poissons Ratio (y) = 0.31995 0.18690
# Poissons Ratio (z) = -0.12456 0.43869
#
# Static dielectric constant tensor:
#      x y z
#    x 3.117250 0.000000 0.403880 
#    y 0.000000 3.352590 0.000000 
#    z 0.403880 0.000000 3.220200 
# 
# 
# High freq. dielectric constant tensor:
#      x y z
#    x 1.689530 0.000000 0.044820 
#    y 0.000000 1.705630 0.000000 
#    z 0.044820 0.000000 1.687700 
# 
# From -- ./inp_files/240216.got.cif
#   From: 2010.06.25/outbox.cif.g09.slc.cpg/sg12_121_cif.got.tgz:240216.got - 2010.06.28 00:19:55.
