data_PCOD8082383
_publ_section_title
;
Structure prediction by ZEFSAII (Michael W. Deem and Ramdas Pophale) SiO2 
 PCOD8082383
Probable space group: C 2/M
;
_chemical_formula_sum "Si O2"
_cell_formula_units_Z 48
_cell_length_a 11.785265
_cell_length_b 17.558396
_cell_length_c 21.287074
_cell_angle_alpha 90.000000
_cell_angle_beta 30.059506
_cell_angle_gamma 90.000000
_cell_volume 2206.431596
_symmetry_space_group_name_H-M "C 2/M"
_symmetry_group_IT_number 12
_symmetry_cell_setting 'monoclinic'
loop_
_space_group_symop_operation_xyz
x,y,z
-x,y,-z
-x,-y,-z
x,-y,z
1/2+x,1/2+y,z
1/2-x,1/2+y,-z
1/2-x,1/2-y,-z
1/2+x,1/2-y,z
loop_
_atom_site_type_symbol
_atom_site_label
_atom_site_fract_x
_atom_site_fract_y
_atom_site_fract_z
Si Si1 0.441117 0.238980 0.593380
Si Si2 0.231338 0.082120 0.423241
Si Si3 0.823956 0.658617 0.830169
Si Si4 0.545381 0.680371 0.194851
Si Si5 0.927836 0.090624 0.939433
Si Si6 0.142858 0.855503 0.590276
O O1 0.500000 0.284655 0.500000
O O2 0.601518 0.165068 0.512865
O O3 0.507917 0.286167 0.622505
O O4 0.182027 0.216799 0.724018
O O5 0.418684 0.145748 0.316620
O O6 0.167349 0.077465 0.528101
O O7 0.000000 0.100203 0.500000
O O8 0.330901 0.000000 0.356208
O O9 0.793381 0.748149 0.863110
O O10 0.653232 0.633240 0.856794
O O11 0.775926 0.606952 0.914522
O O12 0.647498 0.626322 0.091613
O O13 0.496484 0.626489 0.279162
O O14 0.969612 0.000000 0.913231
#
# Coordination Sequence:
#
# PCOD8082383 Si02
#       6
#     8   8   8   8   8   8
#     4   9  17  30  51  81 113 147 187 235 287 342
#     4  11  22  35  56  84 115 155 200 245 296 354
#     4  11  22  40  63  86 114 155 207 249 284 345
#     4  11  21  34  59  89 115 148 196 248 296 349
#     4  11  24  42  62  86 120 160 199 245 299 351
#     4  10  18  31  51  80 119 151 180 234 299 351
#
# _framework density 21.754583
#
# number of rings (size 3 to 8) (size 9 to 14) (size 15 to 20)
#    0.000    1.500    0.000    9.000    0.000    0.667 
#    0.000    0.000    0.000    5.000    0.000   12.833 
#    0.000    0.000    0.000    0.000    0.000    0.000 
#
# Total GULP energy -297375.948959 kJ/mol
# GULP energy per Si atom -12390.664540 kJ/mol
# Density = 2.170507 g / cm^3
# Si number density = 21.754583 Si / 1000 Ang^3
#
#
#
# Elastic Constant Matrix: (Units=GPa)
#
#
# Indices 1 2 3 4 5 6 
#
# 1 102.6568 37.8304 41.9961 0.0055 26.8072 0.0070
# 2 37.8304 105.8976 24.4737 0.0471 9.0509 -0.0002
# 3 41.9961 24.4737 82.9868 0.1173 20.3061 -0.0747
# 4 0.0055 0.0471 0.1173 25.6484 -0.0035 10.5429
# 5 26.8072 9.0509 20.3061 -0.0035 42.6563 -0.0318
# 6 0.0070 -0.0002 -0.0747 10.5429 -0.0318 21.1950
#
#
#
# Elastic Compliance Matrix: (Units=1/GPa)
#
#
# Indices 1 2 3 4 5 6 
#
# 1 0.014652 -0.003588 -0.004855 0.000047 -0.006135 -0.000055
# 2 -0.003588 0.011038 -0.001605 -0.000013 0.000677 0.000003
# 3 -0.004855 -0.001605 0.016017 -0.000115 -0.004232 0.000109
# 4 0.000047 -0.000013 -0.000115 0.049011 0.000013 -0.024380
# 5 -0.006135 0.000677 -0.004232 0.000013 0.029170 0.000024
# 6 -0.000055 0.000003 0.000109 -0.024380 0.000024 0.059309
#
#
# Mechanical properties :
#
#
# Convention : Reuss Voigt Hill
#
# Bulk Modulus (GPa) = 46.27590 55.57128 50.92359
# Shear Modulus (GPa) = 24.21363 30.38267 27.29815
#
# Velocity S-wave (km/s) = 3.33984 3.74118 3.54619
# Velocity P-wave (km/s) = 6.01587 6.65297 6.34242
#
# Compressibility (1/GPa) = 0.02160952
#
# Stress axis : x y z
#
# Youngs Moduli (GPa) = 68.25123 90.59734 62.43548
#
# Poissons Ratio (x) = 0.32503 0.30315
# Poissons Ratio (y) = 0.24486 0.10022
# Poissons Ratio (z) = 0.33139 0.14543
#
# Static dielectric constant tensor:
#      x y z
#    x 4.150240 0.000060 0.253600 
#    y 0.000060 3.709840 0.000090 
#    z 0.253600 0.000090 3.793830 
# 
# 
# High freq. dielectric constant tensor:
#      x y z
#    x 1.864840 0.000010 0.015720 
#    y 0.000010 1.832580 0.000020 
#    z 0.015720 0.000020 1.844360 
# 
# From -- ./inp_files/306726.got.cif
#   From: 2010.06.25/outbox.cif.g09.slc.cpg/sg12_154_cif.got.tgz:306726.got - 2010.06.28 00:19:55.
