data_PCOD8082798
_publ_section_title
;
Structure prediction by ZEFSAII (Michael W. Deem and Ramdas Pophale) SiO2 
 PCOD8082798
Probable space group: C 2/M
;
_chemical_formula_sum "Si O2"
_cell_formula_units_Z 64
_cell_length_a 18.362473
_cell_length_b 20.977549
_cell_length_c 8.926790
_cell_angle_alpha 90.000000
_cell_angle_beta 92.792498
_cell_angle_gamma 90.000000
_cell_volume 3434.513378
_symmetry_space_group_name_H-M "C 2/M"
_symmetry_group_IT_number 12
_symmetry_cell_setting 'monoclinic'
loop_
_space_group_symop_operation_xyz
x,y,z
-x,y,-z
-x,-y,-z
x,-y,z
1/2+x,1/2+y,z
1/2-x,1/2+y,-z
1/2-x,1/2-y,-z
1/2+x,1/2-y,z
loop_
_atom_site_type_symbol
_atom_site_label
_atom_site_fract_x
_atom_site_fract_y
_atom_site_fract_z
Si Si1 0.103044 0.670099 0.642133
Si Si2 0.640958 0.572013 0.185688
Si Si3 0.068220 0.859860 0.923899
Si Si4 0.177666 0.670107 0.091060
Si Si5 0.056497 0.700438 0.313533
Si Si6 0.308506 0.924964 0.149117
Si Si7 0.683840 0.266183 0.829821
Si Si8 0.030122 0.149760 0.344828
O O1 0.095660 0.667595 0.461170
O O2 0.143558 0.608785 0.715815
O O3 0.146319 0.736694 0.678203
O O4 0.023816 0.670840 0.713522
O O5 0.631486 0.500000 0.236803
O O6 0.724882 0.590521 0.178146
O O7 0.606187 0.616142 0.311029
O O8 0.598303 0.580749 0.023244
O O9 0.131501 0.809580 0.921595
O O10 0.036479 0.878890 0.760295
O O11 0.000000 0.825791 0.000000
O O12 0.102606 0.685118 0.168745
O O13 0.244735 0.691387 0.206941
O O14 0.175424 0.598446 0.021962
O O15 0.197332 0.707062 0.940135
O O16 0.045229 0.775302 0.335291
O O17 0.325540 0.000000 0.155553
O O18 0.000000 0.129474 0.500000
#
# Coordination Sequence:
#
# PCOD8082798 Si02
#       8
#     8   8   8   8   8   8   8   8
#     4  10  22  38  59  83 120 156 187 234 296 363
#     4  10  22  39  59  81 118 162 200 238 283 340
#     4  10  18  31  56  81 113 151 189 230 280 341
#     4  10  21  32  58  83 112 143 190 247 286 347
#     4  11  21  39  55  89 120 150 188 245 305 343
#     4  10  22  43  61  83 114 155 201 245 291 343
#     4  10  18  32  51  88 111 145 187 231 297 341
#     4  11  21  36  57  87 125 157 190 233 287 348
#
# _framework density 18.634371999999999
#
# number of rings (size 3 to 8) (size 9 to 14) (size 15 to 20)
#    0.000    1.750    3.750    1.500    3.500    4.500 
#    2.250    3.125    0.000    3.000    0.000    0.000 
#    0.000    0.000    0.000    0.000    0.000    0.000 
#
# Total GULP energy -396484.982758 kJ/mol
# GULP energy per Si atom -12390.155711 kJ/mol
# Density = 1.859196 g / cm^3
# Si number density = 18.634372 Si / 1000 Ang^3
#
#
#
# Elastic Constant Matrix: (Units=GPa)
#
#
# Indices 1 2 3 4 5 6 
#
# 1 115.4929 48.8122 42.1568 0.0000 2.3786 0.0000
# 2 48.8122 78.7869 36.2028 0.0000 -1.5353 0.0000
# 3 42.1568 36.2028 94.8471 0.0000 0.3051 0.0000
# 4 0.0000 0.0000 0.0000 19.7874 0.0000 0.8006
# 5 2.3786 -1.5353 0.3051 0.0000 28.3689 0.0000
# 6 0.0000 0.0000 0.0000 0.8006 0.0000 25.2072
#
#
#
# Elastic Compliance Matrix: (Units=1/GPa)
#
#
# Indices 1 2 3 4 5 6 
#
# 1 0.012509 -0.006335 -0.003138 0.000000 -0.001358 0.000000
# 2 -0.006335 0.018623 -0.004298 0.000000 0.001585 0.000000
# 3 -0.003138 -0.004298 0.013579 0.000000 -0.000116 0.000000
# 4 0.000000 0.000000 0.000000 0.050602 0.000000 -0.001607
# 5 -0.001358 0.001585 -0.000116 0.000000 0.035451 0.000000
# 6 0.000000 0.000000 0.000000 -0.001607 0.000000 0.039722
#
#
# Mechanical properties :
#
#
# Convention : Reuss Voigt Hill
#
# Bulk Modulus (GPa) = 58.23972 60.38562 59.31267
# Shear Modulus (GPa) = 24.53992 25.46970 25.00481
#
# Velocity S-wave (km/s) = 3.63287 3.70105 3.66712
# Velocity P-wave (km/s) = 6.99420 7.12317 7.05898
#
# Compressibility (1/GPa) = 0.01717041
#
# Stress axis : x y z
#
# Youngs Moduli (GPa) = 79.94180 53.69747 73.64475
#
# Poissons Ratio (x) = 0.34016 0.23107
# Poissons Ratio (y) = 0.50641 0.31651
# Poissons Ratio (z) = 0.25083 0.23078
#
# Static dielectric constant tensor:
#      x y z
#    x 3.683940 0.000000 0.188990 
#    y 0.000000 3.306540 0.000000 
#    z 0.188990 0.000000 3.695910 
# 
# 
# High freq. dielectric constant tensor:
#      x y z
#    x 1.739990 0.000000 0.005930 
#    y 0.000000 1.700210 0.000000 
#    z 0.005930 0.000000 1.712020 
# 
# From -- ./inp_files/77520.got.cif
#   From: 2010.06.25/outbox.cif.g09.slc.cpg/sg12_39_cif.got.tgz:77520.got - 2010.06.28 00:19:55.
