data_PCOD8082903
_publ_section_title
;
Structure prediction by ZEFSAII (Michael W. Deem and Ramdas Pophale) SiO2 
 PCOD8082903
Probable space group: C 2/M
;
_chemical_formula_sum "Si O2"
_cell_formula_units_Z 56
_cell_length_a 22.405118
_cell_length_b 10.195632
_cell_length_c 13.294778
_cell_angle_alpha 90.000000
_cell_angle_beta 89.055646
_cell_angle_gamma 90.000000
_cell_volume 3036.571309
_symmetry_space_group_name_H-M "C 2/M"
_symmetry_group_IT_number 12
_symmetry_cell_setting 'monoclinic'
loop_
_space_group_symop_operation_xyz
x,y,z
-x,y,-z
-x,-y,-z
x,-y,z
1/2+x,1/2+y,z
1/2-x,1/2+y,-z
1/2-x,1/2-y,-z
1/2+x,1/2-y,z
loop_
_atom_site_type_symbol
_atom_site_label
_atom_site_fract_x
_atom_site_fract_y
_atom_site_fract_z
Si Si1 0.256390 0.268271 0.742178
Si Si2 0.657770 0.144934 0.890945
Si Si3 0.574920 0.651131 0.789259
Si Si4 0.936325 0.155210 0.786252
Si Si5 0.360789 0.354142 0.609173
Si Si6 0.843325 0.848797 0.392960
Si Si7 0.348987 0.852699 0.881279
O O1 0.216972 0.350577 0.821259
O O2 0.300853 0.359560 0.677727
O O3 0.215049 0.200338 0.661408
O O4 0.294807 0.163347 0.804268
O O5 0.609643 0.255573 0.864876
O O6 0.629252 0.000000 0.876514
O O7 0.676828 0.165441 0.005839
O O8 0.587073 0.500000 0.820009
O O9 0.505650 0.685617 0.796089
O O10 0.597845 0.677140 0.675389
O O11 0.914548 0.203640 0.675976
O O12 0.900826 0.243710 0.867360
O O13 0.922286 0.000000 0.803566
O O14 0.380189 0.500000 0.580401
O O15 0.352391 0.278458 0.502348
O O16 0.831364 0.000000 0.412323
O O17 0.375006 0.000000 0.865861
#
# Coordination Sequence:
#
# PCOD8082903 Si02
#       7
#     8   8   8   8   8   8   8
#     4  10  18  32  50  72 102 134 164 202 246 300
#     4  10  21  35  52  75 102 134 170 208 252 299
#     4   9  19  35  53  74 101 133 169 209 252 297
#     4   9  19  35  53  74 101 133 169 209 252 297
#     4   9  17  29  48  74 100 128 164 204 245 292
#     4   9  17  29  48  74 100 128 164 204 245 292
#     4  10  21  35  52  75 102 134 170 208 252 299
#
# _framework density 18.441852000000001
#
# number of rings (size 3 to 8) (size 9 to 14) (size 15 to 20)
#    0.000    2.571    0.000    1.714    0.000    3.429 
#    0.000    5.714    0.000    7.714    0.000    8.000 
#    0.000    0.000    0.000    0.000    0.000    0.000 
#
# Total GULP energy -346987.927084 kJ/mol
# GULP energy per Si atom -12392.425967 kJ/mol
# Density = 1.839988 g / cm^3
# Si number density = 18.441852 Si / 1000 Ang^3
#
#
#
# Elastic Constant Matrix: (Units=GPa)
#
#
# Indices 1 2 3 4 5 6 
#
# 1 77.7735 31.6915 18.3624 0.0000 5.2091 0.0000
# 2 31.6915 74.3714 36.5751 0.0000 2.0555 0.0000
# 3 18.3624 36.5751 100.7292 0.0000 -2.0069 0.0000
# 4 0.0000 0.0000 0.0000 20.4231 0.0000 0.4279
# 5 5.2091 2.0555 -2.0069 0.0000 14.8302 0.0000
# 6 0.0000 0.0000 0.0000 0.4279 0.0000 25.3896
#
#
#
# Elastic Compliance Matrix: (Units=1/GPa)
#
#
# Indices 1 2 3 4 5 6 
#
# 1 0.015915 -0.006300 -0.000710 0.000000 -0.004813 0.000000
# 2 -0.006300 0.019004 -0.005776 0.000000 -0.001203 0.000000
# 3 -0.000710 -0.005776 0.012208 0.000000 0.002702 0.000000
# 4 0.000000 0.000000 0.000000 0.048981 0.000000 -0.000826
# 5 -0.004813 -0.001203 0.002702 0.000000 0.069653 0.000000
# 6 0.000000 0.000000 0.000000 -0.000826 0.000000 0.039400
#
#
# Mechanical properties :
#
#
# Convention : Reuss Voigt Hill
#
# Bulk Modulus (GPa) = 46.38989 47.34801 46.86895
# Shear Modulus (GPa) = 21.01567 23.21161 22.11364
#
# Velocity S-wave (km/s) = 3.37941 3.55158 3.46656
# Velocity P-wave (km/s) = 6.35897 6.52290 6.44146
#
# Compressibility (1/GPa) = 0.02155642
#
# Stress axis : x y z
#
# Youngs Moduli (GPa) = 62.83473 52.61961 81.91262
#
# Poissons Ratio (x) = 0.33148 0.05813
# Poissons Ratio (y) = 0.39584 0.47314
# Poissons Ratio (z) = 0.04459 0.30394
#
# Static dielectric constant tensor:
#      x y z
#    x 3.324680 0.000000 0.008210 
#    y 0.000000 3.276640 0.000000 
#    z 0.008210 0.000000 3.699100 
# 
# 
# High freq. dielectric constant tensor:
#      x y z
#    x 1.706930 0.000000 0.001590 
#    y 0.000000 1.696930 0.000000 
#    z 0.001590 0.000000 1.728600 
# 
# From -- ./inp_files/164853.got.cif
#   From: 2010.06.25/outbox.cif.g09.slc.cpg/sg12_83_cif.got.tgz:164853.got - 2010.06.28 00:19:55.
