data_PCOD8082603
_publ_section_title
;
Structure prediction by ZEFSAII (Michael W. Deem and Ramdas Pophale) SiO2 
 PCOD8082603
Probable space group: C 2/M
;
_chemical_formula_sum "Si O2"
_cell_formula_units_Z 56
_cell_length_a 15.351261
_cell_length_b 8.883318
_cell_length_c 28.688067
_cell_angle_alpha 90.000000
_cell_angle_beta 48.895701
_cell_angle_gamma 90.000000
_cell_volume 2947.894352
_symmetry_space_group_name_H-M "C 2/M"
_symmetry_group_IT_number 12
_symmetry_cell_setting 'monoclinic'
loop_
_space_group_symop_operation_xyz
x,y,z
-x,y,-z
-x,-y,-z
x,-y,z
1/2+x,1/2+y,z
1/2-x,1/2+y,-z
1/2-x,1/2-y,-z
1/2+x,1/2-y,z
loop_
_atom_site_type_symbol
_atom_site_label
_atom_site_fract_x
_atom_site_fract_y
_atom_site_fract_z
Si Si1 0.008247 0.320907 0.289137
Si Si2 0.689781 0.821571 0.150141
Si Si3 0.939329 0.677905 0.627009
Si Si4 0.161042 0.677511 0.496678
Si Si5 0.734512 0.323053 0.637257
Si Si6 0.140481 0.678773 0.063466
Si Si7 0.049417 0.822931 0.932002
O O1 0.008808 0.500000 0.289301
O O2 0.103488 0.257400 0.219742
O O3 0.037057 0.253429 0.330117
O O4 0.883577 0.266422 0.316579
O O5 0.644531 0.767315 0.115726
O O6 0.818937 0.763082 0.115723
O O7 0.692589 0.000000 0.150039
O O8 0.948859 0.500000 0.626910
O O9 0.811729 0.723465 0.654682
O O10 0.033785 0.735659 0.556218
O O11 0.169202 0.500000 0.498828
O O12 0.250000 0.750000 0.500000
O O13 0.191960 0.727960 0.433663
O O14 0.707833 0.500000 0.645178
O O15 0.148371 0.500000 0.056302
O O16 0.021782 0.736280 0.082576
O O17 0.250000 0.750000 0.000000
O O18 0.039902 0.000000 0.925263
O O19 0.000000 0.783245 0.000000
#
# Coordination Sequence:
#
# PCOD8082603 Si02
#       7
#     8   8   8   8   8   8   8
#     4  10  20  37  57  76 104 146 185 215 259 326
#     4   9  20  37  56  78 110 145 177 218 271 324
#     4   9  18  33  54  77 104 141 180 213 262 325
#     4  10  18  31  53  79 105 136 176 223 271 314
#     4  10  20  34  54  80 109 138 175 228 273 309
#     4  11  21  36  57  84 112 142 180 222 273 324
#     4  10  19  36  59  83 110 142 177 221 274 325
#
# _framework density 18.996611000000001
#
# number of rings (size 3 to 8) (size 9 to 14) (size 15 to 20)
#    0.000    2.143    2.857    0.857    0.000    3.143 
#    0.000    5.000    0.000    1.714    0.000    0.000 
#    0.000    0.000    0.000    0.000    0.000    0.000 
#
# Total GULP energy -347169.137577 kJ/mol
# GULP energy per Si atom -12398.897771 kJ/mol
# Density = 1.895337 g / cm^3
# Si number density = 18.996611 Si / 1000 Ang^3
#
#
#
# Elastic Constant Matrix: (Units=GPa)
#
#
# Indices 1 2 3 4 5 6 
#
# 1 162.6363 23.9257 75.8448 0.0004 -15.7289 0.0010
# 2 23.9257 24.2398 24.8544 0.0012 -1.6108 0.0021
# 3 75.8448 24.8544 158.9954 0.0000 -17.1989 0.0001
# 4 0.0004 0.0012 0.0000 20.2215 0.0000 -4.0544
# 5 -15.7289 -1.6108 -17.1989 0.0000 22.1828 0.0002
# 6 0.0010 0.0021 0.0001 -4.0544 0.0002 33.2382
#
#
#
# Elastic Compliance Matrix: (Units=1/GPa)
#
#
# Indices 1 2 3 4 5 6 
#
# 1 0.008620 -0.005295 -0.002909 0.000000 0.003472 0.000000
# 2 -0.005295 0.052520 -0.006198 -0.000004 -0.004746 -0.000004
# 3 -0.002909 -0.006198 0.009141 0.000001 0.004575 0.000001
# 4 0.000000 -0.000004 0.000001 0.050692 0.000000 0.006183
# 5 0.003472 -0.004746 0.004575 0.000000 0.050744 0.000000
# 6 0.000000 -0.000004 0.000001 0.006183 0.000000 0.030840
#
#
# Mechanical properties :
#
#
# Convention : Reuss Voigt Hill
#
# Bulk Modulus (GPa) = 24.10898 66.12460 45.11679
# Shear Modulus (GPa) = 20.39272 29.87828 25.13550
#
# Velocity S-wave (km/s) = 3.27997 3.97018 3.64147
# Velocity P-wave (km/s) = 5.20222 7.47668 6.44064
#
# Compressibility (1/GPa) = 0.04147832
#
# Stress axis : x y z
#
# Youngs Moduli (GPa) = 116.01101 19.04029 109.40226
#
# Poissons Ratio (x) = 0.10082 0.31820
# Poissons Ratio (y) = 0.61429 0.67802
# Poissons Ratio (z) = 0.33742 0.11800
#
# Static dielectric constant tensor:
#      x y z
#    x 3.765740 0.000000 0.124420 
#    y 0.000000 3.207160 0.000010 
#    z 0.124420 0.000010 3.860710 
# 
# 
# High freq. dielectric constant tensor:
#      x y z
#    x 1.754860 0.000000 -0.001550 
#    y 0.000000 1.700120 0.000000 
#    z -0.001550 0.000000 1.742270 
# 
# From -- ./inp_files/374939.got.cif
#   From: 2010.06.25/outbox.cif.g09.slc.cpg/sg12_188_cif.got.tgz:374939.got - 2010.06.28 00:19:55.
