data_PCOD8082206
_publ_section_title
;
Structure prediction by ZEFSAII (Michael W. Deem and Ramdas Pophale) SiO2 
 PCOD8082206
Probable space group: C 2/M
;
_chemical_formula_sum "Si O2"
_cell_formula_units_Z 64
_cell_length_a 23.308300
_cell_length_b 9.259248
_cell_length_c 23.817086
_cell_angle_alpha 90.000000
_cell_angle_beta 135.827568
_cell_angle_gamma 90.000000
_cell_volume 3581.752700
_symmetry_space_group_name_H-M "C 2/M"
_symmetry_group_IT_number 12
_symmetry_cell_setting 'monoclinic'
loop_
_space_group_symop_operation_xyz
x,y,z
-x,y,-z
-x,-y,-z
x,-y,z
1/2+x,1/2+y,z
1/2-x,1/2+y,-z
1/2-x,1/2-y,-z
1/2+x,1/2-y,z
loop_
_atom_site_type_symbol
_atom_site_label
_atom_site_fract_x
_atom_site_fract_y
_atom_site_fract_z
Si Si1 0.917377 0.162883 0.477771
Si Si2 0.982197 0.671655 0.855112
Si Si3 0.110862 0.835031 0.021246
Si Si4 0.349859 0.667162 0.826123
Si Si5 0.726117 0.833771 0.928380
Si Si6 0.004955 0.669356 0.630279
Si Si7 0.546112 0.829054 0.780352
Si Si8 0.834872 0.667149 0.327452
O O1 0.846288 0.242032 0.392582
O O2 0.000000 0.166723 0.500000
O O3 0.933430 0.245608 0.547365
O O4 0.889076 0.000000 0.470993
O O5 0.980432 0.500000 0.858496
O O6 0.894059 0.736040 0.810214
O O7 0.999505 0.724372 0.803589
O O8 0.053264 0.728872 0.946026
O O9 0.105901 0.799000 0.083650
O O10 0.205776 0.812091 0.071449
O O11 0.082973 0.000000 0.989995
O O12 0.361330 0.500000 0.818392
O O13 0.253469 0.707093 0.760887
O O14 0.639726 0.770753 0.845482
O O15 0.716228 0.000000 0.938598
O O16 0.750000 0.750000 0.000000
O O17 0.986200 0.500000 0.611716
O O18 0.001552 0.725298 0.692327
O O19 0.095555 0.705337 0.669469
O O20 0.548324 0.000000 0.779897
O O21 0.840327 0.500000 0.348151
#
# Coordination Sequence:
#
# PCOD8082206 Si02
#       8
#     8   8   8   8   8   8   8   8
#     4   9  17  29  47  75 110 135 150 186 245 300
#     4  11  22  35  50  70  98 134 171 208 252 297
#     4  10  20  34  53  73  96 129 169 211 254 294
#     4  10  21  36  52  72  97 128 171 216 248 285
#     4  10  18  31  50  72  98 128 161 201 250 296
#     4   9  16  30  53  77  99 128 164 199 238 292
#     4   9  18  32  50  72 100 130 164 205 246 291
#     4   9  17  31  53  77  98 126 165 202 240 291
#
# _framework density 17.868345999999999
#
# number of rings (size 3 to 8) (size 9 to 14) (size 15 to 20)
#    0.000    2.375    1.250    1.875    0.000    7.000 
#    0.000    1.875    0.000    3.750    0.000    0.000 
#    0.000    0.000    0.000    0.000    0.000    0.000 
#
# Total GULP energy -396776.446465 kJ/mol
# GULP energy per Si atom -12399.263952 kJ/mol
# Density = 1.782768 g / cm^3
# Si number density = 17.868346 Si / 1000 Ang^3
#
#
#
# Elastic Constant Matrix: (Units=GPa)
#
#
# Indices 1 2 3 4 5 6 
#
# 1 75.0137 33.2549 33.8288 0.0000 -13.9793 0.0000
# 2 33.2549 67.6777 46.4785 0.0000 -7.8274 0.0000
# 3 33.8288 46.4785 117.8085 0.0000 -19.8513 0.0000
# 4 0.0000 0.0000 0.0000 25.6988 0.0000 0.0562
# 5 -13.9793 -7.8274 -19.8513 0.0000 21.4533 0.0000
# 6 0.0000 0.0000 0.0000 0.0562 0.0000 23.5023
#
#
#
# Elastic Compliance Matrix: (Units=1/GPa)
#
#
# Indices 1 2 3 4 5 6 
#
# 1 0.018699 -0.007545 -0.000952 0.000000 0.008551 0.000000
# 2 -0.007545 0.023312 -0.007613 0.000000 -0.003456 0.000000
# 3 -0.000952 -0.007613 0.013260 0.000000 0.008872 0.000000
# 4 0.000000 0.000000 0.000000 0.038913 0.000000 -0.000093
# 5 0.008551 -0.003456 0.008872 0.000000 0.059134 0.000000
# 6 0.000000 0.000000 0.000000 -0.000093 0.000000 0.042549
#
#
# Mechanical properties :
#
#
# Convention : Reuss Voigt Hill
#
# Bulk Modulus (GPa) = 43.38216 54.18050 48.78133
# Shear Modulus (GPa) = 21.20716 23.92673 22.56695
#
# Velocity S-wave (km/s) = 3.44882 3.66328 3.55767
# Velocity P-wave (km/s) = 6.33961 6.94843 6.65099
#
# Compressibility (1/GPa) = 0.02305095
#
# Stress axis : x y z
#
# Youngs Moduli (GPa) = 53.48004 42.89621 75.41440
#
# Poissons Ratio (x) = 0.32367 0.07176
# Poissons Ratio (y) = 0.40353 0.57411
# Poissons Ratio (z) = 0.05089 0.32656
#
# Static dielectric constant tensor:
#      x y z
#    x 3.769990 0.000000 -0.182650 
#    y 0.000000 3.223430 0.000000 
#    z -0.182650 0.000000 3.441540 
# 
# 
# High freq. dielectric constant tensor:
#      x y z
#    x 1.673960 0.000000 -0.006060 
#    y 0.000000 1.676360 0.000000 
#    z -0.006060 0.000000 1.693110 
# 
# From -- ./inp_files/324353.got.cif
#   From: 2010.06.25/outbox.cif.g09.slc.cpg/sg12_163_cif.got.tgz:324353.got - 2010.06.28 00:19:55.
