data_PCOD8082819
_publ_section_title
;
Structure prediction by ZEFSAII (Michael W. Deem and Ramdas Pophale) SiO2 
 PCOD8082819
Probable space group: C 2/M
;
_chemical_formula_sum "Si O2"
_cell_formula_units_Z 64
_cell_length_a 15.392443
_cell_length_b 9.115668
_cell_length_c 23.964176
_cell_angle_alpha 90.000000
_cell_angle_beta 89.576991
_cell_angle_gamma 90.000000
_cell_volume 3362.379412
_symmetry_space_group_name_H-M "C 2/M"
_symmetry_group_IT_number 12
_symmetry_cell_setting 'monoclinic'
loop_
_space_group_symop_operation_xyz
x,y,z
-x,y,-z
-x,-y,-z
x,-y,z
1/2+x,1/2+y,z
1/2-x,1/2+y,-z
1/2-x,1/2-y,-z
1/2+x,1/2-y,z
loop_
_atom_site_type_symbol
_atom_site_label
_atom_site_fract_x
_atom_site_fract_y
_atom_site_fract_z
Si Si1 0.092450 0.670901 0.363607
Si Si2 0.090689 0.827517 0.252199
Si Si3 0.249559 0.327225 0.441006
Si Si4 0.153742 0.331775 0.872884
Si Si5 0.345195 0.673494 0.864829
Si Si6 0.417179 0.165120 0.245314
Si Si7 0.392698 0.167632 0.369569
Si Si8 0.496993 0.674337 0.063124
O O1 0.096219 0.500000 0.350198
O O2 0.125731 0.752144 0.307974
O O3 0.157804 0.714290 0.412779
O O4 0.993348 0.715574 0.379243
O O5 0.144901 0.769691 0.198659
O O6 0.991500 0.785807 0.240296
O O7 0.098486 0.000000 0.260483
O O8 0.258664 0.500000 0.449105
O O9 0.250000 0.250000 0.500000
O O10 0.331189 0.273349 0.404751
O O11 0.135756 0.500000 0.889743
O O12 0.251025 0.281982 0.888921
O O13 0.147394 0.311815 0.806020
O O14 0.089554 0.228921 0.906754
O O15 0.355818 0.500000 0.863733
O O16 0.419370 0.739767 0.904814
O O17 0.367338 0.185530 0.304377
O O18 0.457454 0.000000 0.243985
O O19 0.378833 0.000000 0.389519
O O20 0.495945 0.500000 0.064370
O O21 0.500000 0.733560 0.000000
#
# Coordination Sequence:
#
# PCOD8082819 Si02
#       8
#     8   8   8   8   8   8   8   8
#     4   9  21  40  58  81 116 153 185 225 283 339
#     4  10  18  31  57  84 112 145 185 230 276 332
#     4  11  24  41  60  84 115 151 192 235 278 329
#     4  10  20  35  56  81 111 146 187 232 277 334
#     4   9  19  34  53  81 112 146 184 228 283 334
#     4   9  18  33  55  81 114 149 180 222 284 340
#     4   9  19  37  59  82 112 149 188 228 277 338
#     4  10  21  39  58  77 111 153 190 234 285 333
#
# _framework density 19.034141000000002
#
# number of rings (size 3 to 8) (size 9 to 14) (size 15 to 20)
#    0.000    2.375    1.250    1.500    1.750    4.250 
#    0.000    4.375    0.000    0.000    0.000    0.000 
#    0.000    0.000    0.000    0.000    0.000    0.000 
#
# Total GULP energy -396744.004380 kJ/mol
# GULP energy per Si atom -12398.250137 kJ/mol
# Density = 1.899082 g / cm^3
# Si number density = 19.034141 Si / 1000 Ang^3
#
#
#
# Elastic Constant Matrix: (Units=GPa)
#
#
# Indices 1 2 3 4 5 6 
#
# 1 115.7450 33.2451 71.8963 0.0000 -0.7890 0.0000
# 2 33.2451 43.6598 46.4124 0.0000 3.1956 0.0000
# 3 71.8963 46.4124 140.5555 0.0000 -2.9818 0.0000
# 4 0.0000 0.0000 0.0000 27.1236 0.0000 -4.1755
# 5 -0.7890 3.1956 -2.9818 0.0000 20.3607 0.0000
# 6 0.0000 0.0000 0.0000 -4.1755 0.0000 29.5590
#
#
#
# Elastic Compliance Matrix: (Units=1/GPa)
#
#
# Indices 1 2 3 4 5 6 
#
# 1 0.013200 -0.004494 -0.005259 0.000000 0.000447 0.000000
# 2 -0.004494 0.037929 -0.010388 0.000000 -0.007648 0.000000
# 3 -0.005259 -0.010388 0.013306 0.000000 0.003375 0.000000
# 4 0.000000 0.000000 0.000000 0.037688 0.000000 0.005324
# 5 0.000447 -0.007648 0.003375 0.000000 0.050826 0.000000
# 6 0.000000 0.000000 0.000000 0.005324 0.000000 0.034583
#
#
# Mechanical properties :
#
#
# Convention : Reuss Voigt Hill
#
# Bulk Modulus (GPa) = 41.40040 67.00755 54.20398
# Shear Modulus (GPa) = 21.19866 25.30243 23.25054
#
# Velocity S-wave (km/s) = 3.34086 3.64994 3.49881
# Velocity P-wave (km/s) = 6.05637 7.28306 6.69786
#
# Compressibility (1/GPa) = 0.02415435
#
# Stress axis : x y z
#
# Youngs Moduli (GPa) = 75.75824 26.36514 75.15229
#
# Poissons Ratio (x) = 0.11848 0.39520
# Poissons Ratio (y) = 0.34043 0.78069
# Poissons Ratio (z) = 0.39838 0.27388
#
# Static dielectric constant tensor:
#      x y z
#    x 3.538390 0.000000 0.197250 
#    y 0.000000 3.314050 0.000000 
#    z 0.197250 0.000000 3.717150 
# 
# 
# High freq. dielectric constant tensor:
#      x y z
#    x 1.739590 0.000000 0.005020 
#    y 0.000000 1.722640 0.000000 
#    z 0.005020 0.000000 1.743530 
# 
# From -- ./inp_files/338893.got.cif
#   From: 2010.06.25/outbox.cif.g09.slc.cpg/sg12_170_cif.got.tgz:338893.got - 2010.06.28 00:19:55.
