data_PCOD8082941
_publ_section_title
;
Structure prediction by ZEFSAII (Michael W. Deem and Ramdas Pophale) SiO2 
 PCOD8082941
Probable space group: C 2/M
;
_chemical_formula_sum "Si O2"
_cell_formula_units_Z 56
_cell_length_a 20.590913
_cell_length_b 13.856136
_cell_length_c 12.734910
_cell_angle_alpha 90.000000
_cell_angle_beta 118.554049
_cell_angle_gamma 90.000000
_cell_volume 3191.460219
_symmetry_space_group_name_H-M "C 2/M"
_symmetry_group_IT_number 12
_symmetry_cell_setting 'monoclinic'
loop_
_space_group_symop_operation_xyz
x,y,z
-x,y,-z
-x,-y,-z
x,-y,z
1/2+x,1/2+y,z
1/2-x,1/2+y,-z
1/2-x,1/2-y,-z
1/2+x,1/2-y,z
loop_
_atom_site_type_symbol
_atom_site_label
_atom_site_fract_x
_atom_site_fract_y
_atom_site_fract_z
Si Si1 0.170491 0.276247 0.400435
Si Si2 0.905106 0.107726 0.780376
Si Si3 0.634312 0.390574 0.665248
Si Si4 0.802989 0.613159 0.781545
Si Si5 0.081592 0.747376 0.028688
Si Si6 0.046297 0.167747 0.789621
Si Si7 0.948088 0.261064 0.542240
O O1 0.250000 0.250000 0.500000
O O2 0.138452 0.174476 0.335134
O O3 0.170083 0.360092 0.314375
O O4 0.122404 0.316131 0.462802
O O5 0.900383 0.155633 0.891650
O O6 0.990162 0.097055 0.807908
O O7 0.870575 0.000000 0.758336
O O8 0.633058 0.500000 0.622879
O O9 0.718419 0.351086 0.730426
O O10 0.605209 0.388096 0.762889
O O11 0.581709 0.332051 0.545465
O O12 0.810446 0.500000 0.806174
O O13 0.856750 0.665959 0.904761
O O14 0.087769 0.768886 0.909797
O O15 0.000000 0.709176 0.000000
O O16 0.999195 0.238035 0.680254
O O17 0.000000 0.321401 0.500000
#
# Coordination Sequence:
#
# PCOD8082941 Si02
#       7
#     8   8   8   8   8   8   8
#     4  10  18  32  51  73 103 134 165 206 254 306
#     4   9  18  30  48  74 101 128 162 203 251 309
#     4  10  19  30  47  76 108 134 166 205 253 311
#     4  10  21  35  52  76 102 133 175 219 255 294
#     4   9  19  35  51  71 101 133 175 213 250 298
#     4   9  18  30  48  73 103 138 162 197 251 309
#     4   9  18  31  49  74 102 131 163 205 256 309
#
# _framework density 17.546828000000001
#
# number of rings (size 3 to 8) (size 9 to 14) (size 15 to 20)
#    0.000    2.571    1.429    1.286    0.000    9.429 
#    0.000    0.000    0.000    0.429    0.000    3.000 
#    0.000    0.000    0.000    0.000    0.000    0.000 
#
# Total GULP energy -346958.401022 kJ/mol
# GULP energy per Si atom -12391.371465 kJ/mol
# Density = 1.750689 g / cm^3
# Si number density = 17.546828 Si / 1000 Ang^3
#
#
#
# Elastic Constant Matrix: (Units=GPa)
#
#
# Indices 1 2 3 4 5 6 
#
# 1 112.9038 23.5156 41.2349 0.0000 -7.3151 0.0000
# 2 23.5156 56.0790 25.9954 0.0000 1.7584 0.0000
# 3 41.2349 25.9954 110.1803 0.0000 -4.2088 0.0000
# 4 0.0000 0.0000 0.0000 16.6525 0.0000 2.4712
# 5 -7.3151 1.7584 -4.2088 0.0000 30.5207 0.0000
# 6 0.0000 0.0000 0.0000 2.4712 0.0000 18.1131
#
#
#
# Elastic Compliance Matrix: (Units=1/GPa)
#
#
# Indices 1 2 3 4 5 6 
#
# 1 0.010838 -0.003120 -0.003231 0.000000 0.002332 0.000000
# 2 -0.003120 0.021020 -0.003887 0.000000 -0.002495 0.000000
# 3 -0.003231 -0.003887 0.011240 0.000000 0.001000 0.000000
# 4 0.000000 0.000000 0.000000 0.061292 0.000000 -0.008362
# 5 0.002332 -0.002495 0.001000 0.000000 0.033605 0.000000
# 6 0.000000 0.000000 0.000000 -0.008362 0.000000 0.056350
#
#
# Mechanical properties :
#
#
# Convention : Reuss Voigt Hill
#
# Bulk Modulus (GPa) = 44.20331 51.18389 47.69360
# Shear Modulus (GPa) = 22.48576 25.61839 24.05208
#
# Velocity S-wave (km/s) = 3.58365 3.82514 3.70636
# Velocity P-wave (km/s) = 6.50920 6.98156 6.74951
#
# Compressibility (1/GPa) = 0.02262274
#
# Stress axis : x y z
#
# Youngs Moduli (GPa) = 92.26761 47.57279 88.96420
#
# Poissons Ratio (x) = 0.14843 0.28744
# Poissons Ratio (y) = 0.28789 0.34581
# Poissons Ratio (z) = 0.29811 0.18492
#
# Static dielectric constant tensor:
#      x y z
#    x 3.787330 0.000000 -0.191910 
#    y 0.000000 2.778150 0.000000 
#    z -0.191910 0.000000 3.440460 
# 
# 
# High freq. dielectric constant tensor:
#      x y z
#    x 1.688560 0.000000 -0.001530 
#    y 0.000000 1.630400 0.000000 
#    z -0.001530 0.000000 1.687680 
# 
# From -- ./inp_files/166773.got.cif
#   From: 2010.06.25/outbox.cif.g09.slc.cpg/sg12_84_cif.got.tgz:166773.got - 2010.06.28 00:19:55.
