data_PCOD8082692
_publ_section_title
;
Structure prediction by ZEFSAII (Michael W. Deem and Ramdas Pophale) SiO2 
 PCOD8082692
Probable space group: C 2/M
;
_chemical_formula_sum "Si O2"
_cell_formula_units_Z 36
_cell_length_a 17.831097
_cell_length_b 13.801187
_cell_length_c 12.073496
_cell_angle_alpha 90.000000
_cell_angle_beta 134.126743
_cell_angle_gamma 90.000000
_cell_volume 2132.710202
_symmetry_space_group_name_H-M "C 2/M"
_symmetry_group_IT_number 12
_symmetry_cell_setting 'monoclinic'
loop_
_space_group_symop_operation_xyz
x,y,z
-x,y,-z
-x,-y,-z
x,-y,z
1/2+x,1/2+y,z
1/2-x,1/2+y,-z
1/2-x,1/2-y,-z
1/2+x,1/2-y,z
loop_
_atom_site_type_symbol
_atom_site_label
_atom_site_fract_x
_atom_site_fract_y
_atom_site_fract_z
Si Si1 0.500000 0.743976 0.500000
Si Si2 0.717598 0.608690 0.511830
Si Si3 0.022623 0.891634 0.724817
Si Si4 0.785539 0.296582 0.363420
Si Si5 0.396907 0.386420 0.957627
O O1 0.455522 0.678422 0.354811
O O2 0.403254 0.809805 0.438994
O O3 0.749682 0.500000 0.582445
O O4 0.596171 0.613818 0.354404
O O5 0.781925 0.637647 0.469208
O O6 0.739462 0.683832 0.633879
O O7 0.049417 0.000000 0.711984
O O8 0.093894 0.862830 0.902621
O O9 0.704119 0.329340 0.187566
O O10 0.380849 0.500000 0.918516
O O11 0.500000 0.349368 0.000000
#
# Coordination Sequence:
#
# PCOD8082692 Si02
#       5
#     4   8   8   8   8
#     4  10  21  32  45  76 108 138 160 188 256 316
#     4   9  17  32  53  76  98 130 174 211 243 285
#     4   9  17  31  53  76  99 126 167 218 252 281
#     4  10  19  31  51  78 102 133 164 206 251 298
#     4  10  18  31  54  80  98 123 169 220 252 278
#
# _framework density 16.879930999999999
#
# number of rings (size 3 to 8) (size 9 to 14) (size 15 to 20)
#    0.000    2.444    2.222    1.000    0.000    1.778 
#    0.000    2.222    0.000    0.667    0.000    0.000 
#    0.000    0.000    0.000    0.000    0.000    0.000 
#
# Total GULP energy -223197.182656 kJ/mol
# GULP energy per Si atom -12399.843481 kJ/mol
# Density = 1.684151 g / cm^3
# Si number density = 16.879931 Si / 1000 Ang^3
#
#
#
# Elastic Constant Matrix: (Units=GPa)
#
#
# Indices 1 2 3 4 5 6 
#
# 1 93.3987 24.3079 34.4772 0.0000 4.8533 0.0000
# 2 24.3079 75.9108 41.3702 0.0000 1.1703 0.0000
# 3 34.4772 41.3702 109.0071 0.0000 -1.4637 0.0000
# 4 0.0000 0.0000 0.0000 29.2360 0.0000 -1.8143
# 5 4.8533 1.1703 -1.4637 0.0000 18.5788 0.0000
# 6 0.0000 0.0000 0.0000 -1.8143 0.0000 18.3792
#
#
#
# Elastic Compliance Matrix: (Units=1/GPa)
#
#
# Indices 1 2 3 4 5 6 
#
# 1 0.012650 -0.002260 -0.003189 0.000000 -0.003413 0.000000
# 2 -0.002260 0.017057 -0.005771 0.000000 -0.000939 0.000000
# 3 -0.003189 -0.005771 0.012402 0.000000 0.002174 0.000000
# 4 0.000000 0.000000 0.000000 0.034415 0.000000 0.003397
# 5 -0.003413 -0.000939 0.002174 0.000000 0.054947 0.000000
# 6 0.000000 0.000000 0.000000 0.003397 0.000000 0.054745
#
#
# Mechanical properties :
#
#
# Convention : Reuss Voigt Hill
#
# Bulk Modulus (GPa) = 50.84462 53.18080 52.01271
# Shear Modulus (GPa) = 23.23303 25.11622 24.17463
#
# Velocity S-wave (km/s) = 3.71397 3.86156 3.78848
# Velocity P-wave (km/s) = 6.96980 7.17328 7.07227
#
# Compressibility (1/GPa) = 0.01966776
#
# Stress axis : x y z
#
# Youngs Moduli (GPa) = 79.05443 58.62795 80.63371
#
# Poissons Ratio (x) = 0.13250 0.25714
# Poissons Ratio (y) = 0.17867 0.46535
# Poissons Ratio (z) = 0.25210 0.33835
#
# Static dielectric constant tensor:
#      x y z
#    x 3.097730 0.000000 -0.068180 
#    y 0.000000 3.176170 0.000000 
#    z -0.068180 0.000000 3.021870 
# 
# 
# High freq. dielectric constant tensor:
#      x y z
#    x 1.648410 0.000000 -0.012330 
#    y 0.000000 1.638580 0.000000 
#    z -0.012330 0.000000 1.636720 
# 
# From -- ./inp_files/141720.got.cif
#   From: 2010.06.25/outbox.cif.g09.slc.cpg/sg12_71_cif.got.tgz:141720.got - 2010.06.28 00:19:55.
