data_PCOD8082674
_publ_section_title
;
Structure prediction by ZEFSAII (Michael W. Deem and Ramdas Pophale) SiO2 
 PCOD8082674
Probable space group: C 2/M
;
_chemical_formula_sum "Si O2"
_cell_formula_units_Z 56
_cell_length_a 29.449267
_cell_length_b 8.855791
_cell_length_c 12.002163
_cell_angle_alpha 90.000000
_cell_angle_beta 108.291436
_cell_angle_gamma 90.000000
_cell_volume 2971.965155
_symmetry_space_group_name_H-M "C 2/M"
_symmetry_group_IT_number 12
_symmetry_cell_setting 'monoclinic'
loop_
_space_group_symop_operation_xyz
x,y,z
-x,y,-z
-x,-y,-z
x,-y,z
1/2+x,1/2+y,z
1/2-x,1/2+y,-z
1/2-x,1/2-y,-z
1/2+x,1/2-y,z
loop_
_atom_site_type_symbol
_atom_site_label
_atom_site_fract_x
_atom_site_fract_y
_atom_site_fract_z
Si Si1 0.550784 0.174730 0.984001
Si Si2 0.394671 0.674977 0.362340
Si Si3 0.312739 0.678016 0.139756
Si Si4 0.023382 0.175404 0.741970
Si Si5 0.083498 0.179537 0.380558
Si Si6 0.368996 0.321965 0.807974
Si Si7 0.294981 0.823171 0.897325
O O1 0.549542 0.227330 0.855945
O O2 0.565630 0.000000 0.002233
O O3 0.500000 0.206551 0.000000
O O4 0.589283 0.274374 0.076962
O O5 0.382216 0.500000 0.364296
O O6 0.352222 0.746334 0.254830
O O7 0.446538 0.698726 0.347489
O O8 0.396281 0.747355 0.487567
O O9 0.319093 0.500000 0.126175
O O10 0.260884 0.718978 0.149423
O O11 0.320230 0.755151 0.026071
O O12 0.970165 0.239945 0.681918
O O13 0.022593 0.000000 0.777632
O O14 0.118028 0.232352 0.307130
O O15 0.080526 0.000000 0.386492
O O16 0.362887 0.500000 0.807928
O O17 0.319184 0.245687 0.805580
O O18 0.303497 0.000000 0.905511
#
# Coordination Sequence:
#
# PCOD8082674 Si02
#       7
#     8   8   8   8   8   8   8
#     4  11  22  34  50  74 107 140 169 209 260 309
#     4   9  17  31  53  78 102 131 173 220 262 302
#     4   9  18  34  56  81 105 134 173 217 263 312
#     4  10  18  31  54  80 104 134 174 216 258 308
#     4   9  18  31  49  76 106 136 172 217 257 300
#     4  11  21  34  53  76 105 139 177 213 254 310
#     4  10  20  34  54  79 108 136 169 216 267 314
#
# _framework density 18.842752000000001
#
# number of rings (size 3 to 8) (size 9 to 14) (size 15 to 20)
#    0.000    2.143    1.429    2.571    0.000    4.000 
#    0.000    0.714    0.000    6.000    0.000    0.000 
#    0.000    0.000    0.000    0.000    0.000    0.000 
#
# Total GULP energy -347227.079760 kJ/mol
# GULP energy per Si atom -12400.967134 kJ/mol
# Density = 1.879987 g / cm^3
# Si number density = 18.842752 Si / 1000 Ang^3
#
#
#
# Elastic Constant Matrix: (Units=GPa)
#
#
# Indices 1 2 3 4 5 6 
#
# 1 106.0827 29.5145 52.8779 0.0000 -16.2276 0.0000
# 2 29.5145 35.6332 24.0591 0.0000 -6.8423 0.0000
# 3 52.8779 24.0591 123.5767 0.0000 -14.6782 0.0000
# 4 0.0000 0.0000 0.0000 10.3345 0.0000 -2.3934
# 5 -16.2276 -6.8423 -14.6782 0.0000 28.2614 0.0000
# 6 0.0000 0.0000 0.0000 -2.3934 0.0000 26.1574
#
#
#
# Elastic Compliance Matrix: (Units=1/GPa)
#
#
# Indices 1 2 3 4 5 6 
#
# 1 0.014415 -0.008418 -0.004037 0.000000 0.004142 0.000000
# 2 -0.008418 0.037865 -0.003469 0.000000 0.002532 0.000000
# 3 -0.004037 -0.003469 0.010785 0.000000 0.002444 0.000000
# 4 0.000000 0.000000 0.000000 0.098859 0.000000 0.009045
# 5 0.004142 0.002532 0.002444 0.000000 0.039644 0.000000
# 6 0.000000 0.000000 0.000000 0.009045 0.000000 0.039058
#
#
# Mechanical properties :
#
#
# Convention : Reuss Voigt Hill
#
# Bulk Modulus (GPa) = 32.03484 53.13284 42.58384
# Shear Modulus (GPa) = 17.67536 23.54005 20.60770
#
# Velocity S-wave (km/s) = 3.06608 3.53836 3.31065
# Velocity P-wave (km/s) = 5.43806 6.70467 6.10430
#
# Compressibility (1/GPa) = 0.03121601
#
# Stress axis : x y z
#
# Youngs Moduli (GPa) = 69.37372 26.40964 92.71964
#
# Poissons Ratio (x) = 0.22233 0.37431
# Poissons Ratio (y) = 0.58401 0.32165
# Poissons Ratio (z) = 0.28006 0.09162
#
# Static dielectric constant tensor:
#      x y z
#    x 3.647820 0.000000 -0.068110 
#    y 0.000000 3.180200 0.000000 
#    z -0.068110 0.000000 3.629070 
# 
# 
# High freq. dielectric constant tensor:
#      x y z
#    x 1.740010 0.000000 -0.007080 
#    y 0.000000 1.701670 0.000000 
#    z -0.007080 0.000000 1.728240 
# 
# From -- ./inp_files/186844.got.cif
#   From: 2010.06.25/outbox.cif.g09.slc.cpg/sg12_94_cif.got.tgz:186844.got - 2010.06.28 00:19:55.
