data_PCOD8082444
_publ_section_title
;
Structure prediction by ZEFSAII (Michael W. Deem and Ramdas Pophale) SiO2 
 PCOD8082444
Probable space group: C 2/M
;
_chemical_formula_sum "Si O2"
_cell_formula_units_Z 64
_cell_length_a 14.575230
_cell_length_b 9.037497
_cell_length_c 31.158187
_cell_angle_alpha 90.000000
_cell_angle_beta 129.819355
_cell_angle_gamma 90.000000
_cell_volume 3152.354185
_symmetry_space_group_name_H-M "C 2/M"
_symmetry_group_IT_number 12
_symmetry_cell_setting 'monoclinic'
loop_
_space_group_symop_operation_xyz
x,y,z
-x,y,-z
-x,-y,-z
x,-y,z
1/2+x,1/2+y,z
1/2-x,1/2+y,-z
1/2-x,1/2-y,-z
1/2+x,1/2-y,z
loop_
_atom_site_type_symbol
_atom_site_label
_atom_site_fract_x
_atom_site_fract_y
_atom_site_fract_z
Si Si1 0.185216 0.674678 0.298592
Si Si2 0.047996 0.170161 0.758713
Si Si3 0.651946 0.173310 0.500295
Si Si4 0.527414 0.325734 0.101718
Si Si5 0.848706 0.826923 0.123157
Si Si6 0.120340 0.673881 0.587976
Si Si7 0.287026 0.169459 0.789617
Si Si8 0.843135 0.675839 0.995909
O O1 0.189479 0.500000 0.303914
O O2 0.305250 0.738335 0.354593
O O3 0.175023 0.726465 0.245937
O O4 0.069750 0.737730 0.288768
O O5 0.111385 0.243286 0.819805
O O6 0.143373 0.184748 0.748987
O O7 0.009642 0.000000 0.754303
O O8 0.750000 0.250000 0.500000
O O9 0.666198 0.220317 0.554333
O O10 0.517938 0.217424 0.445975
O O11 0.671078 0.000000 0.501067
O O12 0.533588 0.500000 0.095561
O O13 0.439815 0.275864 0.113746
O O14 0.656062 0.264726 0.154577
O O15 0.474546 0.247125 0.042696
O O16 0.711614 0.787380 0.068018
O O17 0.858267 0.000000 0.132310
O O18 0.138365 0.500000 0.599884
O O19 0.325937 0.000000 0.808550
O O20 0.848562 0.500000 0.005164
O O21 0.750000 0.750000 0.000000
#
# Coordination Sequence:
#
# PCOD8082444 Si02
#       8
#     8   8   8   8   8   8   8   8
#     4  11  23  38  56  85 117 146 187 240 284 320
#     4  10  20  38  59  78 105 147 189 228 281 345
#     4   9  19  37  62  91 122 155 194 231 273 321
#     4  10  18  31  52  76 102 137 181 224 278 344
#     4   8  15  29  51  75  97 132 180 221 266 336
#     4   9  20  39  60  84 117 160 196 224 268 334
#     4  10  22  37  55  79 108 142 184 233 285 334
#     4   9  16  27  46  75 104 132 174 225 279 339
#
# _framework density 20.302285999999999
#
# number of rings (size 3 to 8) (size 9 to 14) (size 15 to 20)
#    0.000    2.500    1.250    2.625    0.000    3.000 
#    0.000    6.250    0.000    3.750    0.000    0.000 
#    0.000    0.000    0.000    0.000    0.000    0.000 
#
# Total GULP energy -396610.418538 kJ/mol
# GULP energy per Si atom -12394.075579 kJ/mol
# Density = 2.025608 g / cm^3
# Si number density = 20.302286 Si / 1000 Ang^3
#
#
#
# Elastic Constant Matrix: (Units=GPa)
#
#
# Indices 1 2 3 4 5 6 
#
# 1 77.9221 30.2423 34.0541 0.0000 17.9962 0.0000
# 2 30.2423 80.4250 49.1175 0.0000 12.6679 0.0000
# 3 34.0541 49.1175 105.1664 0.0000 24.4305 0.0000
# 4 0.0000 0.0000 0.0000 35.3404 0.0000 7.0116
# 5 17.9962 12.6679 24.4305 0.0000 22.7480 0.0000
# 6 0.0000 0.0000 0.0000 7.0116 0.0000 26.3488
#
#
#
# Elastic Compliance Matrix: (Units=1/GPa)
#
#
# Indices 1 2 3 4 5 6 
#
# 1 0.017326 -0.004104 -0.001386 0.000000 -0.009932 0.000000
# 2 -0.004104 0.018396 -0.007511 0.000000 0.001069 0.000000
# 3 -0.001386 -0.007511 0.016308 0.000000 -0.012234 0.000000
# 4 0.000000 0.000000 0.000000 0.029873 0.000000 -0.007950
# 5 -0.009932 0.001069 -0.012234 0.000000 0.064361 0.000000
# 6 0.000000 0.000000 0.000000 -0.007950 0.000000 0.040068
#
#
# Mechanical properties :
#
#
# Convention : Reuss Voigt Hill
#
# Bulk Modulus (GPa) = 38.42185 54.48236 46.45211
# Shear Modulus (GPa) = 22.62331 26.89409 24.75870
#
# Velocity S-wave (km/s) = 3.34177 3.64357 3.49593
# Velocity P-wave (km/s) = 5.81858 6.67792 6.26301
#
# Compressibility (1/GPa) = 0.02602686
#
# Stress axis : x y z
#
# Youngs Moduli (GPa) = 57.71722 54.35949 61.32037
#
# Poissons Ratio (x) = 0.22309 0.08500
# Poissons Ratio (y) = 0.23687 0.46059
# Poissons Ratio (z) = 0.08001 0.40831
#
# Static dielectric constant tensor:
#      x y z
#    x 3.597410 0.000000 0.030820 
#    y 0.000000 3.439030 0.000000 
#    z 0.030820 0.000000 3.919120 
# 
# 
# High freq. dielectric constant tensor:
#      x y z
#    x 1.783390 0.000000 0.011000 
#    y 0.000000 1.775500 0.000000 
#    z 0.011000 0.000000 1.796340 
# 
# From -- ./inp_files/375676.got.cif
#   From: 2010.06.25/outbox.cif.g09.slc.cpg/sg12_188_cif.got.tgz:375676.got - 2010.06.28 00:19:55.
