data_PCOD8082848
_publ_section_title
;
Structure prediction by ZEFSAII (Michael W. Deem and Ramdas Pophale) SiO2 
 PCOD8082848
Probable space group: C 2/M
;
_chemical_formula_sum "Si O2"
_cell_formula_units_Z 64
_cell_length_a 21.820471
_cell_length_b 12.192069
_cell_length_c 19.118025
_cell_angle_alpha 90.000000
_cell_angle_beta 136.176958
_cell_angle_gamma 90.000000
_cell_volume 3521.782681
_symmetry_space_group_name_H-M "C 2/M"
_symmetry_group_IT_number 12
_symmetry_cell_setting 'monoclinic'
loop_
_space_group_symop_operation_xyz
x,y,z
-x,y,-z
-x,-y,-z
x,-y,z
1/2+x,1/2+y,z
1/2-x,1/2+y,-z
1/2-x,1/2-y,-z
1/2+x,1/2-y,z
loop_
_atom_site_type_symbol
_atom_site_label
_atom_site_fract_x
_atom_site_fract_y
_atom_site_fract_z
Si Si1 0.242438 0.769545 0.105106
Si Si2 0.347682 0.124962 0.695011
Si Si3 0.273806 0.876249 0.783545
Si Si4 0.972548 0.761213 0.708337
Si Si5 0.840841 0.873261 0.502702
Si Si6 0.596191 0.301322 0.586264
Si Si7 0.912664 0.371684 0.305679
Si Si8 0.855750 0.128226 0.096160
O O1 0.195331 0.707137 0.130840
O O2 0.316394 0.855491 0.191811
O O3 0.285198 0.677617 0.091375
O O4 0.166218 0.833834 0.000848
O O5 0.318823 0.163867 0.748726
O O6 0.431839 0.191133 0.737711
O O7 0.264836 0.139367 0.573158
O O8 0.378181 0.000000 0.723620
O O9 0.166068 0.872947 0.688696
O O10 0.301750 0.000000 0.825441
O O11 0.895045 0.839673 0.615626
O O12 0.012430 0.683100 0.681325
O O13 0.045716 0.837829 0.802828
O O14 0.867767 0.790231 0.462643
O O15 0.861521 0.000000 0.498906
O O16 0.500000 0.359529 0.500000
O O17 0.584512 0.183586 0.615026
O O18 0.932916 0.500000 0.330321
O O19 0.846515 0.000000 0.094423
#
# Coordination Sequence:
#
# PCOD8082848 Si02
#       8
#     8   8   8   8   8   8   8   8
#     4   9  19  35  55  79 106 134 167 207 261 310
#     4   9  19  35  54  73 101 137 172 209 253 300
#     4   9  18  33  55  78 101 133 169 211 258 304
#     4  11  20  34  51  77 102 135 176 214 252 298
#     4  10  20  34  52  75 103 137 170 211 259 304
#     4  10  18  32  46  78 106 131 168 206 260 304
#     4  10  20  33  50  73 106 140 171 206 252 309
#     4  10  20  34  55  81 107 134 166 211 260 308
#
# _framework density 18.172613999999999
#
# number of rings (size 3 to 8) (size 9 to 14) (size 15 to 20)
#    0.000    2.250    1.250    3.000    0.000    1.250 
#    0.000    2.500    0.000   17.250    0.000    0.000 
#    0.000    0.000    0.000    0.000    0.000    0.000 
#
# Total GULP energy -396700.047771 kJ/mol
# GULP energy per Si atom -12396.876493 kJ/mol
# Density = 1.813125 g / cm^3
# Si number density = 18.172614 Si / 1000 Ang^3
#
#
#
# Elastic Constant Matrix: (Units=GPa)
#
#
# Indices 1 2 3 4 5 6 
#
# 1 60.5408 32.1373 16.1194 0.0000 -5.7664 0.0000
# 2 32.1373 85.2563 23.5539 0.0000 -1.5536 0.0000
# 3 16.1194 23.5539 66.2998 0.0000 -10.4216 0.0000
# 4 0.0000 0.0000 0.0000 22.9758 0.0000 -4.0548
# 5 -5.7664 -1.5536 -10.4216 0.0000 15.2766 0.0000
# 6 0.0000 0.0000 0.0000 -4.0548 0.0000 23.4282
#
#
#
# Elastic Compliance Matrix: (Units=1/GPa)
#
#
# Indices 1 2 3 4 5 6 
#
# 1 0.021557 -0.007581 -0.001557 0.000000 0.006304 0.000000
# 2 -0.007581 0.015729 -0.004417 0.000000 -0.004275 0.000000
# 3 -0.001557 -0.004417 0.018894 0.000000 0.011852 0.000000
# 4 0.000000 0.000000 0.000000 0.044895 0.000000 0.007770
# 5 0.006304 -0.004275 0.011852 0.000000 0.075490 0.000000
# 6 0.000000 0.000000 0.000000 0.007770 0.000000 0.044028
#
#
# Mechanical properties :
#
#
# Convention : Reuss Voigt Hill
#
# Bulk Modulus (GPa) = 34.39918 39.52426 36.96172
# Shear Modulus (GPa) = 19.42554 21.68856 20.55705
#
# Velocity S-wave (km/s) = 3.27302 3.45842 3.36700
# Velocity P-wave (km/s) = 5.76661 6.14362 5.95810
#
# Compressibility (1/GPa) = 0.02907046
#
# Stress axis : x y z
#
# Youngs Moduli (GPa) = 46.38868 63.57561 52.92752
#
# Poissons Ratio (x) = 0.48196 0.08241
# Poissons Ratio (y) = 0.35167 0.23378
# Poissons Ratio (z) = 0.07223 0.28081
#
# Static dielectric constant tensor:
#      x y z
#    x 3.217210 0.000000 -0.070930 
#    y 0.000000 3.165190 0.000000 
#    z -0.070930 0.000000 3.478280 
# 
# 
# High freq. dielectric constant tensor:
#      x y z
#    x 1.688740 0.000000 -0.005440 
#    y 0.000000 1.692110 0.000000 
#    z -0.005440 0.000000 1.705740 
# 
# From -- ./inp_files/324969.got.cif
#   From: 2010.06.25/outbox.cif.g09.slc.cpg/sg12_163_cif.got.tgz:324969.got - 2010.06.28 00:19:55.
