data_PCOD8082914
_publ_section_title
;
Structure prediction by ZEFSAII (Michael W. Deem and Ramdas Pophale) SiO2 
 PCOD8082914
Probable space group: C 2/M
;
_chemical_formula_sum "Si O2"
_cell_formula_units_Z 64
_cell_length_a 15.686184
_cell_length_b 26.684214
_cell_length_c 8.733719
_cell_angle_alpha 90.000000
_cell_angle_beta 111.585186
_cell_angle_gamma 90.000000
_cell_volume 3399.334755
_symmetry_space_group_name_H-M "C 2/M"
_symmetry_group_IT_number 12
_symmetry_cell_setting 'monoclinic'
loop_
_space_group_symop_operation_xyz
x,y,z
-x,y,-z
-x,-y,-z
x,-y,z
1/2+x,1/2+y,z
1/2-x,1/2+y,-z
1/2-x,1/2-y,-z
1/2+x,1/2-y,z
loop_
_atom_site_type_symbol
_atom_site_label
_atom_site_fract_x
_atom_site_fract_y
_atom_site_fract_z
Si Si1 0.949802 0.788824 0.125629
Si Si2 0.357159 0.184762 0.050596
Si Si3 0.310933 0.356982 0.896578
Si Si4 0.702175 0.805816 0.328028
Si Si5 0.863199 0.802123 0.638502
Si Si6 0.195639 0.556526 0.776860
Si Si7 0.587344 0.121005 0.462021
Si Si8 0.465120 0.912585 0.137481
O O1 0.887004 0.740665 0.115386
O O2 0.026176 0.797250 0.309213
O O3 0.887478 0.838754 0.069130
O O4 0.000000 0.776893 0.000000
O O5 0.284606 0.171389 0.133808
O O6 0.442956 0.147062 0.114993
O O7 0.311828 0.175865 0.853878
O O8 0.343976 0.346215 0.746550
O O9 0.290085 0.416657 0.895627
O O10 0.810043 0.813249 0.444314
O O11 0.676597 0.747920 0.312269
O O12 0.639971 0.834187 0.412017
O O13 0.217620 0.500000 0.739928
O O14 0.156491 0.589415 0.611651
O O15 0.123127 0.555707 0.868554
O O16 0.500000 0.142855 0.500000
O O17 0.547952 0.081438 0.312376
O O18 0.500000 0.934157 0.000000
#
# Coordination Sequence:
#
# PCOD8082914 Si02
#       8
#     8   8   8   8   8   8   8   8
#     4  10  18  32  50  76 106 145 169 211 255 307
#     4  11  19  31  55  77 113 141 174 205 261 317
#     4  10  20  35  56  76  99 146 177 213 263 322
#     4  11  19  33  50  79 110 144 172 212 255 312
#     4  10  21  33  51  75 111 143 172 212 255 310
#     4  10  22  38  53  74 104 140 181 227 272 309
#     4  10  20  33  52  75 107 145 179 208 259 318
#     4  10  19  31  53  81 105 139 170 214 261 322
#
# _framework density 18.827211999999999
#
# number of rings (size 3 to 8) (size 9 to 14) (size 15 to 20)
#    0.000    1.750    5.000    1.500    0.000    2.500 
#    0.000    0.625    0.000    3.375    0.000    0.000 
#    0.000    4.000    0.000    0.000    0.000    0.000 
#
# Total GULP energy -396653.094700 kJ/mol
# GULP energy per Si atom -12395.409209 kJ/mol
# Density = 1.878436 g / cm^3
# Si number density = 18.827212 Si / 1000 Ang^3
#
#
#
# Elastic Constant Matrix: (Units=GPa)
#
#
# Indices 1 2 3 4 5 6 
#
# 1 54.0895 22.3975 31.9772 0.0000 18.4764 0.0000
# 2 22.3975 82.1934 23.4649 0.0000 13.1262 0.0000
# 3 31.9772 23.4649 86.1689 0.0000 15.3886 0.0000
# 4 0.0000 0.0000 0.0000 11.3339 0.0000 1.0110
# 5 18.4764 13.1262 15.3886 0.0000 37.7324 0.0000
# 6 0.0000 0.0000 0.0000 1.0110 0.0000 11.9526
#
#
#
# Elastic Compliance Matrix: (Units=1/GPa)
#
#
# Indices 1 2 3 4 5 6 
#
# 1 0.027712 -0.003931 -0.007587 0.000000 -0.009108 0.000000
# 2 -0.003931 0.014159 -0.002007 0.000000 -0.002182 0.000000
# 3 -0.007587 -0.002007 0.015293 0.000000 -0.001824 0.000000
# 4 0.000000 0.000000 0.000000 0.088902 0.000000 -0.007520
# 5 -0.009108 -0.002182 -0.001824 0.000000 0.032465 0.000000
# 6 0.000000 0.000000 0.000000 -0.007520 0.000000 0.084300
#
#
# Mechanical properties :
#
#
# Convention : Reuss Voigt Hill
#
# Bulk Modulus (GPa) = 33.20726 42.01455 37.61091
# Shear Modulus (GPa) = 16.67117 21.84460 19.25788
#
# Velocity S-wave (km/s) = 2.97893 3.40996 3.20171
# Velocity P-wave (km/s) = 5.43215 6.15371 5.80415
#
# Compressibility (1/GPa) = 0.03011389
#
# Stress axis : x y z
#
# Youngs Moduli (GPa) = 36.08525 70.62587 65.38987
#
# Poissons Ratio (x) = 0.27763 0.49611
# Poissons Ratio (y) = 0.14185 0.13125
# Poissons Ratio (z) = 0.27378 0.14176
#
# Static dielectric constant tensor:
#      x y z
#    x 3.557160 0.000000 0.294170 
#    y 0.000000 3.142900 0.000000 
#    z 0.294170 0.000000 3.709660 
# 
# 
# High freq. dielectric constant tensor:
#      x y z
#    x 1.720390 0.000000 0.009670 
#    y 0.000000 1.690060 0.000000 
#    z 0.009670 0.000000 1.734780 
# 
# From -- ./inp_files/67043.got.cif
#   From: 2010.06.25/outbox.cif.g09.slc.cpg/sg12_34_cif.got.tgz:67043.got - 2010.06.28 00:19:55.
