data_PCOD8082080
_publ_section_title
;
Structure prediction by ZEFSAII (Michael W. Deem and Ramdas Pophale) SiO2 
 PCOD8082080
Probable space group: C 2/M
;
_chemical_formula_sum "Si O2"
_cell_formula_units_Z 64
_cell_length_a 24.739343
_cell_length_b 8.920189
_cell_length_c 17.649812
_cell_angle_alpha 90.000000
_cell_angle_beta 103.325553
_cell_angle_gamma 90.000000
_cell_volume 3790.086680
_symmetry_space_group_name_H-M "C 2/M"
_symmetry_group_IT_number 12
_symmetry_cell_setting 'monoclinic'
loop_
_space_group_symop_operation_xyz
x,y,z
-x,y,-z
-x,-y,-z
x,-y,z
1/2+x,1/2+y,z
1/2-x,1/2+y,-z
1/2-x,1/2-y,-z
1/2+x,1/2-y,z
loop_
_atom_site_type_symbol
_atom_site_label
_atom_site_fract_x
_atom_site_fract_y
_atom_site_fract_z
Si Si1 0.136018 0.327493 0.418613
Si Si2 0.290635 0.822208 0.842294
Si Si3 0.307222 0.676172 0.994578
Si Si4 0.332958 0.675092 0.163962
Si Si5 0.907676 0.822613 0.321241
Si Si6 0.176466 0.673527 0.595799
Si Si7 0.298026 0.324027 0.689163
Si Si8 0.989089 0.324180 0.581262
O O1 0.140575 0.500000 0.394343
O O2 0.172952 0.298951 0.504992
O O3 0.157629 0.221137 0.359555
O O4 0.072789 0.282020 0.414440
O O5 0.327864 0.754563 0.923631
O O6 0.227610 0.760405 0.832353
O O7 0.314470 0.761048 0.771335
O O8 0.295268 0.000000 0.846145
O O9 0.299424 0.500000 0.978534
O O10 0.250000 0.750000 0.000000
O O11 0.347852 0.707019 0.080121
O O12 0.328715 0.500000 0.177693
O O13 0.380324 0.741236 0.234390
O O14 0.870117 0.772918 0.379509
O O15 0.969025 0.754957 0.347097
O O16 0.912410 0.000000 0.322335
O O17 0.164648 0.500000 0.611241
O O18 0.236836 0.726239 0.642811
O O19 0.301186 0.500000 0.704210
O O20 0.000345 0.500000 0.588079
O O21 0.000000 0.263848 0.500000
#
# Coordination Sequence:
#
# PCOD8082080 Si02
#       8
#     8   8   8   8   8   8   8   8
#     4  10  21  37  54  68  95 136 172 208 256 301
#     4  10  18  31  48  69 101 136 168 199 246 302
#     4   9  16  28  45  68  99 133 168 200 243 297
#     4   8  16  29  45  69 101 132 160 199 246 294
#     4  11  20  31  51  77 102 131 167 209 252 293
#     4  10  20  35  51  71  99 135 170 204 250 302
#     4  11  22  33  50  76 103 130 170 213 248 296
#     4  10  20  37  55  70  95 132 171 211 255 302
#
# _framework density 16.886157999999998
#
# number of rings (size 3 to 8) (size 9 to 14) (size 15 to 20)
#    0.000    2.125    2.500    2.625    0.000    1.750 
#    0.000    1.875    0.000    0.000    0.000    0.875 
#    0.000    7.000    0.000    0.000    0.000    0.000 
#
# Total GULP energy -396735.137747 kJ/mol
# GULP energy per Si atom -12397.973055 kJ/mol
# Density = 1.684772 g / cm^3
# Si number density = 16.886158 Si / 1000 Ang^3
#
#
#
# Elastic Constant Matrix: (Units=GPa)
#
#
# Indices 1 2 3 4 5 6 
#
# 1 55.0790 25.4845 33.6586 0.0000 -3.1628 0.0000
# 2 25.4845 62.4477 41.6128 0.0000 -3.0145 0.0000
# 3 33.6586 41.6128 127.8133 0.0000 -3.3814 0.0000
# 4 0.0000 0.0000 0.0000 29.4595 0.0000 -2.6953
# 5 -3.1628 -3.0145 -3.3814 0.0000 18.1010 0.0000
# 6 0.0000 0.0000 0.0000 -2.6953 0.0000 24.3879
#
#
#
# Elastic Compliance Matrix: (Units=1/GPa)
#
#
# Indices 1 2 3 4 5 6 
#
# 1 0.023959 -0.007028 -0.003961 0.000000 0.002276 0.000000
# 2 -0.007028 0.022597 -0.005466 0.000000 0.001514 0.000000
# 3 -0.003961 -0.005466 0.010657 0.000000 0.000388 0.000000
# 4 0.000000 0.000000 0.000000 0.034292 0.000000 0.003790
# 5 0.002276 0.001514 0.000388 0.000000 0.055968 0.000000
# 6 0.000000 0.000000 0.000000 0.003790 0.000000 0.041423
#
#
# Mechanical properties :
#
#
# Convention : Reuss Voigt Hill
#
# Bulk Modulus (GPa) = 41.14845 49.65021 45.39933
# Shear Modulus (GPa) = 21.74796 24.02861 22.88828
#
# Velocity S-wave (km/s) = 3.59265 3.77633 3.68563
# Velocity P-wave (km/s) = 6.45217 6.96283 6.71236
#
# Compressibility (1/GPa) = 0.02430225
#
# Stress axis : x y z
#
# Youngs Moduli (GPa) = 41.73833 44.25347 93.83575
#
# Poissons Ratio (x) = 0.31102 0.37168
# Poissons Ratio (y) = 0.29334 0.51292
# Poissons Ratio (z) = 0.16532 0.24190
#
# Static dielectric constant tensor:
#      x y z
#    x 2.898170 0.000000 0.162130 
#    y 0.000000 3.110080 0.000000 
#    z 0.162130 0.000000 3.599070 
# 
# 
# High freq. dielectric constant tensor:
#      x y z
#    x 1.607820 0.000000 0.003940 
#    y 0.000000 1.649460 0.000000 
#    z 0.003940 0.000000 1.663660 
# 
# From -- ./inp_files/287737.got.cif
#   From: 2010.06.25/outbox.cif.g09.slc.cpg/sg12_144_cif.got.tgz:287737.got - 2010.06.28 00:19:55.
