data_PCOD8082571
_publ_section_title
;
Structure prediction by ZEFSAII (Michael W. Deem and Ramdas Pophale) SiO2 
 PCOD8082571
Probable space group: C 2/M
;
_chemical_formula_sum "Si O2"
_cell_formula_units_Z 48
_cell_length_a 13.535141
_cell_length_b 17.705110
_cell_length_c 11.080794
_cell_angle_alpha 90.000000
_cell_angle_beta 104.133088
_cell_angle_gamma 90.000000
_cell_volume 2575.038039
_symmetry_space_group_name_H-M "C 2/M"
_symmetry_group_IT_number 12
_symmetry_cell_setting 'monoclinic'
loop_
_space_group_symop_operation_xyz
x,y,z
-x,y,-z
-x,-y,-z
x,-y,z
1/2+x,1/2+y,z
1/2-x,1/2+y,-z
1/2-x,1/2-y,-z
1/2+x,1/2-y,z
loop_
_atom_site_type_symbol
_atom_site_label
_atom_site_fract_x
_atom_site_fract_y
_atom_site_fract_z
Si Si1 0.466730 0.414933 0.127754
Si Si2 0.168645 0.841682 0.222561
Si Si3 0.088446 0.315199 0.114706
Si Si4 0.233389 0.839104 0.984272
Si Si5 0.837793 0.587451 0.416933
Si Si6 0.534009 0.913317 0.320105
O O1 0.441431 0.500000 0.162936
O O2 0.563419 0.382569 0.229157
O O3 0.368111 0.361985 0.120761
O O4 0.500000 0.412601 0.000000
O O5 0.147429 0.753328 0.196554
O O6 0.244863 0.857227 0.355702
O O7 0.221223 0.874894 0.114942
O O8 0.167559 0.367246 0.060622
O O9 0.036787 0.365489 0.200182
O O10 0.000000 0.282974 0.000000
O O11 0.250000 0.750000 0.000000
O O12 0.806055 0.500000 0.389854
O O13 0.868855 0.603011 0.564803
O O14 0.932048 0.608236 0.359974
O O15 0.532900 0.000000 0.281484
#
# Coordination Sequence:
#
# PCOD8082571 Si02
#       6
#     8   8   8   8   8   8
#     4   9  17  29  46  70  98 128 164 204 244 292
#     4  10  18  31  53  77 102 131 168 208 253 306
#     4  11  21  33  52  76 106 137 165 206 259 309
#     4   9  18  31  46  70 105 138 164 200 252 304
#     4   9  18  35  57  76  99 133 173 218 257 296
#     4   9  20  37  54  75 102 134 175 217 256 299
#
# _framework density 18.640501
#
# number of rings (size 3 to 8) (size 9 to 14) (size 15 to 20)
#    0.000    2.500    0.000    5.000    0.000    3.667 
#    0.000    0.000    0.000    1.000    0.000    3.500 
#    0.000    0.000    0.000    0.000    0.000    0.000 
#
# Total GULP energy -297468.913507 kJ/mol
# GULP energy per Si atom -12394.538063 kJ/mol
# Density = 1.859807 g / cm^3
# Si number density = 18.640501 Si / 1000 Ang^3
#
#
#
# Elastic Constant Matrix: (Units=GPa)
#
#
# Indices 1 2 3 4 5 6 
#
# 1 80.6024 38.9403 23.0671 0.0000 19.9187 0.0000
# 2 38.9403 76.7864 31.4643 0.0000 11.5860 0.0000
# 3 23.0671 31.4643 64.6347 0.0000 18.0993 0.0000
# 4 0.0000 0.0000 0.0000 25.2597 0.0000 6.2476
# 5 19.9187 11.5860 18.0993 0.0000 37.6781 0.0000
# 6 0.0000 0.0000 0.0000 6.2476 0.0000 26.1241
#
#
#
# Elastic Compliance Matrix: (Units=1/GPa)
#
#
# Indices 1 2 3 4 5 6 
#
# 1 0.018087 -0.007847 -0.000732 0.000000 -0.006797 0.000000
# 2 -0.007847 0.019735 -0.007243 0.000000 0.001559 0.000000
# 3 -0.000732 -0.007243 0.021406 0.000000 -0.007669 0.000000
# 4 0.000000 0.000000 0.000000 0.042078 0.000000 -0.010063
# 5 -0.006797 0.001559 -0.007669 0.000000 0.033338 0.000000
# 6 0.000000 0.000000 0.000000 -0.010063 0.000000 0.040685
#
#
# Mechanical properties :
#
#
# Convention : Reuss Voigt Hill
#
# Bulk Modulus (GPa) = 36.25216 45.44077 40.84647
# Shear Modulus (GPa) = 23.13017 26.38249 24.75633
#
# Velocity S-wave (km/s) = 3.52640 3.76617 3.64826
# Velocity P-wave (km/s) = 6.00591 6.58350 6.30132
#
# Compressibility (1/GPa) = 0.02758456
#
# Stress axis : x y z
#
# Youngs Moduli (GPa) = 55.28950 50.67076 46.71548
#
# Poissons Ratio (x) = 0.39760 0.03418
# Poissons Ratio (y) = 0.43384 0.33838
# Poissons Ratio (z) = 0.04045 0.36703
#
# Static dielectric constant tensor:
#      x y z
#    x 3.853980 0.000000 0.019170 
#    y 0.000000 3.196310 0.000000 
#    z 0.019170 0.000000 3.261230 
# 
# 
# High freq. dielectric constant tensor:
#      x y z
#    x 1.727630 0.000000 0.018300 
#    y 0.000000 1.707660 0.000000 
#    z 0.018300 0.000000 1.694790 
# 
# From -- ./inp_files/106594.got.cif
#   From: 2010.06.25/outbox.cif.g09.slc.cpg/sg12_54_cif.got.tgz:106594.got - 2010.06.28 00:19:55.
