data_PCOD8082934
_publ_section_title
;
Structure prediction by ZEFSAII (Michael W. Deem and Ramdas Pophale) SiO2 
 PCOD8082934
Probable space group: C 2/M
;
_chemical_formula_sum "Si O2"
_cell_formula_units_Z 64
_cell_length_a 25.538011
_cell_length_b 9.228889
_cell_length_c 19.232278
_cell_angle_alpha 90.000000
_cell_angle_beta 49.717191
_cell_angle_gamma 90.000000
_cell_volume 3457.907776
_symmetry_space_group_name_H-M "C 2/M"
_symmetry_group_IT_number 12
_symmetry_cell_setting 'monoclinic'
loop_
_space_group_symop_operation_xyz
x,y,z
-x,y,-z
-x,-y,-z
x,-y,z
1/2+x,1/2+y,z
1/2-x,1/2+y,-z
1/2-x,1/2-y,-z
1/2+x,1/2-y,z
loop_
_atom_site_type_symbol
_atom_site_label
_atom_site_fract_x
_atom_site_fract_y
_atom_site_fract_z
Si Si1 0.806775 0.327131 0.211197
Si Si2 0.374076 0.338342 0.268587
Si Si3 0.072568 0.169689 0.972872
Si Si4 0.583444 0.327035 0.511040
Si Si5 0.313548 0.659017 0.466686
Si Si6 0.048156 0.172405 0.293457
Si Si7 0.653311 0.328577 0.313033
Si Si8 0.023209 0.170388 0.161037
O O1 0.811395 0.500000 0.206190
O O2 0.819648 0.267860 0.278193
O O3 0.865276 0.260962 0.112063
O O4 0.731353 0.270709 0.252118
O O5 0.368597 0.500000 0.239803
O O6 0.364653 0.349243 0.358536
O O7 0.450098 0.271264 0.195681
O O8 0.085613 0.000000 0.948779
O O9 0.075178 0.206247 0.053480
O O10 0.000000 0.214321 0.000000
O O11 0.579639 0.500000 0.516811
O O12 0.646137 0.269001 0.504236
O O13 0.512720 0.265768 0.604535
O O14 0.601431 0.270725 0.418166
O O15 0.287575 0.500000 0.510634
O O16 0.250000 0.750000 0.500000
O O17 0.120282 0.219068 0.267528
O O18 0.045648 0.237767 0.216779
O O19 0.042843 0.000000 0.294805
O O20 0.655970 0.500000 0.318008
O O21 0.015296 0.000000 0.178756
#
# Coordination Sequence:
#
# PCOD8082934 Si02
#       8
#     8   8   8   8   8   8   8   8
#     4  11  22  34  49  75 110 137 161 202 259 318
#     4  10  18  32  51  72  99 134 172 209 250 297
#     4  10  19  34  56  76  98 129 170 214 251 298
#     4   9  15  26  45  70  99 131 169 207 244 290
#     4  10  19  29  45  70 104 138 169 207 250 301
#     4   9  15  27  48  72  98 131 172 212 247 286
#     4   9  18  29  43  69 106 139 163 200 254 301
#     4   9  16  29  50  74  94 120 167 217 251 284
#
# _framework density 18.508299999999998
#
# number of rings (size 3 to 8) (size 9 to 14) (size 15 to 20)
#    0.000    2.375    2.500    1.500    0.000    3.250 
#    0.000    0.625    0.000    0.000    0.000    4.375 
#    0.000    7.000    0.000    0.000    0.000    0.000 
#
# Total GULP energy -396478.709534 kJ/mol
# GULP energy per Si atom -12389.959673 kJ/mol
# Density = 1.846617 g / cm^3
# Si number density = 18.508300 Si / 1000 Ang^3
#
#
#
# Elastic Constant Matrix: (Units=GPa)
#
#
# Indices 1 2 3 4 5 6 
#
# 1 135.9925 21.7437 43.8960 0.0000 6.9071 0.0000
# 2 21.7437 30.1667 13.3504 0.0006 -1.5507 -0.0005
# 3 43.8960 13.3504 81.0651 0.0002 12.0184 -0.0004
# 4 0.0000 0.0006 0.0002 18.0647 -0.0005 -1.8051
# 5 6.9071 -1.5507 12.0184 -0.0005 26.9775 0.0006
# 6 0.0000 -0.0005 -0.0004 -1.8051 0.0006 17.7636
#
#
#
# Elastic Compliance Matrix: (Units=1/GPa)
#
#
# Indices 1 2 3 4 5 6 
#
# 1 0.009570 -0.005076 -0.004218 0.000000 -0.000863 0.000000
# 2 -0.005076 0.039091 -0.004513 -0.000001 0.005557 0.000001
# 3 -0.004218 -0.004513 0.016319 0.000000 -0.006450 0.000000
# 4 0.000000 -0.000001 0.000000 0.055924 0.000001 0.005683
# 5 -0.000863 0.005557 -0.006450 0.000001 0.040482 -0.000001
# 6 0.000000 0.000001 0.000000 0.005683 -0.000001 0.056872
#
#
# Mechanical properties :
#
#
# Convention : Reuss Voigt Hill
#
# Bulk Modulus (GPa) = 26.76239 45.02271 35.89255
# Shear Modulus (GPa) = 19.35519 23.77677 21.56598
#
# Velocity S-wave (km/s) = 3.23732 3.58810 3.41721
# Velocity P-wave (km/s) = 5.33524 6.44550 5.91647
#
# Compressibility (1/GPa) = 0.03736587
#
# Stress axis : x y z
#
# Youngs Moduli (GPa) = 104.48948 25.58160 61.27649
#
# Poissons Ratio (x) = 0.12984 0.25849
# Poissons Ratio (y) = 0.53035 0.27655
# Poissons Ratio (z) = 0.44078 0.11545
#
# Static dielectric constant tensor:
#      x y z
#    x 3.712930 0.000000 0.298590 
#    y 0.000000 2.831220 0.000000 
#    z 0.298590 0.000000 3.946030 
# 
# 
# High freq. dielectric constant tensor:
#      x y z
#    x 1.725320 0.000000 0.009020 
#    y 0.000000 1.650290 0.000000 
#    z 0.009020 0.000000 1.724360 
# 
# From -- ./inp_files/324204.got.cif
#   From: 2010.06.25/outbox.cif.g09.slc.cpg/sg12_163_cif.got.tgz:324204.got - 2010.06.28 00:19:55.
