data_PCOD8082085
_publ_section_title
;
Structure prediction by ZEFSAII (Michael W. Deem and Ramdas Pophale) SiO2 
 PCOD8082085
Probable space group: C 2/M
;
_chemical_formula_sum "Si O2"
_cell_formula_units_Z 56
_cell_length_a 28.714992
_cell_length_b 8.855459
_cell_length_c 17.709115
_cell_angle_alpha 90.000000
_cell_angle_beta 43.398135
_cell_angle_gamma 90.000000
_cell_volume 3093.953196
_symmetry_space_group_name_H-M "C 2/M"
_symmetry_group_IT_number 12
_symmetry_cell_setting 'monoclinic'
loop_
_space_group_symop_operation_xyz
x,y,z
-x,y,-z
-x,-y,-z
x,-y,z
1/2+x,1/2+y,z
1/2-x,1/2+y,-z
1/2-x,1/2-y,-z
1/2+x,1/2-y,z
loop_
_atom_site_type_symbol
_atom_site_label
_atom_site_fract_x
_atom_site_fract_y
_atom_site_fract_z
Si Si1 0.090522 0.679334 0.266676
Si Si2 0.685907 0.678349 0.856091
Si Si3 0.060876 0.323147 0.575446
Si Si4 0.464444 0.177561 0.228472
Si Si5 0.336657 0.180358 0.667837
Si Si6 0.928909 0.821233 0.120917
Si Si7 0.606208 0.677976 0.094525
O O1 0.092742 0.500000 0.255798
O O2 0.129600 0.737256 0.294298
O O3 0.126368 0.749218 0.150720
O O4 0.012992 0.738938 0.361930
O O5 0.686859 0.500000 0.846100
O O6 0.760472 0.745819 0.751730
O O7 0.631768 0.742237 0.859710
O O8 0.664895 0.721439 0.966040
O O9 0.060548 0.500000 0.560936
O O10 0.074874 0.285740 0.646840
O O11 0.119749 0.252477 0.453518
O O12 0.419906 0.241803 0.212541
O O13 0.536712 0.258070 0.142981
O O14 0.476310 0.000000 0.205825
O O15 0.335300 0.000000 0.668479
O O16 0.925399 0.000000 0.136194
O O17 0.000000 0.772935 0.000000
O O18 0.598116 0.500000 0.113119
#
# Coordination Sequence:
#
# PCOD8082085 Si02
#       7
#     8   8   8   8   8   8   8
#     4   9  17  29  49  76  97 120 161 204 239 275
#     4   9  18  30  46  69  95 128 166 194 229 288
#     4   8  15  28  47  71  97 123 156 199 239 277
#     4  10  19  31  50  77  99 119 157 202 244 281
#     4   9  16  29  49  70  95 128 164 200 233 276
#     4  10  18  32  51  71  97 127 160 195 234 285
#     4  10  18  31  48  70 100 130 159 194 239 286
#
# _framework density 18.099822
#
# number of rings (size 3 to 8) (size 9 to 14) (size 15 to 20)
#    0.000    2.714    1.429    2.143    0.000    2.571 
#    0.000    0.714    0.000    9.429    0.000    0.000 
#    0.000    0.000    0.000    0.000    0.000    0.000 
#
# Total GULP energy -347112.599690 kJ/mol
# GULP energy per Si atom -12396.878560 kJ/mol
# Density = 1.805863 g / cm^3
# Si number density = 18.099822 Si / 1000 Ang^3
#
#
#
# Elastic Constant Matrix: (Units=GPa)
#
#
# Indices 1 2 3 4 5 6 
#
# 1 137.2343 20.1668 93.5815 0.0107 11.0074 -0.0148
# 2 20.1668 29.1095 25.3530 0.0125 5.5000 -0.0027
# 3 93.5815 25.3530 144.2914 0.0044 3.1850 0.0129
# 4 0.0107 0.0125 0.0044 18.1423 0.0013 8.1317
# 5 11.0074 5.5000 3.1850 0.0013 27.7410 -0.0061
# 6 -0.0148 -0.0027 0.0129 8.1317 -0.0061 20.0415
#
#
#
# Elastic Compliance Matrix: (Units=1/GPa)
#
#
# Indices 1 2 3 4 5 6 
#
# 1 0.013613 -0.001218 -0.008522 -0.000014 -0.004181 0.000020
# 2 -0.001218 0.042174 -0.006463 -0.000036 -0.007136 0.000021
# 3 -0.008522 -0.006463 0.013524 0.000015 0.003110 -0.000021
# 4 -0.000014 -0.000036 0.000015 0.067372 0.000002 -0.027336
# 5 -0.004181 -0.007136 0.003110 0.000002 0.038765 0.000005
# 6 0.000020 0.000021 -0.000021 -0.027336 0.000005 0.060988
#
#
# Mechanical properties :
#
#
# Convention : Reuss Voigt Hill
#
# Bulk Modulus (GPa) = 27.09666 65.42641 46.26154
# Shear Modulus (GPa) = 17.78449 24.62055 21.20252
#
# Velocity S-wave (km/s) = 3.13801 3.69218 3.42632
# Velocity P-wave (km/s) = 5.30402 7.37579 6.42398
#
# Compressibility (1/GPa) = 0.03690492
#
# Stress axis : x y z
#
# Youngs Moduli (GPa) = 73.46127 23.71127 73.94000
#
# Poissons Ratio (x) = 0.02888 0.63013
# Poissons Ratio (y) = 0.08949 0.47785
# Poissons Ratio (z) = 0.62605 0.15324
#
# Static dielectric constant tensor:
#      x y z
#    x 3.486480 -0.000010 0.058750 
#    y -0.000010 2.936750 0.000020 
#    z 0.058750 0.000020 3.609980 
# 
# 
# High freq. dielectric constant tensor:
#      x y z
#    x 1.700400 0.000000 0.015360 
#    y 0.000000 1.658690 0.000000 
#    z 0.015360 0.000000 1.701380 
# 
# From -- ./inp_files/287313.got.cif
#   From: 2010.06.25/outbox.cif.g09.slc.cpg/sg12_144_cif.got.tgz:287313.got - 2010.06.28 00:19:55.
