data_PCOD8082139
_publ_section_title
;
Structure prediction by ZEFSAII (Michael W. Deem and Ramdas Pophale) SiO2 
 PCOD8082139
Probable space group: C 2/M
;
_chemical_formula_sum "Si O2"
_cell_formula_units_Z 64
_cell_length_a 23.797837
_cell_length_b 19.354650
_cell_length_c 19.783756
_cell_angle_alpha 90.000000
_cell_angle_beta 24.652113
_cell_angle_gamma 90.000000
_cell_volume 3800.840700
_symmetry_space_group_name_H-M "C 2/M"
_symmetry_group_IT_number 12
_symmetry_cell_setting 'monoclinic'
loop_
_space_group_symop_operation_xyz
x,y,z
-x,y,-z
-x,-y,-z
x,-y,z
1/2+x,1/2+y,z
1/2-x,1/2+y,-z
1/2-x,1/2-y,-z
1/2+x,1/2-y,z
loop_
_atom_site_type_symbol
_atom_site_label
_atom_site_fract_x
_atom_site_fract_y
_atom_site_fract_z
Si Si1 0.596926 0.078375 0.573842
Si Si2 0.132524 0.079750 0.661014
Si Si3 0.530682 0.306865 0.388726
Si Si4 0.183465 0.303335 0.385646
Si Si5 0.203970 0.421011 0.103319
Si Si6 0.452569 0.419715 0.738316
Si Si7 0.968355 0.167767 0.109022
Si Si8 0.246096 0.697804 0.166035
O O1 0.706535 0.095088 0.513140
O O2 0.624272 0.126560 0.480420
O O3 0.444862 0.089445 0.766337
O O4 0.619428 0.000000 0.524330
O O5 0.058341 0.107154 0.808888
O O6 0.067588 0.110045 0.663499
O O7 0.096588 0.000000 0.700039
O O8 0.500000 0.324420 0.500000
O O9 0.409474 0.260687 0.491594
O O10 0.537143 0.378825 0.342661
O O11 0.671484 0.266441 0.220607
O O12 0.333539 0.285645 0.249324
O O13 0.177502 0.318397 0.312644
O O14 0.221922 0.500000 0.110261
O O15 0.225702 0.368593 0.141146
O O16 0.307748 0.405467 0.930097
O O17 0.473610 0.500000 0.697851
O O18 0.000000 0.135793 0.000000
O O19 0.094357 0.213247 0.998259
#
# Coordination Sequence:
#
# PCOD8082139 Si02
#       8
#     8   8   8   8   8   8   8   8
#     4   9  17  30  47  71 105 140 169 198 232 285
#     4   9  17  31  48  69 100 135 170 206 242 283
#     4  10  21  37  55  73  97 128 165 211 258 301
#     4   9  18  32  48  71 103 137 171 204 237 286
#     4  10  19  31  49  74 105 135 165 201 242 293
#     4  10  21  37  55  74  97 126 165 214 258 298
#     4   9  17  29  47  71 104 138 167 198 234 286
#     4  10  18  31  49  73 104 136 166 203 246 289
#
# _framework density 16.838380999999998
#
# number of rings (size 3 to 8) (size 9 to 14) (size 15 to 20)
#    0.000    2.500    2.500    0.000    0.000    1.500 
#    0.000    7.500    0.000    0.000    0.000    0.000 
#    0.000   10.000    0.000    0.000    0.000    0.000 
#
# Total GULP energy -396568.266495 kJ/mol
# GULP energy per Si atom -12392.758328 kJ/mol
# Density = 1.680006 g / cm^3
# Si number density = 16.838381 Si / 1000 Ang^3
#
#
#
# Elastic Constant Matrix: (Units=GPa)
#
#
# Indices 1 2 3 4 5 6 
#
# 1 93.1750 53.7923 56.8921 0.0011 -12.2334 -0.0011
# 2 53.7923 76.4507 45.6209 0.0058 2.4751 -0.0040
# 3 56.8921 45.6209 98.0771 0.0095 -21.7624 -0.0054
# 4 0.0011 0.0058 0.0095 19.4896 -0.0041 6.9427
# 5 -12.2334 2.4751 -21.7624 -0.0041 28.0687 0.0025
# 6 -0.0011 -0.0040 -0.0054 6.9427 0.0025 25.3528
#
#
#
# Elastic Compliance Matrix: (Units=1/GPa)
#
#
# Indices 1 2 3 4 5 6 
#
# 1 0.022235 -0.012457 -0.005688 0.000008 0.006380 -0.000005
# 2 -0.012457 0.027640 -0.008909 -0.000008 -0.014774 0.000006
# 3 -0.005688 -0.008909 0.020851 -0.000005 0.014473 0.000003
# 4 0.000008 -0.000008 -0.000005 0.056856 0.000010 -0.015570
# 5 0.006380 -0.014774 0.014473 0.000010 0.050931 -0.000007
# 6 -0.000005 0.000006 0.000003 -0.015570 -0.000007 0.043707
#
#
# Mechanical properties :
#
#
# Convention : Reuss Voigt Hill
#
# Bulk Modulus (GPa) = 60.17679 64.47928 62.32803
# Shear Modulus (GPa) = 17.73878 22.00870 19.87374
#
# Velocity S-wave (km/s) = 3.24925 3.61924 3.43922
# Velocity P-wave (km/s) = 7.06345 7.47271 7.27096
#
# Compressibility (1/GPa) = 0.01661770
#
# Stress axis : x y z
#
# Youngs Moduli (GPa) = 44.97402 36.17899 47.95964
#
# Poissons Ratio (x) = 0.45070 0.27278
# Poissons Ratio (y) = 0.56026 0.42727
# Poissons Ratio (z) = 0.25580 0.32232
#
# Static dielectric constant tensor:
#      x y z
#    x 3.230340 0.000000 -0.412470 
#    y 0.000000 2.870980 0.000000 
#    z -0.412470 0.000000 3.408490 
# 
# 
# High freq. dielectric constant tensor:
#      x y z
#    x 1.644080 0.000000 -0.025730 
#    y 0.000000 1.620090 0.000000 
#    z -0.025730 0.000000 1.655800 
# 
# From -- ./inp_files/285768.got.cif
#   From: 2010.06.25/outbox.cif.g09.slc.cpg/sg12_143_cif.got.tgz:285768.got - 2010.06.28 00:19:55.
