data_PCOD8082368
_publ_section_title
;
Structure prediction by ZEFSAII (Michael W. Deem and Ramdas Pophale) SiO2 
 PCOD8082368
Probable space group: C 2/M
;
_chemical_formula_sum "Si O2"
_cell_formula_units_Z 64
_cell_length_a 20.831259
_cell_length_b 14.005962
_cell_length_c 12.010711
_cell_angle_alpha 90.000000
_cell_angle_beta 107.806620
_cell_angle_gamma 90.000000
_cell_volume 3336.391745
_symmetry_space_group_name_H-M "C 2/M"
_symmetry_group_IT_number 12
_symmetry_cell_setting 'monoclinic'
loop_
_space_group_symop_operation_xyz
x,y,z
-x,y,-z
-x,-y,-z
x,-y,z
1/2+x,1/2+y,z
1/2-x,1/2+y,-z
1/2-x,1/2-y,-z
1/2+x,1/2-y,z
loop_
_atom_site_type_symbol
_atom_site_label
_atom_site_fract_x
_atom_site_fract_y
_atom_site_fract_z
Si Si1 0.830115 0.112703 0.048049
Si Si2 0.656346 0.892606 0.585230
Si Si3 0.078441 0.787680 0.528497
Si Si4 0.602142 0.292818 0.290076
Si Si5 0.481287 0.391904 0.117890
Si Si6 0.281999 0.613288 0.788808
Si Si7 0.191962 0.887719 0.719424
Si Si8 0.322587 0.107870 0.656563
O O1 0.906553 0.150721 0.091129
O O2 0.794079 0.141815 0.144409
O O3 0.833625 0.000000 0.034785
O O4 0.790353 0.154060 0.919260
O O5 0.590593 0.825666 0.554046
O O6 0.711029 0.849961 0.701411
O O7 0.691250 0.890764 0.482517
O O8 0.633538 0.000000 0.604272
O O9 0.105329 0.818706 0.421944
O O10 0.121220 0.845000 0.641773
O O11 0.000000 0.811339 0.500000
O O12 0.528041 0.317472 0.207701
O O13 0.656215 0.356054 0.254950
O O14 0.616648 0.179636 0.279281
O O15 0.488034 0.500000 0.170384
O O16 0.500000 0.393592 0.000000
O O17 0.281087 0.500000 0.785834
O O18 0.255339 0.852079 0.680667
O O19 0.184148 0.000000 0.703774
O O20 0.340866 0.000000 0.706246
#
# Coordination Sequence:
#
# PCOD8082368 Si02
#       8
#     8   8   8   8   8   8   8   8
#     4   9  18  32  51  77 109 141 169 204 253 311
#     4   9  19  36  57  78 100 130 175 225 262 297
#     4  11  23  36  51  76 109 138 173 211 255 318
#     4  11  20  32  55  78 103 139 171 216 257 302
#     4  10  18  31  51  78 109 135 166 206 252 308
#     4  10  18  31  55  84 105 128 172 219 258 303
#     4  10  20  35  53  75 111 144 167 205 262 317
#     4   9  19  36  55  76 101 136 177 215 259 308
#
# _framework density 19.182400000000001
#
# number of rings (size 3 to 8) (size 9 to 14) (size 15 to 20)
#    0.000    2.125    1.250    2.625    0.000    4.500 
#    0.000    2.500    0.000    0.375    0.000    0.000 
#    0.000    0.000    0.000    0.000    0.000    0.000 
#
# Total GULP energy -396747.131984 kJ/mol
# GULP energy per Si atom -12398.347874 kJ/mol
# Density = 1.913874 g / cm^3
# Si number density = 19.182400 Si / 1000 Ang^3
#
#
#
# Elastic Constant Matrix: (Units=GPa)
#
#
# Indices 1 2 3 4 5 6 
#
# 1 62.7790 23.8620 32.6256 0.0000 0.9635 0.0000
# 2 23.8620 44.7424 34.0422 0.0000 8.2303 0.0000
# 3 32.6256 34.0422 108.6728 0.0000 5.6747 0.0000
# 4 0.0000 0.0000 0.0000 23.2819 0.0000 9.2298
# 5 0.9635 8.2303 5.6747 0.0000 30.5470 0.0000
# 6 0.0000 0.0000 0.0000 9.2298 0.0000 28.4626
#
#
#
# Elastic Compliance Matrix: (Units=1/GPa)
#
#
# Indices 1 2 3 4 5 6 
#
# 1 0.021212 -0.008951 -0.003691 0.000000 0.002428 0.000000
# 2 -0.008951 0.034356 -0.007681 0.000000 -0.007548 0.000000
# 3 -0.003691 -0.007681 0.012725 0.000000 -0.000178 0.000000
# 4 0.000000 0.000000 0.000000 0.049288 0.000000 -0.015983
# 5 0.002428 -0.007548 -0.000178 0.000000 0.034727 0.000000
# 6 0.000000 0.000000 0.000000 -0.015983 0.000000 0.040317
#
#
# Mechanical properties :
#
#
# Convention : Reuss Voigt Hill
#
# Bulk Modulus (GPa) = 36.16938 44.13930 40.15434
# Shear Modulus (GPa) = 20.61961 24.83591 22.72776
#
# Velocity S-wave (km/s) = 3.28216 3.60213 3.44586
# Velocity P-wave (km/s) = 5.76714 6.35301 6.06715
#
# Compressibility (1/GPa) = 0.02764769
#
# Stress axis : x y z
#
# Youngs Moduli (GPa) = 47.14275 29.10668 78.58280
#
# Poissons Ratio (x) = 0.26054 0.29006
# Poissons Ratio (y) = 0.42198 0.60358
# Poissons Ratio (z) = 0.17401 0.22356
#
# Static dielectric constant tensor:
#      x y z
#    x 3.414630 0.000000 -0.032020 
#    y 0.000000 3.480090 0.000000 
#    z -0.032020 0.000000 3.789150 
# 
# 
# High freq. dielectric constant tensor:
#      x y z
#    x 1.731650 0.000000 -0.007340 
#    y 0.000000 1.736960 0.000000 
#    z -0.007340 0.000000 1.750280 
# 
# From -- ./inp_files/167237.got.cif
#   From: 2010.06.25/outbox.cif.g09.slc.cpg/sg12_84_cif.got.tgz:167237.got - 2010.06.28 00:19:55.
