data_PCOD8082252
_publ_section_title
;
Structure prediction by ZEFSAII (Michael W. Deem and Ramdas Pophale) SiO2 
 PCOD8082252
Probable space group: C 2/M
;
_chemical_formula_sum "Si O2"
_cell_formula_units_Z 64
_cell_length_a 18.774464
_cell_length_b 18.361298
_cell_length_c 11.753199
_cell_angle_alpha 90.000000
_cell_angle_beta 117.713909
_cell_angle_gamma 90.000000
_cell_volume 3586.807252
_symmetry_space_group_name_H-M "C 2/M"
_symmetry_group_IT_number 12
_symmetry_cell_setting 'monoclinic'
loop_
_space_group_symop_operation_xyz
x,y,z
-x,y,-z
-x,-y,-z
x,-y,z
1/2+x,1/2+y,z
1/2-x,1/2+y,-z
1/2-x,1/2-y,-z
1/2+x,1/2-y,z
loop_
_atom_site_type_symbol
_atom_site_label
_atom_site_fract_x
_atom_site_fract_y
_atom_site_fract_z
Si Si1 0.588641 0.696838 0.101287
Si Si2 0.396242 0.416851 0.257214
Si Si3 0.567849 0.584067 0.284138
Si Si4 0.794688 0.173072 0.015572
Si Si5 0.183833 0.082818 0.570844
Si Si6 0.013879 0.580039 0.144938
Si Si7 0.341151 0.914215 0.024532
Si Si8 0.666070 0.158860 0.225203
O O1 0.574905 0.629725 0.174474
O O2 0.635812 0.669770 0.025691
O O3 0.647894 0.755643 0.202069
O O4 0.500000 0.728575 0.000000
O O5 0.375798 0.500000 0.201562
O O6 0.486891 0.396004 0.291756
O O7 0.385208 0.410803 0.384544
O O8 0.335576 0.357273 0.160389
O O9 0.567761 0.500000 0.247611
O O10 0.643250 0.602056 0.420758
O O11 0.723155 0.115852 0.932027
O O12 0.750000 0.250000 0.000000
O O13 0.255310 0.141006 0.642509
O O14 0.218432 0.000000 0.596234
O O15 0.033766 0.500000 0.205475
O O16 0.088366 0.629381 0.235761
O O17 0.929738 0.608155 0.136417
O O18 0.000000 0.579101 0.000000
O O19 0.334285 0.000000 0.001657
O O20 0.323294 0.877003 0.890087
#
# Coordination Sequence:
#
# PCOD8082252 Si02
#       8
#     8   8   8   8   8   8   8   8
#     4  12  24  38  54  77 115 155 183 219 276 337
#     4  10  19  35  58  81 108 143 186 236 280 322
#     4  10  23  39  56  79 109 149 194 231 272 332
#     4  12  22  34  52  80 112 147 183 223 274 335
#     4  10  19  35  59  86 111 139 183 238 284 323
#     4   8  15  26  45  73 105 132 163 214 275 325
#     4  10  18  31  50  76 106 138 179 226 273 324
#     4  11  19  31  53  80 108 140 175 225 282 336
#
# _framework density 17.843166
#
# number of rings (size 3 to 8) (size 9 to 14) (size 15 to 20)
#    0.000    1.625    3.750    3.750    0.000    3.250 
#    0.000    0.000    0.000    0.000    0.000    0.875 
#    0.000    4.000    0.000    0.000    0.000    0.000 
#
# Total GULP energy -396593.365982 kJ/mol
# GULP energy per Si atom -12393.542687 kJ/mol
# Density = 1.780255 g / cm^3
# Si number density = 17.843166 Si / 1000 Ang^3
#
#
#
# Elastic Constant Matrix: (Units=GPa)
#
#
# Indices 1 2 3 4 5 6 
#
# 1 113.2154 33.9226 22.9254 0.0000 12.4208 0.0000
# 2 33.9226 76.4668 30.4346 0.0000 10.3992 0.0000
# 3 22.9254 30.4346 52.4976 0.0000 8.7432 0.0000
# 4 0.0000 0.0000 0.0000 21.7988 0.0000 4.0700
# 5 12.4208 10.3992 8.7432 0.0000 22.6716 0.0000
# 6 0.0000 0.0000 0.0000 4.0700 0.0000 31.3800
#
#
#
# Elastic Compliance Matrix: (Units=1/GPa)
#
#
# Indices 1 2 3 4 5 6 
#
# 1 0.010663 -0.003426 -0.002093 0.000000 -0.003463 0.000000
# 2 -0.003426 0.018497 -0.008685 0.000000 -0.003258 0.000000
# 3 -0.002093 -0.008685 0.025800 0.000000 -0.004819 0.000000
# 4 0.000000 0.000000 0.000000 0.047013 0.000000 -0.006098
# 5 -0.003463 -0.003258 -0.004819 0.000000 0.049358 0.000000
# 6 0.000000 0.000000 0.000000 -0.006098 0.000000 0.032658
#
#
# Mechanical properties :
#
#
# Convention : Reuss Voigt Hill
#
# Bulk Modulus (GPa) = 37.66224 46.30499 41.98362
# Shear Modulus (GPa) = 22.59898 25.49656 24.04777
#
# Velocity S-wave (km/s) = 3.56270 3.78421 3.67513
# Velocity P-wave (km/s) = 6.17066 6.71574 6.44896
#
# Compressibility (1/GPa) = 0.02655179
#
# Stress axis : x y z
#
# Youngs Moduli (GPa) = 93.78081 54.06215 38.75956
#
# Poissons Ratio (x) = 0.18523 0.08114
# Poissons Ratio (y) = 0.32132 0.33661
# Poissons Ratio (z) = 0.19633 0.46951
#
# Static dielectric constant tensor:
#      x y z
#    x 3.789900 0.000000 0.241950 
#    y 0.000000 3.323440 0.000000 
#    z 0.241950 0.000000 2.920840 
# 
# 
# High freq. dielectric constant tensor:
#      x y z
#    x 1.708770 0.000000 0.024230 
#    y 0.000000 1.688940 0.000000 
#    z 0.024230 0.000000 1.641970 
# 
# From -- ./inp_files/168495.got.cif
#   From: 2010.06.25/outbox.cif.g09.slc.cpg/sg12_85_cif.got.tgz:168495.got - 2010.06.28 00:19:55.
