data_PCOD8082758
_publ_section_title
;
Structure prediction by ZEFSAII (Michael W. Deem and Ramdas Pophale) SiO2 
 PCOD8082758
Probable space group: C 2/M
;
_chemical_formula_sum "Si O2"
_cell_formula_units_Z 40
_cell_length_a 26.392807
_cell_length_b 16.390198
_cell_length_c 9.581850
_cell_angle_alpha 90.000000
_cell_angle_beta 150.636795
_cell_angle_gamma 90.000000
_cell_volume 2032.451359
_symmetry_space_group_name_H-M "C 2/M"
_symmetry_group_IT_number 12
_symmetry_cell_setting 'monoclinic'
loop_
_space_group_symop_operation_xyz
x,y,z
-x,y,-z
-x,-y,-z
x,-y,z
1/2+x,1/2+y,z
1/2-x,1/2+y,-z
1/2-x,1/2-y,-z
1/2+x,1/2-y,z
loop_
_atom_site_type_symbol
_atom_site_label
_atom_site_fract_x
_atom_site_fract_y
_atom_site_fract_z
Si Si1 0.172808 0.596887 0.655303
Si Si2 0.936450 0.596093 0.093280
Si Si3 0.224536 0.659806 0.489134
Si Si4 0.109245 0.093596 0.300869
Si Si5 0.766320 0.596906 0.897611
O O1 0.182483 0.500000 0.649592
O O2 0.223897 0.649248 0.654329
O O3 0.054285 0.623471 0.392332
O O4 0.233485 0.624269 0.940981
O O5 0.929070 0.500000 0.058679
O O6 0.888426 0.635029 0.838082
O O7 0.870654 0.626637 0.069481
O O8 0.250000 0.750000 0.500000
O O9 0.312519 0.600033 0.640751
O O10 0.165025 0.132271 0.572811
O O11 0.085303 0.000000 0.275785
O O12 0.000000 0.137678 0.000000
O O13 0.764569 0.500000 0.884695
#
# Coordination Sequence:
#
# PCOD8082758 Si02
#       5
#     8   8   8   8   8
#     4  10  18  31  55  82 104 127 163 215 263 302
#     4   9  17  32  54  78 103 130 162 205 261 314
#     4  11  22  33  47  72 104 138 171 207 249 301
#     4   9  18  35  55  70  93 135 178 211 247 295
#     4   8  15  29  52  82 106 125 160 210 260 305
#
# _framework density 19.680668000000001
#
# number of rings (size 3 to 8) (size 9 to 14) (size 15 to 20)
#    0.000    2.600    0.000    4.200    0.000    5.600 
#    0.000    5.000    0.000    9.600    0.000    0.000 
#    0.000    0.000    0.000    0.000    0.000    0.400 
#
# Total GULP energy -247877.947905 kJ/mol
# GULP energy per Si atom -12393.897395 kJ/mol
# Density = 1.963587 g / cm^3
# Si number density = 19.680668 Si / 1000 Ang^3
#
#
#
# Elastic Constant Matrix: (Units=GPa)
#
#
# Indices 1 2 3 4 5 6 
#
# 1 126.3314 22.6010 91.9559 0.0000 -31.2192 0.0000
# 2 22.6010 24.1456 23.0276 0.0000 0.3906 0.0000
# 3 91.9559 23.0276 175.8779 0.0000 -8.8414 0.0000
# 4 0.0000 0.0000 0.0000 5.3206 0.0000 -0.8904
# 5 -31.2192 0.3906 -8.8414 0.0000 34.3841 0.0000
# 6 0.0000 0.0000 0.0000 -0.8904 0.0000 20.2447
#
#
#
# Elastic Compliance Matrix: (Units=1/GPa)
#
#
# Indices 1 2 3 4 5 6 
#
# 1 0.019674 -0.011000 -0.008046 0.000000 0.015919 0.000000
# 2 -0.011000 0.053633 -0.001827 0.000000 -0.011066 0.000000
# 3 -0.008046 -0.001827 0.009893 0.000000 -0.004741 0.000000
# 4 0.000000 0.000000 0.000000 0.189344 0.000000 0.008328
# 5 0.015919 -0.011066 -0.004741 0.000000 0.042444 0.000000
# 6 0.000000 0.000000 0.000000 0.008328 0.000000 0.049762
#
#
# Mechanical properties :
#
#
# Convention : Reuss Voigt Hill
#
# Bulk Modulus (GPa) = 24.12269 66.83600 45.47934
# Shear Modulus (GPa) = 11.89584 24.57457 18.23520
#
# Velocity S-wave (km/s) = 2.46121 3.53748 3.04724
# Velocity P-wave (km/s) = 4.51225 7.12172 5.96152
#
# Compressibility (1/GPa) = 0.04145475
#
# Stress axis : x y z
#
# Youngs Moduli (GPa) = 50.82802 18.64513 101.07676
#
# Poissons Ratio (x) = 0.20509 0.81326
# Poissons Ratio (y) = 0.55909 0.18471
# Poissons Ratio (z) = 0.40896 0.03407
#
# Static dielectric constant tensor:
#      x y z
#    x 3.698660 0.000000 -0.060410 
#    y 0.000000 3.130390 0.000000 
#    z -0.060410 0.000000 4.015400 
# 
# 
# High freq. dielectric constant tensor:
#      x y z
#    x 1.758120 0.000000 -0.006420 
#    y 0.000000 1.724750 0.000000 
#    z -0.006420 0.000000 1.774010 
# 
# From -- ./inp_files/46938.got.cif
#   From: 2010.06.25/outbox.cif.g09.slc.cpg/sg12_24_cif.got.tgz:46938.got - 2010.06.28 00:19:55.
