data_PCOD8082992
_publ_section_title
;
Structure prediction by ZEFSAII (Michael W. Deem and Ramdas Pophale) SiO2 
 PCOD8082992
Probable space group: C 2/M
;
_chemical_formula_sum "Si O2"
_cell_formula_units_Z 64
_cell_length_a 13.361863
_cell_length_b 13.754685
_cell_length_c 28.569437
_cell_angle_alpha 90.000000
_cell_angle_beta 40.771915
_cell_angle_gamma 90.000000
_cell_volume 3428.983723
_symmetry_space_group_name_H-M "C 2/M"
_symmetry_group_IT_number 12
_symmetry_cell_setting 'monoclinic'
loop_
_space_group_symop_operation_xyz
x,y,z
-x,y,-z
-x,-y,-z
x,-y,z
1/2+x,1/2+y,z
1/2-x,1/2+y,-z
1/2-x,1/2-y,-z
1/2+x,1/2-y,z
loop_
_atom_site_type_symbol
_atom_site_label
_atom_site_fract_x
_atom_site_fract_y
_atom_site_fract_z
Si Si1 0.533261 0.800033 0.782098
Si Si2 0.758970 0.885404 0.075058
Si Si3 0.021276 0.608556 0.373521
Si Si4 0.596590 0.745499 0.420939
Si Si5 0.634581 0.390588 0.780722
Si Si6 0.360817 0.616052 0.681382
Si Si7 0.936607 0.256724 0.328527
Si Si8 0.526744 0.385556 0.918732
O O1 0.401435 0.830273 0.864866
O O2 0.557966 0.683227 0.771762
O O3 0.681551 0.857372 0.748817
O O4 0.492024 0.815781 0.741715
O O5 0.861582 0.844358 0.081111
O O6 0.728367 0.000000 0.090004
O O7 0.849385 0.859748 0.994701
O O8 0.962457 0.500000 0.402105
O O9 0.024043 0.658695 0.423097
O O10 0.183475 0.613933 0.289122
O O11 0.906055 0.664378 0.380060
O O12 0.500000 0.714230 0.500000
O O13 0.586483 0.655790 0.388036
O O14 0.768034 0.778797 0.373565
O O15 0.573323 0.500000 0.793759
O O16 0.580905 0.346443 0.849597
O O17 0.385967 0.500000 0.675792
O O18 0.456647 0.669000 0.689244
O O19 0.546464 0.500000 0.911995
#
# Coordination Sequence:
#
# PCOD8082992 Si02
#       8
#     8   8   8   8   8   8   8   8
#     4  11  20  33  55  81 108 142 185 224 270 321
#     4   9  17  29  49  77 107 139 176 225 277 319
#     4  10  20  36  57  83 107 139 184 226 264 316
#     4  10  22  40  58  81 113 143 177 220 265 322
#     4  10  18  32  52  75 105 137 179 226 265 313
#     4  10  22  38  55  82 112 142 180 221 269 325
#     4  10  20  37  55  80 107 145 175 223 267 317
#     4   8  16  30  48  74 105 137 178 227 273 317
#
# _framework density 18.664421000000001
#
# number of rings (size 3 to 8) (size 9 to 14) (size 15 to 20)
#    0.000    2.250    3.750    1.875    0.000    7.500 
#    0.000    1.250    0.000    0.000    0.000    1.750 
#    0.000    0.000    0.000    0.000    0.000    0.000 
#
# Total GULP energy -396501.403779 kJ/mol
# GULP energy per Si atom -12390.668868 kJ/mol
# Density = 1.862194 g / cm^3
# Si number density = 18.664421 Si / 1000 Ang^3
#
#
#
# Elastic Constant Matrix: (Units=GPa)
#
#
# Indices 1 2 3 4 5 6 
#
# 1 66.4608 13.9552 -4.6030 0.0000 -0.6421 0.0000
# 2 13.9552 86.4856 -14.0882 0.0000 -4.2955 0.0000
# 3 -4.6030 -14.0882 67.6967 0.0001 4.7580 0.0000
# 4 0.0000 0.0000 0.0001 22.9133 0.0000 -0.2804
# 5 -0.6421 -4.2955 4.7580 0.0000 17.7482 0.0000
# 6 0.0000 0.0000 0.0000 -0.2804 0.0000 15.4129
#
#
#
# Elastic Compliance Matrix: (Units=1/GPa)
#
#
# Indices 1 2 3 4 5 6 
#
# 1 0.015595 -0.002433 0.000566 0.000000 -0.000177 0.000000
# 2 -0.002433 0.012438 0.002260 0.000000 0.002316 0.000000
# 3 0.000566 0.002260 0.015533 0.000000 -0.003597 0.000000
# 4 0.000000 0.000000 0.000000 0.043652 0.000000 0.000794
# 5 -0.000177 0.002316 -0.003597 0.000000 0.057862 0.000000
# 6 0.000000 0.000000 0.000000 0.000794 0.000000 0.064895
#
#
# Mechanical properties :
#
#
# Convention : Reuss Voigt Hill
#
# Bulk Modulus (GPa) = 22.54562 23.46348 23.00455
# Shear Modulus (GPa) = 22.32404 26.24014 24.28209
#
# Velocity S-wave (km/s) = 3.46218 3.75359 3.61083
# Velocity P-wave (km/s) = 5.29981 5.60218 5.45309
#
# Compressibility (1/GPa) = 0.04435452
#
# Stress axis : x y z
#
# Youngs Moduli (GPa) = 64.12381 80.39606 64.37713
#
# Poissons Ratio (x) = 0.19559 -0.03647
# Poissons Ratio (y) = 0.15600 -0.14551
# Poissons Ratio (z) = -0.03632 -0.18172
#
# Static dielectric constant tensor:
#      x y z
#    x 3.475930 0.000000 0.246640 
#    y 0.000000 3.335900 0.000000 
#    z 0.246640 0.000000 3.582450 
# 
# 
# High freq. dielectric constant tensor:
#      x y z
#    x 1.715340 0.000000 0.008560 
#    y 0.000000 1.706470 0.000000 
#    z 0.008560 0.000000 1.725240 
# 
# From -- ./inp_files/358398.got.cif
#   From: 2010.06.25/outbox.cif.g09.slc.cpg/sg12_180_cif.got.tgz:358398.got - 2010.06.28 00:19:55.
