data_PCOD8082902
_publ_section_title
;
Structure prediction by ZEFSAII (Michael W. Deem and Ramdas Pophale) SiO2 
 PCOD8082902
Probable space group: C 2/M
;
_chemical_formula_sum "Si O2"
_cell_formula_units_Z 56
_cell_length_a 13.506933
_cell_length_b 9.900416
_cell_length_c 22.723245
_cell_angle_alpha 90.000000
_cell_angle_beta 90.000022
_cell_angle_gamma 90.000000
_cell_volume 3038.649022
_symmetry_space_group_name_H-M "C 2/M"
_symmetry_group_IT_number 12
_symmetry_cell_setting 'monoclinic'
loop_
_space_group_symop_operation_xyz
x,y,z
-x,y,-z
-x,-y,-z
x,-y,z
1/2+x,1/2+y,z
1/2-x,1/2+y,-z
1/2-x,1/2-y,-z
1/2+x,1/2-y,z
loop_
_atom_site_type_symbol
_atom_site_label
_atom_site_fract_x
_atom_site_fract_y
_atom_site_fract_z
Si Si1 0.870766 0.843959 0.850852
Si Si2 0.007272 0.340468 0.068387
Si Si3 0.129234 0.343959 0.350852
Si Si4 0.507272 0.340468 0.431613
Si Si5 0.152587 0.651509 0.843914
Si Si6 0.347413 0.651510 0.343914
Si Si7 0.991005 0.750000 0.250000
O O1 0.904684 0.747602 0.904042
O O2 0.761378 0.784209 0.834560
O O3 0.940273 0.835976 0.793479
O O4 0.871346 0.000000 0.871622
O O5 0.026527 0.500000 0.080432
O O6 0.906072 0.288545 0.099718
O O7 0.000000 0.308004 0.000000
O O8 0.128654 0.500000 0.371623
O O9 0.095316 0.247602 0.404042
O O10 0.238622 0.284209 0.334560
O O11 0.059727 0.335977 0.293479
O O12 0.500000 0.308004 0.500000
O O13 0.526527 0.500000 0.419568
O O14 0.406071 0.288546 0.400282
O O15 0.177335 0.500000 0.859691
O O16 0.082333 0.654633 0.786851
O O17 0.322664 0.500000 0.359690
O O18 0.417667 0.654634 0.286851
#
# Coordination Sequence:
#
# PCOD8082902 Si02
#       7
#     8   8   8   8   8   8   8
#     4  10  20  33  52  77 101 129 167 210 250 289
#     4   9  19  36  54  72 100 137 170 203 251 306
#     4  10  20  33  52  77 101 129 167 210 250 289
#     4   9  19  36  54  72 100 137 170 203 251 306
#     4   9  18  32  49  71 100 131 164 205 250 297
#     4   9  18  32  49  71 100 131 164 205 250 297
#     4  10  18  32  50  72 102 134 164 198 248 308
#
# _framework density 18.429243
#
# number of rings (size 3 to 8) (size 9 to 14) (size 15 to 20)
#    0.000    2.571    0.000    1.714    0.000    2.857 
#    0.000    7.143    0.000    0.000    0.000    0.000 
#    0.000    0.000    0.000    0.000    0.000    0.000 
#
# Total GULP energy -346906.278935 kJ/mol
# GULP energy per Si atom -12389.509962 kJ/mol
# Density = 1.838730 g / cm^3
# Si number density = 18.429243 Si / 1000 Ang^3
#
#
#
# Elastic Constant Matrix: (Units=GPa)
#
#
# Indices 1 2 3 4 5 6 
#
# 1 168.2713 35.9224 72.6488 0.0000 0.0000 0.0000
# 2 35.9224 56.9991 32.0228 0.0000 0.0000 0.0000
# 3 72.6488 32.0228 140.1751 0.0000 0.0000 0.0000
# 4 0.0000 0.0000 0.0000 27.5336 0.0000 0.0000
# 5 0.0000 0.0000 0.0000 0.0000 14.7927 0.0000
# 6 0.0000 0.0000 0.0000 0.0000 0.0000 22.8974
#
#
#
# Elastic Compliance Matrix: (Units=1/GPa)
#
#
# Indices 1 2 3 4 5 6 
#
# 1 0.008123 -0.003160 -0.003488 0.000000 0.000000 0.000000
# 2 -0.003160 0.021357 -0.003241 0.000000 0.000000 0.000000
# 3 -0.003488 -0.003241 0.009682 0.000000 0.000000 0.000000
# 4 0.000000 0.000000 0.000000 0.036319 0.000000 0.000000
# 5 0.000000 0.000000 0.000000 0.000000 0.067601 0.000000
# 6 0.000000 0.000000 0.000000 0.000000 0.000000 0.043673
#
#
# Mechanical properties :
#
#
# Convention : Reuss Voigt Hill
#
# Bulk Modulus (GPa) = 51.59019 71.84817 61.71918
# Shear Modulus (GPa) = 23.47473 28.03484 25.75479
#
# Velocity S-wave (km/s) = 3.57287 3.90451 3.74236
# Velocity P-wave (km/s) = 6.71379 7.70698 7.22746
#
# Compressibility (1/GPa) = 0.01938353
#
# Stress axis : x y z
#
# Youngs Moduli (GPa) = 123.10211 46.82410 103.28186
#
# Poissons Ratio (x) = 0.14796 0.36027
# Poissons Ratio (y) = 0.38898 0.33476
# Poissons Ratio (z) = 0.42941 0.15177
#
# Static dielectric constant tensor:
#      x y z
#    x 3.876470 0.000000 0.000000 
#    y 0.000000 3.129850 0.000000 
#    z 0.000000 0.000000 3.332130 
# 
# 
# High freq. dielectric constant tensor:
#      x y z
#    x 1.730190 0.000000 0.000000 
#    y 0.000000 1.691620 0.000000 
#    z 0.000000 0.000000 1.710910 
# 
# From -- ./inp_files/304181.got.cif
#   From: 2010.06.25/outbox.cif.g09.slc.cpg/sg12_153_cif.got.tgz:304181.got - 2010.06.28 00:19:55.
