data_PCOD8082476
_publ_section_title
;
Structure prediction by ZEFSAII (Michael W. Deem and Ramdas Pophale) SiO2 
 PCOD8082476
Probable space group: C 2/M
;
_chemical_formula_sum "Si O2"
_cell_formula_units_Z 56
_cell_length_a 25.211741
_cell_length_b 8.728745
_cell_length_c 25.612322
_cell_angle_alpha 90.000000
_cell_angle_beta 34.516165
_cell_angle_gamma 90.000000
_cell_volume 3193.815687
_symmetry_space_group_name_H-M "C 2/M"
_symmetry_group_IT_number 12
_symmetry_cell_setting 'monoclinic'
loop_
_space_group_symop_operation_xyz
x,y,z
-x,y,-z
-x,-y,-z
x,-y,z
1/2+x,1/2+y,z
1/2-x,1/2+y,-z
1/2-x,1/2-y,-z
1/2+x,1/2-y,z
loop_
_atom_site_type_symbol
_atom_site_label
_atom_site_fract_x
_atom_site_fract_y
_atom_site_fract_z
Si Si1 0.842736 0.181968 0.708167
Si Si2 0.126523 0.179674 0.721951
Si Si3 0.478932 0.818482 0.100973
Si Si4 0.037138 0.822795 0.593634
Si Si5 0.850300 0.320195 0.406337
Si Si6 0.688725 0.676739 0.382941
Si Si7 0.642628 0.181308 0.897755
O O1 0.839445 0.239690 0.651132
O O2 0.749567 0.241166 0.814119
O O3 0.934288 0.243858 0.663522
O O4 0.848033 0.000000 0.703138
O O5 0.042717 0.232477 0.827777
O O6 0.109345 0.259741 0.680673
O O7 0.226913 0.223884 0.663400
O O8 0.122028 0.000000 0.717150
O O9 0.402896 0.764095 0.119794
O O10 0.474902 0.000000 0.113522
O O11 0.581466 0.764093 0.997122
O O12 0.076172 0.721229 0.608632
O O13 0.099089 0.803266 0.491927
O O14 0.034415 0.000000 0.613461
O O15 0.836673 0.500000 0.413938
O O16 0.750000 0.250000 0.500000
O O17 0.722115 0.500000 0.353359
O O18 0.639922 0.000000 0.899100
#
# Coordination Sequence:
#
# PCOD8082476 Si02
#       7
#     8   8   8   8   8   8   8
#     4   9  16  29  52  82 111 142 179 212 252 312
#     4  12  23  34  52  78 108 139 174 220 269 312
#     4   9  16  30  52  78 106 138 178 218 260 310
#     4  10  20  33  53  80 109 142 179 216 255 308
#     4  12  24  39  57  76 102 137 178 222 264 310
#     4  10  18  31  52  77 109 145 178 210 252 309
#     4   8  14  26  51  81 107 138 176 216 255 309
#
# _framework density 17.533885999999999
#
# number of rings (size 3 to 8) (size 9 to 14) (size 15 to 20)
#    0.000    2.000    2.857    3.857    0.000    1.714 
#    0.000    2.143    0.000    2.571    0.000    0.000 
#    0.000    0.000    0.000    0.000    0.000    0.000 
#
# Total GULP energy -347164.286552 kJ/mol
# GULP energy per Si atom -12398.724520 kJ/mol
# Density = 1.749398 g / cm^3
# Si number density = 17.533886 Si / 1000 Ang^3
#
#
#
# Elastic Constant Matrix: (Units=GPa)
#
#
# Indices 1 2 3 4 5 6 
#
# 1 107.4641 34.9095 64.6090 -0.0035 -5.3237 0.0008
# 2 34.9095 79.6896 39.3610 -0.0090 5.0010 0.0043
# 3 64.6090 39.3610 141.3083 -0.0003 0.7437 0.0005
# 4 -0.0035 -0.0090 -0.0003 18.8432 0.0030 2.9915
# 5 -5.3237 5.0010 0.7437 0.0030 25.5703 -0.0007
# 6 0.0008 0.0043 0.0005 2.9915 -0.0007 22.6312
#
#
#
# Elastic Compliance Matrix: (Units=1/GPa)
#
#
# Indices 1 2 3 4 5 6 
#
# 1 0.013907 -0.003686 -0.005352 0.000000 0.003772 0.000000
# 2 -0.003686 0.015720 -0.002674 0.000008 -0.003764 -0.000004
# 3 -0.005352 -0.002674 0.010273 -0.000002 -0.000890 0.000001
# 4 0.000000 0.000008 -0.000002 0.054207 -0.000008 -0.007165
# 5 0.003772 -0.003764 -0.000890 -0.000008 0.040655 0.000003
# 6 0.000000 -0.000004 0.000001 -0.007165 0.000003 0.045134
#
#
# Mechanical properties :
#
#
# Convention : Reuss Voigt Hill
#
# Bulk Modulus (GPa) = 60.68745 67.35791 64.02268
# Shear Modulus (GPa) = 23.94496 26.04776 24.99636
#
# Velocity S-wave (km/s) = 3.69946 3.85849 3.77981
# Velocity P-wave (km/s) = 7.27562 7.63870 7.45937
#
# Compressibility (1/GPa) = 0.01647787
#
# Stress axis : x y z
#
# Youngs Moduli (GPa) = 71.90537 63.61262 97.34065
#
# Poissons Ratio (x) = 0.23445 0.52096
# Poissons Ratio (y) = 0.26501 0.26028
# Poissons Ratio (z) = 0.38483 0.17009
#
# Static dielectric constant tensor:
#      x y z
#    x 3.283370 0.000000 -0.057090 
#    y 0.000000 2.964960 0.000000 
#    z -0.057090 0.000000 3.641300 
# 
# 
# High freq. dielectric constant tensor:
#      x y z
#    x 1.659740 0.000000 0.003000 
#    y 0.000000 1.648020 0.000000 
#    z 0.003000 0.000000 1.688520 
# 
# From -- ./inp_files/348460.got.cif
#   From: 2010.06.25/outbox.cif.g09.slc.cpg/sg12_175_cif.got.tgz:348460.got - 2010.06.28 00:19:55.
