data_PCOD8082719
_publ_section_title
;
Structure prediction by ZEFSAII (Michael W. Deem and Ramdas Pophale) SiO2 
 PCOD8082719
Probable space group: C 2/M
;
_chemical_formula_sum "Si O2"
_cell_formula_units_Z 48
_cell_length_a 15.472988
_cell_length_b 8.993062
_cell_length_c 29.166661
_cell_angle_alpha 90.000000
_cell_angle_beta 143.692714
_cell_angle_gamma 90.000000
_cell_volume 2403.117672
_symmetry_space_group_name_H-M "C 2/M"
_symmetry_group_IT_number 12
_symmetry_cell_setting 'monoclinic'
loop_
_space_group_symop_operation_xyz
x,y,z
-x,y,-z
-x,-y,-z
x,-y,z
1/2+x,1/2+y,z
1/2-x,1/2+y,-z
1/2-x,1/2-y,-z
1/2+x,1/2-y,z
loop_
_atom_site_type_symbol
_atom_site_label
_atom_site_fract_x
_atom_site_fract_y
_atom_site_fract_z
Si Si1 0.621887 0.324205 0.087270
Si Si2 0.398857 0.824751 0.330149
Si Si3 0.885556 0.328954 0.819472
Si Si4 0.844303 0.670417 0.503156
Si Si5 0.907125 0.825897 0.664249
Si Si6 0.558735 0.829096 0.806954
O O1 0.614390 0.500000 0.089450
O O2 0.588010 0.255099 0.121979
O O3 0.778662 0.272408 0.135049
O O4 0.500000 0.265733 0.000000
O O5 0.247351 0.738871 0.266411
O O6 0.485094 0.787495 0.415256
O O7 0.491926 0.768448 0.326696
O O8 0.369178 0.000000 0.311558
O O9 0.851970 0.500000 0.816075
O O10 0.028448 0.311103 0.848343
O O11 0.828960 0.500000 0.509125
O O12 0.750000 0.750000 0.500000
O O13 0.767529 0.702110 0.420989
O O14 0.940518 0.770586 0.729531
O O15 0.944836 0.000000 0.675609
O O16 0.539334 0.000000 0.783624
#
# Coordination Sequence:
#
# PCOD8082719 Si02
#       6
#     8   8   8   8   8   8
#     4  10  22  42  66  88 113 149 188 230 287 351
#     4  10  18  32  54  79 113 155 193 236 289 336
#     4  11  23  38  58  87 119 152 192 237 281 334
#     4   8  16  28  46  76 110 146 191 238 282 330
#     4  10  18  31  54  83 113 149 195 240 282 337
#     4  10  22  39  58  84 120 155 187 232 288 340
#
# _framework density 19.974052
#
# number of rings (size 3 to 8) (size 9 to 14) (size 15 to 20)
#    0.000    2.167    1.667    1.500    0.000    3.667 
#    0.000    0.833    0.000    5.000    0.000    0.000 
#    0.000    0.000    0.000    0.000    0.000    0.000 
#
# Total GULP energy -297385.442347 kJ/mol
# GULP energy per Si atom -12391.060098 kJ/mol
# Density = 1.992859 g / cm^3
# Si number density = 19.974052 Si / 1000 Ang^3
#
#
#
# Elastic Constant Matrix: (Units=GPa)
#
#
# Indices 1 2 3 4 5 6 
#
# 1 82.4335 17.8985 48.5622 0.0000 -12.4635 0.0000
# 2 17.8985 39.6491 38.8846 0.0000 -2.5845 0.0001
# 3 48.5622 38.8846 163.7317 0.0000 -6.8904 0.0000
# 4 0.0000 0.0000 0.0000 28.0504 0.0000 -4.4747
# 5 -12.4635 -2.5845 -6.8904 0.0000 9.1105 0.0000
# 6 0.0000 0.0001 0.0000 -4.4747 0.0000 23.0731
#
#
#
# Elastic Compliance Matrix: (Units=1/GPa)
#
#
# Indices 1 2 3 4 5 6 
#
# 1 0.018244 -0.003157 -0.003769 0.000000 0.021212 0.000000
# 2 -0.003157 0.033536 -0.007033 0.000000 -0.000125 0.000000
# 3 -0.003769 -0.007033 0.008877 0.000000 -0.000437 0.000000
# 4 0.000000 0.000000 0.000000 0.036788 0.000000 0.007135
# 5 0.021212 -0.000125 -0.000437 0.000000 0.138417 0.000000
# 6 0.000000 0.000000 0.000000 0.007135 0.000000 0.044724
#
#
# Mechanical properties :
#
#
# Convention : Reuss Voigt Hill
#
# Bulk Modulus (GPa) = 30.54450 55.16721 42.85586
# Shear Modulus (GPa) = 15.65351 24.07806 19.86579
#
# Velocity S-wave (km/s) = 2.80249 3.47575 3.15712
# Velocity P-wave (km/s) = 5.07909 6.61719 5.89849
#
# Compressibility (1/GPa) = 0.03273912
#
# Stress axis : x y z
#
# Youngs Moduli (GPa) = 54.81327 29.81874 112.64733
#
# Poissons Ratio (x) = 0.09414 0.42452
# Poissons Ratio (y) = 0.17305 0.79229
# Poissons Ratio (z) = 0.20657 0.20973
#
# Static dielectric constant tensor:
#      x y z
#    x 3.315290 0.000000 0.082550 
#    y 0.000000 3.570040 0.000000 
#    z 0.082550 0.000000 4.167840 
# 
# 
# High freq. dielectric constant tensor:
#      x y z
#    x 1.752780 0.000000 0.000820 
#    y 0.000000 1.780500 0.000000 
#    z 0.000820 0.000000 1.790540 
# 
# From -- ./inp_files/360324.got.cif
#   From: 2010.06.25/outbox.cif.g09.slc.cpg/sg12_181_cif.got.tgz:360324.got - 2010.06.28 00:19:55.
