data_PCOD8082316
_publ_section_title
;
Structure prediction by ZEFSAII (Michael W. Deem and Ramdas Pophale) SiO2 
 PCOD8082316
Probable space group: C 2/M
;
_chemical_formula_sum "Si O2"
_cell_formula_units_Z 56
_cell_length_a 20.038209
_cell_length_b 9.038657
_cell_length_c 28.166949
_cell_angle_alpha 90.000000
_cell_angle_beta 146.024753
_cell_angle_gamma 90.000000
_cell_volume 2850.926182
_symmetry_space_group_name_H-M "C 2/M"
_symmetry_group_IT_number 12
_symmetry_cell_setting 'monoclinic'
loop_
_space_group_symop_operation_xyz
x,y,z
-x,y,-z
-x,-y,-z
x,-y,z
1/2+x,1/2+y,z
1/2-x,1/2+y,-z
1/2-x,1/2-y,-z
1/2+x,1/2-y,z
loop_
_atom_site_type_symbol
_atom_site_label
_atom_site_fract_x
_atom_site_fract_y
_atom_site_fract_z
Si Si1 0.214887 0.828492 0.743614
Si Si2 0.511828 0.169152 0.425299
Si Si3 0.356456 0.326385 0.195515
Si Si4 0.604038 0.827516 0.225686
Si Si5 0.717768 0.330623 0.590275
Si Si6 0.661128 0.823433 0.910933
Si Si7 0.080080 0.334182 0.360303
O O1 0.117099 0.744382 0.654388
O O2 0.215985 0.779312 0.799418
O O3 0.345038 0.796737 0.797353
O O4 0.180427 0.000000 0.720047
O O5 0.593280 0.242251 0.514224
O O6 0.582673 0.190685 0.417890
O O7 0.491566 0.000000 0.426871
O O8 0.344852 0.500000 0.178038
O O9 0.302814 0.234202 0.120076
O O10 0.494514 0.283871 0.284234
O O11 0.697547 0.760726 0.318916
O O12 0.471319 0.762552 0.153594
O O13 0.594397 0.000000 0.231114
O O14 0.685764 0.500000 0.582911
O O15 0.786784 0.314604 0.580925
O O16 0.671420 0.000000 0.919400
O O17 0.750000 0.750000 0.000000
O O18 0.032316 0.500000 0.319983
#
# Coordination Sequence:
#
# PCOD8082316 Si02
#       7
#     8   8   8   8   8   8   8
#     4   9  19  37  58  79 107 148 193 226 260 318
#     4  10  20  31  46  75 112 149 185 230 280 320
#     4  10  19  33  57  86 112 141 179 223 274 325
#     4   9  19  37  60  81 105 143 187 229 269 318
#     4  10  18  31  51  74 103 144 192 234 272 316
#     4  11  22  40  64  89 114 139 175 222 273 329
#     4   9  17  31  50  73 106 146 188 229 274 321
#
# _framework density 19.642738999999999
#
# number of rings (size 3 to 8) (size 9 to 14) (size 15 to 20)
#    0.000    2.286    1.429    1.714    0.000    2.286 
#    0.000    5.714    0.000    4.286    0.000    0.000 
#    0.000    0.000    0.000    0.000    0.000    0.000 
#
# Total GULP energy -347144.377943 kJ/mol
# GULP energy per Si atom -12398.013498 kJ/mol
# Density = 1.959803 g / cm^3
# Si number density = 19.642739 Si / 1000 Ang^3
#
#
#
# Elastic Constant Matrix: (Units=GPa)
#
#
# Indices 1 2 3 4 5 6 
#
# 1 88.5513 27.8338 53.1389 0.0000 3.2115 0.0000
# 2 27.8338 70.8707 47.8315 0.0000 -3.5715 0.0003
# 3 53.1389 47.8315 123.4316 0.0000 -12.8122 0.0000
# 4 0.0000 0.0000 0.0000 32.1344 0.0000 -3.8419
# 5 3.2115 -3.5715 -12.8122 0.0000 18.4718 0.0000
# 6 0.0000 0.0003 0.0000 -3.8419 0.0000 21.5774
#
#
#
# Elastic Compliance Matrix: (Units=1/GPa)
#
#
# Indices 1 2 3 4 5 6 
#
# 1 0.016552 -0.002070 -0.007181 0.000000 -0.008259 0.000000
# 2 -0.002070 0.019408 -0.006684 0.000000 -0.000524 0.000000
# 3 -0.007181 -0.006684 0.014848 0.000000 0.010255 0.000000
# 4 0.000000 0.000000 0.000000 0.031796 0.000000 0.005661
# 5 -0.008259 -0.000524 0.010255 0.000000 0.062584 0.000000
# 6 0.000000 0.000000 0.000000 0.005661 0.000000 0.047353
#
#
# Mechanical properties :
#
#
# Convention : Reuss Voigt Hill
#
# Bulk Modulus (GPa) = 52.80525 60.05131 56.42828
# Shear Modulus (GPa) = 21.67089 24.70668 23.18878
#
# Velocity S-wave (km/s) = 3.32513 3.55040 3.43961
# Velocity P-wave (km/s) = 6.45625 6.88805 6.67564
#
# Compressibility (1/GPa) = 0.01893751
#
# Stress axis : x y z
#
# Youngs Moduli (GPa) = 60.41393 51.52515 67.35051
#
# Poissons Ratio (x) = 0.10668 0.48364
# Poissons Ratio (y) = 0.12509 0.45016
# Poissons Ratio (z) = 0.43383 0.34439
#
# Static dielectric constant tensor:
#      x y z
#    x 3.770050 0.000000 -0.062840 
#    y 0.000000 3.441990 0.000000 
#    z -0.062840 0.000000 3.343790 
# 
# 
# High freq. dielectric constant tensor:
#      x y z
#    x 1.775290 0.000000 -0.006940 
#    y 0.000000 1.749690 0.000000 
#    z -0.006940 0.000000 1.739030 
# 
# From -- ./inp_files/380569.got.cif
#   From: 2010.06.25/outbox.cif.g09.slc.cpg/sg12_191_cif.got.tgz:380569.got - 2010.06.28 00:19:55.
