data_PCOD8082127
_publ_section_title
;
Structure prediction by ZEFSAII (Michael W. Deem and Ramdas Pophale) SiO2 
 PCOD8082127
Probable space group: C 2/M
;
_chemical_formula_sum "Si O2"
_cell_formula_units_Z 64
_cell_length_a 27.568038
_cell_length_b 9.034448
_cell_length_c 14.643123
_cell_angle_alpha 90.000000
_cell_angle_beta 88.704631
_cell_angle_gamma 90.000000
_cell_volume 3646.113545
_symmetry_space_group_name_H-M "C 2/M"
_symmetry_group_IT_number 12
_symmetry_cell_setting 'monoclinic'
loop_
_space_group_symop_operation_xyz
x,y,z
-x,y,-z
-x,-y,-z
x,-y,z
1/2+x,1/2+y,z
1/2-x,1/2+y,-z
1/2-x,1/2-y,-z
1/2+x,1/2-y,z
loop_
_atom_site_type_symbol
_atom_site_label
_atom_site_fract_x
_atom_site_fract_y
_atom_site_fract_z
Si Si1 0.249944 0.825445 0.598569
Si Si2 0.561748 0.176724 0.753386
Si Si3 0.089679 0.835117 0.481580
Si Si4 0.356995 0.326723 0.342732
Si Si5 0.837617 0.831973 0.689394
Si Si6 0.507047 0.329528 0.106681
Si Si7 0.588091 0.833436 0.205340
Si Si8 0.017198 0.337189 0.378775
O O1 0.250000 0.750000 0.500000
O O2 0.199845 0.791371 0.653119
O O3 0.290800 0.760257 0.662144
O O4 0.257533 0.000000 0.583521
O O5 0.616717 0.236154 0.739942
O O6 0.538119 0.246996 0.844211
O O7 0.531416 0.232335 0.664585
O O8 0.559869 0.000000 0.762892
O O9 0.120202 0.767080 0.563449
O O10 0.124086 0.832243 0.393235
O O11 0.039393 0.747984 0.465366
O O12 0.073388 0.000000 0.506176
O O13 0.366340 0.500000 0.327873
O O14 0.861653 0.753042 0.776544
O O15 0.822696 0.000000 0.715136
O O16 0.508181 0.500000 0.138780
O O17 0.558165 0.253792 0.129507
O O18 0.500000 0.315049 0.000000
O O19 0.557229 0.840499 0.298401
O O20 0.599626 0.000000 0.170480
O O21 0.005310 0.500000 0.414608
#
# Coordination Sequence:
#
# PCOD8082127 Si02
#       8
#     8   8   8   8   8   8   8   8
#     4  11  21  34  50  70  97 133 179 228 269 305
#     4  10  21  35  50  71  99 131 167 207 253 301
#     4   9  17  29  44  64  90 127 170 208 249 293
#     4  10  21  35  47  65  96 132 173 216 260 303
#     4  10  18  31  49  71 100 134 174 219 262 302
#     4  10  20  35  57  83 108 135 164 198 247 305
#     4   9  17  30  49  76 105 134 166 204 252 299
#     4   8  16  29  43  63  92 125 162 203 243 288
#
# _framework density 17.552935999999999
#
# number of rings (size 3 to 8) (size 9 to 14) (size 15 to 20)
#    0.000    2.375    1.250    2.625    0.000    7.000 
#    0.000    2.500    0.000    0.000    0.000    0.875 
#    0.000    0.000    0.000    0.000    0.000    0.000 
#
# Total GULP energy -396723.344677 kJ/mol
# GULP energy per Si atom -12397.604521 kJ/mol
# Density = 1.751298 g / cm^3
# Si number density = 17.552936 Si / 1000 Ang^3
#
#
#
# Elastic Constant Matrix: (Units=GPa)
#
#
# Indices 1 2 3 4 5 6 
#
# 1 108.9729 64.0963 33.4842 0.0000 13.5430 0.0000
# 2 64.0963 118.8060 37.5348 0.0000 9.7909 0.0000
# 3 33.4842 37.5348 56.2686 0.0000 13.0780 0.0000
# 4 0.0000 0.0000 0.0000 21.2789 0.0000 7.4975
# 5 13.5430 9.7909 13.0780 0.0000 18.7680 0.0000
# 6 0.0000 0.0000 0.0000 7.4975 0.0000 29.0062
#
#
#
# Elastic Compliance Matrix: (Units=1/GPa)
#
#
# Indices 1 2 3 4 5 6 
#
# 1 0.014562 -0.006430 -0.003238 0.000000 -0.004897 0.000000
# 2 -0.006430 0.013512 -0.005521 0.000000 0.001438 0.000000
# 3 -0.003238 -0.005521 0.026454 0.000000 -0.013216 0.000000
# 4 0.000000 0.000000 0.000000 0.051704 0.000000 -0.013364
# 5 -0.004897 0.001438 -0.013216 0.000000 0.065275 0.000000
# 6 0.000000 0.000000 0.000000 -0.013364 0.000000 0.037930
#
#
# Mechanical properties :
#
#
# Convention : Reuss Voigt Hill
#
# Bulk Modulus (GPa) = 41.40964 61.58645 51.49805
# Shear Modulus (GPa) = 20.17229 23.73943 21.95586
#
# Velocity S-wave (km/s) = 3.39370 3.68155 3.54055
# Velocity P-wave (km/s) = 6.24490 7.29617 6.79091
#
# Compressibility (1/GPa) = 0.02414897
#
# Stress axis : x y z
#
# Youngs Moduli (GPa) = 68.67149 74.00973 37.80168
#
# Poissons Ratio (x) = 0.47585 0.12242
# Poissons Ratio (y) = 0.44153 0.20872
# Poissons Ratio (z) = 0.22239 0.40863
#
# Static dielectric constant tensor:
#      x y z
#    x 3.322940 0.000000 0.183130 
#    y 0.000000 3.480540 0.000000 
#    z 0.183130 0.000000 2.928930 
# 
# 
# High freq. dielectric constant tensor:
#      x y z
#    x 1.672830 0.000000 0.012770 
#    y 0.000000 1.690880 0.000000 
#    z 0.012770 0.000000 1.639320 
# 
# From -- ./inp_files/244106.got.cif
#   From: 2010.06.25/outbox.cif.g09.slc.cpg/sg12_123_cif.got.tgz:244106.got - 2010.06.28 00:19:55.
