data_PCOD8082806
_publ_section_title
;
Structure prediction by ZEFSAII (Michael W. Deem and Ramdas Pophale) SiO2 
 PCOD8082806
Probable space group: C 2/M
;
_chemical_formula_sum "Si O2"
_cell_formula_units_Z 64
_cell_length_a 23.891305
_cell_length_b 13.275694
_cell_length_c 20.899103
_cell_angle_alpha 90.000000
_cell_angle_beta 150.319523
_cell_angle_gamma 90.000000
_cell_volume 3282.257438
_symmetry_space_group_name_H-M "C 2/M"
_symmetry_group_IT_number 12
_symmetry_cell_setting 'monoclinic'
loop_
_space_group_symop_operation_xyz
x,y,z
-x,y,-z
-x,-y,-z
x,-y,z
1/2+x,1/2+y,z
1/2-x,1/2+y,-z
1/2-x,1/2-y,-z
1/2+x,1/2-y,z
loop_
_atom_site_type_symbol
_atom_site_label
_atom_site_fract_x
_atom_site_fract_y
_atom_site_fract_z
Si Si1 0.192431 0.266834 0.849737
Si Si2 0.129591 0.115712 0.894161
Si Si3 0.987609 0.616607 0.412871
Si Si4 0.089009 0.211239 0.299508
Si Si5 0.813758 0.384927 0.881949
Si Si6 0.969681 0.392389 0.836312
Si Si7 0.732814 0.389315 0.665885
Si Si8 0.170989 0.720533 0.518465
O O1 0.124333 0.201378 0.834085
O O2 0.269331 0.183379 0.894050
O O3 0.109625 0.316463 0.715920
O O4 0.271492 0.354238 0.957991
O O5 0.001208 0.119790 0.795227
O O6 0.151629 0.000000 0.893713
O O7 0.953151 0.500000 0.375334
O O8 0.101314 0.630252 0.482547
O O9 0.000000 0.648947 0.500000
O O10 0.018407 0.307490 0.204970
O O11 0.124362 0.236761 0.406272
O O12 0.198363 0.186400 0.363398
O O13 0.773835 0.500000 0.851729
O O14 0.768243 0.344479 0.769459
O O15 0.949853 0.375088 0.022070
O O16 0.003067 0.500000 0.837261
O O17 0.842503 0.399282 0.732050
O O18 0.674782 0.500000 0.613864
O O19 0.651910 0.311009 0.550453
#
# Coordination Sequence:
#
# PCOD8082806 Si02
#       8
#     8   8   8   8   8   8   8   8
#     4  11  22  40  59  84 115 151 191 240 288 347
#     4  11  23  39  60  86 116 149 187 241 299 348
#     4  11  24  42  63  85 114 157 203 243 284 343
#     4  10  20  38  58  85 116 154 193 240 294 345
#     4  10  18  31  56  85 113 147 185 226 282 345
#     4   9  17  31  53  84 117 145 181 230 283 340
#     4   9  18  32  53  84 117 147 181 228 284 341
#     4  10  21  38  59  83 116 155 199 237 289 345
#
# _framework density 19.498774999999998
#
# number of rings (size 3 to 8) (size 9 to 14) (size 15 to 20)
#    0.000    1.875    2.500    1.875    0.000    3.000 
#    0.000    2.500    0.000    2.625    0.000    4.375 
#    0.000    0.000    0.000    0.000    0.000    0.000 
#
# Total GULP energy -396509.919303 kJ/mol
# GULP energy per Si atom -12390.934978 kJ/mol
# Density = 1.945440 g / cm^3
# Si number density = 19.498775 Si / 1000 Ang^3
#
#
#
# Elastic Constant Matrix: (Units=GPa)
#
#
# Indices 1 2 3 4 5 6 
#
# 1 202.6439 11.8091 -9.0845 0.0000 -1.5365 0.0000
# 2 11.8091 79.9345 43.6993 0.0000 -2.4648 0.0000
# 3 -9.0845 43.6993 106.3166 0.0000 -9.9303 0.0000
# 4 0.0000 0.0000 0.0000 26.6975 0.0000 -4.0060
# 5 -1.5365 -2.4648 -9.9303 0.0000 26.7864 0.0000
# 6 0.0000 0.0000 0.0000 -4.0060 0.0000 24.0265
#
#
#
# Elastic Compliance Matrix: (Units=1/GPa)
#
#
# Indices 1 2 3 4 5 6 
#
# 1 0.005059 -0.001283 0.001011 0.000000 0.000547 0.000000
# 2 -0.001283 0.016488 -0.006994 0.000000 -0.001149 0.000000
# 3 0.001011 -0.006994 0.012754 0.000000 0.004143 0.000000
# 4 0.000000 0.000000 0.000000 0.038418 0.000000 0.006405
# 5 0.000547 -0.001149 0.004143 0.000000 0.038794 0.000000
# 6 0.000000 0.000000 0.000000 0.006405 0.000000 0.042689
#
#
# Mechanical properties :
#
#
# Convention : Reuss Voigt Hill
#
# Bulk Modulus (GPa) = 50.58653 53.52698 52.05676
# Shear Modulus (GPa) = 28.51878 38.33350 33.42614
#
# Velocity S-wave (km/s) = 3.82854 4.43871 4.14486
# Velocity P-wave (km/s) = 6.74858 7.33352 7.04712
#
# Compressibility (1/GPa) = 0.01976811
#
# Stress axis : x y z
#
# Youngs Moduli (GPa) = 197.66775 60.65058 78.40746
#
# Poissons Ratio (x) = 0.07782 -0.07925
# Poissons Ratio (y) = 0.25362 0.54838
# Poissons Ratio (z) = -0.19979 0.42419
#
# Static dielectric constant tensor:
#      x y z
#    x 3.527720 0.000000 -0.005420 
#    y 0.000000 3.276980 0.000000 
#    z -0.005420 0.000000 3.650590 
# 
# 
# High freq. dielectric constant tensor:
#      x y z
#    x 1.749930 0.000000 -0.001140 
#    y 0.000000 1.751260 0.000000 
#    z -0.001140 0.000000 1.768640 
# 
# From -- ./inp_files/327861.got.cif
#   From: 2010.06.25/outbox.cif.g09.slc.cpg/sg12_164_cif.got.tgz:327861.got - 2010.06.28 00:19:55.
