data_PCOD8082373
_publ_section_title
;
Structure prediction by ZEFSAII (Michael W. Deem and Ramdas Pophale) SiO2 
 PCOD8082373
Probable space group: C 2/M
;
_chemical_formula_sum "Si O2"
_cell_formula_units_Z 48
_cell_length_a 20.489081
_cell_length_b 16.248072
_cell_length_c 16.058190
_cell_angle_alpha 90.000000
_cell_angle_beta 27.242704
_cell_angle_gamma 90.000000
_cell_volume 2447.143378
_symmetry_space_group_name_H-M "C 2/M"
_symmetry_group_IT_number 12
_symmetry_cell_setting 'monoclinic'
loop_
_space_group_symop_operation_xyz
x,y,z
-x,y,-z
-x,-y,-z
x,-y,z
1/2+x,1/2+y,z
1/2-x,1/2+y,-z
1/2-x,1/2-y,-z
1/2+x,1/2-y,z
loop_
_atom_site_type_symbol
_atom_site_label
_atom_site_fract_x
_atom_site_fract_y
_atom_site_fract_z
Si Si1 0.144085 0.906187 0.488306
Si Si2 0.595136 0.097504 0.125313
Si Si3 0.710776 0.157818 0.521325
Si Si4 0.957227 0.097625 0.138435
Si Si5 0.380974 0.402081 0.883680
Si Si6 0.640298 0.902117 0.885890
O O1 0.254364 0.901483 0.440476
O O2 0.219212 0.865793 0.321512
O O3 0.112968 0.000000 0.501963
O O4 0.994106 0.864869 0.687255
O O5 0.455540 0.147172 0.311870
O O6 0.721405 0.126920 0.043788
O O7 0.567304 0.000000 0.162370
O O8 0.642674 0.124601 0.978942
O O9 0.750000 0.250000 0.500000
O O10 0.801242 0.131671 0.337954
O O11 0.949888 0.000000 0.143622
O O12 0.073054 0.127422 0.076119
O O13 0.000000 0.133981 0.000000
O O14 0.390977 0.500000 0.867165
O O15 0.640934 0.000000 0.875804
O O16 0.500000 0.865821 0.000000
#
# Coordination Sequence:
#
# PCOD8082373 Si02
#       6
#     8   8   8   8   8   8
#     4   9  16  31  50  70 102 139 172 207 248 312
#     4  10  18  31  51  79 108 135 171 219 264 304
#     4  11  21  33  49  77 103 137 176 212 267 320
#     4   9  18  37  60  77  98 136 183 224 264 317
#     4   8  16  29  51  80 105 131 171 221 268 304
#     4   9  15  24  45  75 101 131 166 199 245 300
#
# _framework density 19.614706999999999
#
# number of rings (size 3 to 8) (size 9 to 14) (size 15 to 20)
#    0.000    2.667    1.667    2.500    0.000    0.667 
#    3.000    7.500    0.000    4.000    8.667    0.000 
#    0.000    0.000    0.000    0.000    0.000    0.000 
#
# Total GULP energy -297428.725401 kJ/mol
# GULP energy per Si atom -12392.863558 kJ/mol
# Density = 1.957006 g / cm^3
# Si number density = 19.614707 Si / 1000 Ang^3
#
#
#
# Elastic Constant Matrix: (Units=GPa)
#
#
# Indices 1 2 3 4 5 6 
#
# 1 119.9218 16.1562 100.7783 -0.0007 -2.0292 0.0002
# 2 16.1562 23.0693 27.3369 -0.0005 0.7067 0.0002
# 3 100.7783 27.3369 192.1772 -0.0016 0.0046 0.0007
# 4 -0.0007 -0.0005 -0.0016 7.4078 0.0007 -0.7343
# 5 -2.0292 0.7067 0.0046 0.0007 43.8755 -0.0002
# 6 0.0002 0.0002 0.0007 -0.7343 -0.0002 8.7823
#
#
#
# Elastic Compliance Matrix: (Units=1/GPa)
#
#
# Indices 1 2 3 4 5 6 
#
# 1 0.014970 -0.001447 -0.007644 0.000000 0.000716 0.000000
# 2 -0.001447 0.052307 -0.006682 0.000002 -0.000909 0.000000
# 3 -0.007644 -0.006682 0.010163 0.000001 -0.000247 0.000000
# 4 0.000000 0.000002 0.000001 0.136120 -0.000002 0.011381
# 5 0.000716 -0.000909 -0.000247 -0.000002 0.022840 0.000000
# 6 0.000000 0.000000 0.000000 0.011381 0.000000 0.114817
#
#
# Mechanical properties :
#
#
# Convention : Reuss Voigt Hill
#
# Bulk Modulus (GPa) = 21.78996 69.30122 45.54559
# Shear Modulus (GPa) = 12.56091 24.73960 18.65026
#
# Velocity S-wave (km/s) = 2.53332 3.55530 3.08690
# Velocity P-wave (km/s) = 4.43735 7.22921 5.99798
#
# Compressibility (1/GPa) = 0.04589269
#
# Stress axis : x y z
#
# Youngs Moduli (GPa) = 66.80012 19.11808 98.39860
#
# Poissons Ratio (x) = 0.02767 0.75220
# Poissons Ratio (y) = 0.09668 0.65745
# Poissons Ratio (z) = 0.51065 0.12774
#
# Static dielectric constant tensor:
#      x y z
#    x 3.668870 0.000000 0.055410 
#    y 0.000000 3.046140 0.000000 
#    z 0.055410 0.000000 3.924170 
# 
# 
# High freq. dielectric constant tensor:
#      x y z
#    x 1.743690 0.000000 0.002140 
#    y 0.000000 1.713870 0.000000 
#    z 0.002140 0.000000 1.776940 
# 
# From -- ./inp_files/290517.got.cif
#   From: 2010.06.25/outbox.cif.g09.slc.cpg/sg12_146_cif.got.tgz:290517.got - 2010.06.28 00:19:55.
