data_PCOD8082841
_publ_section_title
;
Structure prediction by ZEFSAII (Michael W. Deem and Ramdas Pophale) SiO2 
 PCOD8082841
Probable space group: C 2/M
;
_chemical_formula_sum "Si O2"
_cell_formula_units_Z 44
_cell_length_a 14.030960
_cell_length_b 27.657517
_cell_length_c 6.515574
_cell_angle_alpha 90.000000
_cell_angle_beta 136.868383
_cell_angle_gamma 90.000000
_cell_volume 1728.637637
_symmetry_space_group_name_H-M "C 2/M"
_symmetry_group_IT_number 12
_symmetry_cell_setting 'monoclinic'
loop_
_space_group_symop_operation_xyz
x,y,z
-x,y,-z
-x,-y,-z
x,-y,z
1/2+x,1/2+y,z
1/2-x,1/2+y,-z
1/2-x,1/2-y,-z
1/2+x,1/2-y,z
loop_
_atom_site_type_symbol
_atom_site_label
_atom_site_fract_x
_atom_site_fract_y
_atom_site_fract_z
Si Si1 0.960653 0.052786 0.679507
Si Si2 0.758049 0.884679 0.187532
Si Si3 0.900084 0.735558 0.660570
Si Si4 0.764388 0.556011 0.249484
Si Si5 0.500000 0.687863 0.500000
Si Si6 0.040769 0.367324 0.337428
O O1 0.838886 0.092925 0.513005
O O2 0.000000 0.057503 0.500000
O O3 0.896158 0.000000 0.620155
O O4 0.097345 0.060530 0.040994
O O5 0.858423 0.843379 0.244933
O O6 0.722782 0.925459 0.964253
O O7 0.605308 0.864750 0.027890
O O8 0.750000 0.750000 0.500000
O O9 0.975145 0.777989 0.654730
O O10 0.884016 0.684507 0.518390
O O11 0.000000 0.722592 0.000000
O O12 0.812536 0.500000 0.334744
O O13 0.852047 0.588892 0.549641
O O14 0.000000 0.382764 0.500000
#
# Coordination Sequence:
#
# PCOD8082841 Si02
#       6
#     8   8   8   8   4   8
#     4   8  13  25  46  84 131 163 211 268 314 391
#     4  10  18  31  60  92 130 174 215 277 331 395
#     4  12  29  47  70  99 136 185 233 288 348 408
#     4   9  17  31  56  96 136 171 222 274 333 411
#     4  12  24  44  73  98 137 178 238 284 344 402
#     4  10  22  38  61  94 135 175 221 281 341 399
#
# _framework density 25.453569000000002
#
# number of rings (size 3 to 8) (size 9 to 14) (size 15 to 20)
#    0.000    2.000    3.636    2.727    5.091    5.455 
#    0.000    0.000    0.000    0.545    0.000    6.364 
#    0.000    0.000    0.000    0.000    0.000    0.000 
#
# Total GULP energy -272592.358786 kJ/mol
# GULP energy per Si atom -12390.561763 kJ/mol
# Density = 2.539564 g / cm^3
# Si number density = 25.453569 Si / 1000 Ang^3
#
#
#
# Elastic Constant Matrix: (Units=GPa)
#
#
# Indices 1 2 3 4 5 6 
#
# 1 69.1512 45.1317 34.5373 0.0000 41.8171 0.0000
# 2 45.1317 216.0744 91.1873 0.0000 35.0056 0.0000
# 3 34.5373 91.1873 163.1254 0.0000 36.8695 0.0000
# 4 0.0000 0.0000 0.0000 33.1034 0.0000 9.2666
# 5 41.8171 35.0056 36.8695 0.0000 46.4073 0.0000
# 6 0.0000 0.0000 0.0000 9.2666 0.0000 12.0638
#
#
#
# Elastic Compliance Matrix: (Units=1/GPa)
#
#
# Indices 1 2 3 4 5 6 
#
# 1 0.032890 -0.002671 0.000942 0.000000 -0.028370 0.000000
# 2 -0.002671 0.006480 -0.003042 0.000000 -0.000064 0.000000
# 3 0.000942 -0.003042 0.008903 0.000000 -0.005627 0.000000
# 4 0.000000 0.000000 0.000000 0.038483 0.000000 -0.029560
# 5 -0.028370 -0.000064 -0.005627 0.000000 0.051631 0.000000
# 6 0.000000 0.000000 0.000000 -0.029560 0.000000 0.105599
#
#
# Mechanical properties :
#
#
# Convention : Reuss Voigt Hill
#
# Bulk Modulus (GPa) = 25.81964 87.78485 56.80224
# Shear Modulus (GPa) = 18.76592 36.81455 27.79024
#
# Velocity S-wave (km/s) = 2.71820 3.80721 3.30783
# Velocity P-wave (km/s) = 4.47407 7.34095 6.07893
#
# Compressibility (1/GPa) = 0.03873021
#
# Stress axis : x y z
#
# Youngs Moduli (GPa) = 30.40447 154.31341 112.31570
#
# Poissons Ratio (x) = 0.41218 -0.10578
# Poissons Ratio (y) = 0.08121 0.34172
# Poissons Ratio (z) = -0.02863 0.46950
#
# Static dielectric constant tensor:
#      x y z
#    x 5.055850 0.000000 0.711040 
#    y 0.000000 4.735330 0.000000 
#    z 0.711040 0.000000 6.319390 
# 
# 
# High freq. dielectric constant tensor:
#      x y z
#    x 2.034890 0.000000 0.010270 
#    y 0.000000 2.021730 0.000000 
#    z 0.010270 0.000000 2.021720 
# 
# From -- ./inp_files/67208.got.cif
#   From: 2010.06.25/outbox.cif.g09.slc.cpg/sg12_34_cif.got.tgz:67208.got - 2010.06.28 00:19:55.
