data_PCOD8082088
_publ_section_title
;
Structure prediction by ZEFSAII (Michael W. Deem and Ramdas Pophale) SiO2 
 PCOD8082088
Probable space group: C 2/M
;
_chemical_formula_sum "Si O2"
_cell_formula_units_Z 64
_cell_length_a 24.065960
_cell_length_b 25.642550
_cell_length_c 17.523853
_cell_angle_alpha 90.000000
_cell_angle_beta 20.730870
_cell_angle_gamma 90.000000
_cell_volume 3827.993998
_symmetry_space_group_name_H-M "C 2/M"
_symmetry_group_IT_number 12
_symmetry_cell_setting 'monoclinic'
loop_
_space_group_symop_operation_xyz
x,y,z
-x,y,-z
-x,-y,-z
x,-y,z
1/2+x,1/2+y,z
1/2-x,1/2+y,-z
1/2-x,1/2-y,-z
1/2+x,1/2-y,z
loop_
_atom_site_type_symbol
_atom_site_label
_atom_site_fract_x
_atom_site_fract_y
_atom_site_fract_z
Si Si1 0.834662 0.751086 0.181896
Si Si2 0.785587 0.712009 0.885988
Si Si3 0.268340 0.796165 0.534628
Si Si4 0.924328 0.352209 0.829350
Si Si5 0.248810 0.060091 0.810328
Si Si6 0.061729 0.839414 0.062746
Si Si7 0.977439 0.559503 0.655516
Si Si8 0.829486 0.806929 0.733171
O O1 0.723646 0.769314 0.393072
O O2 0.759876 0.702409 0.232026
O O3 0.860199 0.803228 0.100883
O O4 0.000000 0.729311 0.000000
O O5 0.907085 0.670941 0.765273
O O6 0.861587 0.748470 0.723774
O O7 0.750000 0.750000 0.000000
O O8 0.629169 0.682104 0.056922
O O9 0.250000 0.750000 0.500000
O O10 0.430033 0.826843 0.312896
O O11 0.125863 0.836129 0.702978
O O12 0.956300 0.411895 0.764902
O O13 0.771553 0.343398 0.079334
O O14 0.338180 0.070520 0.774716
O O15 0.359239 0.073317 0.596309
O O16 0.189969 0.000000 0.881751
O O17 0.103422 0.100029 0.994834
O O18 0.977067 0.500000 0.680444
O O19 0.000000 0.833508 0.500000
#
# Coordination Sequence:
#
# PCOD8082088 Si02
#       8
#     8   8   8   8   8   8   8   8
#     4   9  18  32  46  64  97 135 167 196 240 300
#     4   9  17  29  46  70  97 125 164 206 239 289
#     4  11  21  32  48  70 103 138 167 202 244 298
#     4  11  19  32  49  71  99 129 170 204 248 299
#     4   9  17  31  50  75 103 131 166 206 248 297
#     4  10  18  31  48  70  98 134 171 199 241 293
#     4   9  18  32  52  75 101 131 165 208 254 297
#     4  10  20  31  46  69  97 127 164 210 251 290
#
# _framework density 16.718938999999999
#
# number of rings (size 3 to 8) (size 9 to 14) (size 15 to 20)
#    0.000    2.250    1.250    5.250    0.000    2.000 
#    0.000    0.625    0.000    5.250    0.000    0.000 
#    0.000    1.750    0.000    0.000    0.000    0.000 
#
# Total GULP energy -396534.005582 kJ/mol
# GULP energy per Si atom -12391.687674 kJ/mol
# Density = 1.668089 g / cm^3
# Si number density = 16.718939 Si / 1000 Ang^3
#
#
#
# Elastic Constant Matrix: (Units=GPa)
#
#
# Indices 1 2 3 4 5 6 
#
# 1 82.0628 40.2882 40.2786 -0.0107 -6.4266 -0.0029
# 2 40.2882 82.9092 47.5544 0.0371 1.0989 -0.0135
# 3 40.2786 47.5544 105.5986 0.0506 1.1894 -0.0461
# 4 -0.0107 0.0371 0.0506 23.0863 -0.0163 -0.9330
# 5 -6.4266 1.0989 1.1894 -0.0163 15.8526 0.0114
# 6 -0.0029 -0.0135 -0.0461 -0.9330 0.0114 24.4610
#
#
#
# Elastic Compliance Matrix: (Units=1/GPa)
#
#
# Indices 1 2 3 4 5 6 
#
# 1 0.018001 -0.006558 -0.004004 0.000033 0.008053 -0.000012
# 2 -0.006558 0.018656 -0.005861 -0.000023 -0.003512 -0.000001
# 3 -0.004004 -0.005861 0.013661 -0.000023 -0.002242 0.000022
# 4 0.000033 -0.000023 -0.000023 0.043383 0.000060 0.001655
# 5 0.008053 -0.003512 -0.002242 0.000060 0.066757 -0.000034
# 6 -0.000012 -0.000001 0.000022 0.001655 -0.000034 0.040945
#
#
# Mechanical properties :
#
#
# Convention : Reuss Voigt Hill
#
# Bulk Modulus (GPa) = 57.22586 58.53478 57.88032
# Shear Modulus (GPa) = 20.82712 22.17661 21.50187
#
# Velocity S-wave (km/s) = 3.53331 3.64598 3.59008
# Velocity P-wave (km/s) = 7.13780 7.26714 7.20276
#
# Compressibility (1/GPa) = 0.01747462
#
# Stress axis : x y z
#
# Youngs Moduli (GPa) = 55.55261 53.60235 73.19865
#
# Poissons Ratio (x) = 0.35150 0.29307
# Poissons Ratio (y) = 0.36429 0.42898
# Poissons Ratio (z) = 0.22242 0.31414
#
# Static dielectric constant tensor:
#      x y z
#    x 4.625140 -0.055700 -0.515280 
#    y -0.055700 3.349310 0.014530 
#    z -0.515280 0.014530 3.201910 
# 
# 
# High freq. dielectric constant tensor:
#      x y z
#    x 1.647850 -0.000010 -0.008860 
#    y -0.000010 1.614100 0.000020 
#    z -0.008860 0.000020 1.630680 
# 
# From -- ./inp_files/91089.got.cif
#   From: 2010.06.25/outbox.cif.g09.slc.cpg/sg12_46_cif.got.tgz:91089.got - 2010.06.28 00:19:55.
