data_PCOD8082533
_publ_section_title
;
Structure prediction by ZEFSAII (Michael W. Deem and Ramdas Pophale) SiO2 
 PCOD8082533
Probable space group: C 2/M
;
_chemical_formula_sum "Si O2"
_cell_formula_units_Z 40
_cell_length_a 19.262533
_cell_length_b 19.431556
_cell_length_c 9.761439
_cell_angle_alpha 90.000000
_cell_angle_beta 39.599948
_cell_angle_gamma 90.000000
_cell_volume 2328.963846
_symmetry_space_group_name_H-M "C 2/M"
_symmetry_group_IT_number 12
_symmetry_cell_setting 'monoclinic'
loop_
_space_group_symop_operation_xyz
x,y,z
-x,y,-z
-x,-y,-z
x,-y,z
1/2+x,1/2+y,z
1/2-x,1/2+y,-z
1/2-x,1/2-y,-z
1/2+x,1/2-y,z
loop_
_atom_site_type_symbol
_atom_site_label
_atom_site_fract_x
_atom_site_fract_y
_atom_site_fract_z
Si Si1 0.426236 0.855775 0.493397
Si Si2 0.239032 0.192676 0.400829
Si Si3 0.100348 0.420664 0.751870
Si Si4 0.509456 0.298444 0.642194
Si Si5 0.215548 0.214818 0.912352
O O1 0.500000 0.890296 0.500000
O O2 0.427983 0.907064 0.363199
O O3 0.482034 0.784080 0.366838
O O4 0.302665 0.842457 0.732774
O O5 0.250000 0.250000 0.500000
O O6 0.296000 0.123162 0.360653
O O7 0.114368 0.170870 0.559316
O O8 0.294388 0.223817 0.181742
O O9 0.130864 0.500000 0.725216
O O10 0.000000 0.399227 0.000000
O O11 0.500000 0.324955 0.500000
O O12 0.401908 0.321241 0.889446
O O13 0.250000 0.250000 0.000000
#
# Coordination Sequence:
#
# PCOD8082533 Si02
#       5
#     8   8   8   8   8
#     4  10  19  34  55  83 115 148 184 234 282 340
#     4  11  21  34  56  86 112 145 189 240 280 332
#     4  11  24  40  57  82 119 157 190 232 286 342
#     4  10  18  31  52  85 112 140 179 229 289 330
#     4  11  18  31  56  86 115 144 180 239 289 333
#
# _framework density 17.17502
#
# number of rings (size 3 to 8) (size 9 to 14) (size 15 to 20)
#    0.000    1.400   10.000    1.200    0.000    0.400 
#    0.000    0.000    0.000    3.000    0.000    0.000 
#    0.000    0.000    0.000    0.000    0.000    0.000 
#
# Total GULP energy -247986.557793 kJ/mol
# GULP energy per Si atom -12399.327890 kJ/mol
# Density = 1.713593 g / cm^3
# Si number density = 17.175020 Si / 1000 Ang^3
#
#
#
# Elastic Constant Matrix: (Units=GPa)
#
#
# Indices 1 2 3 4 5 6 
#
# 1 150.2682 43.4419 64.3290 0.0000 -5.3257 0.0000
# 2 43.4419 57.7856 32.0530 0.0000 -2.5538 0.0000
# 3 64.3290 32.0530 138.1188 0.0000 -11.7664 0.0000
# 4 0.0000 0.0000 0.0000 15.7039 0.0000 -2.5876
# 5 -5.3257 -2.5538 -11.7664 0.0000 40.2203 0.0000
# 6 0.0000 0.0000 0.0000 -2.5876 0.0000 20.5216
#
#
#
# Elastic Compliance Matrix: (Units=1/GPa)
#
#
# Indices 1 2 3 4 5 6 
#
# 1 0.009601 -0.005437 -0.003211 0.000000 -0.000013 0.000000
# 2 -0.005437 0.022942 -0.002799 0.000000 -0.000082 0.000000
# 3 -0.003211 -0.002799 0.009572 0.000000 0.002198 0.000000
# 4 0.000000 0.000000 0.000000 0.065030 0.000000 0.008200
# 5 -0.000013 -0.000082 0.002198 0.000000 0.025499 0.000000
# 6 0.000000 0.000000 0.000000 0.008200 0.000000 0.049763
#
#
# Mechanical properties :
#
#
# Convention : Reuss Voigt Hill
#
# Bulk Modulus (GPa) = 52.02572 69.53560 60.78066
# Shear Modulus (GPa) = 23.61755 29.04573 26.33164
#
# Velocity S-wave (km/s) = 3.71227 4.11683 3.91978
# Velocity P-wave (km/s) = 6.98082 7.94809 7.48011
#
# Compressibility (1/GPa) = 0.01922126
#
# Stress axis : x y z
#
# Youngs Moduli (GPa) = 104.15900 43.58891 104.46806
#
# Poissons Ratio (x) = 0.23700 0.33543
# Poissons Ratio (y) = 0.56633 0.29237
# Poissons Ratio (z) = 0.33444 0.12199
#
# Static dielectric constant tensor:
#      x y z
#    x 4.090750 0.000000 -0.355730 
#    y 0.000000 2.668980 0.000000 
#    z -0.355730 0.000000 3.618640 
# 
# 
# High freq. dielectric constant tensor:
#      x y z
#    x 1.684350 0.000000 0.004560 
#    y 0.000000 1.601600 0.000000 
#    z 0.004560 0.000000 1.677740 
# 
# From -- ./inp_files/62302.got.cif
#   From: 2010.06.25/outbox.cif.g09.slc.cpg/sg12_32_cif.got.tgz:62302.got - 2010.06.28 00:19:55.
