data_PCOD8082478
_publ_section_title
;
Structure prediction by ZEFSAII (Michael W. Deem and Ramdas Pophale) SiO2 
 PCOD8082478
Probable space group: C 2/M
;
_chemical_formula_sum "Si O2"
_cell_formula_units_Z 40
_cell_length_a 18.990511
_cell_length_b 18.840282
_cell_length_c 9.989653
_cell_angle_alpha 90.000000
_cell_angle_beta 142.561748
_cell_angle_gamma 90.000000
_cell_volume 2172.755889
_symmetry_space_group_name_H-M "C 2/M"
_symmetry_group_IT_number 12
_symmetry_cell_setting 'monoclinic'
loop_
_space_group_symop_operation_xyz
x,y,z
-x,y,-z
-x,-y,-z
x,-y,z
1/2+x,1/2+y,z
1/2-x,1/2+y,-z
1/2-x,1/2-y,-z
1/2+x,1/2-y,z
loop_
_atom_site_type_symbol
_atom_site_label
_atom_site_fract_x
_atom_site_fract_y
_atom_site_fract_z
Si Si1 0.565378 0.688149 0.890700
Si Si2 0.326003 0.684311 0.657308
Si Si3 0.054653 0.665684 0.728767
Si Si4 0.649207 0.921262 0.480246
Si Si5 0.241267 0.920689 0.064187
O O1 0.430246 0.671812 0.710912
O O2 0.583424 0.757101 0.827978
O O3 0.629585 0.700749 0.127273
O O4 0.620309 0.621305 0.895621
O O5 0.250000 0.750000 0.500000
O O6 0.246791 0.614036 0.533912
O O7 0.173327 0.620869 0.907019
O O8 0.000000 0.674318 0.500000
O O9 0.966874 0.625965 0.696942
O O10 0.694649 0.926674 0.698639
O O11 0.622182 0.000000 0.383874
O O12 0.215671 0.000000 0.970459
#
# Coordination Sequence:
#
# PCOD8082478 Si02
#       5
#     8   8   8   8   8
#     4  10  20  32  53  78  98 134 171 201 253 296
#     4  10  19  34  52  74 103 132 166 211 245 292
#     4  10  18  31  52  78 101 130 165 207 251 296
#     4   9  17  30  51  76 100 128 165 210 253 287
#     4   9  18  31  48  75 104 127 164 210 249 294
#
# _framework density 18.409800000000001
#
# number of rings (size 3 to 8) (size 9 to 14) (size 15 to 20)
#    0.000    2.400    2.000    1.200    0.000    3.200 
#    0.000    4.000    0.000    4.200    0.000    0.000 
#    0.000    0.000    0.000    0.000    0.000    0.000 
#
# Total GULP energy -247989.993268 kJ/mol
# GULP energy per Si atom -12399.499663 kJ/mol
# Density = 1.836790 g / cm^3
# Si number density = 18.409800 Si / 1000 Ang^3
#
#
#
# Elastic Constant Matrix: (Units=GPa)
#
#
# Indices 1 2 3 4 5 6 
#
# 1 96.8307 69.2696 41.3233 0.0000 43.4026 0.0000
# 2 69.2696 161.2987 40.7308 0.0000 27.6486 0.0000
# 3 41.3233 40.7308 53.3805 0.0000 32.4111 0.0000
# 4 0.0000 0.0000 0.0000 28.2638 0.0000 6.2369
# 5 43.4026 27.6486 32.4111 0.0000 34.2425 0.0000
# 6 0.0000 0.0000 0.0000 6.2369 0.0000 30.1731
#
#
#
# Elastic Compliance Matrix: (Units=1/GPa)
#
#
# Indices 1 2 3 4 5 6 
#
# 1 0.030431 -0.007998 0.004805 0.000000 -0.036662 0.000000
# 2 -0.007998 0.009816 -0.006210 0.000000 0.008090 0.000000
# 3 0.004805 -0.006210 0.047979 0.000000 -0.046489 0.000000
# 4 0.000000 0.000000 0.000000 0.037072 0.000000 -0.007663
# 5 -0.036662 0.008090 -0.046489 0.000000 0.113145 0.000000
# 6 0.000000 0.000000 0.000000 -0.007663 0.000000 0.034726
#
#
# Mechanical properties :
#
#
# Convention : Reuss Voigt Hill
#
# Bulk Modulus (GPa) = 14.40494 68.23969 41.32232
# Shear Modulus (GPa) = 15.86723 29.21495 22.54109
#
# Velocity S-wave (km/s) = 2.93898 3.98794 3.50295
# Velocity P-wave (km/s) = 4.39982 7.63888 6.23341
#
# Compressibility (1/GPa) = 0.06942062
#
# Stress axis : x y z
#
# Youngs Moduli (GPa) = 32.86101 101.87639 20.84233
#
# Poissons Ratio (x) = 0.81477 -0.10015
# Poissons Ratio (y) = 0.26281 0.12944
# Poissons Ratio (z) = -0.15790 0.63269
#
# Static dielectric constant tensor:
#      x y z
#    x 3.452580 0.000000 0.379050 
#    y 0.000000 3.773990 0.000000 
#    z 0.379050 0.000000 3.204040 
# 
# 
# High freq. dielectric constant tensor:
#      x y z
#    x 1.706700 0.000000 0.035470 
#    y 0.000000 1.723140 0.000000 
#    z 0.035470 0.000000 1.686240 
# 
# From -- ./inp_files/46942.got.cif
#   From: 2010.06.25/outbox.cif.g09.slc.cpg/sg12_24_cif.got.tgz:46942.got - 2010.06.28 00:19:55.
