data_PCOD8082737
_publ_section_title
;
Structure prediction by ZEFSAII (Michael W. Deem and Ramdas Pophale) SiO2 
 PCOD8082737
Probable space group: C 2/M
;
_chemical_formula_sum "Si O2"
_cell_formula_units_Z 64
_cell_length_a 9.708551
_cell_length_b 20.546264
_cell_length_c 27.554250
_cell_angle_alpha 90.000000
_cell_angle_beta 45.194641
_cell_angle_gamma 90.000000
_cell_volume 3899.700280
_symmetry_space_group_name_H-M "C 2/M"
_symmetry_group_IT_number 12
_symmetry_cell_setting 'monoclinic'
loop_
_space_group_symop_operation_xyz
x,y,z
-x,y,-z
-x,-y,-z
x,-y,z
1/2+x,1/2+y,z
1/2-x,1/2+y,-z
1/2-x,1/2-y,-z
1/2+x,1/2-y,z
loop_
_atom_site_type_symbol
_atom_site_label
_atom_site_fract_x
_atom_site_fract_y
_atom_site_fract_z
Si Si1 0.858620 0.153773 0.493547
Si Si2 0.802217 0.179215 0.828567
Si Si3 0.019108 0.424214 0.939162
Si Si4 0.940768 0.765415 0.891765
Si Si5 0.116478 0.179215 0.671433
Si Si6 0.332808 0.653774 0.006453
Si Si7 0.992173 0.734585 0.391766
Si Si8 0.724244 0.924213 0.439163
O O1 0.956627 0.217250 0.445600
O O2 0.651475 0.173111 0.567804
O O3 0.833891 0.096157 0.461011
O O4 0.000000 0.126579 0.500000
O O5 0.701007 0.113388 0.871652
O O6 0.930977 0.209972 0.839267
O O7 0.645318 0.231105 0.849426
O O8 0.940685 0.160134 0.750000
O O9 0.056708 0.500000 0.922231
O O10 0.822071 0.403841 0.961009
O O11 0.000000 0.404645 0.000000
O O12 0.922691 0.826889 0.932197
O O13 0.760972 0.717251 0.945600
O O14 0.043008 0.231104 0.650576
O O15 0.288041 0.209972 0.660731
O O16 0.187599 0.113387 0.628349
O O17 0.500000 0.626579 0.000000
O O18 0.500000 0.904634 0.500000
O O19 0.754339 0.000000 0.422240
#
# Coordination Sequence:
#
# PCOD8082737 Si02
#       8
#     8   8   8   8   8   8   8   8
#     4  10  18  31  55  77 105 136 166 216 264 303
#     4  11  21  34  53  78 108 138 168 211 263 313
#     4  10  21  36  54  77 102 135 181 217 248 301
#     4  10  19  31  50  82 107 132 168 209 262 319
#     4  11  21  34  53  78 108 138 168 211 263 313
#     4  10  18  31  55  77 105 136 166 216 264 303
#     4  10  19  31  50  82 107 132 168 209 262 319
#     4  10  21  36  54  77 102 135 181 217 248 301
#
# _framework density 16.411518000000001
#
# number of rings (size 3 to 8) (size 9 to 14) (size 15 to 20)
#    0.000    1.750    5.000    0.750    0.000    1.000 
#    0.000    0.000    0.000    0.000    0.000    0.000 
#    0.000    0.000    0.000    0.000    0.000    0.000 
#
# Total GULP energy -396927.024571 kJ/mol
# GULP energy per Si atom -12403.969518 kJ/mol
# Density = 1.637417 g / cm^3
# Si number density = 16.411518 Si / 1000 Ang^3
#
#
#
# Elastic Constant Matrix: (Units=GPa)
#
#
# Indices 1 2 3 4 5 6 
#
# 1 114.6064 36.5345 41.8635 -0.0016 1.8539 0.0003
# 2 36.5345 73.0171 47.0516 -0.0033 -0.7414 -0.0003
# 3 41.8635 47.0516 122.3445 -0.0027 -2.3861 0.0003
# 4 -0.0016 -0.0033 -0.0027 9.9697 -0.0035 0.4123
# 5 1.8539 -0.7414 -2.3861 -0.0035 23.6495 0.0012
# 6 0.0003 -0.0003 0.0003 0.4123 0.0012 15.7515
#
#
#
# Elastic Compliance Matrix: (Units=1/GPa)
#
#
# Indices 1 2 3 4 5 6 
#
# 1 0.010824 -0.004023 -0.002180 -0.000001 -0.001195 0.000000
# 2 -0.004023 0.019704 -0.006195 0.000004 0.000308 0.000000
# 3 -0.002180 -0.006195 0.011324 0.000001 0.001119 0.000000
# 4 -0.000001 0.000004 0.000001 0.100413 0.000015 -0.002628
# 5 -0.001195 0.000308 0.001119 0.000015 0.042500 -0.000004
# 6 0.000000 0.000000 0.000000 -0.002628 -0.000004 0.063555
#
#
# Mechanical properties :
#
#
# Convention : Reuss Voigt Hill
#
# Bulk Modulus (GPa) = 58.63299 62.31859 60.47579
# Shear Modulus (GPa) = 17.93403 22.17536 20.05470
#
# Velocity S-wave (km/s) = 3.30929 3.67986 3.49949
# Velocity P-wave (km/s) = 7.09973 7.49067 7.29782
#
# Compressibility (1/GPa) = 0.01705524
#
# Stress axis : x y z
#
# Youngs Moduli (GPa) = 92.39117 50.75213 88.30979
#
# Poissons Ratio (x) = 0.20419 0.19248
# Poissons Ratio (y) = 0.37171 0.54708
# Poissons Ratio (z) = 0.20138 0.31441
#
# Static dielectric constant tensor:
#      x y z
#    x 3.167320 0.000000 0.012080 
#    y 0.000000 2.828570 0.000000 
#    z 0.012080 0.000000 2.997200 
# 
# 
# High freq. dielectric constant tensor:
#      x y z
#    x 1.646820 0.000000 0.001620 
#    y 0.000000 1.610830 0.000000 
#    z 0.001620 0.000000 1.624040 
# 
# From -- ./inp_files/301724.got.cif
#   From: 2010.06.25/outbox.cif.g09.slc.cpg/sg12_151_cif.got.tgz:301724.got - 2010.06.28 00:19:55.
