data_PCOD8082247
_publ_section_title
;
Structure prediction by ZEFSAII (Michael W. Deem and Ramdas Pophale) SiO2 
 PCOD8082247
Probable space group: C 2/M
;
_chemical_formula_sum "Si O2"
_cell_formula_units_Z 52
_cell_length_a 20.927469
_cell_length_b 11.869216
_cell_length_c 14.796989
_cell_angle_alpha 90.000000
_cell_angle_beta 56.154606
_cell_angle_gamma 90.000000
_cell_volume 3052.632048
_symmetry_space_group_name_H-M "C 2/M"
_symmetry_group_IT_number 12
_symmetry_cell_setting 'monoclinic'
loop_
_space_group_symop_operation_xyz
x,y,z
-x,y,-z
-x,-y,-z
x,-y,z
1/2+x,1/2+y,z
1/2-x,1/2+y,-z
1/2-x,1/2-y,-z
1/2+x,1/2-y,z
loop_
_atom_site_type_symbol
_atom_site_label
_atom_site_fract_x
_atom_site_fract_y
_atom_site_fract_z
Si Si1 0.892602 0.500000 0.475607
Si Si2 0.326560 0.235405 0.494243
Si Si3 0.733677 0.706681 0.731173
Si Si4 0.880169 0.627508 0.099245
Si Si5 0.679738 0.000000 0.273674
Si Si6 0.004955 0.682981 0.139817
Si Si7 0.541583 0.000000 0.255910
Si Si8 0.403480 0.369363 0.290160
O O1 0.856280 0.608611 0.455712
O O2 0.874957 0.500000 0.595460
O O3 0.983863 0.500000 0.386730
O O4 0.250000 0.250000 0.500000
O O5 0.305384 0.257078 0.616179
O O6 0.388213 0.323003 0.404158
O O7 0.698740 0.806958 0.818477
O O8 0.766036 0.609977 0.771232
O O9 0.670232 0.651423 0.715282
O O10 0.860879 0.500000 0.084518
O O11 0.933705 0.622332 0.145790
O O12 0.923041 0.693063 0.984624
O O13 0.628134 0.000000 0.224896
O O14 0.028763 0.611567 0.207665
O O15 0.978588 0.807570 0.190487
O O16 0.423246 0.500000 0.280380
#
# Coordination Sequence:
#
# PCOD8082247 Si02
#       8
#     4   8   8   8   4   8   4   8
#     4  10  19  34  49  79 107 132 182 203 253 305
#     4   9  18  27  48  74 106 136 158 212 255 311
#     4   9  19  34  47  74 105 141 173 201 259 309
#     4  10  18  33  55  76 108 130 165 223 265 310
#     4  10  21  36  51  74 108 143 172 214 243 303
#     4  10  19  32  51  83 101 132 170 214 269 309
#     4  12  19  33  58  76 103 137 179 216 249 293
#     4  10  18  31  50  75 111 131 162 215 266 320
#
# _framework density 17.034479999999999
#
# number of rings (size 3 to 8) (size 9 to 14) (size 15 to 20)
#    0.000    2.154    3.846    0.692    3.231    0.615 
#    1.385    2.308    0.000    0.923    0.000    2.154 
#    0.000    0.000    0.000    0.000    0.000    0.000 
#
# Total GULP energy -322313.803175 kJ/mol
# GULP energy per Si atom -12396.684737 kJ/mol
# Density = 1.699571 g / cm^3
# Si number density = 17.034480 Si / 1000 Ang^3
#
#
#
# Elastic Constant Matrix: (Units=GPa)
#
#
# Indices 1 2 3 4 5 6 
#
# 1 65.2328 38.2653 29.2644 0.0000 -0.2599 0.0000
# 2 38.2653 143.2504 72.4026 0.0000 -11.8955 0.0000
# 3 29.2644 72.4026 108.8166 0.0000 -18.4277 0.0000
# 4 0.0000 0.0000 0.0000 26.8293 0.0000 -6.0434
# 5 -0.2599 -11.8955 -18.4277 0.0000 18.3201 0.0000
# 6 0.0000 0.0000 0.0000 -6.0434 0.0000 17.6625
#
#
#
# Elastic Compliance Matrix: (Units=1/GPa)
#
#
# Indices 1 2 3 4 5 6 
#
# 1 0.019142 -0.003761 -0.003631 0.000000 -0.005824 0.000000
# 2 -0.003761 0.011258 -0.006328 0.000000 0.000891 0.000000
# 3 -0.003631 -0.006328 0.016479 0.000000 0.012416 0.000000
# 4 0.000000 0.000000 0.000000 0.040385 0.000000 0.013818
# 5 -0.005824 0.000891 0.012416 0.000000 0.067570 0.000000
# 6 0.000000 0.000000 0.000000 0.013818 0.000000 0.061345
#
#
# Mechanical properties :
#
#
# Convention : Reuss Voigt Hill
#
# Bulk Modulus (GPa) = 51.44686 66.35158 58.89922
# Shear Modulus (GPa) = 19.99197 24.38689 22.18943
#
# Velocity S-wave (km/s) = 3.42953 3.78778 3.61310
# Velocity P-wave (km/s) = 6.77860 7.62664 7.21509
#
# Compressibility (1/GPa) = 0.01943753
#
# Stress axis : x y z
#
# Youngs Moduli (GPa) = 52.24103 88.82608 60.68177
#
# Poissons Ratio (x) = 0.33411 0.22036
# Poissons Ratio (y) = 0.19650 0.38400
# Poissons Ratio (z) = 0.18971 0.56210
#
# Static dielectric constant tensor:
#      x y z
#    x 2.758800 0.000000 -0.038530 
#    y 0.000000 3.220850 0.000000 
#    z -0.038530 0.000000 1.896000 
# 
# 
# High freq. dielectric constant tensor:
#      x y z
#    x 1.607430 0.000000 -0.010840 
#    y 0.000000 1.652370 0.000000 
#    z -0.010840 0.000000 1.667560 
# 
# From -- ./inp_files/231782.got.cif
#   From: 2010.06.25/outbox.cif.g09.slc.cpg/sg12_116_cif.got.tgz:231782.got - 2010.06.28 00:19:55.
