data_PCOD8082507
_publ_section_title
;
Structure prediction by ZEFSAII (Michael W. Deem and Ramdas Pophale) SiO2 
 PCOD8082507
Probable space group: C 2/M
;
_chemical_formula_sum "Si O2"
_cell_formula_units_Z 56
_cell_length_a 10.351591
_cell_length_b 33.102149
_cell_length_c 11.759687
_cell_angle_alpha 90.000000
_cell_angle_beta 131.412337
_cell_angle_gamma 90.000000
_cell_volume 3022.053650
_symmetry_space_group_name_H-M "C 2/M"
_symmetry_group_IT_number 12
_symmetry_cell_setting 'monoclinic'
loop_
_space_group_symop_operation_xyz
x,y,z
-x,y,-z
-x,-y,-z
x,-y,z
1/2+x,1/2+y,z
1/2-x,1/2+y,-z
1/2-x,1/2-y,-z
1/2+x,1/2-y,z
loop_
_atom_site_type_symbol
_atom_site_label
_atom_site_fract_x
_atom_site_fract_y
_atom_site_fract_z
Si Si1 0.698852 0.200448 0.595870
Si Si2 0.989162 0.500000 0.181636
Si Si3 0.876408 0.915139 0.179104
Si Si4 0.135121 0.128453 0.180327
Si Si5 0.394935 0.914649 0.180744
Si Si6 0.718262 0.500000 0.819890
Si Si7 0.136087 0.363155 0.179443
Si Si8 0.199629 0.793129 0.600156
O O1 0.500000 0.190388 0.500000
O O2 0.813127 0.172388 0.743844
O O3 0.745391 0.192815 0.492642
O O4 0.742552 0.246644 0.652161
O O5 0.960773 0.460271 0.243015
O O6 0.181601 0.500000 0.241966
O O7 0.856410 0.500000 0.000756
O O8 0.805841 0.887186 0.239150
O O9 0.055401 0.897731 0.236489
O O10 0.903284 0.960557 0.241788
O O11 0.737820 0.915815 0.999133
O O12 0.303435 0.103827 0.238202
O O13 0.000000 0.135198 0.000000
O O14 0.555758 0.886711 0.239940
O O15 0.189757 0.318328 0.245693
O O16 0.000000 0.358882 0.000000
O O17 0.000000 0.802370 0.500000
#
# Coordination Sequence:
#
# PCOD8082507 Si02
#       8
#     8   4   8   8   8   4   8   8
#     4  10  21  38  55  73 102 138 174 208 251 313
#     4   9  14  25  45  71 105 138 168 202 250 303
#     4   9  17  28  46  74 107 134 164 211 257 298
#     4  10  20  33  50  77 108 134 167 215 263 298
#     4   9  17  28  46  74 105 137 169 205 252 306
#     4   9  14  25  45  71 105 139 164 203 258 297
#     4  10  18  31  52  79 104 129 170 216 256 300
#     4  10  21  36  55  77 100 133 175 213 252 305
#
# _framework density 18.530443999999999
#
# number of rings (size 3 to 8) (size 9 to 14) (size 15 to 20)
#    0.000    2.429    1.429    1.714    0.000    1.143 
#    0.000    2.857    0.000   10.286    0.000   20.000 
#    0.000    0.000    0.000    0.000    0.000    0.000 
#
# Total GULP energy -347179.311655 kJ/mol
# GULP energy per Si atom -12399.261131 kJ/mol
# Density = 1.848827 g / cm^3
# Si number density = 18.530444 Si / 1000 Ang^3
#
#
#
# Elastic Constant Matrix: (Units=GPa)
#
#
# Indices 1 2 3 4 5 6 
#
# 1 174.0578 75.7462 31.3585 0.0000 -8.0678 0.0000
# 2 75.7462 163.4813 50.1271 0.0000 -3.2994 0.0000
# 3 31.3585 50.1271 32.0713 0.0000 -1.5830 0.0000
# 4 0.0000 0.0000 0.0000 14.1475 0.0000 -2.7219
# 5 -8.0678 -3.2994 -1.5830 0.0000 8.7591 0.0000
# 6 0.0000 0.0000 0.0000 -2.7219 0.0000 41.6940
#
#
#
# Elastic Compliance Matrix: (Units=1/GPa)
#
#
# Indices 1 2 3 4 5 6 
#
# 1 0.007664 -0.002353 -0.003543 0.000000 0.005532 0.000000
# 2 -0.002353 0.012480 -0.017233 0.000000 -0.000581 0.000000
# 3 -0.003543 -0.017233 0.061649 0.000000 0.001387 0.000000
# 4 0.000000 0.000000 0.000000 0.071583 0.000000 0.004673
# 5 0.005532 -0.000581 0.001387 0.000000 0.119294 0.000000
# 6 0.000000 0.000000 0.000000 0.004673 0.000000 0.024289
#
#
# Mechanical properties :
#
#
# Convention : Reuss Voigt Hill
#
# Bulk Modulus (GPa) = 28.14227 76.00823 52.07525
# Shear Modulus (GPa) = 14.08207 27.07868 20.58038
#
# Velocity S-wave (km/s) = 2.75970 3.82685 3.33622
# Velocity P-wave (km/s) = 5.03732 7.78675 6.55775
#
# Compressibility (1/GPa) = 0.03553373
#
# Stress axis : x y z
#
# Youngs Moduli (GPa) = 130.48197 80.13116 16.22095
#
# Poissons Ratio (x) = 0.18855 0.05747
# Poissons Ratio (y) = 0.30702 0.27954
# Poissons Ratio (z) = 0.46228 1.38093
#
# Static dielectric constant tensor:
#      x y z
#    x 3.745960 0.000000 -0.042120 
#    y 0.000000 3.594240 0.000000 
#    z -0.042120 0.000000 2.813610 
# 
# 
# High freq. dielectric constant tensor:
#      x y z
#    x 1.736120 0.000000 -0.002610 
#    y 0.000000 1.731600 0.000000 
#    z -0.002610 0.000000 1.665770 
# 
# From -- ./inp_files/125885.got.cif
#   From: 2010.06.25/outbox.cif.g09.slc.cpg/sg12_63_cif.got.tgz:125885.got - 2010.06.28 00:19:55.
