data_PCOD8082569
_publ_section_title
;
Structure prediction by ZEFSAII (Michael W. Deem and Ramdas Pophale) SiO2 
 PCOD8082569
Probable space group: C 2/M
;
_chemical_formula_sum "Si O2"
_cell_formula_units_Z 40
_cell_length_a 29.164479
_cell_length_b 9.030983
_cell_length_c 10.391814
_cell_angle_alpha 90.000000
_cell_angle_beta 126.715533
_cell_angle_gamma 90.000000
_cell_volume 2194.045792
_symmetry_space_group_name_H-M "C 2/M"
_symmetry_group_IT_number 12
_symmetry_cell_setting 'monoclinic'
loop_
_space_group_symop_operation_xyz
x,y,z
-x,y,-z
-x,-y,-z
x,-y,z
1/2+x,1/2+y,z
1/2-x,1/2+y,-z
1/2-x,1/2-y,-z
1/2+x,1/2-y,z
loop_
_atom_site_type_symbol
_atom_site_label
_atom_site_fract_x
_atom_site_fract_y
_atom_site_fract_z
Si Si1 0.064116 0.824101 0.614777
Si Si2 0.870572 0.824475 0.023563
Si Si3 0.630551 0.166834 0.227842
Si Si4 0.360128 0.324202 0.495924
Si Si5 0.732883 0.833161 0.234338
O O1 0.099378 0.768380 0.550721
O O2 0.000000 0.759368 0.500000
O O3 0.062955 0.000000 0.613858
O O4 0.094198 0.766304 0.794780
O O5 0.899028 0.752351 0.942792
O O6 0.804442 0.768405 0.926547
O O7 0.871678 0.000000 0.013353
O O8 0.616335 0.251126 0.334973
O O9 0.699266 0.165518 0.315475
O O10 0.606345 0.000000 0.195468
O O11 0.360905 0.500000 0.515290
O O12 0.296046 0.267119 0.358525
O O13 0.736609 0.000000 0.184389
#
# Coordination Sequence:
#
# PCOD8082569 Si02
#       5
#     8   8   8   8   8
#     4   9  19  35  53  74  99 127 167 215 250 283
#     4   9  17  31  52  74 100 133 163 198 248 297
#     4   9  18  32  49  75 108 132 158 200 247 295
#     4  10  18  31  53  77 100 131 167 201 244 294
#     4   8  17  30  48  75 107 131 157 199 245 295
#
# _framework density 18.231159000000002
#
# number of rings (size 3 to 8) (size 9 to 14) (size 15 to 20)
#    1.200    1.800    0.000    1.200    0.000    1.600 
#    0.000    3.000    0.000   11.400    0.000    0.000 
#    0.000    0.000    0.000    0.000    0.000    0.000 
#
# Total GULP energy -247803.834363 kJ/mol
# GULP energy per Si atom -12390.191718 kJ/mol
# Density = 1.818966 g / cm^3
# Si number density = 18.231159 Si / 1000 Ang^3
#
#
#
# Elastic Constant Matrix: (Units=GPa)
#
#
# Indices 1 2 3 4 5 6 
#
# 1 83.2315 27.5323 78.5992 0.0000 -15.3612 0.0000
# 2 27.5323 65.2768 45.6198 0.0000 -9.1423 0.0000
# 3 78.5992 45.6198 140.6874 0.0000 -27.7489 0.0000
# 4 0.0000 0.0000 0.0000 21.0247 0.0000 -1.4460
# 5 -15.3612 -9.1423 -27.7489 0.0000 16.7903 0.0000
# 6 0.0000 0.0000 0.0000 -1.4460 0.0000 14.1213
#
#
#
# Elastic Compliance Matrix: (Units=1/GPa)
#
#
# Indices 1 2 3 4 5 6 
#
# 1 0.025488 -0.001034 -0.013970 0.000000 -0.000332 0.000000
# 2 -0.001034 0.019851 -0.005807 0.000000 0.000266 0.000000
# 3 -0.013970 -0.005807 0.020253 0.000000 0.017529 0.000000
# 4 0.000000 0.000000 0.000000 0.047900 0.000000 0.004905
# 5 -0.000332 0.000266 0.017529 0.000000 0.088369 0.000000
# 6 0.000000 0.000000 0.000000 0.004905 0.000000 0.071317
#
#
# Mechanical properties :
#
#
# Convention : Reuss Voigt Hill
#
# Bulk Modulus (GPa) = 41.71748 65.85537 53.78643
# Shear Modulus (GPa) = 15.49000 19.55021 17.52011
#
# Velocity S-wave (km/s) = 2.91803 3.27823 3.10336
# Velocity P-wave (km/s) = 5.85537 7.10844 6.51211
#
# Compressibility (1/GPa) = 0.02397077
#
# Stress axis : x y z
#
# Youngs Moduli (GPa) = 39.23486 50.37555 49.37569
#
# Poissons Ratio (x) = 0.05207 0.68976
# Poissons Ratio (y) = 0.04055 0.28672
# Poissons Ratio (z) = 0.54810 0.29253
#
# Static dielectric constant tensor:
#      x y z
#    x 3.220670 0.000000 -0.000840 
#    y 0.000000 3.098510 0.000000 
#    z -0.000840 0.000000 3.285410 
# 
# 
# High freq. dielectric constant tensor:
#      x y z
#    x 1.682210 0.000000 -0.007470 
#    y 0.000000 1.688120 0.000000 
#    z -0.007470 0.000000 1.698800 
# 
# From -- ./inp_files/93714.got.cif
#   From: 2010.06.25/outbox.cif.g09.slc.cpg/sg12_47_cif.got.tgz:93714.got - 2010.06.28 00:19:55.
