data_PCOD8082918
_publ_section_title
;
Structure prediction by ZEFSAII (Michael W. Deem and Ramdas Pophale) SiO2 
 PCOD8082918
Probable space group: C 2/M
;
_chemical_formula_sum "Si O2"
_cell_formula_units_Z 48
_cell_length_a 14.478703
_cell_length_b 24.720322
_cell_length_c 14.381402
_cell_angle_alpha 90.000000
_cell_angle_beta 149.989150
_cell_angle_gamma 90.000000
_cell_volume 2574.526871
_symmetry_space_group_name_H-M "C 2/M"
_symmetry_group_IT_number 12
_symmetry_cell_setting 'monoclinic'
loop_
_space_group_symop_operation_xyz
x,y,z
-x,y,-z
-x,-y,-z
x,-y,z
1/2+x,1/2+y,z
1/2-x,1/2+y,-z
1/2-x,1/2-y,-z
1/2+x,1/2-y,z
loop_
_atom_site_type_symbol
_atom_site_label
_atom_site_fract_x
_atom_site_fract_y
_atom_site_fract_z
Si Si1 0.873015 0.062558 0.979282
Si Si2 0.229370 0.313563 0.457494
Si Si3 0.558183 0.164024 0.952894
Si Si4 0.086648 0.857893 0.834846
Si Si5 0.150077 0.783541 0.058743
Si Si6 0.547373 0.861063 0.643525
O O1 0.675930 0.092375 0.799245
O O2 0.837116 0.000000 0.967730
O O3 0.972500 0.089753 0.155435
O O4 0.000000 0.071375 0.000000
O O5 0.250000 0.250000 0.500000
O O6 0.430656 0.341729 0.623700
O O7 0.118926 0.323028 0.265586
O O8 0.134662 0.348959 0.456012
O O9 0.500000 0.136013 0.000000
O O10 0.715683 0.128210 0.040758
O O11 0.660243 0.219537 0.067643
O O12 0.109372 0.805471 0.920496
O O13 0.346666 0.803921 0.266857
O O14 0.000000 0.806483 0.000000
O O15 0.500000 0.881446 0.500000
#
# Coordination Sequence:
#
# PCOD8082918 Si02
#       6
#     8   8   8   8   8   8
#     4  10  21  39  62  87 119 154 194 253 308 353
#     4  12  22  35  57  85 118 160 196 231 287 356
#     4  11  23  37  53  82 117 158 199 240 283 342
#     4  11  20  38  57  78 117 152 193 239 293 351
#     4  10  18  32  50  77 117 154 188 232 280 345
#     4  11  21  33  54  87 120 158 194 234 293 360
#
# _framework density 18.644202
#
# number of rings (size 3 to 8) (size 9 to 14) (size 15 to 20)
#    0.000    1.167    5.000    5.500    2.333    1.000 
#    0.000    0.833    0.000    0.500    0.000    1.167 
#    0.000    0.000    0.000    0.000    0.000    0.000 
#
# Total GULP energy -297511.483493 kJ/mol
# GULP energy per Si atom -12396.311812 kJ/mol
# Density = 1.860177 g / cm^3
# Si number density = 18.644202 Si / 1000 Ang^3
#
#
#
# Elastic Constant Matrix: (Units=GPa)
#
#
# Indices 1 2 3 4 5 6 
#
# 1 114.3115 18.5582 34.5556 0.0000 -1.8769 0.0000
# 2 18.5582 83.4414 23.2068 0.0000 0.0247 0.0000
# 3 34.5556 23.2068 115.9778 0.0000 -3.0627 0.0000
# 4 0.0000 0.0000 0.0000 14.5993 0.0000 2.3009
# 5 -1.8769 0.0247 -3.0627 0.0000 27.8777 0.0000
# 6 0.0000 0.0000 0.0000 2.3009 0.0000 22.0472
#
#
#
# Elastic Compliance Matrix: (Units=1/GPa)
#
#
# Indices 1 2 3 4 5 6 
#
# 1 0.009779 -0.001448 -0.002614 0.000000 0.000372 0.000000
# 2 -0.001448 0.012907 -0.002160 0.000000 -0.000346 0.000000
# 3 -0.002614 -0.002160 0.009858 0.000000 0.000909 0.000000
# 4 0.000000 0.000000 0.000000 0.069642 0.000000 -0.007268
# 5 0.000372 -0.000346 0.000909 0.000000 0.035996 0.000000
# 6 0.000000 0.000000 0.000000 -0.007268 0.000000 0.046116
#
#
# Mechanical properties :
#
#
# Convention : Reuss Voigt Hill
#
# Bulk Modulus (GPa) = 49.75359 51.81910 50.78635
# Shear Modulus (GPa) = 24.57682 28.73216 26.65449
#
# Velocity S-wave (km/s) = 3.63464 3.92991 3.78516
# Velocity P-wave (km/s) = 6.66018 6.96034 6.81191
#
# Compressibility (1/GPa) = 0.02009905
#
# Stress axis : x y z
#
# Youngs Moduli (GPa) = 102.25474 77.47436 101.44512
#
# Poissons Ratio (x) = 0.11219 0.26520
# Poissons Ratio (y) = 0.14807 0.21917
# Poissons Ratio (z) = 0.26732 0.16738
#
# Static dielectric constant tensor:
#      x y z
#    x 3.763960 0.000000 0.059590 
#    y 0.000000 3.125640 0.000000 
#    z 0.059590 0.000000 3.491750 
# 
# 
# High freq. dielectric constant tensor:
#      x y z
#    x 1.725110 0.000000 0.005940 
#    y 0.000000 1.678880 0.000000 
#    z 0.005940 0.000000 1.729630 
# 
# From -- ./inp_files/218978.got.cif
#   From: 2010.06.25/outbox.cif.g09.slc.cpg/sg12_110_cif.got.tgz:218978.got - 2010.06.28 00:19:55.
