data_PCOD8082584
_publ_section_title
;
Structure prediction by ZEFSAII (Michael W. Deem and Ramdas Pophale) SiO2 
 PCOD8082584
Probable space group: C 2/M
;
_chemical_formula_sum "Si O2"
_cell_formula_units_Z 48
_cell_length_a 19.284782
_cell_length_b 12.545062
_cell_length_c 11.694710
_cell_angle_alpha 90.000000
_cell_angle_beta 95.321001
_cell_angle_gamma 90.000000
_cell_volume 2817.094954
_symmetry_space_group_name_H-M "C 2/M"
_symmetry_group_IT_number 12
_symmetry_cell_setting 'monoclinic'
loop_
_space_group_symop_operation_xyz
x,y,z
-x,y,-z
-x,-y,-z
x,-y,z
1/2+x,1/2+y,z
1/2-x,1/2+y,-z
1/2-x,1/2-y,-z
1/2+x,1/2-y,z
loop_
_atom_site_type_symbol
_atom_site_label
_atom_site_fract_x
_atom_site_fract_y
_atom_site_fract_z
Si Si1 0.419088 0.116981 0.969650
Si Si2 0.588096 0.124604 0.778900
Si Si3 0.929142 0.876479 0.557322
Si Si4 0.699448 0.880750 0.396215
Si Si5 0.932589 0.703275 0.738216
Si Si6 0.823351 0.743194 0.392411
O O1 0.406338 0.203728 0.867009
O O2 0.387943 0.000000 0.930585
O O3 0.500000 0.100479 0.000000
O O4 0.389206 0.154919 0.087632
O O5 0.507687 0.148623 0.740109
O O6 0.635563 0.199263 0.709005
O O7 0.601598 0.000000 0.756671
O O8 0.934197 0.821180 0.683359
O O9 0.867687 0.827088 0.473141
O O10 0.000000 0.857578 0.500000
O O11 0.913785 0.000000 0.576991
O O12 0.620978 0.868985 0.339982
O O13 0.753709 0.803500 0.338249
O O14 0.699827 0.854859 0.531407
O O15 0.725525 0.000000 0.381978
#
# Coordination Sequence:
#
# PCOD8082584 Si02
#       6
#     8   8   8   8   8   8
#     4   8  15  28  49  75 102 128 154 197 253 295
#     4  10  18  31  53  78 101 127 164 207 246 287
#     4  10  19  32  49  69  97 131 165 200 240 290
#     4  10  20  32  49  71 102 133 159 202 252 297
#     4  10  18  32  53  77  98 125 165 205 247 293
#     4  10  20  33  47  74 100 132 167 199 246 295
#
# _framework density 17.038827999999999
#
# number of rings (size 3 to 8) (size 9 to 14) (size 15 to 20)
#    0.000    2.333    1.667    3.500    0.000    0.000 
#    0.000    4.167    0.000    6.500    0.000    0.000 
#    0.000    0.000    0.000    0.000    0.000    0.000 
#
# Total GULP energy -297443.631889 kJ/mol
# GULP energy per Si atom -12393.484662 kJ/mol
# Density = 1.700005 g / cm^3
# Si number density = 17.038828 Si / 1000 Ang^3
#
#
#
# Elastic Constant Matrix: (Units=GPa)
#
#
# Indices 1 2 3 4 5 6 
#
# 1 68.6571 33.2829 35.7276 0.0000 -15.7529 0.0000
# 2 33.2829 109.4284 71.1537 0.0000 -8.1426 0.0000
# 3 35.7276 71.1537 121.4154 0.0000 -18.8913 0.0000
# 4 0.0000 0.0000 0.0000 20.5118 0.0000 -0.5164
# 5 -15.7529 -8.1426 -18.8913 0.0000 14.8072 0.0000
# 6 0.0000 0.0000 0.0000 -0.5164 0.0000 16.4130
#
#
#
# Elastic Compliance Matrix: (Units=1/GPa)
#
#
# Indices 1 2 3 4 5 6 
#
# 1 0.021696 -0.004812 -0.000480 0.000000 0.019823 0.000000
# 2 -0.004812 0.015991 -0.009212 0.000000 -0.008079 0.000000
# 3 -0.000480 -0.009212 0.016106 0.000000 0.014971 0.000000
# 4 0.000000 0.000000 0.000000 0.048791 0.000000 0.001535
# 5 0.019823 -0.008079 0.014971 0.000000 0.103281 0.000000
# 6 0.000000 0.000000 0.000000 0.001535 0.000000 0.060976
#
#
# Mechanical properties :
#
#
# Convention : Reuss Voigt Hill
#
# Bulk Modulus (GPa) = 40.34846 64.42548 52.38697
# Shear Modulus (GPa) = 16.44144 20.96884 18.70514
#
# Velocity S-wave (km/s) = 3.10972 3.51187 3.31689
# Velocity P-wave (km/s) = 6.05190 7.37139 6.74399
#
# Compressibility (1/GPa) = 0.02478409
#
# Stress axis : x y z
#
# Youngs Moduli (GPa) = 46.09207 62.53583 62.09026
#
# Poissons Ratio (x) = 0.30090 0.02981
# Poissons Ratio (y) = 0.22178 0.57199
# Poissons Ratio (z) = 0.02213 0.57610
#
# Static dielectric constant tensor:
#      x y z
#    x 3.129470 0.000000 -0.061010 
#    y 0.000000 3.136930 0.000000 
#    z -0.061010 0.000000 3.470660 
# 
# 
# High freq. dielectric constant tensor:
#      x y z
#    x 1.650090 0.000000 -0.003050 
#    y 0.000000 1.646640 0.000000 
#    z -0.003050 0.000000 1.649940 
# 
# From -- ./inp_files/153635.got.cif
#   From: 2010.06.25/outbox.cif.g09.slc.cpg/sg12_77_cif.got.tgz:153635.got - 2010.06.28 00:19:55.
