data_PCOD8082055
_publ_section_title
;
Structure prediction by ZEFSAII (Michael W. Deem and Ramdas Pophale) SiO2 
 PCOD8082055
Probable space group: C 2/M
;
_chemical_formula_sum "Si O2"
_cell_formula_units_Z 40
_cell_length_a 28.777941
_cell_length_b 7.551231
_cell_length_c 26.511694
_cell_angle_alpha 90.000000
_cell_angle_beta 23.037369
_cell_angle_gamma 90.000000
_cell_volume 2254.548902
_symmetry_space_group_name_H-M "C 2/M"
_symmetry_group_IT_number 12
_symmetry_cell_setting 'monoclinic'
loop_
_space_group_symop_operation_xyz
x,y,z
-x,y,-z
-x,-y,-z
x,-y,z
1/2+x,1/2+y,z
1/2-x,1/2+y,-z
1/2-x,1/2-y,-z
1/2+x,1/2-y,z
loop_
_atom_site_type_symbol
_atom_site_label
_atom_site_fract_x
_atom_site_fract_y
_atom_site_fract_z
Si Si1 0.486342 0.500000 0.096718
Si Si2 0.838520 0.207944 0.801309
Si Si3 0.195793 0.000000 0.807353
Si Si4 0.887103 0.205750 0.858238
Si Si5 0.071722 0.300640 0.077184
Si Si6 0.620054 0.706808 0.351391
O O1 0.365909 0.500000 0.185267
O O2 0.483117 0.675193 0.134768
O O3 0.600316 0.500000 0.946961
O O4 0.917840 0.274664 0.770214
O O5 0.901043 0.258557 0.686315
O O6 0.823838 0.000000 0.822963
O O7 0.703683 0.281700 0.936839
O O8 0.273877 0.177721 0.732170
O O9 0.958043 0.301573 0.832763
O O10 0.914251 0.000000 0.837235
O O11 0.750000 0.250000 0.000000
O O12 0.057945 0.500000 0.069946
O O13 0.500000 0.754585 0.500000
O O14 0.654031 0.500000 0.323224
#
# Coordination Sequence:
#
# PCOD8082055 Si02
#       6
#     4   8   4   8   8   8
#     4  11  22  34  52  74 104 146 171 208 252 298
#     4   8  15  27  45  72 102 133 160 202 255 307
#     4  11  23  36  52  76 103 139 182 206 249 306
#     4   9  15  24  42  68 101 133 162 195 253 313
#     4  10  18  31  47  70 104 136 165 206 251 306
#     4  10  20  36  56  76 105 134 170 218 261 298
#
# _framework density 17.741909
#
# number of rings (size 3 to 8) (size 9 to 14) (size 15 to 20)
#    0.000    2.400    3.000    2.100    0.000    0.800 
#    1.800    2.000    0.000    0.000    0.000    1.400 
#    0.000    0.000    0.000    0.000    0.000    0.000 
#
# Total GULP energy -247793.928987 kJ/mol
# GULP energy per Si atom -12389.696449 kJ/mol
# Density = 1.770153 g / cm^3
# Si number density = 17.741909 Si / 1000 Ang^3
#
#
#
# Elastic Constant Matrix: (Units=GPa)
#
#
# Indices 1 2 3 4 5 6 
#
# 1 170.4469 48.0178 50.5601 -0.0006 5.7189 -0.0012
# 2 48.0178 86.0794 23.3036 -0.0033 -6.7172 0.0022
# 3 50.5601 23.3036 55.9471 -0.0062 6.6852 0.0023
# 4 -0.0006 -0.0033 -0.0062 12.8407 0.0021 -3.1488
# 5 5.7189 -6.7172 6.6852 0.0021 21.8261 -0.0003
# 6 -0.0012 0.0022 0.0023 -3.1488 -0.0003 24.2305
#
#
#
# Elastic Compliance Matrix: (Units=1/GPa)
#
#
# Indices 1 2 3 4 5 6 
#
# 1 0.008713 -0.003241 -0.006365 -0.000003 -0.001331 0.000001
# 2 -0.003241 0.015079 -0.004160 0.000000 0.006764 -0.000001
# 3 -0.006365 -0.004160 0.026274 0.000012 -0.007660 -0.000001
# 4 -0.000003 0.000000 0.000012 0.080441 -0.000010 0.010453
# 5 -0.001331 0.006764 -0.007660 -0.000010 0.050593 -0.000001
# 6 0.000001 -0.000001 -0.000001 0.010453 -0.000001 0.042629
#
#
# Mechanical properties :
#
#
# Convention : Reuss Voigt Hill
#
# Bulk Modulus (GPa) = 44.37738 61.80405 53.09072
# Shear Modulus (GPa) = 19.32202 24.48559 21.90381
#
# Velocity S-wave (km/s) = 3.30367 3.71900 3.51747
# Velocity P-wave (km/s) = 6.29439 7.30424 6.81804
#
# Compressibility (1/GPa) = 0.02253400
#
# Stress axis : x y z
#
# Youngs Moduli (GPa) = 114.77637 66.31640 38.06023
#
# Poissons Ratio (x) = 0.21493 0.24224
# Poissons Ratio (y) = 0.37198 0.15834
# Poissons Ratio (z) = 0.73052 0.27590
#
# Static dielectric constant tensor:
#      x y z
#    x 3.850790 0.000000 0.271200 
#    y 0.000000 3.288990 0.000010 
#    z 0.271200 0.000010 2.745750 
# 
# 
# High freq. dielectric constant tensor:
#      x y z
#    x 1.706480 0.000000 0.021010 
#    y 0.000000 1.693760 0.000000 
#    z 0.021010 0.000000 1.606650 
# 
# From -- ./inp_files/101136.got.cif
#   From: 2010.06.25/outbox.cif.g09.slc.cpg/sg12_51_cif.got.tgz:101136.got - 2010.06.28 00:19:55.
