data_PCOD8082630
_publ_section_title
;
Structure prediction by ZEFSAII (Michael W. Deem and Ramdas Pophale) SiO2 
 PCOD8082630
Probable space group: C 2/M
;
_chemical_formula_sum "Si O2"
_cell_formula_units_Z 40
_cell_length_a 27.593003
_cell_length_b 8.575362
_cell_length_c 18.795966
_cell_angle_alpha 90.000000
_cell_angle_beta 153.127877
_cell_angle_gamma 90.000000
_cell_volume 2010.273938
_symmetry_space_group_name_H-M "C 2/M"
_symmetry_group_IT_number 12
_symmetry_cell_setting 'monoclinic'
loop_
_space_group_symop_operation_xyz
x,y,z
-x,y,-z
-x,-y,-z
x,-y,z
1/2+x,1/2+y,z
1/2-x,1/2+y,-z
1/2-x,1/2-y,-z
1/2+x,1/2-y,z
loop_
_atom_site_type_symbol
_atom_site_label
_atom_site_fract_x
_atom_site_fract_y
_atom_site_fract_z
Si Si1 0.509855 0.683307 0.727928
Si Si2 0.375858 0.819727 0.848352
Si Si3 0.327147 0.817263 0.945808
Si Si4 0.283516 0.181950 0.468745
Si Si5 0.831853 0.684362 0.164702
O O1 0.520256 0.500000 0.734887
O O2 0.578409 0.738485 0.885312
O O3 0.387676 0.730612 0.576873
O O4 0.551081 0.758206 0.707154
O O5 0.311967 0.709130 0.711513
O O6 0.349200 0.000000 0.796955
O O7 0.500000 0.784451 0.000000
O O8 0.343175 0.773852 0.885110
O O9 0.334541 0.000000 0.969613
O O10 0.208872 0.754142 0.813401
O O11 0.250000 0.250000 0.500000
O O12 0.308133 0.000000 0.508901
O O13 0.829012 0.500000 0.164769
O O14 0.750000 0.750000 0.000000
#
# Coordination Sequence:
#
# PCOD8082630 Si02
#       5
#     8   8   8   8   8
#     4  11  21  36  59  86 117 151 192 237 283 335
#     4  10  22  40  61  85 115 150 188 233 285 339
#     4  10  19  34  58  87 119 153 191 235 284 337
#     4  12  25  41  61  85 115 149 189 234 283 339
#     4  10  18  31  53  82 116 152 193 235 279 333
#
# _framework density 19.897786
#
# number of rings (size 3 to 8) (size 9 to 14) (size 15 to 20)
#    0.000    1.400    0.000    9.600    0.000    3.600 
#    0.000    1.000    0.000    6.000    0.000    0.000 
#    0.000    0.000    0.000    0.000    0.000    0.000 
#
# Total GULP energy -248034.384656 kJ/mol
# GULP energy per Si atom -12401.719233 kJ/mol
# Density = 1.985250 g / cm^3
# Si number density = 19.897786 Si / 1000 Ang^3
#
#
#
# Elastic Constant Matrix: (Units=GPa)
#
#
# Indices 1 2 3 4 5 6 
#
# 1 184.2798 54.9392 53.1111 0.0000 15.6815 0.0000
# 2 54.9392 122.7253 21.5774 0.0000 -3.2298 0.0000
# 3 53.1111 21.5774 73.2759 0.0000 5.5224 0.0000
# 4 0.0000 0.0000 0.0000 32.1766 0.0000 3.0822
# 5 15.6815 -3.2298 5.5224 0.0000 30.0826 0.0000
# 6 0.0000 0.0000 0.0000 3.0822 0.0000 31.8676
#
#
#
# Elastic Compliance Matrix: (Units=1/GPa)
#
#
# Indices 1 2 3 4 5 6 
#
# 1 0.007906 -0.002819 -0.004631 0.000000 -0.003574 0.000000
# 2 -0.002819 0.009657 -0.001003 0.000000 0.002691 0.000000
# 3 -0.004631 -0.001003 0.017365 0.000000 -0.000882 0.000000
# 4 0.000000 0.000000 0.000000 0.031369 0.000000 -0.003034
# 5 -0.003574 0.002691 -0.000882 0.000000 0.035555 0.000000
# 6 0.000000 0.000000 0.000000 -0.003034 0.000000 0.031673
#
#
# Mechanical properties :
#
#
# Convention : Reuss Voigt Hill
#
# Bulk Modulus (GPa) = 55.48647 71.05958 63.27302
# Shear Modulus (GPa) = 31.96121 35.53558 33.74840
#
# Velocity S-wave (km/s) = 4.01218 4.23058 4.12283
# Velocity P-wave (km/s) = 7.02920 7.72357 7.38456
#
# Compressibility (1/GPa) = 0.01802241
#
# Stress axis : x y z
#
# Youngs Moduli (GPa) = 126.49193 103.54730 57.58602
#
# Poissons Ratio (x) = 0.29189 0.26666
# Poissons Ratio (y) = 0.35657 0.05778
# Poissons Ratio (z) = 0.58574 0.10390
#
# Static dielectric constant tensor:
#      x y z
#    x 4.256460 0.000000 0.310420 
#    y 0.000000 3.715220 0.000000 
#    z 0.310420 0.000000 3.423880 
# 
# 
# High freq. dielectric constant tensor:
#      x y z
#    x 1.801720 0.000000 0.017460 
#    y 0.000000 1.790710 0.000000 
#    z 0.017460 0.000000 1.748180 
# 
# From -- ./inp_files/292326.got.cif
#   From: 2010.06.25/outbox.cif.g09.slc.cpg/sg12_147_cif.got.tgz:292326.got - 2010.06.28 00:19:55.
