data_PCOD8082760
_publ_section_title
;
Structure prediction by ZEFSAII (Michael W. Deem and Ramdas Pophale) SiO2 
 PCOD8082760
Probable space group: C 2/M
;
_chemical_formula_sum "Si O2"
_cell_formula_units_Z 44
_cell_length_a 27.596992
_cell_length_b 13.905512
_cell_length_c 16.829239
_cell_angle_alpha 90.000000
_cell_angle_beta 20.907748
_cell_angle_gamma 90.000000
_cell_volume 2304.710321
_symmetry_space_group_name_H-M "C 2/M"
_symmetry_group_IT_number 12
_symmetry_cell_setting 'monoclinic'
loop_
_space_group_symop_operation_xyz
x,y,z
-x,y,-z
-x,-y,-z
x,-y,z
1/2+x,1/2+y,z
1/2-x,1/2+y,-z
1/2-x,1/2-y,-z
1/2+x,1/2-y,z
loop_
_atom_site_type_symbol
_atom_site_label
_atom_site_fract_x
_atom_site_fract_y
_atom_site_fract_z
Si Si1 0.873741 0.395155 0.748133
Si Si2 0.214083 0.766079 0.879538
Si Si3 0.974239 0.388874 0.768804
Si Si4 0.036893 0.890833 0.773792
Si Si5 0.209311 0.747129 0.407388
Si Si6 0.000000 0.822630 0.000000
O O1 0.795634 0.500000 0.871890
O O2 0.789250 0.304783 0.843297
O O3 0.932017 0.366966 0.743876
O O4 0.000000 0.413167 0.500000
O O5 0.313444 0.742730 0.653122
O O6 0.137255 0.666053 0.008923
O O7 0.112361 0.852585 0.015605
O O8 0.972491 0.500000 0.794668
O O9 0.124642 0.348988 0.559424
O O10 0.151310 0.834435 0.548477
O O11 0.048961 0.000000 0.727526
O O12 0.054355 0.885078 0.842550
O O13 0.370765 0.742584 0.174652
#
# Coordination Sequence:
#
# PCOD8082760 Si02
#       6
#     8   8   8   8   8   4
#     4  10  18  31  55  82 106 138 179 220 257 304
#     4  10  20  35  55  78 109 143 173 215 263 310
#     4  10  21  35  54  79 107 141 181 217 257 309
#     4  10  21  36  56  81 106 136 174 216 262 314
#     4  10  21  37  55  78 108 138 173 218 264 312
#     4  10  21  38  57  78 104 138 173 218 265 312
#
# _framework density 19.091335999999998
#
# number of rings (size 3 to 8) (size 9 to 14) (size 15 to 20)
#    0.000    2.000    1.818    1.909    0.000    4.364 
#    0.000    0.455    0.000    0.545    0.000    0.000 
#    0.000    0.000    0.000    0.000    0.000    0.000 
#
# Total GULP energy -272588.728684 kJ/mol
# GULP energy per Si atom -12390.396758 kJ/mol
# Density = 1.904788 g / cm^3
# Si number density = 19.091336 Si / 1000 Ang^3
#
#
#
# Elastic Constant Matrix: (Units=GPa)
#
#
# Indices 1 2 3 4 5 6 
#
# 1 66.6578 45.2939 25.8191 0.0001 0.3539 0.0000
# 2 45.2939 144.6371 59.4267 0.0001 9.2102 -0.0001
# 3 25.8191 59.4267 93.3733 0.0002 6.3532 -0.0001
# 4 0.0001 0.0001 0.0002 9.5814 -0.0001 -0.5858
# 5 0.3539 9.2102 6.3532 -0.0001 26.1572 0.0001
# 6 0.0000 -0.0001 -0.0001 -0.5858 0.0001 23.5015
#
#
#
# Elastic Compliance Matrix: (Units=1/GPa)
#
#
# Indices 1 2 3 4 5 6 
#
# 1 0.019451 -0.005359 -0.002113 0.000000 0.002137 0.000000
# 2 -0.005359 0.010930 -0.005305 0.000000 -0.002488 0.000000
# 3 -0.002113 -0.005305 0.014786 0.000000 -0.001695 0.000000
# 4 0.000000 0.000000 0.000000 0.104528 0.000000 0.002606
# 5 0.002137 -0.002488 -0.001695 0.000000 0.039489 0.000000
# 6 0.000000 0.000000 0.000000 0.002606 0.000000 0.042615
#
#
# Mechanical properties :
#
#
# Convention : Reuss Voigt Hill
#
# Bulk Modulus (GPa) = 50.98970 62.86084 56.92527
# Shear Modulus (GPa) = 18.94721 23.45658 21.20189
#
# Velocity S-wave (km/s) = 3.15374 3.50901 3.33611
# Velocity P-wave (km/s) = 6.32674 7.02961 6.68742
#
# Compressibility (1/GPa) = 0.01961180
#
# Stress axis : x y z
#
# Youngs Moduli (GPa) = 51.41250 91.48927 67.63208
#
# Poissons Ratio (x) = 0.49028 0.14291
# Poissons Ratio (y) = 0.27551 0.35881
# Poissons Ratio (z) = 0.10864 0.48539
#
# Static dielectric constant tensor:
#      x y z
#    x 3.466910 0.000000 0.062320 
#    y 0.000000 3.370510 0.000000 
#    z 0.062320 0.000000 3.426360 
# 
# 
# High freq. dielectric constant tensor:
#      x y z
#    x 1.748380 0.000000 0.007570 
#    y 0.000000 1.729320 0.000000 
#    z 0.007570 0.000000 1.738200 
# 
# From -- ./inp_files/262014.got.cif
#   From: 2010.06.25/outbox.cif.g09.slc.cpg/sg12_132_cif.got.tgz:262014.got - 2010.06.28 00:19:55.
