data_PCOD8082093
_publ_section_title
;
Structure prediction by ZEFSAII (Michael W. Deem and Ramdas Pophale) SiO2 
 PCOD8082093
Probable space group: C 2/M
;
_chemical_formula_sum "Si O2"
_cell_formula_units_Z 64
_cell_length_a 30.032535
_cell_length_b 10.666118
_cell_length_c 11.101765
_cell_angle_alpha 90.000000
_cell_angle_beta 80.938716
_cell_angle_gamma 90.000000
_cell_volume 3511.854423
_symmetry_space_group_name_H-M "C 2/M"
_symmetry_group_IT_number 12
_symmetry_cell_setting 'monoclinic'
loop_
_space_group_symop_operation_xyz
x,y,z
-x,y,-z
-x,-y,-z
x,-y,z
1/2+x,1/2+y,z
1/2-x,1/2+y,-z
1/2-x,1/2-y,-z
1/2+x,1/2-y,z
loop_
_atom_site_type_symbol
_atom_site_label
_atom_site_fract_x
_atom_site_fract_y
_atom_site_fract_z
Si Si1 0.550615 0.140953 0.121685
Si Si2 0.709983 0.863484 0.894232
Si Si3 0.382677 0.638987 0.909525
Si Si4 0.450237 0.138682 0.163981
Si Si5 0.296625 0.859217 0.591986
Si Si6 0.193576 0.137348 0.583586
Si Si7 0.698249 0.773982 0.152974
Si Si8 0.633779 0.713444 0.816665
O O1 0.584302 0.250184 0.152042
O O2 0.500209 0.178420 0.186989
O O3 0.563559 0.000000 0.164162
O O4 0.551739 0.136627 0.978541
O O5 0.750546 0.769837 0.852139
O O6 0.666633 0.829078 0.833462
O O7 0.725758 0.000000 0.846421
O O8 0.695700 0.867656 0.040830
O O9 0.400969 0.500000 0.866996
O O10 0.335028 0.658181 0.862196
O O11 0.376133 0.637746 0.056726
O O12 0.412384 0.235767 0.224950
O O13 0.439494 0.000000 0.218704
O O14 0.243020 0.838341 0.616198
O O15 0.319524 0.751450 0.500007
O O16 0.315783 0.844478 0.719011
O O17 0.308963 0.000000 0.540873
O O18 0.158033 0.127721 0.707736
O O19 0.192159 0.000000 0.519199
#
# Coordination Sequence:
#
# PCOD8082093 Si02
#       8
#     8   8   8   8   8   8   8   8
#     4   8  15  29  46  67  98 131 165 201 245 291
#     4  10  19  29  46  71  99 130 163 201 241 293
#     4  10  20  31  48  73 104 135 166 202 245 297
#     4   8  14  26  46  70  97 130 164 204 244 290
#     4  10  21  37  53  69  93 132 175 213 247 288
#     4  10  21  36  51  70  98 132 168 211 254 289
#     4  10  20  33  46  70  97 133 166 204 245 290
#     4  10  18  31  48  73 101 132 165 203 247 296
#
# _framework density 18.223990000000001
#
# number of rings (size 3 to 8) (size 9 to 14) (size 15 to 20)
#    0.000    2.500    1.250    2.250    0.000    5.500 
#    0.000    5.625    0.000    0.000    0.000    0.875 
#    0.000    5.000    0.000    0.000    0.000    0.000 
#
# Total GULP energy -396546.989689 kJ/mol
# GULP energy per Si atom -12392.093428 kJ/mol
# Density = 1.818251 g / cm^3
# Si number density = 18.223990 Si / 1000 Ang^3
#
#
#
# Elastic Constant Matrix: (Units=GPa)
#
#
# Indices 1 2 3 4 5 6 
#
# 1 72.9846 37.9169 17.9123 0.0000 -13.6036 0.0000
# 2 37.9169 123.4162 28.8927 0.0000 -3.1117 0.0000
# 3 17.9123 28.8927 49.2062 0.0000 3.1037 0.0000
# 4 0.0000 0.0000 0.0000 11.8256 0.0000 -5.2190
# 5 -13.6036 -3.1117 3.1037 0.0000 16.1010 0.0000
# 6 0.0000 0.0000 0.0000 -5.2190 0.0000 16.9203
#
#
#
# Elastic Compliance Matrix: (Units=1/GPa)
#
#
# Indices 1 2 3 4 5 6 
#
# 1 0.020899 -0.004547 -0.006070 0.000000 0.017949 0.000000
# 2 -0.004547 0.010520 -0.004462 0.000000 -0.000949 0.000000
# 3 -0.006070 -0.004462 0.025844 0.000000 -0.010973 0.000000
# 4 0.000000 0.000000 0.000000 0.097888 0.000000 0.030193
# 5 0.017949 -0.000949 -0.010973 0.000000 0.079204 0.000000
# 6 0.000000 0.000000 0.000000 0.030193 0.000000 0.068414
#
#
# Mechanical properties :
#
#
# Convention : Reuss Voigt Hill
#
# Bulk Modulus (GPa) = 36.89316 46.11676 41.50496
# Shear Modulus (GPa) = 14.62145 19.69504 17.15825
#
# Velocity S-wave (km/s) = 2.83560 3.29100 3.07175
# Velocity P-wave (km/s) = 5.56858 6.30883 5.95023
#
# Compressibility (1/GPa) = 0.02710530
#
# Stress axis : x y z
#
# Youngs Moduli (GPa) = 47.84905 95.05315 38.69304
#
# Poissons Ratio (x) = 0.43223 0.23486
# Poissons Ratio (y) = 0.21758 0.17266
# Poissons Ratio (z) = 0.29044 0.42415
#
# Static dielectric constant tensor:
#      x y z
#    x 3.401810 0.000000 -0.128090 
#    y 0.000000 3.363840 0.000000 
#    z -0.128090 0.000000 3.015120 
# 
# 
# High freq. dielectric constant tensor:
#      x y z
#    x 1.688980 0.000000 -0.007750 
#    y 0.000000 1.709070 0.000000 
#    z -0.007750 0.000000 1.656400 
# 
# From -- ./inp_files/188327.got.cif
#   From: 2010.06.25/outbox.cif.g09.slc.cpg/sg12_95_cif.got.tgz:188327.got - 2010.06.28 00:19:55.
