data_PCOD8082547
_publ_section_title
;
Structure prediction by ZEFSAII (Michael W. Deem and Ramdas Pophale) SiO2 
 PCOD8082547
Probable space group: C 2/M
;
_chemical_formula_sum "Si O2"
_cell_formula_units_Z 56
_cell_length_a 14.923195
_cell_length_b 8.599781
_cell_length_c 22.990214
_cell_angle_alpha 90.000000
_cell_angle_beta 108.171190
_cell_angle_gamma 90.000000
_cell_volume 2803.333620
_symmetry_space_group_name_H-M "C 2/M"
_symmetry_group_IT_number 12
_symmetry_cell_setting 'monoclinic'
loop_
_space_group_symop_operation_xyz
x,y,z
-x,y,-z
-x,-y,-z
x,-y,z
1/2+x,1/2+y,z
1/2-x,1/2+y,-z
1/2-x,1/2-y,-z
1/2+x,1/2-y,z
loop_
_atom_site_type_symbol
_atom_site_label
_atom_site_fract_x
_atom_site_fract_y
_atom_site_fract_z
Si Si1 0.135165 0.681139 0.553486
Si Si2 0.246711 0.681833 0.683890
Si Si3 0.451168 0.320255 0.566531
Si Si4 0.548206 0.322425 0.299975
Si Si5 0.898922 0.183970 0.003930
Si Si6 0.796724 0.684247 0.090784
Si Si7 0.640043 0.818430 0.772398
O O1 0.151541 0.500000 0.543576
O O2 0.212387 0.749198 0.614639
O O3 0.138214 0.775967 0.492918
O O4 0.035093 0.707231 0.564616
O O5 0.222386 0.500000 0.677155
O O6 0.356854 0.711936 0.716377
O O7 0.192681 0.759728 0.727659
O O8 0.478664 0.500000 0.562510
O O9 0.427318 0.285448 0.628253
O O10 0.514685 0.500000 0.285992
O O11 0.470715 0.211242 0.256605
O O12 0.810714 0.236693 0.945473
O O13 0.905300 0.000000 0.009027
O O14 0.875818 0.247892 0.063335
O O15 0.000000 0.248824 0.000000
O O16 0.805799 0.500000 0.089706
O O17 0.820717 0.752160 0.159450
O O18 0.660720 0.000000 0.777495
#
# Coordination Sequence:
#
# PCOD8082547 Si02
#       7
#     8   8   8   8   8   8   8
#     4  10  18  31  53  74  95 131 175 212 261 327
#     4   9  19  35  54  75 101 136 176 217 263 317
#     4  10  19  31  49  74 103 130 164 219 276 314
#     4  10  21  36  54  76 103 137 177 220 268 316
#     4   9  18  34  57  85 112 141 178 214 250 302
#     4   9  19  34  54  81 111 143 175 213 261 302
#     4  10  20  37  56  75 106 143 178 215 256 308
#
# _framework density 19.976216999999998
#
# number of rings (size 3 to 8) (size 9 to 14) (size 15 to 20)
#    0.000    2.429    1.429    1.714    0.000    3.143 
#    0.000    5.000    0.000    0.000    0.000    0.000 
#    0.000    0.000    0.000    0.000    0.000    0.000 
#
# Total GULP energy -347058.102121 kJ/mol
# GULP energy per Si atom -12394.932219 kJ/mol
# Density = 1.993075 g / cm^3
# Si number density = 19.976217 Si / 1000 Ang^3
#
#
#
# Elastic Constant Matrix: (Units=GPa)
#
#
# Indices 1 2 3 4 5 6 
#
# 1 106.6592 9.9219 52.9627 0.0000 9.0500 0.0000
# 2 9.9219 22.0262 19.1637 0.0000 -0.5089 0.0000
# 3 52.9627 19.1637 154.9910 0.0000 6.3706 0.0000
# 4 0.0000 0.0000 0.0000 25.4319 0.0000 0.4259
# 5 9.0500 -0.5089 6.3706 0.0000 12.0833 0.0000
# 6 0.0000 0.0000 0.0000 0.4259 0.0000 22.2720
#
#
#
# Elastic Compliance Matrix: (Units=1/GPa)
#
#
# Indices 1 2 3 4 5 6 
#
# 1 0.011949 -0.002527 -0.003474 0.000000 -0.007224 0.000000
# 2 -0.002527 0.051778 -0.005832 0.000000 0.007148 0.000000
# 3 -0.003474 -0.005832 0.008446 0.000000 -0.002097 0.000000
# 4 0.000000 0.000000 0.000000 0.039333 0.000000 -0.000752
# 5 -0.007224 0.007148 -0.002097 0.000000 0.089576 0.000000
# 6 0.000000 0.000000 0.000000 -0.000752 0.000000 0.044914
#
#
# Mechanical properties :
#
#
# Convention : Reuss Voigt Hill
#
# Bulk Modulus (GPa) = 20.61555 49.75256 35.18405
# Shear Modulus (GPa) = 17.49283 25.39933 21.44608
#
# Velocity S-wave (km/s) = 2.96240 3.56965 3.28011
# Velocity P-wave (km/s) = 4.69506 6.47687 5.65656
#
# Compressibility (1/GPa) = 0.04850708
#
# Stress axis : x y z
#
# Youngs Moduli (GPa) = 83.69211 19.31314 118.39494
#
# Poissons Ratio (x) = 0.04881 0.41126
# Poissons Ratio (y) = 0.21149 0.69052
# Poissons Ratio (z) = 0.29071 0.11264
#
# Static dielectric constant tensor:
#      x y z
#    x 3.564540 0.000000 -0.014120 
#    y 0.000000 3.295830 0.000000 
#    z -0.014120 0.000000 4.003110 
# 
# 
# High freq. dielectric constant tensor:
#      x y z
#    x 1.773180 0.000000 0.000790 
#    y 0.000000 1.748990 0.000000 
#    z 0.000790 0.000000 1.785820 
# 
# From -- ./inp_files/338191.got.cif
#   From: 2010.06.25/outbox.cif.g09.slc.cpg/sg12_170_cif.got.tgz:338191.got - 2010.06.28 00:19:55.
