data_PCOD8082257
_publ_section_title
;
Structure prediction by ZEFSAII (Michael W. Deem and Ramdas Pophale) SiO2 
 PCOD8082257
Probable space group: C 2/M
;
_chemical_formula_sum "Si O2"
_cell_formula_units_Z 52
_cell_length_a 4.949107
_cell_length_b 23.183932
_cell_length_c 25.932884
_cell_angle_alpha 90.000000
_cell_angle_beta 110.557895
_cell_angle_gamma 90.000000
_cell_volume 2786.044532
_symmetry_space_group_name_H-M "C 2/M"
_symmetry_group_IT_number 12
_symmetry_cell_setting 'monoclinic'
loop_
_space_group_symop_operation_xyz
x,y,z
-x,y,-z
-x,-y,-z
x,-y,z
1/2+x,1/2+y,z
1/2-x,1/2+y,-z
1/2-x,1/2-y,-z
1/2+x,1/2-y,z
loop_
_atom_site_type_symbol
_atom_site_label
_atom_site_fract_x
_atom_site_fract_y
_atom_site_fract_z
Si Si1 0.166890 0.397908 0.125034
Si Si2 0.455996 0.565486 0.939420
Si Si3 0.500000 0.290740 0.500000
Si Si4 0.567892 0.212412 0.179482
Si Si5 0.085814 0.066198 0.243200
Si Si6 0.248454 0.708946 0.381206
Si Si7 0.825424 0.366313 0.721411
O O1 0.351874 0.394882 0.085135
O O2 0.066124 0.333694 0.133388
O O3 0.358696 0.427973 0.181657
O O4 0.878850 0.434854 0.098385
O O5 0.571239 0.500000 0.943080
O O6 0.500000 0.589738 0.000000
O O7 0.250000 0.250000 0.500000
O O8 0.613181 0.324047 0.558889
O O9 0.245775 0.231767 0.172770
O O10 0.713279 0.185463 0.240255
O O11 0.368603 0.103027 0.249137
O O12 0.934207 0.088649 0.285577
O O13 0.176879 0.000000 0.256606
O O14 0.445314 0.761155 0.373811
O O15 0.200864 0.658035 0.337618
#
# Coordination Sequence:
#
# PCOD8082257 Si02
#       7
#     8   8   4   8   8   8   8
#     4  11  22  37  57  79 105 137 168 206 258 313
#     4  11  22  37  59  84 106 130 165 213 264 308
#     4   8  16  28  46  72 103 140 173 210 262 308
#     4  11  21  35  53  76 105 136 170 204 244 298
#     4  11  22  36  53  77 107 136 171 212 259 312
#     4  10  18  31  50  76 110 140 173 216 259 309
#     4  11  21  33  52  79 104 139 175 210 260 307
#
# _framework density 18.664453999999999
#
# number of rings (size 3 to 8) (size 9 to 14) (size 15 to 20)
#    0.000    1.385    0.000    8.769    0.000    1.231 
#    0.000    0.000    0.000    9.231    0.000    3.231 
#    0.000    0.000    0.000    0.000    0.000    0.000 
#
# Total GULP energy -322374.529865 kJ/mol
# GULP energy per Si atom -12399.020379 kJ/mol
# Density = 1.862197 g / cm^3
# Si number density = 18.664454 Si / 1000 Ang^3
#
#
#
# Elastic Constant Matrix: (Units=GPa)
#
#
# Indices 1 2 3 4 5 6 
#
# 1 104.0206 20.7749 25.1956 0.0000 -7.7422 0.0000
# 2 20.7749 73.2064 40.9521 0.0000 -6.2626 0.0000
# 3 25.1956 40.9521 109.6714 0.0000 -16.8112 0.0000
# 4 0.0000 0.0000 0.0000 14.1709 0.0000 -3.4427
# 5 -7.7422 -6.2626 -16.8112 0.0000 27.7957 0.0000
# 6 0.0000 0.0000 0.0000 -3.4427 0.0000 35.6123
#
#
#
# Elastic Compliance Matrix: (Units=1/GPa)
#
#
# Indices 1 2 3 4 5 6 
#
# 1 0.010482 -0.002058 -0.001392 0.000000 0.001614 0.000000
# 2 -0.002058 0.017671 -0.006176 0.000000 -0.000327 0.000000
# 3 -0.001392 -0.006176 0.012644 0.000000 0.005868 0.000000
# 4 0.000000 0.000000 0.000000 0.072264 0.000000 0.006986
# 5 0.001614 -0.000327 0.005868 0.000000 0.039901 0.000000
# 6 0.000000 0.000000 0.000000 0.006986 0.000000 0.028756
#
#
# Mechanical properties :
#
#
# Convention : Reuss Voigt Hill
#
# Bulk Modulus (GPa) = 46.41540 51.19373 48.80456
# Shear Modulus (GPa) = 24.02108 28.84750 26.43429
#
# Velocity S-wave (km/s) = 3.59136 3.93566 3.76745
# Velocity P-wave (km/s) = 6.48996 6.93834 6.71789
#
# Compressibility (1/GPa) = 0.02154457
#
# Stress axis : x y z
#
# Youngs Moduli (GPa) = 95.40348 56.59071 79.09173
#
# Poissons Ratio (x) = 0.11644 0.11012
# Poissons Ratio (y) = 0.19630 0.48845
# Poissons Ratio (z) = 0.13283 0.34949
#
# Static dielectric constant tensor:
#      x y z
#    x 3.655830 0.000000 -0.142550 
#    y 0.000000 3.222260 0.000000 
#    z -0.142550 0.000000 3.709940 
# 
# 
# High freq. dielectric constant tensor:
#      x y z
#    x 1.753260 0.000000 -0.007770 
#    y 0.000000 1.693570 0.000000 
#    z -0.007770 0.000000 1.715420 
# 
# From -- ./inp_files/331289.got.cif
#   From: 2010.06.25/outbox.cif.g09.slc.cpg/sg12_166_cif.got.tgz:331289.got - 2010.06.28 00:19:55.
