data_PCOD8082442
_publ_section_title
;
Structure prediction by ZEFSAII (Michael W. Deem and Ramdas Pophale) SiO2 
 PCOD8082442
Probable space group: C 2/M
;
_chemical_formula_sum "Si O2"
_cell_formula_units_Z 64
_cell_length_a 14.604988
_cell_length_b 13.582372
_cell_length_c 26.623493
_cell_angle_alpha 90.000000
_cell_angle_beta 141.963551
_cell_angle_gamma 90.000000
_cell_volume 3254.147447
_symmetry_space_group_name_H-M "C 2/M"
_symmetry_group_IT_number 12
_symmetry_cell_setting 'monoclinic'
loop_
_space_group_symop_operation_xyz
x,y,z
-x,y,-z
-x,-y,-z
x,-y,z
1/2+x,1/2+y,z
1/2-x,1/2+y,-z
1/2-x,1/2-y,-z
1/2+x,1/2-y,z
loop_
_atom_site_type_symbol
_atom_site_label
_atom_site_fract_x
_atom_site_fract_y
_atom_site_fract_z
Si Si1 0.441181 0.252146 0.525118
Si Si2 0.770051 0.617117 0.063874
Si Si3 0.912344 0.698345 0.030269
Si Si4 0.795928 0.614290 0.885552
Si Si5 0.443253 0.390702 0.292790
Si Si6 0.797608 0.111471 0.331195
Si Si7 0.995027 0.615391 0.243758
Si Si8 0.109925 0.293300 0.388469
O O1 0.500000 0.194337 0.500000
O O2 0.563600 0.335713 0.583767
O O3 0.283108 0.309015 0.450560
O O4 0.429514 0.182495 0.569932
O O5 0.732327 0.500000 0.043759
O O6 0.624157 0.684190 0.990323
O O7 0.842589 0.645810 0.149481
O O8 0.892823 0.651416 0.076558
O O9 0.796851 0.638100 0.944933
O O10 0.081356 0.683698 0.087182
O O11 0.835348 0.500000 0.892622
O O12 0.633333 0.639279 0.793103
O O13 0.510611 0.500000 0.319522
O O14 0.311726 0.382557 0.277031
O O15 0.581401 0.322134 0.365803
O O16 0.641150 0.161392 0.279711
O O17 0.803657 0.000000 0.353135
O O18 0.006637 0.500000 0.244214
O O19 0.999347 0.645483 0.304522
#
# Coordination Sequence:
#
# PCOD8082442 Si02
#       8
#     8   8   8   8   8   8   8   8
#     4  10  19  33  50  76 108 139 169 213 264 316
#     4  10  20  33  49  74 108 141 174 217 263 317
#     4  10  19  31  50  75 104 137 175 212 270 322
#     4  10  18  31  52  76 102 132 172 227 271 314
#     4   9  18  32  51  76 102 131 173 221 267 308
#     4   9  17  29  49  77 103 129 167 220 274 313
#     4  10  19  32  52  78 105 135 174 219 267 314
#     4  10  20  33  53  77 106 141 173 211 265 321
#
# _framework density 19.667210000000001
#
# number of rings (size 3 to 8) (size 9 to 14) (size 15 to 20)
#    0.000    2.250    1.250    3.000    0.000    2.750 
#    0.000    3.125    0.000    2.250    0.000    0.000 
#    0.000    0.000    0.000    0.000    0.000    0.000 
#
# Total GULP energy -396512.081478 kJ/mol
# GULP energy per Si atom -12391.002546 kJ/mol
# Density = 1.962245 g / cm^3
# Si number density = 19.667210 Si / 1000 Ang^3
#
#
#
# Elastic Constant Matrix: (Units=GPa)
#
#
# Indices 1 2 3 4 5 6 
#
# 1 77.1894 9.2230 19.2605 0.0000 -13.3471 0.0000
# 2 9.2230 53.7821 25.4495 0.0000 6.6507 0.0000
# 3 19.2605 25.4495 78.6722 0.0000 -14.8996 0.0000
# 4 0.0000 0.0000 0.0000 27.8658 0.0000 -0.9255
# 5 -13.3471 6.6507 -14.8996 0.0000 32.1253 0.0000
# 6 0.0000 0.0000 0.0000 -0.9255 0.0000 19.9253
#
#
#
# Elastic Compliance Matrix: (Units=1/GPa)
#
#
# Indices 1 2 3 4 5 6 
#
# 1 0.014675 -0.002427 -0.001708 0.000000 0.005807 0.000000
# 2 -0.002427 0.024756 -0.009402 0.000000 -0.010494 0.000000
# 3 -0.001708 -0.009402 0.017984 0.000000 0.009578 0.000000
# 4 0.000000 0.000000 0.000000 0.035942 0.000000 0.001669
# 5 0.005807 -0.010494 0.009578 0.000000 0.040156 0.000000
# 6 0.000000 0.000000 0.000000 0.001669 0.000000 0.050265
#
#
# Mechanical properties :
#
#
# Convention : Reuss Voigt Hill
#
# Bulk Modulus (GPa) = 32.95594 35.27883 34.11738
# Shear Modulus (GPa) = 22.62801 26.36399 24.49600
#
# Velocity S-wave (km/s) = 3.39565 3.66526 3.53303
# Velocity P-wave (km/s) = 5.67160 5.99075 5.83336
#
# Compressibility (1/GPa) = 0.03034354
#
# Stress axis : x y z
#
# Youngs Moduli (GPa) = 68.14100 40.39401 55.60386
#
# Poissons Ratio (x) = 0.09802 0.09497
# Poissons Ratio (y) = 0.16535 0.52277
# Poissons Ratio (z) = 0.11639 0.37977
#
# Static dielectric constant tensor:
#      x y z
#    x 3.634220 0.000000 -0.340210 
#    y 0.000000 3.379580 0.000000 
#    z -0.340210 0.000000 3.763510 
# 
# 
# High freq. dielectric constant tensor:
#      x y z
#    x 1.752320 0.000000 -0.019360 
#    y 0.000000 1.737830 0.000000 
#    z -0.019360 0.000000 1.777530 
# 
# From -- ./inp_files/361264.got.cif
#   From: 2010.06.25/outbox.cif.g09.slc.cpg/sg12_181_cif.got.tgz:361264.got - 2010.06.28 00:19:55.
