data_PCOD8082027
_publ_section_title
;
Structure prediction by ZEFSAII (Michael W. Deem and Ramdas Pophale) SiO2 
 PCOD8082027
Probable space group: C 2/M
;
_chemical_formula_sum "Si O2"
_cell_formula_units_Z 36
_cell_length_a 7.567928
_cell_length_b 17.618511
_cell_length_c 21.457183
_cell_angle_alpha 90.000000
_cell_angle_beta 41.843545
_cell_angle_gamma 90.000000
_cell_volume 1908.574362
_symmetry_space_group_name_H-M "C 2/M"
_symmetry_group_IT_number 12
_symmetry_cell_setting 'monoclinic'
loop_
_space_group_symop_operation_xyz
x,y,z
-x,y,-z
-x,-y,-z
x,-y,z
1/2+x,1/2+y,z
1/2-x,1/2+y,-z
1/2-x,1/2-y,-z
1/2+x,1/2-y,z
loop_
_atom_site_type_symbol
_atom_site_label
_atom_site_fract_x
_atom_site_fract_y
_atom_site_fract_z
Si Si1 0.731175 0.662456 0.604384
Si Si2 0.000000 0.717379 0.000000
Si Si3 0.195695 0.588280 0.713579
Si Si4 0.422660 0.806167 0.688304
Si Si5 0.472630 0.806307 0.138681
O O1 0.508333 0.603054 0.640635
O O2 0.643302 0.746647 0.605918
O O3 0.000000 0.638532 0.500000
O O4 0.764205 0.659819 0.670981
O O5 0.237297 0.775487 0.945539
O O6 0.084099 0.666969 0.917781
O O7 0.140120 0.500000 0.722049
O O8 0.076567 0.627174 0.683220
O O9 0.039904 0.620712 0.814110
O O10 0.229027 0.759690 0.785366
#
# Coordination Sequence:
#
# PCOD8082027 Si02
#       5
#     8   4   8   8   8
#     4  11  22  37  65  91 114 152 209 249 281 345
#     4  10  18  30  66  86 108 144 202 252 278 338
#     4  11  24  40  58  86 126 160 191 242 302 351
#     4  11  20  38  63  88 117 156 199 241 295 350
#     4  10  18  36  57  89 111 150 199 239 289 350
#
# _framework density 18.862245999999999
#
# number of rings (size 3 to 8) (size 9 to 14) (size 15 to 20)
#    0.000    1.333    6.667    2.000    0.000    1.333 
#    0.000    2.222    0.000    0.000    0.000    0.000 
#    0.000    0.000    0.000    0.000    0.000    0.000 
#
# Total GULP energy -223045.800196 kJ/mol
# GULP energy per Si atom -12391.433344 kJ/mol
# Density = 1.881931 g / cm^3
# Si number density = 18.862246 Si / 1000 Ang^3
#
#
#
# Elastic Constant Matrix: (Units=GPa)
#
#
# Indices 1 2 3 4 5 6 
#
# 1 99.0444 30.1928 18.9773 -0.0016 4.8724 -0.0062
# 2 30.1928 99.6554 12.8551 -0.0017 -0.4125 -0.0121
# 3 18.9773 12.8551 85.5766 -0.0174 -5.3697 -0.0132
# 4 -0.0016 -0.0017 -0.0174 17.2069 0.0025 1.7824
# 5 4.8724 -0.4125 -5.3697 0.0025 34.8219 0.0039
# 6 -0.0062 -0.0121 -0.0132 1.7824 0.0039 25.3657
#
#
#
# Elastic Compliance Matrix: (Units=1/GPa)
#
#
# Indices 1 2 3 4 5 6 
#
# 1 0.011607 -0.003239 -0.002213 -0.000001 -0.002004 0.000001
# 2 -0.003239 0.011137 -0.000927 -0.000001 0.000442 0.000004
# 3 -0.002213 -0.000927 0.012455 0.000012 0.002219 0.000004
# 4 -0.000001 -0.000001 0.000012 0.058542 -0.000002 -0.004114
# 5 -0.002004 0.000442 0.002219 -0.000002 0.029345 -0.000004
# 6 0.000001 0.000004 0.000004 -0.004114 -0.000004 0.039712
#
#
# Mechanical properties :
#
#
# Convention : Reuss Voigt Hill
#
# Bulk Modulus (GPa) = 44.56284 45.36963 44.96624
# Shear Modulus (GPa) = 27.31687 30.29564 28.80626
#
# Velocity S-wave (km/s) = 3.80969 4.01203 3.91217
# Velocity P-wave (km/s) = 6.55960 6.75035 6.65566
#
# Compressibility (1/GPa) = 0.02244022
#
# Stress axis : x y z
#
# Youngs Moduli (GPa) = 86.15834 89.78755 80.29111
#
# Poissons Ratio (x) = 0.29085 0.17768
# Poissons Ratio (y) = 0.27909 0.07442
# Poissons Ratio (z) = 0.19067 0.08323
#
# Static dielectric constant tensor:
#      x y z
#    x 4.039690 -0.000040 0.238310 
#    y -0.000040 2.971100 0.000030 
#    z 0.238310 0.000030 3.745070 
# 
# 
# High freq. dielectric constant tensor:
#      x y z
#    x 1.760870 0.000000 0.001050 
#    y 0.000000 1.677780 0.000000 
#    z 0.001050 0.000000 1.743280 
# 
# From -- ./inp_files/194224.got.cif
#   From: 2010.06.25/outbox.cif.g09.slc.cpg/sg12_98_cif.got.tgz:194224.got - 2010.06.28 00:19:55.
