data_PCOD8082376
_publ_section_title
;
Structure prediction by ZEFSAII (Michael W. Deem and Ramdas Pophale) SiO2 
 PCOD8082376
Probable space group: C 2/M
;
_chemical_formula_sum "Si O2"
_cell_formula_units_Z 40
_cell_length_a 28.274118
_cell_length_b 7.573396
_cell_length_c 14.261797
_cell_angle_alpha 90.000000
_cell_angle_beta 137.707621
_cell_angle_gamma 90.000000
_cell_volume 2055.008531
_symmetry_space_group_name_H-M "C 2/M"
_symmetry_group_IT_number 12
_symmetry_cell_setting 'monoclinic'
loop_
_space_group_symop_operation_xyz
x,y,z
-x,y,-z
-x,-y,-z
x,-y,z
1/2+x,1/2+y,z
1/2-x,1/2+y,-z
1/2-x,1/2-y,-z
1/2+x,1/2-y,z
loop_
_atom_site_type_symbol
_atom_site_label
_atom_site_fract_x
_atom_site_fract_y
_atom_site_fract_z
Si Si1 0.943061 0.000000 0.281161
Si Si2 0.657643 0.790718 0.184993
Si Si3 0.558834 0.789772 0.870955
Si Si4 0.912874 0.302863 0.734416
Si Si5 0.102253 0.000000 0.581659
Si Si6 0.312975 0.695818 0.431290
O O1 0.924865 0.820823 0.198497
O O2 0.893627 0.000000 0.300277
O O3 0.023582 0.000000 0.428908
O O4 0.617036 0.708643 0.215732
O O5 0.737331 0.715773 0.299210
O O6 0.660768 0.000000 0.198790
O O7 0.618515 0.736974 0.032814
O O8 0.484647 0.715206 0.802412
O O9 0.557453 0.000000 0.846327
O O10 0.934067 0.500000 0.794280
O O11 0.854472 0.311284 0.567547
O O12 0.142183 0.824977 0.599761
O O13 0.303442 0.500000 0.462336
#
# Coordination Sequence:
#
# PCOD8082376 Si02
#       6
#     4   8   8   8   4   8
#     4  11  20  40  58  81 104 140 187 233 273 315
#     4   9  18  32  53  75 113 145 171 214 275 321
#     4  10  20  36  56  80 112 142 181 223 267 324
#     4  10  18  31  51  80 108 143 178 214 261 328
#     4   9  20  36  61  74 104 139 181 235 279 311
#     4   9  17  34  53  74 104 144 174 221 270 317
#
# _framework density 19.464638999999998
#
# number of rings (size 3 to 8) (size 9 to 14) (size 15 to 20)
#    0.600    1.800    2.000    1.200    0.000    2.400 
#    3.600    5.000    0.000    0.000    0.000    0.000 
#    0.000    0.000    0.000    0.000    0.000    0.000 
#
# Total GULP energy -247843.743198 kJ/mol
# GULP energy per Si atom -12392.187160 kJ/mol
# Density = 1.942034 g / cm^3
# Si number density = 19.464639 Si / 1000 Ang^3
#
#
#
# Elastic Constant Matrix: (Units=GPa)
#
#
# Indices 1 2 3 4 5 6 
#
# 1 90.6628 17.3216 55.0925 0.0000 -23.8541 0.0000
# 2 17.3216 46.7306 19.2648 0.0000 -11.6798 0.0000
# 3 55.0925 19.2648 132.0274 0.0000 -5.2713 0.0000
# 4 0.0000 0.0000 0.0000 23.3413 0.0000 -7.0401
# 5 -23.8541 -11.6798 -5.2713 0.0000 42.2480 0.0000
# 6 0.0000 0.0000 0.0000 -7.0401 0.0000 6.4225
#
#
#
# Elastic Compliance Matrix: (Units=1/GPa)
#
#
# Indices 1 2 3 4 5 6 
#
# 1 0.017796 -0.001586 -0.006845 0.000000 0.008755 0.000000
# 2 -0.001586 0.024480 -0.002689 0.000000 0.005536 0.000000
# 3 -0.006845 -0.002689 0.010692 0.000000 -0.003274 0.000000
# 4 0.000000 0.000000 0.000000 0.064003 0.000000 0.070157
# 5 0.008755 0.005536 -0.003274 0.000000 0.029735 0.000000
# 6 0.000000 0.000000 0.000000 0.070157 0.000000 0.232605
#
#
# Mechanical properties :
#
#
# Convention : Reuss Voigt Hill
#
# Bulk Modulus (GPa) = 32.54440 50.30876 41.42658
# Shear Modulus (GPa) = 12.14200 26.25182 19.19691
#
# Velocity S-wave (km/s) = 2.50030 3.67644 3.14386
# Velocity P-wave (km/s) = 5.00913 6.62751 5.87432
#
# Compressibility (1/GPa) = 0.03072725
#
# Stress axis : x y z
#
# Youngs Moduli (GPa) = 56.19257 40.85047 93.52733
#
# Poissons Ratio (x) = 0.06480 0.64018
# Poissons Ratio (y) = 0.08914 0.25149
# Poissons Ratio (z) = 0.38463 0.10985
#
# Static dielectric constant tensor:
#      x y z
#    x 3.686550 0.000000 0.090650 
#    y 0.000000 3.108990 0.000000 
#    z 0.090650 0.000000 3.526210 
# 
# 
# High freq. dielectric constant tensor:
#      x y z
#    x 1.748840 0.000000 0.011690 
#    y 0.000000 1.726800 0.000000 
#    z 0.011690 0.000000 1.759160 
# 
# From -- ./inp_files/172611.got.cif
#   From: 2010.06.25/outbox.cif.g09.slc.cpg/sg12_87_cif.got.tgz:172611.got - 2010.06.28 00:19:55.
