data_PCOD8082835
_publ_section_title
;
Structure prediction by ZEFSAII (Michael W. Deem and Ramdas Pophale) SiO2 
 PCOD8082835
Probable space group: C 2/M
;
_chemical_formula_sum "Si O2"
_cell_formula_units_Z 56
_cell_length_a 20.151716
_cell_length_b 28.386829
_cell_length_c 9.631996
_cell_angle_alpha 90.000000
_cell_angle_beta 29.670310
_cell_angle_gamma 90.000000
_cell_volume 2727.456636
_symmetry_space_group_name_H-M "C 2/M"
_symmetry_group_IT_number 12
_symmetry_cell_setting 'monoclinic'
loop_
_space_group_symop_operation_xyz
x,y,z
-x,y,-z
-x,-y,-z
x,-y,z
1/2+x,1/2+y,z
1/2-x,1/2+y,-z
1/2-x,1/2-y,-z
1/2+x,1/2-y,z
loop_
_atom_site_type_symbol
_atom_site_label
_atom_site_fract_x
_atom_site_fract_y
_atom_site_fract_z
Si Si1 0.661927 0.126452 0.709754
Si Si2 0.152087 0.870214 0.210317
Si Si3 0.302321 0.135061 0.658738
Si Si4 0.246013 0.947136 0.246924
Si Si5 0.457673 0.771553 0.425077
Si Si6 0.722287 0.202741 0.821270
Si Si7 0.472406 0.051296 0.400400
O O1 0.737282 0.142458 0.429882
O O2 0.744325 0.082365 0.626852
O O3 0.689389 0.172427 0.748723
O O4 0.500000 0.117463 0.000000
O O5 0.167005 0.919487 0.267637
O O6 0.248929 0.830870 0.099219
O O7 0.000000 0.853172 0.500000
O O8 0.185307 0.873376 0.984919
O O9 0.404515 0.174979 0.524088
O O10 0.374260 0.085409 0.500062
O O11 0.183282 0.000000 0.384060
O O12 0.396294 0.953951 0.926830
O O13 0.500000 0.754780 0.500000
O O14 0.345191 0.737423 0.566740
O O15 0.590945 0.766135 0.090840
O O16 0.500000 0.074665 0.500000
O O17 0.404389 0.000000 0.544722
#
# Coordination Sequence:
#
# PCOD8082835 Si02
#       7
#     8   8   8   8   8   8   8
#     4  11  22  41  60  93 135 166 206 253 316 383
#     4  11  24  42  65  90 125 164 216 266 317 371
#     4  12  22  38  63  91 127 163 204 260 317 363
#     4  10  21  38  63  94 129 167 206 258 312 376
#     4  12  23  39  68  96 124 162 213 270 319 375
#     4  11  25  42  64  93 128 167 210 261 318 383
#     4  10  18  31  58  95 125 151 199 258 312 365
#
# _framework density 20.531948
#
# number of rings (size 3 to 8) (size 9 to 14) (size 15 to 20)
#    0.000    1.000    5.714    2.143    2.000    1.714 
#    0.000    2.857    0.000    0.857    0.000    0.000 
#    0.000    0.000    0.000    0.000    0.000    0.000 
#
# Total GULP energy -347016.645189 kJ/mol
# GULP energy per Si atom -12393.451614 kJ/mol
# Density = 2.048522 g / cm^3
# Si number density = 20.531948 Si / 1000 Ang^3
#
#
#
# Elastic Constant Matrix: (Units=GPa)
#
#
# Indices 1 2 3 4 5 6 
#
# 1 94.7862 32.4391 52.8571 0.0000 21.0277 0.0000
# 2 32.4391 92.3134 29.1351 0.0000 -3.6280 0.0000
# 3 52.8571 29.1351 90.1550 0.0001 4.7198 0.0000
# 4 0.0000 0.0000 0.0001 22.0187 0.0000 -2.2376
# 5 21.0277 -3.6280 4.7198 0.0000 33.9198 0.0000
# 6 0.0000 0.0000 0.0000 -2.2376 0.0000 13.7791
#
#
#
# Elastic Compliance Matrix: (Units=1/GPa)
#
#
# Indices 1 2 3 4 5 6 
#
# 1 0.020048 -0.004432 -0.009717 0.000000 -0.011550 0.000000
# 2 -0.004432 0.013159 -0.001885 0.000000 0.004417 0.000000
# 3 -0.009717 -0.001885 0.017219 0.000000 0.003426 0.000000
# 4 0.000000 0.000000 0.000000 0.046178 0.000000 0.007499
# 5 -0.011550 0.004417 0.003426 0.000000 0.036637 0.000000
# 6 0.000000 0.000000 0.000000 0.007499 0.000000 0.073791
#
#
# Mechanical properties :
#
#
# Convention : Reuss Voigt Hill
#
# Bulk Modulus (GPa) = 54.47521 56.23524 55.35522
# Shear Modulus (GPa) = 20.38994 24.79841 22.59418
#
# Velocity S-wave (km/s) = 3.15474 3.47911 3.32089
# Velocity P-wave (km/s) = 6.31343 6.60208 6.45937
#
# Compressibility (1/GPa) = 0.01835698
#
# Stress axis : x y z
#
# Youngs Moduli (GPa) = 49.88104 75.99545 58.07603
#
# Poissons Ratio (x) = 0.33681 0.56432
# Poissons Ratio (y) = 0.22107 0.10949
# Poissons Ratio (z) = 0.48469 0.14327
#
# Static dielectric constant tensor:
#      x y z
#    x 3.795070 0.000000 0.161810 
#    y 0.000000 4.131410 0.000000 
#    z 0.161810 0.000000 3.548160 
# 
# 
# High freq. dielectric constant tensor:
#      x y z
#    x 1.792960 0.000000 0.016060 
#    y 0.000000 1.813980 0.000000 
#    z 0.016060 0.000000 1.781860 
# 
# From -- ./inp_files/91547.got.cif
#   From: 2010.06.25/outbox.cif.g09.slc.cpg/sg12_46_cif.got.tgz:91547.got - 2010.06.28 00:19:55.
