data_PCOD8082789
_publ_section_title
;
Structure prediction by ZEFSAII (Michael W. Deem and Ramdas Pophale) SiO2 
 PCOD8082789
Probable space group: C 2/M
;
_chemical_formula_sum "Si O2"
_cell_formula_units_Z 56
_cell_length_a 13.160982
_cell_length_b 24.721581
_cell_length_c 9.951541
_cell_angle_alpha 90.000000
_cell_angle_beta 62.028713
_cell_angle_gamma 90.000000
_cell_volume 2859.601076
_symmetry_space_group_name_H-M "C 2/M"
_symmetry_group_IT_number 12
_symmetry_cell_setting 'monoclinic'
loop_
_space_group_symop_operation_xyz
x,y,z
-x,y,-z
-x,-y,-z
x,-y,z
1/2+x,1/2+y,z
1/2-x,1/2+y,-z
1/2-x,1/2-y,-z
1/2+x,1/2-y,z
loop_
_atom_site_type_symbol
_atom_site_label
_atom_site_fract_x
_atom_site_fract_y
_atom_site_fract_z
Si Si1 0.900918 0.666325 0.164045
Si Si2 0.538048 0.796464 0.323111
Si Si3 0.262684 0.875399 0.893859
Si Si4 0.193049 0.791761 0.133017
Si Si5 0.044181 0.063233 0.334617
Si Si6 0.309136 0.937481 0.114689
Si Si7 0.593984 0.560193 0.827848
O O1 0.780585 0.694102 0.199394
O O2 0.888147 0.600743 0.160309
O O3 0.931944 0.685268 0.294837
O O4 0.000000 0.686279 0.000000
O O5 0.500000 0.801260 0.500000
O O6 0.644362 0.835876 0.228485
O O7 0.576527 0.734256 0.266994
O O8 0.197998 0.902032 0.809475
O O9 0.173370 0.844475 0.050676
O O10 0.325630 0.920702 0.947629
O O11 0.250000 0.750000 0.000000
O O12 0.178035 0.074225 0.236104
O O13 0.000000 0.090086 0.500000
O O14 0.966918 0.087900 0.262803
O O15 0.019235 0.000000 0.348287
O O16 0.344562 0.000000 0.113452
O O17 0.642861 0.500000 0.766615
O O18 0.500000 0.554827 0.000000
#
# Coordination Sequence:
#
# PCOD8082789 Si02
#       7
#     8   8   8   8   8   8   8
#     4  11  20  39  62  87 116 152 193 241 285 345
#     4  11  24  43  61  85 121 147 184 250 306 340
#     4  10  19  36  58  90 113 151 198 240 283 350
#     4   9  19  39  62  85 105 146 192 232 293 349
#     4   9  18  32  50  77 118 157 189 238 287 322
#     4  10  19  34  59  88 118 158 206 234 272 344
#     4  10  18  31  55  87 121 156 196 238 284 335
#
# _framework density 19.583151999999998
#
# number of rings (size 3 to 8) (size 9 to 14) (size 15 to 20)
#    0.000    2.000    5.714    0.429    0.000    2.000 
#    5.143    2.857    0.000    3.000    0.000    0.000 
#    0.000    0.000    0.000    0.000    0.000    0.000 
#
# Total GULP energy -346985.556651 kJ/mol
# GULP energy per Si atom -12392.341309 kJ/mol
# Density = 1.953858 g / cm^3
# Si number density = 19.583152 Si / 1000 Ang^3
#
#
#
# Elastic Constant Matrix: (Units=GPa)
#
#
# Indices 1 2 3 4 5 6 
#
# 1 99.4351 42.4157 41.1493 0.0000 25.8360 0.0000
# 2 42.4157 89.3620 32.4135 0.0000 5.5748 0.0000
# 3 41.1493 32.4135 119.5279 0.0000 21.7760 0.0000
# 4 0.0000 0.0000 0.0000 32.4820 0.0000 -5.1043
# 5 25.8360 5.5748 21.7760 0.0000 30.7889 0.0000
# 6 0.0000 0.0000 0.0000 -5.1043 0.0000 42.3113
#
#
#
# Elastic Compliance Matrix: (Units=1/GPa)
#
#
# Indices 1 2 3 4 5 6 
#
# 1 0.016549 -0.006467 -0.001868 0.000000 -0.011395 0.000000
# 2 -0.006467 0.014939 -0.002664 0.000000 0.004606 0.000000
# 3 -0.001868 -0.002664 0.010742 0.000000 -0.005548 0.000000
# 4 0.000000 0.000000 0.000000 0.031381 0.000000 0.003786
# 5 -0.011395 0.004606 -0.005548 0.000000 0.045131 0.000000
# 6 0.000000 0.000000 0.000000 0.003786 0.000000 0.024091
#
#
# Mechanical properties :
#
#
# Convention : Reuss Voigt Hill
#
# Bulk Modulus (GPa) = 49.42248 60.03131 54.72690
# Shear Modulus (GPa) = 29.14188 33.93953 31.54071
#
# Velocity S-wave (km/s) = 3.86179 4.16757 4.01759
# Velocity P-wave (km/s) = 6.72135 7.34025 7.03761
#
# Compressibility (1/GPa) = 0.02023371
#
# Stress axis : x y z
#
# Youngs Moduli (GPa) = 60.42712 66.93992 93.08913
#
# Poissons Ratio (x) = 0.43288 0.17386
# Poissons Ratio (y) = 0.39076 0.24798
# Poissons Ratio (z) = 0.11286 0.17832
#
# Static dielectric constant tensor:
#      x y z
#    x 3.757840 0.000000 0.356820 
#    y 0.000000 4.078670 0.000000 
#    z 0.356820 0.000000 3.743060 
# 
# 
# High freq. dielectric constant tensor:
#      x y z
#    x 1.755930 0.000000 0.013200 
#    y 0.000000 1.764260 0.000000 
#    z 0.013200 0.000000 1.739380 
# 
# From -- ./inp_files/53163.got.cif
#   From: 2010.06.25/outbox.cif.g09.slc.cpg/sg12_27_cif.got.tgz:53163.got - 2010.06.28 00:19:55.
