data_PCOD8082395
_publ_section_title
;
Structure prediction by ZEFSAII (Michael W. Deem and Ramdas Pophale) SiO2 
 PCOD8082395
Probable space group: C 2/M
;
_chemical_formula_sum "Si O2"
_cell_formula_units_Z 64
_cell_length_a 14.582308
_cell_length_b 9.177004
_cell_length_c 25.913153
_cell_angle_alpha 90.000000
_cell_angle_beta 87.012806
_cell_angle_gamma 90.000000
_cell_volume 3463.035390
_symmetry_space_group_name_H-M "C 2/M"
_symmetry_group_IT_number 12
_symmetry_cell_setting 'monoclinic'
loop_
_space_group_symop_operation_xyz
x,y,z
-x,y,-z
-x,-y,-z
x,-y,z
1/2+x,1/2+y,z
1/2-x,1/2+y,-z
1/2-x,1/2-y,-z
1/2+x,1/2-y,z
loop_
_atom_site_type_symbol
_atom_site_label
_atom_site_fract_x
_atom_site_fract_y
_atom_site_fract_z
Si Si1 0.768884 0.673297 0.822292
Si Si2 0.733344 0.330501 0.708172
Si Si3 0.654956 0.327746 0.008051
Si Si4 0.610996 0.669306 0.898690
Si Si5 0.740114 0.671029 0.446372
Si Si6 0.607852 0.170386 0.375305
Si Si7 0.413363 0.330843 0.879609
Si Si8 0.398413 0.169289 0.361545
O O1 0.775083 0.500000 0.822897
O O2 0.744068 0.728221 0.765939
O O3 0.695557 0.740702 0.865155
O O4 0.865967 0.738299 0.836387
O O5 0.709803 0.500000 0.707468
O O6 0.829808 0.298391 0.676752
O O7 0.645858 0.251187 0.685761
O O8 0.667831 0.500000 0.009475
O O9 0.608268 0.273861 0.062005
O O10 0.750000 0.250000 0.000000
O O11 0.598537 0.278134 0.958471
O O12 0.632891 0.500000 0.900360
O O13 0.520599 0.699573 0.868205
O O14 0.723358 0.500000 0.454725
O O15 0.750000 0.750000 0.500000
O O16 0.651009 0.737549 0.420734
O O17 0.834660 0.701345 0.412925
O O18 0.502976 0.223237 0.368568
O O19 0.609403 0.000000 0.390338
O O20 0.387702 0.500000 0.874163
O O21 0.399500 0.000000 0.347553
#
# Coordination Sequence:
#
# PCOD8082395 Si02
#       8
#     8   8   8   8   8   8   8   8
#     4  10  20  35  52  73 102 132 161 202 258 303
#     4   9  19  34  53  75 100 131 168 209 253 301
#     4  10  18  31  52  72  94 127 163 200 244 296
#     4   9  18  33  51  70  98 132 161 196 247 303
#     4  10  20  34  52  78 109 140 173 210 251 295
#     4   9  18  35  55  75 102 137 174 211 251 296
#     4  10  20  33  51  74  96 126 169 204 239 298
#     4   9  19  35  55  76 101 136 175 210 249 296
#
# _framework density 18.480898
#
# number of rings (size 3 to 8) (size 9 to 14) (size 15 to 20)
#    0.000    2.500    1.250    0.750    0.000    4.500 
#    0.000    3.750    0.000    1.500    0.000    0.000 
#    0.000    0.000    0.000    0.000    0.000    0.000 
#
# Total GULP energy -396675.563493 kJ/mol
# GULP energy per Si atom -12396.111359 kJ/mol
# Density = 1.843883 g / cm^3
# Si number density = 18.480898 Si / 1000 Ang^3
#
#
#
# Elastic Constant Matrix: (Units=GPa)
#
#
# Indices 1 2 3 4 5 6 
#
# 1 111.4242 31.2083 53.6137 0.0000 24.0946 0.0000
# 2 31.2083 41.0401 47.8398 0.0000 10.7690 0.0000
# 3 53.6137 47.8398 135.6183 0.0000 27.7492 0.0000
# 4 0.0000 0.0000 0.0000 26.7653 0.0000 6.9858
# 5 24.0946 10.7690 27.7492 0.0000 22.9168 0.0000
# 6 0.0000 0.0000 0.0000 6.9858 0.0000 28.8735
#
#
#
# Elastic Compliance Matrix: (Units=1/GPa)
#
#
# Indices 1 2 3 4 5 6 
#
# 1 0.013386 -0.006413 -0.001019 0.000000 -0.009827 0.000000
# 2 -0.006413 0.044551 -0.013661 0.000000 0.002349 0.000000
# 3 -0.001019 -0.013661 0.014706 0.000000 -0.010316 0.000000
# 4 0.000000 0.000000 0.000000 0.039880 0.000000 -0.009649
# 5 -0.009827 0.002349 -0.010316 0.000000 0.065356 0.000000
# 6 0.000000 0.000000 0.000000 -0.009649 0.000000 0.036968
#
#
# Mechanical properties :
#
#
# Convention : Reuss Voigt Hill
#
# Bulk Modulus (GPa) = 32.83230 61.48958 47.16094
# Shear Modulus (GPa) = 18.71357 26.07251 22.39304
#
# Velocity S-wave (km/s) = 3.18557 3.76011 3.48470
# Velocity P-wave (km/s) = 5.59773 7.22464 6.46259
#
# Compressibility (1/GPa) = 0.03045781
#
# Stress axis : x y z
#
# Youngs Moduli (GPa) = 74.70419 22.44622 67.99803
#
# Poissons Ratio (x) = 0.14394 0.06930
# Poissons Ratio (y) = 0.47906 0.92891
# Poissons Ratio (z) = 0.07613 0.30664
#
# Static dielectric constant tensor:
#      x y z
#    x 3.524990 0.000000 -0.162840 
#    y 0.000000 3.281950 0.000000 
#    z -0.162840 0.000000 3.842600 
# 
# 
# High freq. dielectric constant tensor:
#      x y z
#    x 1.721490 0.000000 0.004870 
#    y 0.000000 1.695330 0.000000 
#    z 0.004870 0.000000 1.719990 
# 
# From -- ./inp_files/359840.got.cif
#   From: 2010.06.25/outbox.cif.g09.slc.cpg/sg12_180_cif.got.tgz:359840.got - 2010.06.28 00:19:55.
