data_PCOD8082754
_publ_section_title
;
Structure prediction by ZEFSAII (Michael W. Deem and Ramdas Pophale) SiO2 
 PCOD8082754
Probable space group: C 2/M
;
_chemical_formula_sum "Si O2"
_cell_formula_units_Z 56
_cell_length_a 20.088408
_cell_length_b 8.800631
_cell_length_c 25.482346
_cell_angle_alpha 90.000000
_cell_angle_beta 139.920002
_cell_angle_gamma 90.000000
_cell_volume 2900.600134
_symmetry_space_group_name_H-M "C 2/M"
_symmetry_group_IT_number 12
_symmetry_cell_setting 'monoclinic'
loop_
_space_group_symop_operation_xyz
x,y,z
-x,y,-z
-x,-y,-z
x,-y,z
1/2+x,1/2+y,z
1/2-x,1/2+y,-z
1/2-x,1/2-y,-z
1/2+x,1/2-y,z
loop_
_atom_site_type_symbol
_atom_site_label
_atom_site_fract_x
_atom_site_fract_y
_atom_site_fract_z
Si Si1 0.996187 0.679449 0.257491
Si Si2 0.558363 0.180447 0.984080
Si Si3 0.427498 0.818256 0.807748
Si Si4 0.219118 0.175719 0.850594
Si Si5 0.862406 0.680282 0.561621
Si Si6 0.502188 0.321653 0.562486
Si Si7 0.219714 0.823472 0.730408
O O1 0.002402 0.500000 0.260507
O O2 0.041336 0.746033 0.230335
O O3 0.063781 0.742176 0.346889
O O4 0.877358 0.725883 0.189618
O O5 0.507004 0.243682 0.899779
O O6 0.549029 0.000000 0.981060
O O7 0.500000 0.248739 0.000000
O O8 0.679211 0.227616 0.056128
O O9 0.312936 0.754911 0.751917
O O10 0.428080 0.000000 0.809090
O O11 0.246030 0.206849 0.806452
O O12 0.191724 0.000000 0.843443
O O13 0.853864 0.500000 0.557626
O O14 0.750000 0.750000 0.500000
O O15 0.908603 0.734773 0.534144
O O16 0.500000 0.286479 0.500000
O O17 0.490141 0.500000 0.567263
O O18 0.609477 0.250932 0.649030
O O19 0.210772 0.000000 0.711887
#
# Coordination Sequence:
#
# PCOD8082754 Si02
#       7
#     8   8   8   8   8   8   8
#     4  10  22  37  54  77 109 146 178 214 266 330
#     4   9  15  26  48  81 109 132 174 230 272 304
#     4   9  17  30  50  78 109 139 180 225 265 312
#     4  10  18  31  55  81 106 138 178 223 269 316
#     4  11  24  40  58  80 111 148 186 228 278 332
#     4  10  21  36  59  87 112 140 180 229 280 335
#     4   9  16  29  52  79 105 136 175 223 266 308
#
# _framework density 19.306349000000001
#
# number of rings (size 3 to 8) (size 9 to 14) (size 15 to 20)
#    0.000    2.286    2.857    0.429    2.000    1.429 
#    0.000    0.000    0.000    1.286    0.000    0.000 
#    0.000    0.000    0.000    0.000    0.000    0.000 
#
# Total GULP energy -347165.740500 kJ/mol
# GULP energy per Si atom -12398.776446 kJ/mol
# Density = 1.926241 g / cm^3
# Si number density = 19.306349 Si / 1000 Ang^3
#
#
#
# Elastic Constant Matrix: (Units=GPa)
#
#
# Indices 1 2 3 4 5 6 
#
# 1 127.3584 27.8045 64.8983 0.0000 17.1445 0.0000
# 2 27.8045 22.0306 23.2033 0.0000 -1.2218 0.0002
# 3 64.8983 23.2033 125.2338 0.0000 13.5602 0.0000
# 4 0.0000 0.0000 0.0000 18.0164 0.0000 8.2110
# 5 17.1445 -1.2218 13.5602 0.0000 35.0954 0.0000
# 6 0.0000 0.0002 0.0000 8.2110 0.0000 19.5173
#
#
#
# Elastic Compliance Matrix: (Units=1/GPa)
#
#
# Indices 1 2 3 4 5 6 
#
# 1 0.013480 -0.013159 -0.003950 0.000000 -0.005517 0.000000
# 2 -0.013159 0.070592 -0.007538 0.000001 0.011798 -0.000001
# 3 -0.003950 -0.007538 0.011739 0.000000 -0.002869 0.000000
# 4 0.000000 0.000001 0.000000 0.068672 0.000000 -0.028890
# 5 -0.005517 0.011798 -0.002869 0.000000 0.032708 0.000000
# 6 0.000000 -0.000001 0.000000 -0.028890 0.000000 0.063391
#
#
# Mechanical properties :
#
#
# Convention : Reuss Voigt Hill
#
# Bulk Modulus (GPa) = 21.49696 56.27055 38.88376
# Shear Modulus (GPa) = 15.36660 25.10695 20.23677
#
# Velocity S-wave (km/s) = 2.82429 3.61009 3.24109
# Velocity P-wave (km/s) = 4.66844 6.82542 5.84725
#
# Compressibility (1/GPa) = 0.04651820
#
# Stress axis : x y z
#
# Youngs Moduli (GPa) = 74.18266 14.16596 85.18354
#
# Poissons Ratio (x) = 0.18640 0.33650
# Poissons Ratio (y) = 0.97614 0.64209
# Poissons Ratio (z) = 0.29304 0.10678
#
# Static dielectric constant tensor:
#      x y z
#    x 3.695040 0.000000 -0.023820 
#    y 0.000000 2.975140 0.000000 
#    z -0.023820 0.000000 3.812720 
# 
# 
# High freq. dielectric constant tensor:
#      x y z
#    x 1.760350 0.000000 0.005650 
#    y 0.000000 1.693110 0.000000 
#    z 0.005650 0.000000 1.767410 
# 
# From -- ./inp_files/280289.got.cif
#   From: 2010.06.25/outbox.cif.g09.slc.cpg/sg12_141_cif.got.tgz:280289.got - 2010.06.28 00:19:55.
