data_PCOD8082217
_publ_section_title
;
Structure prediction by ZEFSAII (Michael W. Deem and Ramdas Pophale) SiO2 
 PCOD8082217
Probable space group: C 2/M
;
_chemical_formula_sum "Si O2"
_cell_formula_units_Z 64
_cell_length_a 23.173171
_cell_length_b 9.080525
_cell_length_c 16.883841
_cell_angle_alpha 90.000000
_cell_angle_beta 85.013745
_cell_angle_gamma 90.000000
_cell_volume 3539.329590
_symmetry_space_group_name_H-M "C 2/M"
_symmetry_group_IT_number 12
_symmetry_cell_setting 'monoclinic'
loop_
_space_group_symop_operation_xyz
x,y,z
-x,y,-z
-x,-y,-z
x,-y,z
1/2+x,1/2+y,z
1/2-x,1/2+y,-z
1/2-x,1/2-y,-z
1/2+x,1/2-y,z
loop_
_atom_site_type_symbol
_atom_site_label
_atom_site_fract_x
_atom_site_fract_y
_atom_site_fract_z
Si Si1 0.862164 0.333907 0.661088
Si Si2 0.271147 0.672740 0.576231
Si Si3 0.312345 0.169795 0.267948
Si Si4 0.564113 0.672479 0.964465
Si Si5 0.879525 0.674372 0.903479
Si Si6 0.774791 0.337450 0.817154
Si Si7 0.575596 0.669515 0.782223
Si Si8 0.446719 0.672349 0.756292
O O1 0.877346 0.500000 0.631414
O O2 0.832512 0.244600 0.593060
O O3 0.819266 0.337997 0.739664
O O4 0.920220 0.249495 0.681500
O O5 0.280359 0.500000 0.560953
O O6 0.250000 0.750000 0.500000
O O7 0.223365 0.704214 0.648761
O O8 0.278526 0.229754 0.194368
O O9 0.374986 0.242357 0.269875
O O10 0.321515 0.000000 0.252307
O O11 0.576176 0.500000 0.975256
O O12 0.571093 0.722763 0.873307
O O13 0.500000 0.714264 0.000000
O O14 0.610244 0.766069 0.009513
O O15 0.890853 0.500000 0.895731
O O16 0.812514 0.711402 0.889006
O O17 0.923457 0.757203 0.839873
O O18 0.748335 0.500000 0.832712
O O19 0.593030 0.500000 0.777569
O O20 0.515442 0.697254 0.744267
O O21 0.430483 0.500000 0.758742
#
# Coordination Sequence:
#
# PCOD8082217 Si02
#       8
#     8   8   8   8   8   8   8   8
#     4   9  17  30  50  79 108 134 168 213 256 299
#     4  10  20  35  57  85 111 138 168 206 254 304
#     4  10  21  35  53  78 105 132 170 212 253 303
#     4  10  19  34  50  70 100 135 177 220 263 311
#     4  10  19  30  48  75 100 129 171 223 271 307
#     4   8  16  31  49  69  98 132 168 208 256 309
#     4  10  21  35  52  72 101 142 177 210 260 313
#     4  10  18  31  50  73 102 138 177 215 255 306
#
# _framework density 18.082519999999999
#
# number of rings (size 3 to 8) (size 9 to 14) (size 15 to 20)
#    0.000    2.375    1.250    2.625    0.000    6.750 
#    0.000    0.625    0.000    0.750    0.000    5.250 
#    0.000    0.000    0.000    0.000    0.000    0.000 
#
# Total GULP energy -396796.200408 kJ/mol
# GULP energy per Si atom -12399.881263 kJ/mol
# Density = 1.804136 g / cm^3
# Si number density = 18.082520 Si / 1000 Ang^3
#
#
#
# Elastic Constant Matrix: (Units=GPa)
#
#
# Indices 1 2 3 4 5 6 
#
# 1 104.8261 67.4014 46.1321 0.0000 23.9394 0.0000
# 2 67.4014 118.7670 53.2307 0.0000 18.2950 0.0000
# 3 46.1321 53.2307 74.1952 0.0000 32.2642 0.0000
# 4 0.0000 0.0000 0.0000 29.5043 0.0000 7.2774
# 5 23.9394 18.2950 32.2642 0.0000 30.8359 0.0000
# 6 0.0000 0.0000 0.0000 7.2774 0.0000 33.4004
#
#
#
# Elastic Compliance Matrix: (Units=1/GPa)
#
#
# Indices 1 2 3 4 5 6 
#
# 1 0.016835 -0.007532 -0.002428 0.000000 -0.006060 0.000000
# 2 -0.007532 0.016000 -0.009561 0.000000 0.006359 0.000000
# 3 -0.002428 -0.009561 0.034056 0.000000 -0.028076 0.000000
# 4 0.000000 0.000000 0.000000 0.035818 0.000000 -0.007804
# 5 -0.006060 0.006359 -0.028076 0.000000 0.062738 0.000000
# 6 0.000000 0.000000 0.000000 -0.007804 0.000000 0.031640
#
#
# Mechanical properties :
#
#
# Convention : Reuss Voigt Hill
#
# Bulk Modulus (GPa) = 35.90830 70.14629 53.02729
# Shear Modulus (GPa) = 20.37369 27.48308 23.92838
#
# Velocity S-wave (km/s) = 3.36029 3.90278 3.64165
# Velocity P-wave (km/s) = 5.91240 7.69321 6.86083
#
# Compressibility (1/GPa) = 0.02784871
#
# Stress axis : x y z
#
# Youngs Moduli (GPa) = 59.39839 62.49917 29.36336
#
# Poissons Ratio (x) = 0.47077 0.07130
# Poissons Ratio (y) = 0.44741 0.28074
# Poissons Ratio (z) = 0.14423 0.59755
#
# Static dielectric constant tensor:
#      x y z
#    x 3.387760 0.000000 0.314320 
#    y 0.000000 3.442040 0.000000 
#    z 0.314320 0.000000 3.141160 
# 
# 
# High freq. dielectric constant tensor:
#      x y z
#    x 1.695900 0.000000 0.029700 
#    y 0.000000 1.710280 0.000000 
#    z 0.029700 0.000000 1.669400 
# 
# From -- ./inp_files/287624.got.cif
#   From: 2010.06.25/outbox.cif.g09.slc.cpg/sg12_144_cif.got.tgz:287624.got - 2010.06.28 00:19:55.
