data_PCOD8082029
_publ_section_title
;
Structure prediction by ZEFSAII (Michael W. Deem and Ramdas Pophale) SiO2 
 PCOD8082029
Probable space group: C 2/M
;
_chemical_formula_sum "Si O2"
_cell_formula_units_Z 64
_cell_length_a 15.947095
_cell_length_b 26.884936
_cell_length_c 15.465955
_cell_angle_alpha 90.000000
_cell_angle_beta 144.224272
_cell_angle_gamma 90.000000
_cell_volume 3876.471252
_symmetry_space_group_name_H-M "C 2/M"
_symmetry_group_IT_number 12
_symmetry_cell_setting 'monoclinic'
loop_
_space_group_symop_operation_xyz
x,y,z
-x,y,-z
-x,-y,-z
x,-y,z
1/2+x,1/2+y,z
1/2-x,1/2+y,-z
1/2-x,1/2-y,-z
1/2+x,1/2-y,z
loop_
_atom_site_type_symbol
_atom_site_label
_atom_site_fract_x
_atom_site_fract_y
_atom_site_fract_z
Si Si1 0.661892 0.791629 0.817270
Si Si2 0.562561 0.138299 0.304507
Si Si3 0.432378 0.203627 0.849395
Si Si4 0.698494 0.647675 0.368208
Si Si5 0.552030 0.944963 0.685102
Si Si6 0.923850 0.790580 0.139676
Si Si7 0.224113 0.443780 0.666578
Si Si8 0.168127 0.269275 0.636181
O O1 0.510541 0.818104 0.701957
O O2 0.632812 0.733955 0.819056
O O3 0.713699 0.795728 0.762904
O O4 0.786744 0.816522 0.980031
O O5 0.560243 0.152564 0.200982
O O6 0.724281 0.132638 0.477061
O O7 0.467736 0.089350 0.246756
O O8 0.521573 0.247866 0.880059
O O9 0.264911 0.219661 0.708946
O O10 0.500000 0.192641 0.000000
O O11 0.542075 0.668385 0.260037
O O12 0.673147 0.599530 0.284993
O O13 0.796853 0.690442 0.407763
O O14 0.687238 0.931248 0.736274
O O15 0.416433 0.940991 0.509386
O O16 0.571538 0.000000 0.738824
O O17 0.290273 0.500000 0.715574
O O18 0.000000 0.254542 0.500000
#
# Coordination Sequence:
#
# PCOD8082029 Si02
#       8
#     8   8   8   8   8   8   8   8
#     4  10  18  31  44  62  89 125 156 178 221 268
#     4  10  19  29  47  68  89 115 150 192 225 261
#     4  10  20  33  43  60  90 121 150 184 226 268
#     4  10  19  28  44  70  93 115 153 190 224 261
#     4   8  14  26  44  69  94 116 144 182 228 270
#     4   9  20  31  44  60  91 126 155 184 216 267
#     4   8  14  25  44  68  96 120 143 181 225 271
#     4  11  20  28  45  65  90 118 151 186 219 263
#
# _framework density 16.50986
#
# number of rings (size 3 to 8) (size 9 to 14) (size 15 to 20)
#    0.000    2.500    2.500    1.500    3.500    1.500 
#    0.000    0.000    0.000    1.125    0.000    2.625 
#    0.000    0.500    0.000    0.000    0.000    0.000 
#
# Total GULP energy -396464.830484 kJ/mol
# GULP energy per Si atom -12389.525953 kJ/mol
# Density = 1.647228 g / cm^3
# Si number density = 16.509860 Si / 1000 Ang^3
#
#
#
# Elastic Constant Matrix: (Units=GPa)
#
#
# Indices 1 2 3 4 5 6 
#
# 1 45.3291 22.5472 20.7522 0.0000 -5.3884 0.0000
# 2 22.5472 69.7485 31.1399 0.0000 -6.1499 0.0000
# 3 20.7522 31.1399 58.1350 0.0000 2.4727 0.0000
# 4 0.0000 0.0000 0.0000 9.4677 0.0000 -3.9533
# 5 -5.3884 -6.1499 2.4727 0.0000 28.7115 0.0000
# 6 0.0000 0.0000 0.0000 -3.9533 0.0000 26.9902
#
#
#
# Elastic Compliance Matrix: (Units=1/GPa)
#
#
# Indices 1 2 3 4 5 6 
#
# 1 0.028843 -0.005526 -0.007544 0.000000 0.004879 0.000000
# 2 -0.005526 0.020622 -0.009251 0.000000 0.004177 0.000000
# 3 -0.007544 -0.009251 0.025086 0.000000 -0.005558 0.000000
# 4 0.000000 0.000000 0.000000 0.112503 0.000000 0.016479
# 5 0.004879 0.004177 -0.005558 0.000000 0.037118 0.000000
# 6 0.000000 0.000000 0.000000 0.016479 0.000000 0.039464
#
#
# Mechanical properties :
#
#
# Convention : Reuss Voigt Hill
#
# Bulk Modulus (GPa) = 33.43401 35.78790 34.61096
# Shear Modulus (GPa) = 15.71101 19.61876 17.66488
#
# Velocity S-wave (km/s) = 3.08817 3.45092 3.27457
# Velocity P-wave (km/s) = 5.74549 6.13206 5.94192
#
# Compressibility (1/GPa) = 0.02990966
#
# Stress axis : x y z
#
# Youngs Moduli (GPa) = 34.67043 48.49151 39.86278
#
# Poissons Ratio (x) = 0.26795 0.30071
# Poissons Ratio (y) = 0.19158 0.36879
# Poissons Ratio (z) = 0.26154 0.44861
#
# Static dielectric constant tensor:
#      x y z
#    x 3.172950 0.000000 -0.008280 
#    y 0.000000 3.131210 0.000000 
#    z -0.008280 0.000000 2.987760 
# 
# 
# High freq. dielectric constant tensor:
#      x y z
#    x 1.621130 0.000000 0.001950 
#    y 0.000000 1.603330 0.000000 
#    z 0.001950 0.000000 1.622840 
# 
# From -- ./inp_files/218955.got.cif
#   From: 2010.06.25/outbox.cif.g09.slc.cpg/sg12_110_cif.got.tgz:218955.got - 2010.06.28 00:19:55.
