data_PCOD8082066
_publ_section_title
;
Structure prediction by ZEFSAII (Michael W. Deem and Ramdas Pophale) SiO2 
 PCOD8082066
Probable space group: C 2/M
;
_chemical_formula_sum "Si O2"
_cell_formula_units_Z 64
_cell_length_a 28.268276
_cell_length_b 8.797764
_cell_length_c 14.475916
_cell_angle_alpha 90.000000
_cell_angle_beta 86.731350
_cell_angle_gamma 90.000000
_cell_volume 3594.269055
_symmetry_space_group_name_H-M "C 2/M"
_symmetry_group_IT_number 12
_symmetry_cell_setting 'monoclinic'
loop_
_space_group_symop_operation_xyz
x,y,z
-x,y,-z
-x,-y,-z
x,-y,z
1/2+x,1/2+y,z
1/2-x,1/2+y,-z
1/2-x,1/2-y,-z
1/2+x,1/2-y,z
loop_
_atom_site_type_symbol
_atom_site_label
_atom_site_fract_x
_atom_site_fract_y
_atom_site_fract_z
Si Si1 0.235328 0.325050 0.102010
Si Si2 0.604636 0.822314 0.845027
Si Si3 0.246302 0.173962 0.402222
Si Si4 0.189865 0.175605 0.758349
Si Si5 0.993863 0.818833 0.106685
Si Si6 0.174417 0.177612 0.264717
Si Si7 0.411390 0.669549 0.822603
Si Si8 0.658074 0.328445 0.998714
O O1 0.226560 0.500000 0.076280
O O2 0.289246 0.297384 0.137720
O O3 0.204878 0.286548 0.195818
O O4 0.213678 0.220329 0.018049
O O5 0.636338 0.738206 0.764052
O O6 0.551803 0.758207 0.844049
O O7 0.603928 0.000000 0.825827
O O8 0.628415 0.788361 0.940754
O O9 0.250000 0.250000 0.500000
O O10 0.283118 0.236164 0.323980
O O11 0.193194 0.198428 0.367231
O O12 0.258612 0.000000 0.415644
O O13 0.191458 0.000000 0.731815
O O14 0.039771 0.746629 0.155428
O O15 0.988617 0.000000 0.114173
O O16 0.000000 0.770150 0.000000
O O17 0.118134 0.225572 0.264922
O O18 0.180616 0.000000 0.233359
O O19 0.429602 0.500000 0.805241
O O20 0.370365 0.675659 0.903369
O O21 0.658373 0.500000 0.956992
#
# Coordination Sequence:
#
# PCOD8082066 Si02
#       8
#     8   8   8   8   8   8   8   8
#     4   9  17  29  46  69  94 123 162 207 249 290
#     4  12  24  34  46  68  98 130 171 217 258 295
#     4  10  19  33  55  82 109 133 162 198 242 297
#     4  10  21  37  53  70  98 133 167 203 249 303
#     4  10  18  32  51  70  94 130 175 215 255 299
#     4   8  15  28  47  72 100 132 164 196 237 293
#     4   8  14  27  48  69  92 126 169 210 244 285
#     4  10  18  31  48  66  91 130 173 208 248 296
#
# _framework density 17.806122999999999
#
# number of rings (size 3 to 8) (size 9 to 14) (size 15 to 20)
#    0.000    2.375    1.250    3.375    0.000    2.750 
#    0.000    0.625    0.000    0.000    0.000    0.875 
#    0.000    7.000    0.000    0.000    0.000    0.000 
#
# Total GULP energy -396506.741558 kJ/mol
# GULP energy per Si atom -12390.835674 kJ/mol
# Density = 1.776560 g / cm^3
# Si number density = 17.806123 Si / 1000 Ang^3
#
#
#
# Elastic Constant Matrix: (Units=GPa)
#
#
# Indices 1 2 3 4 5 6 
#
# 1 166.2206 41.6562 40.1064 0.0000 9.9588 0.0000
# 2 41.6562 84.6108 32.6553 0.0000 5.6815 0.0000
# 3 40.1064 32.6553 75.7235 0.0000 10.9200 0.0000
# 4 0.0000 0.0000 0.0000 25.8976 0.0000 -0.6533
# 5 9.9588 5.6815 10.9200 0.0000 17.2950 0.0000
# 6 0.0000 0.0000 0.0000 -0.6533 0.0000 24.0260
#
#
#
# Elastic Compliance Matrix: (Units=1/GPa)
#
#
# Indices 1 2 3 4 5 6 
#
# 1 0.007373 -0.002522 -0.002558 0.000000 -0.001802 0.000000
# 2 -0.002522 0.015053 -0.005118 0.000000 -0.000261 0.000000
# 3 -0.002558 -0.005118 0.017947 0.000000 -0.008178 0.000000
# 4 0.000000 0.000000 0.000000 0.038640 0.000000 0.001051
# 5 -0.001802 -0.000261 -0.008178 0.000000 0.064107 0.000000
# 6 0.000000 0.000000 0.000000 0.001051 0.000000 0.041650
#
#
# Mechanical properties :
#
#
# Convention : Reuss Voigt Hill
#
# Bulk Modulus (GPa) = 50.05528 61.71009 55.88268
# Shear Modulus (GPa) = 23.60425 27.58618 25.59522
#
# Velocity S-wave (km/s) = 3.64486 3.94032 3.79547
# Velocity P-wave (km/s) = 6.77390 7.44536 7.11755
#
# Compressibility (1/GPa) = 0.01997791
#
# Stress axis : x y z
#
# Youngs Moduli (GPa) = 135.62590 66.43049 55.71917
#
# Poissons Ratio (x) = 0.16753 0.14252
# Poissons Ratio (y) = 0.34203 0.28519
# Poissons Ratio (z) = 0.34690 0.34001
#
# Static dielectric constant tensor:
#      x y z
#    x 3.723270 0.000000 0.128170 
#    y 0.000000 3.224900 0.000000 
#    z 0.128170 0.000000 2.894470 
# 
# 
# High freq. dielectric constant tensor:
#      x y z
#    x 1.703500 0.000000 0.006060 
#    y 0.000000 1.682370 0.000000 
#    z 0.006060 0.000000 1.648400 
# 
# From -- ./inp_files/243993.got.cif
#   From: 2010.06.25/outbox.cif.g09.slc.cpg/sg12_122_cif.got.tgz:243993.got - 2010.06.28 00:19:55.
