data_PCOD8082932
_publ_section_title
;
Structure prediction by ZEFSAII (Michael W. Deem and Ramdas Pophale) SiO2 
 PCOD8082932
Probable space group: C 2/M
;
_chemical_formula_sum "Si O2"
_cell_formula_units_Z 56
_cell_length_a 14.344563
_cell_length_b 17.388844
_cell_length_c 17.618003
_cell_angle_alpha 90.000000
_cell_angle_beta 43.380784
_cell_angle_gamma 90.000000
_cell_volume 3018.371491
_symmetry_space_group_name_H-M "C 2/M"
_symmetry_group_IT_number 12
_symmetry_cell_setting 'monoclinic'
loop_
_space_group_symop_operation_xyz
x,y,z
-x,y,-z
-x,-y,-z
x,-y,z
1/2+x,1/2+y,z
1/2-x,1/2+y,-z
1/2-x,1/2-y,-z
1/2+x,1/2-y,z
loop_
_atom_site_type_symbol
_atom_site_label
_atom_site_fract_x
_atom_site_fract_y
_atom_site_fract_z
Si Si1 0.931034 0.913768 0.260217
Si Si2 0.358750 0.803983 0.816243
Si Si3 0.606295 0.335513 0.871422
Si Si4 0.917776 0.587113 0.912825
Si Si5 0.710127 0.639583 0.147578
Si Si6 0.326937 0.179321 0.229922
Si Si7 0.657962 0.746053 0.627464
O O1 0.918768 0.899677 0.177486
O O2 0.852680 0.845285 0.349543
O O3 0.086731 0.914395 0.195853
O O4 0.873246 0.000000 0.311952
O O5 0.264283 0.836779 0.804390
O O6 0.343040 0.863914 0.893032
O O7 0.302571 0.723689 0.882439
O O8 0.513468 0.787851 0.697102
O O9 0.578352 0.249751 0.855926
O O10 0.500000 0.353825 0.000000
O O11 0.900538 0.500000 0.898722
O O12 0.076691 0.605813 0.819760
O O13 0.849504 0.601992 0.035459
O O14 0.710841 0.653833 0.238945
O O15 0.268833 0.208209 0.345846
O O16 0.750000 0.750000 0.500000
#
# Coordination Sequence:
#
# PCOD8082932 Si02
#       7
#     8   8   8   8   8   8   8
#     4  10  21  34  51  79 108 134 171 218 264 310
#     4   9  19  34  52  76 101 137 184 217 249 310
#     4  10  18  32  54  77 107 143 173 205 251 314
#     4  11  20  29  47  76 110 142 169 207 261 313
#     4  10  18  32  51  72 105 143 171 202 252 320
#     4   9  19  33  50  75 101 133 179 216 250 309
#     4   9  19  39  61  75  95 134 180 225 268 308
#
# _framework density 18.553051
#
# number of rings (size 3 to 8) (size 9 to 14) (size 15 to 20)
#    0.000    2.286    0.000    4.714    0.000    2.571 
#    0.000   14.286    0.000    1.714    0.000    0.000 
#    0.000    0.000    0.000    0.000    0.000    0.000 
#
# Total GULP energy -347009.475573 kJ/mol
# GULP energy per Si atom -12393.195556 kJ/mol
# Density = 1.851082 g / cm^3
# Si number density = 18.553051 Si / 1000 Ang^3
#
#
#
# Elastic Constant Matrix: (Units=GPa)
#
#
# Indices 1 2 3 4 5 6 
#
# 1 100.3752 38.3524 37.5215 0.0000 15.9219 0.0000
# 2 38.3524 107.7979 41.3548 0.0000 10.2160 0.0000
# 3 37.5215 41.3548 119.5662 0.0000 16.5152 0.0000
# 4 0.0000 0.0000 0.0000 13.5285 0.0000 -2.0077
# 5 15.9219 10.2160 16.5152 0.0000 19.6386 0.0000
# 6 0.0000 0.0000 0.0000 -2.0077 0.0000 7.4667
#
#
#
# Elastic Compliance Matrix: (Units=1/GPa)
#
#
# Indices 1 2 3 4 5 6 
#
# 1 0.013084 -0.003201 -0.001995 0.000000 -0.007265 0.000000
# 2 -0.003201 0.011614 -0.002870 0.000000 -0.001033 0.000000
# 3 -0.001995 -0.002870 0.010808 0.000000 -0.005979 0.000000
# 4 0.000000 0.000000 0.000000 0.076990 0.000000 0.020702
# 5 -0.007265 -0.001033 -0.005979 0.000000 0.062375 0.000000
# 6 0.000000 0.000000 0.000000 0.020702 0.000000 0.139495
#
#
# Mechanical properties :
#
#
# Convention : Reuss Voigt Hill
#
# Bulk Modulus (GPa) = 51.61578 62.46630 57.04104
# Shear Modulus (GPa) = 14.83868 22.16079 18.49974
#
# Velocity S-wave (km/s) = 2.83114 3.45984 3.16116
# Velocity P-wave (km/s) = 6.21033 7.05002 6.64345
#
# Compressibility (1/GPa) = 0.01937392
#
# Stress axis : x y z
#
# Youngs Moduli (GPa) = 76.42966 86.10018 92.52284
#
# Poissons Ratio (x) = 0.27561 0.18461
# Poissons Ratio (y) = 0.24466 0.26553
# Poissons Ratio (z) = 0.15250 0.24710
#
# Static dielectric constant tensor:
#      x y z
#    x 3.611730 0.000000 0.203660 
#    y 0.000000 3.341880 0.000000 
#    z 0.203660 0.000000 2.999580 
# 
# 
# High freq. dielectric constant tensor:
#      x y z
#    x 1.729640 0.000000 0.018040 
#    y 0.000000 1.715660 0.000000 
#    z 0.018040 0.000000 1.675620 
# 
# From -- ./inp_files/145481.got.cif
#   From: 2010.06.25/outbox.cif.g09.slc.cpg/sg12_73_cif.got.tgz:145481.got - 2010.06.28 00:19:55.
