data_PCOD8082724
_publ_section_title
;
Structure prediction by ZEFSAII (Michael W. Deem and Ramdas Pophale) SiO2 
 PCOD8082724
Probable space group: C 2/M
;
_chemical_formula_sum "Si O2"
_cell_formula_units_Z 48
_cell_length_a 15.963569
_cell_length_b 16.269811
_cell_length_c 20.055125
_cell_angle_alpha 90.000000
_cell_angle_beta 152.205538
_cell_angle_gamma 90.000000
_cell_volume 2428.870444
_symmetry_space_group_name_H-M "C 2/M"
_symmetry_group_IT_number 12
_symmetry_cell_setting 'monoclinic'
loop_
_space_group_symop_operation_xyz
x,y,z
-x,y,-z
-x,-y,-z
x,-y,z
1/2+x,1/2+y,z
1/2-x,1/2+y,-z
1/2-x,1/2-y,-z
1/2+x,1/2-y,z
loop_
_atom_site_type_symbol
_atom_site_label
_atom_site_fract_x
_atom_site_fract_y
_atom_site_fract_z
Si Si1 0.156425 0.403199 0.564375
Si Si2 0.550152 0.597386 0.832758
Si Si3 0.954837 0.095270 0.319161
Si Si4 0.822223 0.340319 0.565205
Si Si5 0.429837 0.097935 0.150576
Si Si6 0.892547 0.402599 0.860396
O O1 0.150217 0.500000 0.569144
O O2 0.357536 0.371026 0.726323
O O3 0.115256 0.382045 0.459040
O O4 0.000000 0.362570 0.500000
O O5 0.541553 0.500000 0.819333
O O6 0.574627 0.634600 0.775328
O O7 0.718296 0.621802 0.997487
O O8 0.812681 0.129637 0.273483
O O9 0.158420 0.111178 0.485733
O O10 0.913867 0.000000 0.284926
O O11 0.750000 0.250000 0.500000
O O12 0.990779 0.347782 0.733402
O O13 0.526562 0.130711 0.151635
O O14 0.456080 0.000000 0.180918
O O15 0.909525 0.500000 0.868864
O O16 0.000000 0.368843 0.000000
#
# Coordination Sequence:
#
# PCOD8082724 Si02
#       6
#     8   8   8   8   8   8
#     4   9  18  37  62  79  98 140 192 233 272 322
#     4   8  14  27  53  83 105 132 174 224 269 309
#     4   9  16  31  53  75 104 141 177 210 257 325
#     4  11  23  37  49  74 110 146 179 223 281 325
#     4  10  18  31  54  84 112 139 177 223 267 318
#     4   9  15  26  51  85 112 134 166 210 260 319
#
# _framework density 19.762271999999999
#
# number of rings (size 3 to 8) (size 9 to 14) (size 15 to 20)
#    0.000    2.667    1.667    2.500    0.000    0.667 
#    3.000    6.667    0.000    4.000    0.000    0.000 
#    0.000    0.000    0.000    0.000    0.000    0.167 
#
# Total GULP energy -297341.136599 kJ/mol
# GULP energy per Si atom -12389.214025 kJ/mol
# Density = 1.971729 g / cm^3
# Si number density = 19.762272 Si / 1000 Ang^3
#
#
#
# Elastic Constant Matrix: (Units=GPa)
#
#
# Indices 1 2 3 4 5 6 
#
# 1 140.8259 13.6664 82.6162 0.0015 32.5460 0.0021
# 2 13.6664 18.1837 16.5241 -0.0013 1.6404 0.0026
# 3 82.6162 16.5241 163.8499 -0.0027 9.6883 0.0013
# 4 0.0015 -0.0013 -0.0027 11.1195 0.0002 -0.2952
# 5 32.5460 1.6404 9.6883 0.0002 32.7246 -0.0010
# 6 0.0021 0.0026 0.0013 -0.2952 -0.0010 5.2122
#
#
#
# Elastic Compliance Matrix: (Units=1/GPa)
#
#
# Indices 1 2 3 4 5 6 
#
# 1 0.013514 -0.003901 -0.005738 -0.000004 -0.011546 -0.000004
# 2 -0.003901 0.061719 -0.004380 0.000006 0.002083 -0.000028
# 3 -0.005738 -0.004380 0.009250 0.000002 0.003188 0.000003
# 4 -0.000004 0.000006 0.000002 0.090068 0.000002 0.005100
# 5 -0.011546 0.002083 0.003188 0.000002 0.040993 0.000010
# 6 -0.000004 -0.000028 0.000003 0.005100 0.000010 0.192147
#
#
# Mechanical properties :
#
#
# Convention : Reuss Voigt Hill
#
# Bulk Modulus (GPa) = 17.71670 60.94143 39.32907
# Shear Modulus (GPa) = 11.00003 23.81478 17.40741
#
# Velocity S-wave (km/s) = 2.36183 3.47517 2.97112
# Velocity P-wave (km/s) = 4.05241 6.85614 5.63155
#
# Compressibility (1/GPa) = 0.05644391
#
# Stress axis : x y z
#
# Youngs Moduli (GPa) = 73.99675 16.20245 108.11274
#
# Poissons Ratio (x) = 0.06321 0.62035
# Poissons Ratio (y) = 0.28866 0.47359
# Poissons Ratio (z) = 0.42459 0.07097
#
# Static dielectric constant tensor:
#      x y z
#    x 3.435920 -0.000020 0.216790 
#    y -0.000020 3.072360 -0.000030 
#    z 0.216790 -0.000030 3.740330 
# 
# 
# High freq. dielectric constant tensor:
#      x y z
#    x 1.764850 0.000000 0.019760 
#    y 0.000000 1.716410 0.000000 
#    z 0.019760 0.000000 1.773280 
# 
# From -- ./inp_files/74598.got.cif
#   From: 2010.06.25/outbox.cif.g09.slc.cpg/sg12_38_cif.got.tgz:74598.got - 2010.06.28 00:19:55.
