data_PCOD8082033
_publ_section_title
;
Structure prediction by ZEFSAII (Michael W. Deem and Ramdas Pophale) SiO2 
 PCOD8082033
Probable space group: C 2/M
;
_chemical_formula_sum "Si O2"
_cell_formula_units_Z 52
_cell_length_a 17.624255
_cell_length_b 28.799936
_cell_length_c 11.753494
_cell_angle_alpha 90.000000
_cell_angle_beta 148.641531
_cell_angle_gamma 90.000000
_cell_volume 3104.551636
_symmetry_space_group_name_H-M "C 2/M"
_symmetry_group_IT_number 12
_symmetry_cell_setting 'monoclinic'
loop_
_space_group_symop_operation_xyz
x,y,z
-x,y,-z
-x,-y,-z
x,-y,z
1/2+x,1/2+y,z
1/2-x,1/2+y,-z
1/2-x,1/2-y,-z
1/2+x,1/2-y,z
loop_
_atom_site_type_symbol
_atom_site_label
_atom_site_fract_x
_atom_site_fract_y
_atom_site_fract_z
Si Si1 0.208579 0.500000 0.345971
Si Si2 0.402542 0.000000 0.053674
Si Si3 0.891285 0.084154 0.519819
Si Si4 0.302861 0.686075 0.380646
Si Si5 0.789362 0.919483 0.131700
Si Si6 0.243855 0.682179 0.049278
Si Si7 0.000000 0.729401 0.000000
Si Si8 0.535244 0.738340 0.804291
O O1 0.304680 0.546869 0.486773
O O2 0.079068 0.500000 0.274324
O O3 0.149300 0.500000 0.142365
O O4 0.338441 0.957098 0.044310
O O5 0.855558 0.137755 0.506474
O O6 0.840708 0.079285 0.326501
O O7 0.063832 0.072727 0.754978
O O8 0.330305 0.688510 0.279900
O O9 0.133150 0.693848 0.187364
O O10 0.386785 0.728916 0.546666
O O11 0.712142 0.872012 0.993635
O O12 0.345994 0.700097 0.078939
O O13 0.091445 0.709617 0.848391
O O14 0.986047 0.764467 0.087813
#
# Coordination Sequence:
#
# PCOD8082033 Si02
#       8
#     4   4   8   8   8   8   4   8
#     4   9  17  25  33  61  89 123 140 173 220 275
#     4   9  17  25  39  55  91 115 146 180 220 263
#     4   9  16  25  43  58  86 116 154 179 218 264
#     4  10  18  31  47  65  90 124 156 188 224 268
#     4   9  15  27  41  63  81 116 152 187 212 263
#     4   9  18  29  49  68  87 117 162 189 221 263
#     4  10  22  30  42  65  92 123 154 186 232 276
#     4  10  18  31  45  65  90 121 152 196 224 268
#
# _framework density 16.749600999999998
#
# number of rings (size 3 to 8) (size 9 to 14) (size 15 to 20)
#    0.000    2.615    1.538    1.385    0.000    6.769 
#    0.000    0.000    0.000    0.000    0.000    0.000 
#    0.000    2.462    0.000   32.462    0.000   19.154 
#
# Total GULP energy -322197.643317 kJ/mol
# GULP energy per Si atom -12392.217051 kJ/mol
# Density = 1.671148 g / cm^3
# Si number density = 16.749601 Si / 1000 Ang^3
#
#
#
# Elastic Constant Matrix: (Units=GPa)
#
#
# Indices 1 2 3 4 5 6 
#
# 1 93.3344 51.5494 33.4781 0.0000 21.2397 0.0000
# 2 51.5494 133.3612 45.9090 0.0000 21.7546 0.0000
# 3 33.4781 45.9090 59.3853 0.0000 27.7451 0.0000
# 4 0.0000 0.0000 0.0000 23.4443 0.0000 7.4979
# 5 21.2397 21.7546 27.7451 0.0000 26.7088 0.0000
# 6 0.0000 0.0000 0.0000 7.4979 0.0000 18.6286
#
#
#
# Elastic Compliance Matrix: (Units=1/GPa)
#
#
# Indices 1 2 3 4 5 6 
#
# 1 0.015264 -0.003984 -0.002662 0.000000 -0.006128 0.000000
# 2 -0.003984 0.011258 -0.007099 0.000000 0.001372 0.000000
# 3 -0.002662 -0.007099 0.039127 0.000000 -0.032746 0.000000
# 4 0.000000 0.000000 0.000000 0.048956 0.000000 -0.019705
# 5 -0.006128 0.001372 -0.032746 0.000000 0.075213 0.000000
# 6 0.000000 0.000000 0.000000 -0.019705 0.000000 0.061612
#
#
# Mechanical properties :
#
#
# Convention : Reuss Voigt Hill
#
# Bulk Modulus (GPa) = 26.20553 60.88377 43.54465
# Shear Modulus (GPa) = 17.14446 24.09928 20.62187
#
# Velocity S-wave (km/s) = 3.20281 3.79726 3.51263
# Velocity P-wave (km/s) = 5.41818 7.46015 6.51961
#
# Compressibility (1/GPa) = 0.03815989
#
# Stress axis : x y z
#
# Youngs Moduli (GPa) = 65.51371 88.82382 25.55796
#
# Poissons Ratio (x) = 0.35389 0.06803
# Poissons Ratio (y) = 0.26102 0.18142
# Poissons Ratio (z) = 0.17439 0.63052
#
# Static dielectric constant tensor:
#      x y z
#    x 3.139490 0.000000 0.360590 
#    y 0.000000 3.327270 0.000000 
#    z 0.360590 0.000000 2.904550 
# 
# 
# High freq. dielectric constant tensor:
#      x y z
#    x 1.626850 0.000000 0.044670 
#    y 0.000000 1.647620 0.000000 
#    z 0.044670 0.000000 1.604720 
# 
# From -- ./inp_files/160851.got.cif
#   From: 2010.06.25/outbox.cif.g09.slc.cpg/sg12_81_cif.got.tgz:160851.got - 2010.06.28 00:19:55.
