data_PCOD8082137
_publ_section_title
;
Structure prediction by ZEFSAII (Michael W. Deem and Ramdas Pophale) SiO2 
 PCOD8082137
Probable space group: C 2/M
;
_chemical_formula_sum "Si O2"
_cell_formula_units_Z 56
_cell_length_a 14.898595
_cell_length_b 17.584699
_cell_length_c 14.321431
_cell_angle_alpha 90.000000
_cell_angle_beta 134.194066
_cell_angle_gamma 90.000000
_cell_volume 2690.143272
_symmetry_space_group_name_H-M "C 2/M"
_symmetry_group_IT_number 12
_symmetry_cell_setting 'monoclinic'
loop_
_space_group_symop_operation_xyz
x,y,z
-x,y,-z
-x,-y,-z
x,-y,z
1/2+x,1/2+y,z
1/2-x,1/2+y,-z
1/2-x,1/2-y,-z
1/2+x,1/2-y,z
loop_
_atom_site_type_symbol
_atom_site_label
_atom_site_fract_x
_atom_site_fract_y
_atom_site_fract_z
Si Si1 0.036697 0.147407 0.313884
Si Si2 0.405654 0.910940 0.346058
Si Si3 0.138388 0.173614 0.571708
Si Si4 0.090061 0.704171 0.802412
Si Si5 0.295838 0.415411 0.205050
Si Si6 0.149448 0.727645 0.041153
Si Si7 0.683307 0.307669 0.245310
O O1 0.141961 0.136252 0.470284
O O2 0.092270 0.148977 0.250644
O O3 0.974882 0.227764 0.300356
O O4 0.925971 0.085585 0.239996
O O5 0.500000 0.895486 0.500000
O O6 0.452799 0.873023 0.281758
O O7 0.272086 0.873776 0.270721
O O8 0.389022 0.000000 0.315814
O O9 0.178729 0.105951 0.669352
O O10 0.233472 0.244103 0.643260
O O11 0.000000 0.202170 0.500000
O O12 0.239826 0.714667 0.908346
O O13 0.050271 0.715107 0.883638
O O14 0.240009 0.500000 0.158942
O O15 0.195312 0.358180 0.089869
O O16 0.100576 0.766209 0.102813
#
# Coordination Sequence:
#
# PCOD8082137 Si02
#       7
#     8   8   8   8   8   8   8
#     4  10  19  28  49  76  98 128 159 204 260 293
#     4  10  20  33  50  72 101 135 166 201 242 289
#     4   9  17  30  48  70  95 134 173 203 238 282
#     4   9  17  33  51  70  94 125 170 205 233 292
#     4   9  18  32  49  73 103 132 166 202 240 294
#     4   8  17  32  52  70  90 128 168 203 241 283
#     4  10  18  31  49  73 100 124 162 209 253 297
#
# _framework density 20.816735000000001
#
# number of rings (size 3 to 8) (size 9 to 14) (size 15 to 20)
#    0.000    2.714    0.000    4.286    0.000    4.286 
#    0.000    0.000    0.000    5.143    0.000   13.000 
#    0.000    0.000    0.000    0.000    0.000    0.000 
#
# Total GULP energy -346875.495461 kJ/mol
# GULP energy per Si atom -12388.410552 kJ/mol
# Density = 2.076936 g / cm^3
# Si number density = 20.816735 Si / 1000 Ang^3
#
#
#
# Elastic Constant Matrix: (Units=GPa)
#
#
# Indices 1 2 3 4 5 6 
#
# 1 53.3497 2.1103 12.9361 0.0000 -31.9398 0.0000
# 2 2.1103 108.4383 33.2939 0.0000 -13.2257 0.0000
# 3 12.9361 33.2939 108.2141 0.0000 -32.4473 0.0000
# 4 0.0000 0.0000 0.0000 16.5379 0.0000 -0.9716
# 5 -31.9398 -13.2257 -32.4473 0.0000 32.6251 0.0000
# 6 0.0000 0.0000 0.0000 -0.9716 0.0000 4.0876
#
#
#
# Elastic Compliance Matrix: (Units=1/GPa)
#
#
# Indices 1 2 3 4 5 6 
#
# 1 0.058607 0.003504 0.013602 0.000000 0.072325 -0.000001
# 2 0.003504 0.010441 -0.001900 0.000000 0.005774 0.000000
# 3 0.013602 -0.001900 0.017044 0.000000 0.029497 0.000000
# 4 0.000000 0.000000 0.000000 0.061323 0.000000 0.014576
# 5 0.072325 0.005774 0.029497 0.000000 0.133134 -0.000001
# 6 -0.000001 0.000000 0.000000 0.014576 -0.000001 0.248109
#
#
# Mechanical properties :
#
#
# Convention : Reuss Voigt Hill
#
# Bulk Modulus (GPa) = 8.58334 40.74252 24.66293
# Shear Modulus (GPa) = 9.30957 25.42758 17.36857
#
# Velocity S-wave (km/s) = 2.11704 3.49878 2.89166
# Velocity P-wave (km/s) = 3.17932 5.99470 4.79815
#
# Compressibility (1/GPa) = 0.11650478
#
# Stress axis : x y z
#
# Youngs Moduli (GPa) = 17.06271 95.77432 58.67146
#
# Poissons Ratio (x) = -0.33562 -0.79804
# Poissons Ratio (y) = -0.05979 0.11148
# Poissons Ratio (z) = -0.23209 0.18199
#
# Static dielectric constant tensor:
#      x y z
#    x 3.654780 0.000000 -0.325880 
#    y 0.000000 3.458740 0.000000 
#    z -0.325880 0.000000 4.128520 
# 
# 
# High freq. dielectric constant tensor:
#      x y z
#    x 1.798480 0.000000 -0.018060 
#    y 0.000000 1.782770 0.000000 
#    z -0.018060 0.000000 1.829580 
# 
# From -- ./inp_files/216017.got.cif
#   From: 2010.06.25/outbox.cif.g09.slc.cpg/sg12_109_cif.got.tgz:216017.got - 2010.06.28 00:19:55.
