data_PCOD8082939
_publ_section_title
;
Structure prediction by ZEFSAII (Michael W. Deem and Ramdas Pophale) SiO2 
 PCOD8082939
Probable space group: C 2/M
;
_chemical_formula_sum "Si O2"
_cell_formula_units_Z 48
_cell_length_a 20.325235
_cell_length_b 8.940570
_cell_length_c 16.401251
_cell_angle_alpha 90.000000
_cell_angle_beta 115.799762
_cell_angle_gamma 90.000000
_cell_volume 2683.335249
_symmetry_space_group_name_H-M "C 2/M"
_symmetry_group_IT_number 12
_symmetry_cell_setting 'monoclinic'
loop_
_space_group_symop_operation_xyz
x,y,z
-x,y,-z
-x,-y,-z
x,-y,z
1/2+x,1/2+y,z
1/2-x,1/2+y,-z
1/2-x,1/2-y,-z
1/2+x,1/2-y,z
loop_
_atom_site_type_symbol
_atom_site_label
_atom_site_fract_x
_atom_site_fract_y
_atom_site_fract_z
Si Si1 0.424373 0.829134 0.258363
Si Si2 0.798611 0.822819 0.457101
Si Si3 0.709409 0.168635 0.095682
Si Si4 0.360499 0.667583 0.080770
Si Si5 0.548639 0.827586 0.449550
Si Si6 0.280725 0.824040 0.277658
O O1 0.422022 0.734098 0.174034
O O2 0.502557 0.804409 0.342222
O O3 0.361048 0.781772 0.287498
O O4 0.411352 0.000000 0.226103
O O5 0.750000 0.750000 0.500000
O O6 0.882282 0.779235 0.517824
O O7 0.769444 0.762023 0.355607
O O8 0.790263 0.000000 0.454802
O O9 0.783834 0.171776 0.085441
O O10 0.718602 0.267763 0.181725
O O11 0.687983 0.000000 0.108395
O O12 0.644860 0.237630 0.005433
O O13 0.383219 0.500000 0.069696
O O14 0.500000 0.779622 0.500000
O O15 0.574005 0.000000 0.473288
O O16 0.271826 0.000000 0.287059
#
# Coordination Sequence:
#
# PCOD8082939 Si02
#       6
#     8   8   8   8   8   8
#     4   9  17  29  49  73 102 137 170 209 261 315
#     4  12  25  39  55  77 106 141 181 224 267 314
#     4   9  16  26  41  65  97 133 171 210 257 311
#     4   9  16  25  39  64  99 134 169 211 256 304
#     4  10  19  36  57  79 106 140 177 217 268 320
#     4  10  18  32  51  73 101 136 174 214 264 315
#
# _framework density 17.888186000000001
#
# number of rings (size 3 to 8) (size 9 to 14) (size 15 to 20)
#    0.000    2.167    1.667    3.000    0.000    5.667 
#    0.000    0.000    0.000    0.000    0.000    1.167 
#    0.000    9.333    0.000    0.000    0.000    0.000 
#
# Total GULP energy -297630.304964 kJ/mol
# GULP energy per Si atom -12401.262707 kJ/mol
# Density = 1.784747 g / cm^3
# Si number density = 17.888186 Si / 1000 Ang^3
#
#
#
# Elastic Constant Matrix: (Units=GPa)
#
#
# Indices 1 2 3 4 5 6 
#
# 1 50.0396 37.8940 40.6530 0.0000 -4.4877 0.0000
# 2 37.8940 132.4564 70.0988 0.0000 -2.5140 0.0000
# 3 40.6530 70.0988 137.7369 0.0000 3.4297 0.0000
# 4 0.0000 0.0000 0.0000 39.2856 0.0000 2.3356
# 5 -4.4877 -2.5140 3.4297 0.0000 13.6052 0.0000
# 6 0.0000 0.0000 0.0000 2.3356 0.0000 20.2132
#
#
#
# Elastic Compliance Matrix: (Units=1/GPa)
#
#
# Indices 1 2 3 4 5 6 
#
# 1 0.030034 -0.004869 -0.006653 0.000000 0.010684 0.000000
# 2 -0.004869 0.011267 -0.004336 0.000000 0.001569 0.000000
# 3 -0.006653 -0.004336 0.011578 0.000000 -0.005914 0.000000
# 4 0.000000 0.000000 0.000000 0.025631 0.000000 -0.002962
# 5 0.010684 0.001569 -0.005914 0.000000 0.078806 0.000000
# 6 0.000000 0.000000 0.000000 -0.002962 0.000000 0.049815
#
#
# Mechanical properties :
#
#
# Convention : Reuss Voigt Hill
#
# Bulk Modulus (GPa) = 47.25081 68.61381 57.93231
# Shear Modulus (GPa) = 20.33337 26.05994 23.19666
#
# Velocity S-wave (km/s) = 3.37514 3.82098 3.60496
# Velocity P-wave (km/s) = 6.45451 7.60965 7.05576
#
# Compressibility (1/GPa) = 0.02116366
#
# Stress axis : x y z
#
# Youngs Moduli (GPa) = 33.29535 88.75319 86.37143
#
# Poissons Ratio (x) = 0.43213 0.57460
# Poissons Ratio (y) = 0.16211 0.37453
# Poissons Ratio (z) = 0.22150 0.38486
#
# Static dielectric constant tensor:
#      x y z
#    x 2.477960 0.000000 -0.007940 
#    y 0.000000 3.411950 0.000000 
#    z -0.007940 0.000000 3.490570 
# 
# 
# High freq. dielectric constant tensor:
#      x y z
#    x 1.624870 0.000000 0.011280 
#    y 0.000000 1.702120 0.000000 
#    z 0.011280 0.000000 1.712090 
# 
# From -- ./inp_files/230367.got.cif
#   From: 2010.06.25/outbox.cif.g09.slc.cpg/sg12_116_cif.got.tgz:230367.got - 2010.06.28 00:19:55.
