data_PCOD8082961
_publ_section_title
;
Structure prediction by ZEFSAII (Michael W. Deem and Ramdas Pophale) SiO2 
 PCOD8082961
Probable space group: C 2/M
;
_chemical_formula_sum "Si O2"
_cell_formula_units_Z 64
_cell_length_a 21.460530
_cell_length_b 23.640144
_cell_length_c 8.123073
_cell_angle_alpha 90.000000
_cell_angle_beta 68.896535
_cell_angle_gamma 90.000000
_cell_volume 3844.685291
_symmetry_space_group_name_H-M "C 2/M"
_symmetry_group_IT_number 12
_symmetry_cell_setting 'monoclinic'
loop_
_space_group_symop_operation_xyz
x,y,z
-x,y,-z
-x,-y,-z
x,-y,z
1/2+x,1/2+y,z
1/2-x,1/2+y,-z
1/2-x,1/2-y,-z
1/2+x,1/2-y,z
loop_
_atom_site_type_symbol
_atom_site_label
_atom_site_fract_x
_atom_site_fract_y
_atom_site_fract_z
Si Si1 0.234443 0.165355 0.947508
Si Si2 0.922633 0.237643 0.597392
Si Si3 0.496453 0.563844 0.196298
Si Si4 0.354944 0.435924 0.458275
Si Si5 0.147413 0.277697 0.022017
Si Si6 0.766166 0.839420 0.418759
Si Si7 0.619822 0.618206 0.246149
Si Si8 0.647861 0.769704 0.658038
O O1 0.302043 0.169928 0.992039
O O2 0.258303 0.148511 0.742825
O O3 0.194250 0.223417 0.980821
O O4 0.183648 0.118246 0.064776
O O5 0.907812 0.273286 0.779569
O O6 0.885205 0.177358 0.648888
O O7 0.899842 0.272401 0.456291
O O8 0.000000 0.226611 0.500000
O O9 0.507522 0.500000 0.254421
O O10 0.423302 0.586635 0.311296
O O11 0.551364 0.606693 0.214594
O O12 0.500000 0.564485 0.000000
O O13 0.339565 0.500000 0.419385
O O14 0.292255 0.398049 0.467372
O O15 0.366183 0.432771 0.642832
O O16 0.113939 0.282753 0.870324
O O17 0.705398 0.816643 0.586050
O O18 0.824724 0.793634 0.363788
#
# Coordination Sequence:
#
# PCOD8082961 Si02
#       8
#     8   8   8   8   8   8   8   8
#     4   9  17  30  49  69  91 123 169 211 246 293
#     4  11  21  33  47  72 104 132 164 204 247 301
#     4  10  21  35  47  62  90 132 179 217 251 288
#     4  11  21  32  48  69  95 130 172 212 253 294
#     4   9  18  31  47  72  96 125 167 206 245 303
#     4  10  18  32  52  71  94 126 168 208 253 298
#     4  11  20  32  47  66  94 132 171 213 248 288
#     4  10  19  32  53  72  96 130 166 207 253 298
#
# _framework density 16.646356000000001
#
# number of rings (size 3 to 8) (size 9 to 14) (size 15 to 20)
#    0.000    1.875    2.500    3.000    3.500    1.500 
#    0.000    0.625    0.000    0.000    0.000    0.000 
#    0.000    0.500    0.000    3.500    0.000    0.000 
#
# Total GULP energy -396626.042893 kJ/mol
# GULP energy per Si atom -12394.563840 kJ/mol
# Density = 1.660847 g / cm^3
# Si number density = 16.646356 Si / 1000 Ang^3
#
#
#
# Elastic Constant Matrix: (Units=GPa)
#
#
# Indices 1 2 3 4 5 6 
#
# 1 42.3119 21.8730 24.8589 0.0000 14.1105 0.0000
# 2 21.8730 49.6330 17.6910 0.0000 -1.6857 0.0000
# 3 24.8589 17.6910 105.3060 0.0000 18.1230 0.0000
# 4 0.0000 0.0000 0.0000 21.5168 0.0000 -4.1001
# 5 14.1105 -1.6857 18.1230 0.0000 25.9567 0.0000
# 6 0.0000 0.0000 0.0000 -4.1001 0.0000 29.5052
#
#
#
# Elastic Compliance Matrix: (Units=1/GPa)
#
#
# Indices 1 2 3 4 5 6 
#
# 1 0.042219 -0.018238 -0.003124 0.000000 -0.021954 0.000000
# 2 -0.018238 0.029769 -0.003108 0.000000 0.014018 0.000000
# 3 -0.003124 -0.003108 0.011932 0.000000 -0.006834 0.000000
# 4 0.000000 0.000000 0.000000 0.047739 0.000000 0.006634
# 5 -0.021954 0.014018 -0.006834 0.000000 0.056142 0.000000
# 6 0.000000 0.000000 0.000000 0.006634 0.000000 0.034814
#
#
# Mechanical properties :
#
#
# Convention : Reuss Voigt Hill
#
# Bulk Modulus (GPa) = 28.58808 36.23295 32.41051
# Shear Modulus (GPa) = 17.65439 24.25094 20.95266
#
# Velocity S-wave (km/s) = 3.26015 3.82099 3.55166
# Velocity P-wave (km/s) = 5.60201 6.42496 6.02755
#
# Compressibility (1/GPa) = 0.03497962
#
# Stress axis : x y z
#
# Youngs Moduli (GPa) = 23.68619 33.59197 83.80803
#
# Poissons Ratio (x) = 0.61263 0.26184
# Poissons Ratio (y) = 0.43198 0.26050
# Poissons Ratio (z) = 0.07400 0.10441
#
# Static dielectric constant tensor:
#      x y z
#    x 2.470450 0.000000 0.557850 
#    y 0.000000 2.892160 0.000000 
#    z 0.557850 0.000000 3.156070 
# 
# 
# High freq. dielectric constant tensor:
#      x y z
#    x 1.620370 0.000000 0.020390 
#    y 0.000000 1.594170 0.000000 
#    z 0.020390 0.000000 1.658270 
# 
# From -- ./inp_files/78833.got.cif
#   From: 2010.06.25/outbox.cif.g09.slc.cpg/sg12_40_cif.got.tgz:78833.got - 2010.06.28 00:19:55.
