data_PCOD8082853
_publ_section_title
;
Structure prediction by ZEFSAII (Michael W. Deem and Ramdas Pophale) SiO2 
 PCOD8082853
Probable space group: C 2/M
;
_chemical_formula_sum "Si O2"
_cell_formula_units_Z 64
_cell_length_a 18.002953
_cell_length_b 13.284689
_cell_length_c 16.215179
_cell_angle_alpha 90.000000
_cell_angle_beta 90.000000
_cell_angle_gamma 90.000000
_cell_volume 3878.081098
_symmetry_space_group_name_H-M "C 2/M"
_symmetry_group_IT_number 12
_symmetry_cell_setting 'monoclinic'
loop_
_space_group_symop_operation_xyz
x,y,z
-x,y,-z
-x,-y,-z
x,-y,z
1/2+x,1/2+y,z
1/2-x,1/2+y,-z
1/2-x,1/2-y,-z
1/2+x,1/2-y,z
loop_
_atom_site_type_symbol
_atom_site_label
_atom_site_fract_x
_atom_site_fract_y
_atom_site_fract_z
Si Si1 0.343514 0.383574 0.094586
Si Si2 0.156486 0.116426 0.094586
Si Si3 0.250000 0.250000 0.785676
Si Si4 0.124585 0.385173 0.715500
Si Si5 0.875415 0.385173 0.715500
Si Si6 1.000000 0.380257 0.592605
Si Si7 0.000000 0.821514 0.091125
Si Si8 0.500000 0.891029 0.850273
O O1 0.323955 0.500000 0.096108
O O2 0.285873 0.330893 0.153966
O O3 0.425389 0.363133 0.133709
O O4 0.338502 0.342148 0.000000
O O5 0.214127 0.169107 0.153966
O O6 0.074611 0.136867 0.133709
O O7 0.176045 0.000000 0.096107
O O8 0.193058 0.308924 0.726376
O O9 0.306942 0.191076 0.726376
O O10 0.152680 0.500000 0.699943
O O11 0.074955 0.344473 0.638952
O O12 0.073923 0.382617 0.796299
O O13 0.847320 0.500000 0.699943
O O14 0.925045 0.344473 0.638952
O O15 0.926077 0.382617 0.796299
O O16 0.000000 0.500000 0.594353
O O17 0.000000 0.336525 0.500000
O O18 0.000000 0.700033 0.085558
O O19 0.000000 0.867436 0.000000
O O20 0.500000 0.000000 0.895872
#
# Coordination Sequence:
#
# PCOD8082853 Si02
#       8
#     8   8   8   8   8   8   8   8
#     4  10  21  34  47  64  89 128 172 206 238 280
#     4  10  21  34  47  64  89 128 172 206 238 280
#     4  12  19  30  49  68 102 126 148 200 251 288
#     4   9  18  30  48  73  95 121 155 190 233 281
#     4   9  18  30  48  73  95 121 155 190 233 281
#     4   8  15  32  55  73  94 123 153 185 222 275
#     4  10  18  32  48  62  83 119 167 206 235 274
#     4   9  16  31  47  63  89 117 155 202 235 271
#
# _framework density 16.503005999999999
#
# number of rings (size 3 to 8) (size 9 to 14) (size 15 to 20)
#    0.000    2.375    2.500    3.000    0.000    1.750 
#    0.000    0.625    0.000    0.000    0.000    0.000 
#    0.000    4.000    0.000    0.000    0.000    0.000 
#
# Total GULP energy -396601.190907 kJ/mol
# GULP energy per Si atom -12393.787216 kJ/mol
# Density = 1.646544 g / cm^3
# Si number density = 16.503006 Si / 1000 Ang^3
#
#
#
# Elastic Constant Matrix: (Units=GPa)
#
#
# Indices 1 2 3 4 5 6 
#
# 1 113.7272 46.4840 45.6521 0.0000 -0.0002 0.0000
# 2 46.4840 78.0490 30.1114 0.0000 -0.0001 0.0000
# 3 45.6521 30.1114 71.6427 0.0000 -0.0001 0.0000
# 4 0.0000 0.0000 0.0000 14.2597 0.0000 0.0000
# 5 -0.0002 -0.0001 -0.0001 0.0000 15.4465 0.0000
# 6 0.0000 0.0000 0.0000 0.0000 0.0000 23.5247
#
#
#
# Elastic Compliance Matrix: (Units=1/GPa)
#
#
# Indices 1 2 3 4 5 6 
#
# 1 0.013653 -0.005699 -0.006305 0.000000 0.000000 0.000000
# 2 -0.005699 0.017671 -0.003796 0.000000 0.000000 0.000000
# 3 -0.006305 -0.003796 0.019571 0.000000 0.000000 0.000000
# 4 0.000000 0.000000 0.000000 0.070128 0.000000 0.000000
# 5 0.000000 0.000000 0.000000 0.000000 0.064740 0.000000
# 6 0.000000 0.000000 0.000000 0.000000 0.000000 0.042508
#
#
# Mechanical properties :
#
#
# Convention : Reuss Voigt Hill
#
# Bulk Modulus (GPa) = 51.82326 56.43488 54.12907
# Shear Modulus (GPa) = 18.77568 20.05761 19.41665
#
# Velocity S-wave (km/s) = 3.37666 3.49003 3.43381
# Velocity P-wave (km/s) = 6.83176 7.10713 6.97081
#
# Compressibility (1/GPa) = 0.01929635
#
# Stress axis : x y z
#
# Youngs Moduli (GPa) = 73.24277 56.58973 51.09616
#
# Poissons Ratio (x) = 0.32251 0.32215
# Poissons Ratio (y) = 0.41742 0.19394
# Poissons Ratio (z) = 0.46178 0.21479
#
# Static dielectric constant tensor:
#      x y z
#    x 3.218230 0.000000 0.000000 
#    y 0.000000 3.072080 0.000000 
#    z 0.000000 0.000000 2.944450 
# 
# 
# High freq. dielectric constant tensor:
#      x y z
#    x 1.641370 0.000000 0.000000 
#    y 0.000000 1.629020 0.000000 
#    z 0.000000 0.000000 1.595510 
# 
# From -- ./inp_files/276531.got.cif
#   From: 2010.06.25/outbox.cif.g09.slc.cpg/sg12_139_cif.got.tgz:276531.got - 2010.06.28 00:19:55.
