data_PCOD8082304
_publ_section_title
;
Structure prediction by ZEFSAII (Michael W. Deem and Ramdas Pophale) SiO2 
 PCOD8082304
Probable space group: C 2/M
;
_chemical_formula_sum "Si O2"
_cell_formula_units_Z 56
_cell_length_a 23.869146
_cell_length_b 8.953802
_cell_length_c 15.056762
_cell_angle_alpha 90.000000
_cell_angle_beta 70.921228
_cell_angle_gamma 90.000000
_cell_volume 3041.164886
_symmetry_space_group_name_H-M "C 2/M"
_symmetry_group_IT_number 12
_symmetry_cell_setting 'monoclinic'
loop_
_space_group_symop_operation_xyz
x,y,z
-x,y,-z
-x,-y,-z
x,-y,z
1/2+x,1/2+y,z
1/2-x,1/2+y,-z
1/2-x,1/2-y,-z
1/2+x,1/2-y,z
loop_
_atom_site_type_symbol
_atom_site_label
_atom_site_fract_x
_atom_site_fract_y
_atom_site_fract_z
Si Si1 0.098135 0.178154 0.741127
Si Si2 0.576073 0.323131 0.372248
Si Si3 0.323183 0.824462 0.796673
Si Si4 0.488152 0.323231 0.909162
Si Si5 0.057391 0.823045 0.577509
Si Si6 0.692172 0.324309 0.830442
Si Si7 0.854876 0.176748 0.956625
O O1 0.097337 0.236297 0.639261
O O2 0.154541 0.242237 0.766756
O O3 0.037764 0.239077 0.816802
O O4 0.099258 0.000000 0.741255
O O5 0.583532 0.500000 0.356912
O O6 0.624011 0.244296 0.286740
O O7 0.585915 0.270855 0.469520
O O8 0.510660 0.268841 0.376741
O O9 0.261006 0.784049 0.780976
O O10 0.318950 0.757842 0.897587
O O11 0.332295 0.000000 0.799275
O O12 0.493409 0.500000 0.912749
O O13 0.423461 0.277571 0.908351
O O14 0.500000 0.253631 0.000000
O O15 0.054754 0.000000 0.578168
O O16 0.681567 0.500000 0.838532
O O17 0.667954 0.261405 0.936755
O O18 0.845159 0.000000 0.953356
#
# Coordination Sequence:
#
# PCOD8082304 Si02
#       7
#     8   8   8   8   8   8   8
#     4   9  14  24  43  71 101 124 148 192 247 285
#     4   9  17  33  53  76  98 118 152 200 246 287
#     4  11  22  33  45  67  98 133 166 196 231 280
#     4   9  14  22  43  76 101 113 142 195 243 278
#     4   8  15  28  52  79  98 115 148 201 251 286
#     4   9  18  30  44  66  99 131 162 196 233 280
#     4  10  18  31  51  73  94 124 163 204 241 277
#
# _framework density 18.413995
#
# number of rings (size 3 to 8) (size 9 to 14) (size 15 to 20)
#    0.000    2.714    1.429    2.571    0.000    2.286 
#    0.000    2.857    0.000    0.429    0.000    4.000 
#    0.000    0.000    0.000    0.000    0.000    0.000 
#
# Total GULP energy -347026.661219 kJ/mol
# GULP energy per Si atom -12393.809329 kJ/mol
# Density = 1.837208 g / cm^3
# Si number density = 18.413995 Si / 1000 Ang^3
#
#
#
# Elastic Constant Matrix: (Units=GPa)
#
#
# Indices 1 2 3 4 5 6 
#
# 1 110.4248 24.9805 61.4220 0.0000 19.1226 0.0000
# 2 24.9805 26.6997 18.6025 0.0000 1.9417 0.0000
# 3 61.4220 18.6025 117.2238 0.0000 24.5960 0.0000
# 4 0.0000 0.0000 0.0000 13.0985 0.0000 -1.8217
# 5 19.1226 1.9417 24.5960 0.0000 33.2115 0.0000
# 6 0.0000 0.0000 0.0000 -1.8217 0.0000 15.8536
#
#
#
# Elastic Compliance Matrix: (Units=1/GPa)
#
#
# Indices 1 2 3 4 5 6 
#
# 1 0.015047 -0.009986 -0.005451 0.000000 -0.004043 0.000000
# 2 -0.009986 0.048982 -0.003725 0.000000 0.005645 0.000000
# 3 -0.005451 -0.003725 0.013348 0.000000 -0.006529 0.000000
# 4 0.000000 0.000000 0.000000 0.077584 0.000000 0.008915
# 5 -0.004043 0.005645 -0.006529 0.000000 0.036943 0.000000
# 6 0.000000 0.000000 0.000000 0.008915 0.000000 0.064102
#
#
# Mechanical properties :
#
#
# Convention : Reuss Voigt Hill
#
# Bulk Modulus (GPa) = 25.60686 51.59535 38.60111
# Shear Modulus (GPa) = 16.26816 22.38895 19.32856
#
# Velocity S-wave (km/s) = 2.97554 3.49071 3.24337
# Velocity P-wave (km/s) = 5.07361 6.65787 5.91898
#
# Compressibility (1/GPa) = 0.03905203
#
# Stress axis : x y z
#
# Youngs Moduli (GPa) = 66.45645 20.41577 74.91739
#
# Poissons Ratio (x) = 0.20388 0.40840
# Poissons Ratio (y) = 0.66366 0.27905
# Poissons Ratio (z) = 0.36228 0.07605
#
# Static dielectric constant tensor:
#      x y z
#    x 3.654780 0.000000 0.253370 
#    y 0.000000 2.772190 0.000000 
#    z 0.253370 0.000000 3.653610 
# 
# 
# High freq. dielectric constant tensor:
#      x y z
#    x 1.720080 0.000000 0.010280 
#    y 0.000000 1.646490 0.000000 
#    z 0.010280 0.000000 1.719700 
# 
# From -- ./inp_files/237355.got.cif
#   From: 2010.06.25/outbox.cif.g09.slc.cpg/sg12_119_cif.got.tgz:237355.got - 2010.06.28 00:19:55.
