data_PCOD8082228
_publ_section_title
;
Structure prediction by ZEFSAII (Michael W. Deem and Ramdas Pophale) SiO2 
 PCOD8082228
Probable space group: C 2/M
;
_chemical_formula_sum "Si O2"
_cell_formula_units_Z 56
_cell_length_a 18.376531
_cell_length_b 16.823805
_cell_length_c 11.320124
_cell_angle_alpha 90.000000
_cell_angle_beta 117.713801
_cell_angle_gamma 90.000000
_cell_volume 3098.278085
_symmetry_space_group_name_H-M "C 2/M"
_symmetry_group_IT_number 12
_symmetry_cell_setting 'monoclinic'
loop_
_space_group_symop_operation_xyz
x,y,z
-x,y,-z
-x,-y,-z
x,-y,z
1/2+x,1/2+y,z
1/2-x,1/2+y,-z
1/2-x,1/2-y,-z
1/2+x,1/2-y,z
loop_
_atom_site_type_symbol
_atom_site_label
_atom_site_fract_x
_atom_site_fract_y
_atom_site_fract_z
Si Si1 0.090145 0.660262 0.186919
Si Si2 0.760299 0.343322 0.999887
Si Si3 0.072951 0.593817 0.912056
Si Si4 0.255854 0.593235 0.274112
Si Si5 0.426087 0.407294 0.528379
Si Si6 0.948736 0.841447 0.800633
Si Si7 0.390194 0.409335 0.985682
O O1 0.181362 0.632100 0.294797
O O2 0.081340 0.753809 0.191541
O O3 0.016971 0.617770 0.207643
O O4 0.081229 0.634058 0.045351
O O5 0.852414 0.369973 0.108506
O O6 0.701303 0.385697 0.048588
O O7 0.750000 0.250000 0.000000
O O8 0.738385 0.371183 0.852012
O O9 0.081867 0.500000 0.928854
O O10 0.239694 0.500000 0.251672
O O11 0.340437 0.613152 0.402265
O O12 0.500000 0.378519 0.500000
O O13 0.435639 0.500000 0.564204
O O14 0.428079 0.358954 0.650529
O O15 0.900063 0.900444 0.851905
O O16 0.046159 0.851955 0.897144
O O17 0.408163 0.500000 0.035849
#
# Coordination Sequence:
#
# PCOD8082228 Si02
#       7
#     8   8   8   8   8   8   8
#     4  10  18  31  50  74 102 132 167 216 264 302
#     4  11  20  32  50  78 109 136 170 216 268 313
#     4  10  18  31  51  75 105 139 177 214 255 311
#     4  10  20  35  55  77 103 140 183 219 257 308
#     4  10  21  37  56  76 102 138 179 219 257 311
#     4  11  21  34  51  77 107 137 172 213 268 318
#     4  11  20  32  51  75 107 140 170 209 263 325
#
# _framework density 18.074556000000001
#
# number of rings (size 3 to 8) (size 9 to 14) (size 15 to 20)
#    0.000    1.571    0.000   10.714    0.000    1.714 
#    0.000    0.000    0.000    0.000    0.000    0.000 
#    0.000    9.714    0.000    0.000    0.000    0.000 
#
# Total GULP energy -347152.468138 kJ/mol
# GULP energy per Si atom -12398.302434 kJ/mol
# Density = 1.803342 g / cm^3
# Si number density = 18.074556 Si / 1000 Ang^3
#
#
#
# Elastic Constant Matrix: (Units=GPa)
#
#
# Indices 1 2 3 4 5 6 
#
# 1 161.3164 50.2870 40.1258 0.0000 27.8482 0.0000
# 2 50.2870 121.8517 27.7800 0.0000 10.8698 0.0000
# 3 40.1258 27.7800 49.0479 0.0000 11.3929 0.0000
# 4 0.0000 0.0000 0.0000 -22.0079 0.0000 -4.7460
# 5 27.8482 10.8698 11.3929 0.0000 25.8244 0.0000
# 6 0.0000 0.0000 0.0000 -4.7460 0.0000 37.0858
#
#
#
# Elastic Compliance Matrix: (Units=1/GPa)
#
#
# Indices 1 2 3 4 5 6 
#
# 1 0.009243 -0.002110 -0.004744 0.000000 -0.006986 0.000000
# 2 -0.002110 0.009980 -0.003877 0.000000 -0.000216 0.000000
# 3 -0.004744 -0.003877 0.027740 0.000000 -0.005491 0.000000
# 4 0.000000 0.000000 0.000000 -0.044218 0.000000 -0.005659
# 5 -0.006986 -0.000216 -0.005491 0.000000 0.048770 0.000000
# 6 0.000000 0.000000 0.000000 -0.005659 0.000000 0.026240
#
#
# Mechanical properties :
#
#
# Convention : Reuss Voigt Hill
#
# Bulk Modulus (GPa) = 39.21117 63.17794 51.19455
# Shear Modulus (GPa) = 46.41808 22.44867 34.43338
#
# Velocity S-wave (km/s) = 5.07318 3.52803 4.36945
# Velocity P-wave (km/s) = 7.48716 7.18512 7.33769
#
# Compressibility (1/GPa) = 0.02550294
#
# Stress axis : x y z
#
# Youngs Moduli (GPa) = 108.19453 100.19641 36.04881
#
# Poissons Ratio (x) = 0.21138 0.17100
# Poissons Ratio (y) = 0.22825 0.13975
# Poissons Ratio (z) = 0.51324 0.38844
#
# Static dielectric constant tensor:
#      x y z
#    x 4.196740 0.000000 0.458430 
#    y 0.000000 3.395590 0.000000 
#    z 0.458430 0.000000 3.230200 
# 
# 
# High freq. dielectric constant tensor:
#      x y z
#    x 1.724310 0.000000 0.018800 
#    y 0.000000 1.710600 0.000000 
#    z 0.018800 0.000000 1.652180 
# 
# From -- ./inp_files/156695.got.cif
#   From: 2010.06.25/outbox.cif.g09.slc.cpg/sg12_79_cif.got.tgz:156695.got - 2010.06.28 00:19:55.
