data_PCOD8082524
_publ_section_title
;
Structure prediction by ZEFSAII (Michael W. Deem and Ramdas Pophale) SiO2 
 PCOD8082524
Probable space group: C 2/M
;
_chemical_formula_sum "Si O2"
_cell_formula_units_Z 56
_cell_length_a 13.265484
_cell_length_b 24.416150
_cell_length_c 12.118336
_cell_angle_alpha 90.000000
_cell_angle_beta 44.318867
_cell_angle_gamma 90.000000
_cell_volume 2742.227671
_symmetry_space_group_name_H-M "C 2/M"
_symmetry_group_IT_number 12
_symmetry_cell_setting 'monoclinic'
loop_
_space_group_symop_operation_xyz
x,y,z
-x,y,-z
-x,-y,-z
x,-y,z
1/2+x,1/2+y,z
1/2-x,1/2+y,-z
1/2-x,1/2-y,-z
1/2+x,1/2-y,z
loop_
_atom_site_type_symbol
_atom_site_label
_atom_site_fract_x
_atom_site_fract_y
_atom_site_fract_z
Si Si1 0.265797 0.329479 0.166922
Si Si2 0.031758 0.169430 0.794580
Si Si3 0.933373 0.058985 0.809894
Si Si4 0.564506 0.063637 0.832702
Si Si5 0.167625 0.560319 0.170837
Si Si6 0.840978 0.884918 0.675915
Si Si7 0.923292 0.227561 0.674927
O O1 0.335928 0.315471 0.230236
O O2 0.182213 0.388158 0.242938
O O3 0.156023 0.281671 0.222043
O O4 0.381273 0.328812 0.978197
O O5 0.051276 0.106660 0.736874
O O6 0.032548 0.210029 0.688564
O O7 0.836067 0.071792 0.779253
O O8 0.012567 0.000000 0.733148
O O9 0.824543 0.053993 0.995947
O O10 0.453229 0.077075 0.823048
O O11 0.712680 0.097616 0.693609
O O12 0.602919 0.000000 0.806111
O O13 0.500000 0.083522 0.000000
O O14 0.130720 0.500000 0.253751
O O15 0.813138 0.823220 0.742265
O O16 0.000000 0.886764 0.500000
O O17 0.000000 0.241535 0.500000
#
# Coordination Sequence:
#
# PCOD8082524 Si02
#       7
#     8   8   8   8   8   8   8
#     4  10  20  37  58  81 113 150 186 238 290 336
#     4   9  20  36  55  84 113 141 192 241 277 342
#     4   9  16  30  51  76 109 147 180 225 283 333
#     4  10  18  31  52  81 114 150 189 229 281 340
#     4   9  18  32  54  82 111 143 187 235 282 341
#     4  10  20  33  50  79 114 148 189 233 282 340
#     4  10  22  39  57  79 110 148 191 241 289 343
#
# _framework density 20.421354000000001
#
# number of rings (size 3 to 8) (size 9 to 14) (size 15 to 20)
#    0.000    2.429    1.429    0.857    0.000    3.429 
#    2.571    5.714    0.000    0.429    0.000    0.000 
#    0.000    0.000    0.000    0.000    0.000    0.000 
#
# Total GULP energy -346982.166883 kJ/mol
# GULP energy per Si atom -12392.220246 kJ/mol
# Density = 2.037487 g / cm^3
# Si number density = 20.421354 Si / 1000 Ang^3
#
#
#
# Elastic Constant Matrix: (Units=GPa)
#
#
# Indices 1 2 3 4 5 6 
#
# 1 93.3921 47.5930 25.1664 0.0000 7.1323 0.0000
# 2 47.5930 149.0732 30.1289 0.0000 2.9508 0.0000
# 3 25.1664 30.1289 40.1812 0.0000 5.9740 0.0000
# 4 0.0000 0.0000 0.0000 3.1136 0.0000 -7.1556
# 5 7.1323 2.9508 5.9740 0.0000 24.7425 0.0000
# 6 0.0000 0.0000 0.0000 -7.1556 0.0000 15.5542
#
#
#
# Elastic Compliance Matrix: (Units=1/GPa)
#
#
# Indices 1 2 3 4 5 6 
#
# 1 0.014180 -0.003247 -0.006116 -0.000001 -0.002224 -0.000001
# 2 -0.003247 0.008656 -0.004608 0.000000 0.001016 0.000000
# 3 -0.006116 -0.004608 0.033014 0.000000 -0.005659 0.000000
# 4 -0.000001 0.000000 0.000000 -5.609422 0.000002 -2.580580
# 5 -0.002224 0.001016 -0.005659 0.000002 0.042302 0.000001
# 6 -0.000001 0.000000 0.000000 -2.580580 0.000001 -1.122888
#
#
# Mechanical properties :
#
#
# Convention : Reuss Voigt Hill
#
# Bulk Modulus (GPa) = 35.83135 54.26921 45.05028
# Shear Modulus (GPa) = -0.75793 20.66594 9.95400
#
# Velocity S-wave (km/s) = -0.60988 3.18461 2.21018
# Velocity P-wave (km/s) = 4.13378 6.33678 5.34990
#
# Compressibility (1/GPa) = 0.02790852
#
# Stress axis : x y z
#
# Youngs Moduli (GPa) = 70.52107 115.52780 30.28996
#
# Poissons Ratio (x) = 0.37512 0.18525
# Poissons Ratio (y) = 0.22898 0.13957
# Poissons Ratio (z) = 0.43131 0.53233
#
# Static dielectric constant tensor:
#      x y z
#    x 3.574030 0.000000 0.148420 
#    y 0.000000 4.076210 0.000000 
#    z 0.148420 0.000000 3.310110 
# 
# 
# High freq. dielectric constant tensor:
#      x y z
#    x 1.785830 0.000000 0.011030 
#    y 0.000000 1.810230 0.000000 
#    z 0.011030 0.000000 1.756900 
# 
# From -- ./inp_files/135255.got.cif
#   From: 2010.06.25/outbox.cif.g09.slc.cpg/sg12_68_cif.got.tgz:135255.got - 2010.06.28 00:19:55.
