data_PCOD8082843
_publ_section_title
;
Structure prediction by ZEFSAII (Michael W. Deem and Ramdas Pophale) SiO2 
 PCOD8082843
Probable space group: C 2/M
;
_chemical_formula_sum "Si O2"
_cell_formula_units_Z 56
_cell_length_a 25.457947
_cell_length_b 20.265845
_cell_length_c 19.492402
_cell_angle_alpha 90.000000
_cell_angle_beta 160.424339
_cell_angle_gamma 90.000000
_cell_volume 3369.495154
_symmetry_space_group_name_H-M "C 2/M"
_symmetry_group_IT_number 12
_symmetry_cell_setting 'monoclinic'
loop_
_space_group_symop_operation_xyz
x,y,z
-x,y,-z
-x,-y,-z
x,-y,z
1/2+x,1/2+y,z
1/2-x,1/2+y,-z
1/2-x,1/2-y,-z
1/2+x,1/2-y,z
loop_
_atom_site_type_symbol
_atom_site_label
_atom_site_fract_x
_atom_site_fract_y
_atom_site_fract_z
Si Si1 0.492141 0.188139 0.141495
Si Si2 0.716951 0.293518 0.586702
Si Si3 0.708262 0.861370 0.784753
Si Si4 0.171463 0.211871 0.689720
Si Si5 0.419244 0.924353 0.496624
Si Si6 0.969753 0.836893 0.764383
Si Si7 0.318922 0.144983 0.505605
O O1 0.610829 0.179672 0.223114
O O2 0.514317 0.262692 0.191471
O O3 0.541331 0.142268 0.266151
O O4 0.312060 0.172116 0.900542
O O5 0.691084 0.304099 0.634445
O O6 0.586337 0.335619 0.383842
O O7 0.696053 0.216458 0.546490
O O8 0.689785 0.788249 0.731625
O O9 0.566168 0.876825 0.661452
O O10 0.709813 0.910925 0.721569
O O11 0.864311 0.872884 0.021519
O O12 0.000000 0.185272 0.500000
O O13 0.350507 0.909022 0.486532
O O14 0.472446 0.000000 0.559476
O O15 0.842424 0.873995 0.654921
#
# Coordination Sequence:
#
# PCOD8082843 Si02
#       7
#     8   8   8   8   8   8   8
#     4   8  17  27  44  65  91 121 144 181 231 282
#     4   9  15  29  44  66  93 119 147 176 231 284
#     4  10  18  32  42  62  90 124 156 189 229 256
#     4  11  17  25  42  69  95 122 150 177 215 274
#     4  11  21  33  47  60  88 129 165 195 226 257
#     4   8  17  28  48  64  85 119 149 187 230 279
#     4   9  16  32  45  64  88 115 156 193 228 264
#
# _framework density 16.619700000000002
#
# number of rings (size 3 to 8) (size 9 to 14) (size 15 to 20)
#    0.000    2.571    2.857    3.000    0.000    1.714 
#    0.000    6.429    0.000    0.000    0.000    0.000 
#    0.000   15.429    0.000    0.000    0.000    0.000 
#
# Total GULP energy -346994.032814 kJ/mol
# GULP energy per Si atom -12392.644029 kJ/mol
# Density = 1.658187 g / cm^3
# Si number density = 16.619700 Si / 1000 Ang^3
#
#
#
# Elastic Constant Matrix: (Units=GPa)
#
#
# Indices 1 2 3 4 5 6 
#
# 1 55.6700 11.4145 30.5116 -0.0004 -2.9661 0.0000
# 2 11.4145 25.9701 16.6218 0.0000 -0.1804 0.0000
# 3 30.5116 16.6218 140.0613 -0.0004 1.2057 0.0001
# 4 -0.0004 0.0000 -0.0004 7.0854 -0.0001 -2.5536
# 5 -2.9661 -0.1804 1.2057 -0.0001 17.3021 -0.0001
# 6 0.0000 0.0000 0.0001 -2.5536 -0.0001 11.9272
#
#
#
# Elastic Compliance Matrix: (Units=1/GPa)
#
#
# Indices 1 2 3 4 5 6 
#
# 1 0.021773 -0.007018 -0.003944 0.000001 0.003934 0.000000
# 2 -0.007018 0.043944 -0.003682 0.000000 -0.000488 0.000000
# 3 -0.003944 -0.003682 0.008447 0.000000 -0.001303 0.000000
# 4 0.000001 0.000000 0.000000 0.152937 0.000001 0.032743
# 5 0.003934 -0.000488 -0.001303 0.000001 0.058557 0.000001
# 6 0.000000 0.000000 0.000000 0.032743 0.000001 0.090852
#
#
# Mechanical properties :
#
#
# Convention : Reuss Voigt Hill
#
# Bulk Modulus (GPa) = 22.28385 37.64414 29.96399
# Shear Modulus (GPa) = 11.88334 18.13983 15.01158
#
# Velocity S-wave (km/s) = 2.67688 3.30732 3.00866
# Velocity P-wave (km/s) = 4.79494 6.10606 5.48978
#
# Compressibility (1/GPa) = 0.04487555
#
# Stress axis : x y z
#
# Youngs Moduli (GPa) = 45.92778 22.75638 118.38342
#
# Poissons Ratio (x) = 0.15971 0.46693
# Poissons Ratio (y) = 0.32233 0.43588
# Poissons Ratio (z) = 0.18115 0.08379
#
# Static dielectric constant tensor:
#      x y z
#    x 3.156360 0.000000 -0.044870 
#    y 0.000000 2.582710 0.000000 
#    z -0.044870 0.000000 3.671430 
# 
# 
# High freq. dielectric constant tensor:
#      x y z
#    x 1.643870 0.000000 -0.002530 
#    y 0.000000 1.570330 0.000000 
#    z -0.002530 0.000000 1.650880 
# 
# From -- ./inp_files/76838.got.cif
#   From: 2010.06.25/outbox.cif.g09.slc.cpg/sg12_39_cif.got.tgz:76838.got - 2010.06.28 00:19:55.
