data_PCOD8082952
_publ_section_title
;
Structure prediction by ZEFSAII (Michael W. Deem and Ramdas Pophale) SiO2 
 PCOD8082952
Probable space group: C 2/M
;
_chemical_formula_sum "Si O2"
_cell_formula_units_Z 48
_cell_length_a 25.429707
_cell_length_b 17.009598
_cell_length_c 12.559667
_cell_angle_alpha 90.000000
_cell_angle_beta 151.426670
_cell_angle_gamma 90.000000
_cell_volume 2598.355606
_symmetry_space_group_name_H-M "C 2/M"
_symmetry_group_IT_number 12
_symmetry_cell_setting 'monoclinic'
loop_
_space_group_symop_operation_xyz
x,y,z
-x,y,-z
-x,-y,-z
x,-y,z
1/2+x,1/2+y,z
1/2-x,1/2+y,-z
1/2-x,1/2-y,-z
1/2+x,1/2-y,z
loop_
_atom_site_type_symbol
_atom_site_label
_atom_site_fract_x
_atom_site_fract_y
_atom_site_fract_z
Si Si1 0.902445 0.217407 0.719851
Si Si2 0.688828 0.586684 0.303172
Si Si3 0.970722 0.909037 0.570154
Si Si4 0.618809 0.311991 0.994671
Si Si5 0.376375 0.122996 0.781000
Si Si6 0.739188 0.673042 0.719933
O O1 0.886520 0.132778 0.746095
O O2 0.869155 0.284443 0.742741
O O3 0.829054 0.225486 0.484703
O O4 0.029642 0.225681 0.916118
O O5 0.638706 0.500000 0.200420
O O6 0.810749 0.578742 0.570840
O O7 0.692279 0.626689 0.192794
O O8 0.845413 0.878504 0.361106
O O9 0.000000 0.899993 0.500000
O O10 0.058854 0.856837 0.791540
O O11 0.977538 0.000000 0.619282
O O12 0.693334 0.237335 0.088599
O O13 0.320837 0.114159 0.799511
O O14 0.500000 0.089460 0.000000
#
# Coordination Sequence:
#
# PCOD8082952 Si02
#       6
#     8   8   8   8   8   8
#     4  10  18  32  51  77 111 148 172 213 263 314
#     4  11  21  30  46  77 113 150 188 219 260 326
#     4  10  24  43  59  80 111 141 181 246 304 328
#     4  11  19  33  59  82 104 141 188 228 270 331
#     4  11  18  32  52  75 114 153 176 207 263 321
#     4  10  19  32  59  83 106 144 189 219 268 333
#
# _framework density 18.473222
#
# number of rings (size 3 to 8) (size 9 to 14) (size 15 to 20)
#    0.000    1.500    5.000    2.000    0.000    8.333 
#    0.000    0.000    0.000    0.000    0.000    0.000 
#    0.000   12.000    0.000    0.000    0.000    0.000 
#
# Total GULP energy -297448.550748 kJ/mol
# GULP energy per Si atom -12393.689615 kJ/mol
# Density = 1.843118 g / cm^3
# Si number density = 18.473222 Si / 1000 Ang^3
#
#
#
# Elastic Constant Matrix: (Units=GPa)
#
#
# Indices 1 2 3 4 5 6 
#
# 1 89.2264 33.4590 33.6975 0.0000 9.3727 0.0000
# 2 33.4590 94.0493 26.7314 0.0000 -1.5407 0.0000
# 3 33.6975 26.7314 83.3851 0.0000 13.3657 0.0000
# 4 0.0000 0.0000 0.0000 12.6096 0.0000 -2.1096
# 5 9.3727 -1.5407 13.3657 0.0000 22.1029 0.0000
# 6 0.0000 0.0000 0.0000 -2.1096 0.0000 21.1818
#
#
#
# Elastic Compliance Matrix: (Units=1/GPa)
#
#
# Indices 1 2 3 4 5 6 
#
# 1 0.014695 -0.004177 -0.003935 0.000000 -0.004143 0.000000
# 2 -0.004177 0.013124 -0.003266 0.000000 0.004661 0.000000
# 3 -0.003935 -0.003266 0.015944 0.000000 -0.008201 0.000000
# 4 0.000000 0.000000 0.000000 0.080648 0.000000 0.008032
# 5 -0.004143 0.004661 -0.008201 0.000000 0.052284 0.000000
# 6 0.000000 0.000000 0.000000 0.008032 0.000000 0.048010
#
#
# Mechanical properties :
#
#
# Convention : Reuss Voigt Hill
#
# Bulk Modulus (GPa) = 47.60648 50.49296 49.04972
# Shear Modulus (GPa) = 19.64905 22.69705 21.17305
#
# Velocity S-wave (km/s) = 3.26490 3.50901 3.38915
# Velocity P-wave (km/s) = 6.32766 6.61891 6.47492
#
# Compressibility (1/GPa) = 0.02100554
#
# Stress axis : x y z
#
# Youngs Moduli (GPa) = 68.04868 76.19903 62.71781
#
# Poissons Ratio (x) = 0.31831 0.24682
# Poissons Ratio (y) = 0.28426 0.20484
# Poissons Ratio (z) = 0.26780 0.24887
#
# Static dielectric constant tensor:
#      x y z
#    x 3.119400 0.000000 0.231550 
#    y 0.000000 3.306680 0.000000 
#    z 0.231550 0.000000 3.714760 
# 
# 
# High freq. dielectric constant tensor:
#      x y z
#    x 1.677360 0.000000 0.017190 
#    y 0.000000 1.711530 0.000000 
#    z 0.017190 0.000000 1.729470 
# 
# From -- ./inp_files/184224.got.cif
#   From: 2010.06.25/outbox.cif.g09.slc.cpg/sg12_93_cif.got.tgz:184224.got - 2010.06.28 00:19:55.
