data_PCOD8082381
_publ_section_title
;
Structure prediction by ZEFSAII (Michael W. Deem and Ramdas Pophale) SiO2 
 PCOD8082381
Probable space group: C 2/M
;
_chemical_formula_sum "Si O2"
_cell_formula_units_Z 56
_cell_length_a 20.197958
_cell_length_b 8.694909
_cell_length_c 30.160495
_cell_angle_alpha 90.000000
_cell_angle_beta 149.541390
_cell_angle_gamma 90.000000
_cell_volume 2685.015493
_symmetry_space_group_name_H-M "C 2/M"
_symmetry_group_IT_number 12
_symmetry_cell_setting 'monoclinic'
loop_
_space_group_symop_operation_xyz
x,y,z
-x,y,-z
-x,-y,-z
x,-y,z
1/2+x,1/2+y,z
1/2-x,1/2+y,-z
1/2-x,1/2-y,-z
1/2+x,1/2-y,z
loop_
_atom_site_type_symbol
_atom_site_label
_atom_site_fract_x
_atom_site_fract_y
_atom_site_fract_z
Si Si1 0.945339 0.175043 0.651998
Si Si2 0.511344 0.183295 0.598990
Si Si3 0.075191 0.182226 0.223383
Si Si4 0.145100 0.179370 0.094787
Si Si5 0.215124 0.680803 0.227708
Si Si6 0.615882 0.823421 0.823225
Si Si7 0.723201 0.173250 0.589691
O O1 0.799597 0.182465 0.587113
O O2 0.944734 0.235699 0.602159
O O3 0.038641 0.284119 0.734124
O O4 0.998872 0.000000 0.684697
O O5 0.658687 0.239077 0.677341
O O6 0.423030 0.235875 0.505232
O O7 0.507143 0.000000 0.602354
O O8 0.090504 0.260192 0.184078
O O9 0.190922 0.253166 0.321940
O O10 0.935017 0.224315 0.164268
O O11 0.080950 0.000000 0.221890
O O12 0.200787 0.274023 0.168328
O O13 0.232348 0.210210 0.101124
O O14 0.147734 0.000000 0.109377
O O15 0.000000 0.236812 0.000000
O O16 0.229987 0.500000 0.239997
O O17 0.594322 0.000000 0.823268
O O18 0.709174 0.000000 0.598350
#
# Coordination Sequence:
#
# PCOD8082381 Si02
#       7
#     8   8   8   8   8   8   8
#     4  10  18  31  51  80 116 154 198 244 292 345
#     4  11  20  33  53  79 114 156 202 248 296 343
#     4  10  21  40  62  84 118 160 202 244 292 347
#     4  10  22  42  68  95 121 150 188 236 293 356
#     4  12  25  40  59  87 121 156 197 244 296 354
#     4  10  19  35  61  90 119 153 193 237 291 352
#     4   8  18  33  52  79 112 155 202 246 290 341
#
# _framework density 20.856490999999998
#
# number of rings (size 3 to 8) (size 9 to 14) (size 15 to 20)
#    0.000    1.857    1.429    4.286    0.000    1.429 
#    0.000   11.429    0.000    0.000    0.000    0.000 
#    0.000    0.000    0.000    0.000    0.000    0.000 
#
# Total GULP energy -347064.796856 kJ/mol
# GULP energy per Si atom -12395.171316 kJ/mol
# Density = 2.080902 g / cm^3
# Si number density = 20.856491 Si / 1000 Ang^3
#
#
#
# Elastic Constant Matrix: (Units=GPa)
#
#
# Indices 1 2 3 4 5 6 
#
# 1 98.3182 31.6444 16.7702 0.0000 3.3308 0.0001
# 2 31.6444 61.7797 17.4625 0.0000 6.0334 0.0002
# 3 16.7702 17.4625 59.4242 0.0002 26.6627 0.0000
# 4 0.0000 0.0000 0.0002 14.7731 0.0000 2.8145
# 5 3.3308 6.0334 26.6627 0.0000 20.2346 0.0000
# 6 0.0001 0.0002 0.0000 2.8145 0.0000 33.9476
#
#
#
# Elastic Compliance Matrix: (Units=1/GPa)
#
#
# Indices 1 2 3 4 5 6 
#
# 1 0.012559 -0.005760 -0.004146 0.000000 0.005113 0.000000
# 2 -0.005760 0.020418 -0.005060 0.000000 0.001527 0.000000
# 3 -0.004146 -0.005060 0.045261 -0.000001 -0.057449 0.000000
# 4 0.000000 0.000000 -0.000001 0.068777 0.000001 -0.005702
# 5 0.005113 0.001527 -0.057449 0.000001 0.123823 0.000000
# 6 0.000000 0.000000 0.000000 -0.005702 0.000000 0.029930
#
#
# Mechanical properties :
#
#
# Convention : Reuss Voigt Hill
#
# Bulk Modulus (GPa) = 20.70074 39.03069 29.86572
# Shear Modulus (GPa) = 14.41746 24.03406 19.22576
#
# Velocity S-wave (km/s) = 2.63205 3.39832 3.03943
# Velocity P-wave (km/s) = 4.37993 5.84403 5.16413
#
# Compressibility (1/GPa) = 0.04830745
#
# Stress axis : x y z
#
# Youngs Moduli (GPa) = 79.62429 48.97617 22.09385
#
# Poissons Ratio (x) = 0.28212 0.09159
# Poissons Ratio (y) = 0.45867 0.11179
# Poissons Ratio (z) = 0.33009 0.24780
#
# Static dielectric constant tensor:
#      x y z
#    x 3.892730 0.000000 0.199870 
#    y 0.000000 3.615030 0.000000 
#    z 0.199870 0.000000 3.651440 
# 
# 
# High freq. dielectric constant tensor:
#      x y z
#    x 1.825380 0.000000 0.012390 
#    y 0.000000 1.804480 0.000000 
#    z 0.012390 0.000000 1.791730 
# 
# From -- ./inp_files/380736.got.cif
#   From: 2010.06.25/outbox.cif.g09.slc.cpg/sg12_191_cif.got.tgz:380736.got - 2010.06.28 00:19:55.
