data_PCOD8082830
_publ_section_title
;
Structure prediction by ZEFSAII (Michael W. Deem and Ramdas Pophale) SiO2 
 PCOD8082830
Probable space group: C 2/M
;
_chemical_formula_sum "Si O2"
_cell_formula_units_Z 64
_cell_length_a 32.097411
_cell_length_b 17.821334
_cell_length_c 12.737896
_cell_angle_alpha 90.000000
_cell_angle_beta 26.941772
_cell_angle_gamma 90.000000
_cell_volume 3301.318062
_symmetry_space_group_name_H-M "C 2/M"
_symmetry_group_IT_number 12
_symmetry_cell_setting 'monoclinic'
loop_
_space_group_symop_operation_xyz
x,y,z
-x,y,-z
-x,-y,-z
x,-y,z
1/2+x,1/2+y,z
1/2-x,1/2+y,-z
1/2-x,1/2-y,-z
1/2+x,1/2-y,z
loop_
_atom_site_type_symbol
_atom_site_label
_atom_site_fract_x
_atom_site_fract_y
_atom_site_fract_z
Si Si1 0.322875 0.840968 0.620613
Si Si2 0.204558 0.912208 0.706700
Si Si3 0.299093 0.086009 0.283261
Si Si4 0.085009 0.918972 0.240251
Si Si5 0.314699 0.337211 0.636833
Si Si6 0.766841 0.163245 0.974099
Si Si7 0.493106 0.587026 0.803631
Si Si8 0.494041 0.914054 0.131772
O O1 0.240433 0.872232 0.732494
O O2 0.317651 0.751661 0.631307
O O3 0.422139 0.866173 0.359138
O O4 0.310746 0.869028 0.770187
O O5 0.264292 0.883776 0.474141
O O6 0.219974 0.000000 0.690794
O O7 0.096323 0.896193 0.921739
O O8 0.258302 0.136901 0.284328
O O9 0.267533 0.000000 0.338676
O O10 0.408460 0.093742 0.030640
O O11 0.139949 0.852539 0.172516
O O12 0.047239 0.887523 0.216553
O O13 0.000000 0.940109 0.500000
O O14 0.138569 0.000000 0.104799
O O15 0.278024 0.371204 0.831559
O O16 0.415931 0.365841 0.375471
O O17 0.750000 0.250000 0.000000
O O18 0.521728 0.500000 0.743713
O O19 0.459754 0.000000 0.205211
O O20 0.500000 0.882664 0.000000
#
# Coordination Sequence:
#
# PCOD8082830 Si02
#       8
#     8   8   8   8   8   8   8   8
#     4  11  22  38  60  89 115 150 203 251 288 335
#     4  10  20  37  62  88 111 146 196 249 293 339
#     4  10  22  41  62  83 117 160 194 235 301 363
#     4  10  18  31  58  87 107 141 197 247 277 327
#     4  11  24  39  55  85 127 163 186 229 303 373
#     4  10  22  39  55  83 122 160 194 231 298 351
#     4  10  20  35  58  88 118 149 192 240 290 345
#     4  10  20  40  67  88 111 149 203 256 296 338
#
# _framework density 19.386196999999999
#
# number of rings (size 3 to 8) (size 9 to 14) (size 15 to 20)
#    0.000    1.750    3.750    0.750    0.000    3.000 
#    2.250    2.500    0.000    1.500    0.000    0.000 
#    0.000    0.000    0.000    0.000    0.000    0.000 
#
# Total GULP energy -396482.367986 kJ/mol
# GULP energy per Si atom -12390.074000 kJ/mol
# Density = 1.934207 g / cm^3
# Si number density = 19.386197 Si / 1000 Ang^3
#
#
#
# Elastic Constant Matrix: (Units=GPa)
#
#
# Indices 1 2 3 4 5 6 
#
# 1 84.6619 33.0779 47.4709 0.0000 4.3258 0.0000
# 2 33.0779 56.6789 34.2998 0.0000 -6.5384 0.0000
# 3 47.4709 34.2998 127.7810 0.0000 11.2591 0.0000
# 4 0.0000 0.0000 0.0000 13.4854 0.0000 -16.7190
# 5 4.3258 -6.5384 11.2591 0.0000 37.8186 0.0000
# 6 0.0000 0.0000 0.0000 -16.7190 0.0000 16.0494
#
#
#
# Elastic Compliance Matrix: (Units=1/GPa)
#
#
# Indices 1 2 3 4 5 6 
#
# 1 0.017301 -0.007834 -0.004139 0.000000 -0.002101 0.000000
# 2 -0.007834 0.025775 -0.004600 0.000000 0.006722 0.000000
# 3 -0.004139 -0.004600 0.010913 0.000000 -0.003571 0.000000
# 4 0.000000 0.000000 0.000000 -0.254376 0.000000 -0.264989
# 5 -0.002101 0.006722 -0.003571 0.000000 0.028908 0.000000
# 6 0.000000 0.000000 0.000000 -0.264989 0.000000 -0.213737
#
#
# Mechanical properties :
#
#
# Convention : Reuss Voigt Hill
#
# Bulk Modulus (GPa) = 47.98277 55.42433 51.70355
# Shear Modulus (GPa) = -14.48761 23.75558 4.63399
#
# Velocity S-wave (km/s) = -2.73667 3.50435 1.54775
# Velocity P-wave (km/s) = 3.84953 6.71011 5.47012
#
# Compressibility (1/GPa) = 0.02084082
#
# Stress axis : x y z
#
# Youngs Moduli (GPa) = 57.80063 38.79762 91.63254
#
# Poissons Ratio (x) = 0.30395 0.37929
# Poissons Ratio (y) = 0.45283 0.42155
# Poissons Ratio (z) = 0.23925 0.17849
#
# Static dielectric constant tensor:
#      x y z
#    x 3.605830 0.000000 0.316340 
#    y 0.000000 3.352040 0.000000 
#    z 0.316340 0.000000 3.877370 
# 
# 
# High freq. dielectric constant tensor:
#      x y z
#    x 1.747960 0.000000 0.013070 
#    y 0.000000 1.735700 0.000000 
#    z 0.013070 0.000000 1.770970 
# 
# From -- ./inp_files/184665.got.cif
#   From: 2010.06.25/outbox.cif.g09.slc.cpg/sg12_93_cif.got.tgz:184665.got - 2010.06.28 00:19:55.
