data_PCOD8082538
_publ_section_title
;
Structure prediction by ZEFSAII (Michael W. Deem and Ramdas Pophale) SiO2 
 PCOD8082538
Probable space group: C 2/M
;
_chemical_formula_sum "Si O2"
_cell_formula_units_Z 56
_cell_length_a 19.579175
_cell_length_b 33.388052
_cell_length_c 5.249840
_cell_angle_alpha 90.000000
_cell_angle_beta 113.655933
_cell_angle_gamma 90.000000
_cell_volume 3143.500125
_symmetry_space_group_name_H-M "C 2/M"
_symmetry_group_IT_number 12
_symmetry_cell_setting 'monoclinic'
loop_
_space_group_symop_operation_xyz
x,y,z
-x,y,-z
-x,-y,-z
x,-y,z
1/2+x,1/2+y,z
1/2-x,1/2+y,-z
1/2-x,1/2-y,-z
1/2+x,1/2-y,z
loop_
_atom_site_type_symbol
_atom_site_label
_atom_site_fract_x
_atom_site_fract_y
_atom_site_fract_z
Si Si1 0.200590 0.835856 0.257673
Si Si2 0.971391 0.263814 0.707627
Si Si3 0.827326 0.251546 0.746350
Si Si4 0.298893 0.831369 0.916657
Si Si5 0.088077 0.955372 0.630822
Si Si6 0.588610 0.592390 0.131298
Si Si7 0.464073 0.852861 0.194722
O O1 0.157502 0.793749 0.141253
O O2 0.254488 0.837698 0.585317
O O3 0.133369 0.866476 0.191306
O O4 0.249248 0.844886 0.080085
O O5 0.882763 0.266811 0.604188
O O6 0.000000 0.240092 0.500000
O O7 0.012531 0.306395 0.766389
O O8 0.000000 0.239736 0.000000
O O9 0.750000 0.250000 0.500000
O O10 0.824297 0.284255 0.970296
O O11 0.374609 0.857562 0.045039
O O12 0.114433 0.931311 0.421610
O O13 0.000000 0.958965 0.500000
O O14 0.123177 0.000000 0.677004
O O15 0.114162 0.933284 0.925778
O O16 0.500000 0.601189 0.000000
O O17 0.500000 0.873544 0.500000
O O18 0.500000 0.873882 0.000000
#
# Coordination Sequence:
#
# PCOD8082538 Si02
#       7
#     8   8   8   8   8   8   8
#     4  11  24  35  51  70 103 143 169 213 278 317
#     4  10  20  32  50  67  85 109 153 226 280 295
#     4  10  22  36  50  69  94 129 180 231 259 325
#     4  11  21  37  51  70  94 130 184 224 268 321
#     4   9  17  32  59  83 103 134 175 218 251 295
#     4  10  20  36  52  77 114 139 177 216 259 319
#     4  10  18  31  53  68  88 110 159 233 278 299
#
# _framework density 17.814536
#
# number of rings (size 3 to 8) (size 9 to 14) (size 15 to 20)
#    0.000    1.857    2.857    2.571    6.000    4.571 
#    0.000    2.143    0.000    0.000    0.000    0.000 
#    0.000    0.000    0.000    0.000    0.000  180.000 
#
# Total GULP energy -346891.480837 kJ/mol
# GULP energy per Si atom -12388.981458 kJ/mol
# Density = 1.777399 g / cm^3
# Si number density = 17.814536 Si / 1000 Ang^3
#
#
#
# Elastic Constant Matrix: (Units=GPa)
#
#
# Indices 1 2 3 4 5 6 
#
# 1 111.0645 27.1829 48.5449 0.0000 -11.3812 0.0000
# 2 27.1829 76.3619 22.3497 0.0000 -5.9147 0.0000
# 3 48.5449 22.3497 124.2898 0.0000 -31.2207 0.0000
# 4 0.0000 0.0000 0.0000 13.5305 0.0000 -1.5625
# 5 -11.3812 -5.9147 -31.2207 0.0000 32.8173 0.0000
# 6 0.0000 0.0000 0.0000 -1.5625 0.0000 18.3537
#
#
#
# Elastic Compliance Matrix: (Units=1/GPa)
#
#
# Indices 1 2 3 4 5 6 
#
# 1 0.011446 -0.002921 -0.004048 0.000000 -0.000408 0.000000
# 2 -0.002921 0.014569 -0.001411 0.000000 0.000270 0.000000
# 3 -0.004048 -0.001411 0.012436 0.000000 0.010173 0.000000
# 4 0.000000 0.000000 0.000000 0.074641 0.000000 0.006354
# 5 -0.000408 0.000270 0.010173 0.000000 0.040057 0.000000
# 6 0.000000 0.000000 0.000000 0.006354 0.000000 0.055026
#
#
# Mechanical properties :
#
#
# Convention : Reuss Voigt Hill
#
# Bulk Modulus (GPa) = 46.10174 56.43013 51.26594
# Shear Modulus (GPa) = 21.53639 27.18289 24.35964
#
# Velocity S-wave (km/s) = 3.48073 3.91049 3.70185
# Velocity P-wave (km/s) = 6.48759 7.22042 6.86379
#
# Compressibility (1/GPa) = 0.02169115
#
# Stress axis : x y z
#
# Youngs Moduli (GPa) = 87.36505 68.63711 80.41410
#
# Poissons Ratio (x) = 0.20052 0.32549
# Poissons Ratio (y) = 0.25523 0.11345
# Poissons Ratio (z) = 0.35363 0.09684
#
# Static dielectric constant tensor:
#      x y z
#    x 8.323910 0.000000 -10.786800 
#    y 0.000000 3.566760 0.000000 
#    z -10.786800 0.000000 27.063150 
# 
# 
# High freq. dielectric constant tensor:
#      x y z
#    x 1.695030 0.000000 -0.012920 
#    y 0.000000 1.620310 0.000000 
#    z -0.012920 0.000000 1.707590 
# 
# From -- ./inp_files/18153.got.cif
#   From: 2010.06.25/outbox.cif.g09.slc.cpg/sg12_10_cif.got.tgz:18153.got - 2010.06.28 00:19:55.
