data_PCOD8082743
_publ_section_title
;
Structure prediction by ZEFSAII (Michael W. Deem and Ramdas Pophale) SiO2 
 PCOD8082743
Probable space group: C 2/M
;
_chemical_formula_sum "Si O2"
_cell_formula_units_Z 64
_cell_length_a 9.231554
_cell_length_b 20.234004
_cell_length_c 22.525654
_cell_angle_alpha 90.000000
_cell_angle_beta 120.113036
_cell_angle_gamma 90.000000
_cell_volume 3639.727636
_symmetry_space_group_name_H-M "C 2/M"
_symmetry_group_IT_number 12
_symmetry_cell_setting 'monoclinic'
loop_
_space_group_symop_operation_xyz
x,y,z
-x,y,-z
-x,-y,-z
x,-y,z
1/2+x,1/2+y,z
1/2-x,1/2+y,-z
1/2-x,1/2-y,-z
1/2+x,1/2-y,z
loop_
_atom_site_type_symbol
_atom_site_label
_atom_site_fract_x
_atom_site_fract_y
_atom_site_fract_z
Si Si1 0.107944 0.077216 0.462573
Si Si2 0.977684 0.837799 0.327593
Si Si3 0.415518 0.237332 0.113691
Si Si4 0.250717 0.329716 0.176236
Si Si5 0.180913 0.572048 0.064296
Si Si6 0.150008 0.159085 0.995707
Si Si7 0.299060 0.241403 0.373401
Si Si8 0.157841 0.310983 0.452137
O O1 0.009567 0.107372 0.385320
O O2 0.278729 0.119044 0.508188
O O3 0.000000 0.084712 0.500000
O O4 0.150016 0.000000 0.459008
O O5 0.152663 0.812408 0.335641
O O6 0.866993 0.864159 0.250204
O O7 0.866957 0.776313 0.328283
O O8 0.356130 0.281334 0.156110
O O9 0.596085 0.211144 0.171396
O O10 0.423721 0.276232 0.052773
O O11 0.291979 0.176629 0.073356
O O12 0.171641 0.389474 0.123715
O O13 0.254983 0.500000 0.092543
O O14 0.299122 0.606644 0.042064
O O15 0.000000 0.567957 0.000000
O O16 0.000000 0.124863 0.000000
O O17 0.222871 0.301316 0.397869
O O18 0.461343 0.198130 0.427747
O O19 0.250000 0.250000 0.500000
#
# Coordination Sequence:
#
# PCOD8082743 Si02
#       8
#     8   8   8   8   8   8   8   8
#     4  11  22  36  56  83 110 141 184 229 274 323
#     4  11  22  35  53  83 110 148 173 226 269 332
#     4  10  19  31  51  84 108 135 169 222 274 326
#     4  11  21  35  54  78 114 142 179 216 277 323
#     4  10  21  36  55  77 102 144 191 223 256 317
#     4  10  18  31  55  79 108 134 168 226 278 312
#     4  10  20  32  57  82 108 134 185 217 270 319
#     4  11  17  33  59  81 104 140 176 228 268 318
#
# _framework density 17.583732000000001
#
# number of rings (size 3 to 8) (size 9 to 14) (size 15 to 20)
#    0.000    1.500    6.250    1.125    0.000    0.750 
#    0.000    1.250    0.000    0.000    0.000    1.750 
#    0.000    0.000    0.000    0.000    0.000    0.000 
#
# Total GULP energy -396472.341633 kJ/mol
# GULP energy per Si atom -12389.760676 kJ/mol
# Density = 1.754371 g / cm^3
# Si number density = 17.583732 Si / 1000 Ang^3
#
#
#
# Elastic Constant Matrix: (Units=GPa)
#
#
# Indices 1 2 3 4 5 6 
#
# 1 88.9790 25.5986 26.7654 0.0000 11.5816 0.0000
# 2 25.5986 101.3251 36.3070 0.0000 7.5093 0.0000
# 3 26.7654 36.3070 98.6442 0.0000 10.6819 0.0000
# 4 0.0000 0.0000 0.0000 12.0257 0.0000 -0.4060
# 5 11.5816 7.5093 10.6819 0.0000 22.5327 0.0000
# 6 0.0000 0.0000 0.0000 -0.4060 0.0000 11.9474
#
#
#
# Elastic Compliance Matrix: (Units=1/GPa)
#
#
# Indices 1 2 3 4 5 6 
#
# 1 0.013184 -0.002157 -0.002242 0.000000 -0.004994 0.000000
# 2 -0.002157 0.011799 -0.003639 0.000000 -0.001099 0.000000
# 3 -0.002242 -0.003639 0.012469 0.000000 -0.003546 0.000000
# 4 0.000000 0.000000 0.000000 0.083250 0.000000 0.002829
# 5 -0.004994 -0.001099 -0.003546 0.000000 0.048994 0.000000
# 6 0.000000 0.000000 0.000000 0.002829 0.000000 0.083797
#
#
# Mechanical properties :
#
#
# Convention : Reuss Voigt Hill
#
# Bulk Modulus (GPa) = 46.78139 51.81003 49.29571
# Shear Modulus (GPa) = 18.07043 22.65297 20.36170
#
# Velocity S-wave (km/s) = 3.20922 3.59317 3.40661
# Velocity P-wave (km/s) = 6.35569 6.83690 6.60068
#
# Compressibility (1/GPa) = 0.02137602
#
# Stress axis : x y z
#
# Youngs Moduli (GPa) = 75.85062 84.74996 80.19823
#
# Poissons Ratio (x) = 0.18281 0.17984
# Poissons Ratio (y) = 0.16362 0.29181
# Poissons Ratio (z) = 0.17009 0.30837
#
# Static dielectric constant tensor:
#      x y z
#    x 3.169340 0.000000 0.227280 
#    y 0.000000 3.234140 0.000000 
#    z 0.227280 0.000000 3.436330 
# 
# 
# High freq. dielectric constant tensor:
#      x y z
#    x 1.691330 0.000000 0.000320 
#    y 0.000000 1.652470 0.000000 
#    z 0.000320 0.000000 1.672330 
# 
# From -- ./inp_files/333598.got.cif
#   From: 2010.06.25/outbox.cif.g09.slc.cpg/sg12_167_cif.got.tgz:333598.got - 2010.06.28 00:19:55.
