data_PCOD8082539
_publ_section_title
;
Structure prediction by ZEFSAII (Michael W. Deem and Ramdas Pophale) SiO2 
 PCOD8082539
Probable space group: C 2/M
;
_chemical_formula_sum "Si O2"
_cell_formula_units_Z 56
_cell_length_a 17.232937
_cell_length_b 13.828172
_cell_length_c 22.326910
_cell_angle_alpha 90.000000
_cell_angle_beta 37.431931
_cell_angle_gamma 90.000000
_cell_volume 3233.900030
_symmetry_space_group_name_H-M "C 2/M"
_symmetry_group_IT_number 12
_symmetry_cell_setting 'monoclinic'
loop_
_space_group_symop_operation_xyz
x,y,z
-x,y,-z
-x,-y,-z
x,-y,z
1/2+x,1/2+y,z
1/2-x,1/2+y,-z
1/2-x,1/2-y,-z
1/2+x,1/2-y,z
loop_
_atom_site_type_symbol
_atom_site_label
_atom_site_fract_x
_atom_site_fract_y
_atom_site_fract_z
Si Si1 0.079465 0.709111 0.006452
Si Si2 0.295575 0.885566 0.642214
Si Si3 0.688738 0.610083 0.081110
Si Si4 0.034585 0.386335 0.570757
Si Si5 0.547266 0.740262 0.794205
Si Si6 0.483729 0.111312 0.285788
Si Si7 0.227772 0.107187 0.920643
O O1 0.993105 0.711148 0.118671
O O2 0.202568 0.641493 0.939166
O O3 0.125259 0.816636 0.959068
O O4 0.000000 0.665427 0.000000
O O5 0.401666 0.847385 0.624314
O O6 0.345668 0.860143 0.544711
O O7 0.167451 0.827403 0.733395
O O8 0.268772 0.000000 0.665320
O O9 0.649169 0.500000 0.117765
O O10 0.564738 0.675839 0.165906
O O11 0.747600 0.625287 0.979190
O O12 0.016321 0.500000 0.584612
O O13 0.061017 0.348321 0.621826
O O14 0.581398 0.824565 0.725997
O O15 0.636350 0.120954 0.193228
O O16 0.442373 0.000000 0.300356
O O17 0.172870 0.000000 0.941821
#
# Coordination Sequence:
#
# PCOD8082539 Si02
#       7
#     8   8   8   8   8   8   8
#     4  11  22  33  46  70 100 129 164 203 242 290
#     4   9  18  33  51  77 105 127 152 194 247 298
#     4  10  19  35  50  66  95 132 166 200 240 284
#     4   8  17  33  52  74 103 128 154 194 247 298
#     4  11  20  32  52  74  97 127 168 204 239 283
#     4  10  18  31  53  72  94 130 165 199 239 284
#     4   9  17  32  50  67  93 124 157 201 243 282
#
# _framework density 17.316552000000001
#
# number of rings (size 3 to 8) (size 9 to 14) (size 15 to 20)
#    0.000    2.286    2.857    2.143    2.000    1.714 
#    0.000    0.000    0.000    0.000    0.000    2.000 
#    0.000    0.000    0.000    0.000    0.000    0.000 
#
# Total GULP energy -347160.623578 kJ/mol
# GULP energy per Si atom -12398.593699 kJ/mol
# Density = 1.727714 g / cm^3
# Si number density = 17.316552 Si / 1000 Ang^3
#
#
#
# Elastic Constant Matrix: (Units=GPa)
#
#
# Indices 1 2 3 4 5 6 
#
# 1 81.0651 24.7618 19.1097 0.0001 0.8179 0.0000
# 2 24.7618 55.6295 16.0753 0.0001 6.3190 0.0000
# 3 19.1097 16.0753 46.8472 0.0002 0.5875 -0.0001
# 4 0.0001 0.0001 0.0002 19.8493 -0.0001 -5.6075
# 5 0.8179 6.3190 0.5875 -0.0001 25.2196 0.0000
# 6 0.0000 0.0000 -0.0001 -5.6075 0.0000 22.1118
#
#
#
# Elastic Compliance Matrix: (Units=1/GPa)
#
#
# Indices 1 2 3 4 5 6 
#
# 1 0.015027 -0.005582 -0.004227 0.000000 0.001010 0.000000
# 2 -0.005582 0.022637 -0.005424 0.000000 -0.005365 0.000000
# 3 -0.004227 -0.005424 0.024920 0.000000 0.000916 0.000000
# 4 0.000000 0.000000 0.000000 0.054268 0.000000 0.013762
# 5 0.001010 -0.005365 0.000916 0.000000 0.040942 0.000000
# 6 0.000000 0.000000 0.000000 0.013762 0.000000 0.048715
#
#
# Mechanical properties :
#
#
# Convention : Reuss Voigt Hill
#
# Bulk Modulus (GPa) = 31.13421 33.71507 32.42464
# Shear Modulus (GPa) = 20.18732 21.67579 20.93155
#
# Velocity S-wave (km/s) = 3.41806 3.54183 3.48049
# Velocity P-wave (km/s) = 5.79620 6.01982 5.90907
#
# Compressibility (1/GPa) = 0.03211901
#
# Stress axis : x y z
#
# Youngs Moduli (GPa) = 66.54646 44.17465 40.12864
#
# Poissons Ratio (x) = 0.24659 0.16962
# Poissons Ratio (y) = 0.37147 0.21764
# Poissons Ratio (z) = 0.28129 0.23959
#
# Static dielectric constant tensor:
#      x y z
#    x 3.178600 0.000000 0.261470 
#    y 0.000000 3.176610 0.000000 
#    z 0.261470 0.000000 3.292220 
# 
# 
# High freq. dielectric constant tensor:
#      x y z
#    x 1.654780 0.000000 0.007360 
#    y 0.000000 1.652000 0.000000 
#    z 0.007360 0.000000 1.661340 
# 
# From -- ./inp_files/310795.got.cif
#   From: 2010.06.25/outbox.cif.g09.slc.cpg/sg12_156_cif.got.tgz:310795.got - 2010.06.28 00:19:55.
