data_PCOD8082870
_publ_section_title
;
Structure prediction by ZEFSAII (Michael W. Deem and Ramdas Pophale) SiO2 
 PCOD8082870
Probable space group: C 2/M
;
_chemical_formula_sum "Si O2"
_cell_formula_units_Z 64
_cell_length_a 23.081887
_cell_length_b 21.977874
_cell_length_c 9.846678
_cell_angle_alpha 90.000000
_cell_angle_beta 51.846662
_cell_angle_gamma 90.000000
_cell_volume 3927.971136
_symmetry_space_group_name_H-M "C 2/M"
_symmetry_group_IT_number 12
_symmetry_cell_setting 'monoclinic'
loop_
_space_group_symop_operation_xyz
x,y,z
-x,y,-z
-x,-y,-z
x,-y,z
1/2+x,1/2+y,z
1/2-x,1/2+y,-z
1/2-x,1/2-y,-z
1/2+x,1/2-y,z
loop_
_atom_site_type_symbol
_atom_site_label
_atom_site_fract_x
_atom_site_fract_y
_atom_site_fract_z
Si Si1 0.796118 0.315706 0.775549
Si Si2 0.586435 0.756692 0.884015
Si Si3 0.643256 0.259102 0.084410
Si Si4 0.933089 0.928304 0.420414
Si Si5 0.790345 0.931573 0.117754
Si Si6 0.592713 0.612100 0.245369
Si Si7 0.343949 0.371657 0.302499
Si Si8 0.700950 0.193587 0.532982
O O1 0.853557 0.293895 0.806324
O O2 0.780430 0.388017 0.801748
O O3 0.826729 0.299481 0.582217
O O4 0.721548 0.278835 0.910965
O O5 0.614171 0.690639 0.794975
O O6 0.628854 0.808536 0.733749
O O7 0.500000 0.763671 0.000000
O O8 0.600363 0.769647 0.021390
O O9 0.600131 0.316263 0.208144
O O10 0.903509 0.896701 0.598982
O O11 0.887282 0.905203 0.358398
O O12 0.018537 0.911457 0.281154
O O13 0.923718 0.000000 0.447085
O O14 0.841886 0.912565 0.170276
O O15 0.760998 0.000000 0.178443
O O16 0.840697 0.926849 0.911769
O O17 0.257544 0.362995 0.469552
O O18 0.750000 0.250000 0.500000
#
# Coordination Sequence:
#
# PCOD8082870 Si02
#       8
#     8   8   8   8   8   8   8   8
#     4   9  18  31  50  73  93 129 167 205 248 301
#     4  11  20  33  49  73 103 130 164 206 255 303
#     4  10  18  32  49  70  97 127 172 207 250 289
#     4  11  22  33  45  66  99 139 178 202 231 283
#     4  10  18  33  50  70  99 127 165 209 247 287
#     4  10  20  33  44  64  97 140 170 206 242 279
#     4  10  20  32  49  71  95 131 172 202 245 292
#     4   9  17  32  48  68  95 127 161 203 251 299
#
# _framework density 16.293398
#
# number of rings (size 3 to 8) (size 9 to 14) (size 15 to 20)
#    0.000    2.000    5.000    2.625    3.500    1.000 
#    0.000    1.250    0.000    0.000    0.000    0.000 
#    0.000   22.000    0.000    0.000    0.000    0.000 
#
# Total GULP energy -396641.689938 kJ/mol
# GULP energy per Si atom -12395.052811 kJ/mol
# Density = 1.625631 g / cm^3
# Si number density = 16.293398 Si / 1000 Ang^3
#
#
#
# Elastic Constant Matrix: (Units=GPa)
#
#
# Indices 1 2 3 4 5 6 
#
# 1 85.4367 28.6443 44.5208 0.0000 15.6602 0.0000
# 2 28.6443 59.6367 34.8168 0.0000 6.2347 0.0000
# 3 44.5208 34.8168 86.2219 0.0000 6.9257 0.0000
# 4 0.0000 0.0000 0.0000 16.0134 0.0000 0.7432
# 5 15.6602 6.2347 6.9257 0.0000 26.4409 0.0000
# 6 0.0000 0.0000 0.0000 0.7432 0.0000 18.7675
#
#
#
# Elastic Compliance Matrix: (Units=1/GPa)
#
#
# Indices 1 2 3 4 5 6 
#
# 1 0.018186 -0.003652 -0.007273 0.000000 -0.008005 0.000000
# 2 -0.003652 0.022896 -0.007252 0.000000 -0.001336 0.000000
# 3 -0.007273 -0.007252 0.018181 0.000000 0.001255 0.000000
# 4 0.000000 0.000000 0.000000 0.062563 0.000000 -0.002477
# 5 -0.008005 -0.001336 0.001255 0.000000 0.042548 0.000000
# 6 0.000000 0.000000 0.000000 -0.002477 0.000000 0.053382
#
#
# Mechanical properties :
#
#
# Convention : Reuss Voigt Hill
#
# Bulk Modulus (GPa) = 43.65176 49.69549 46.67362
# Shear Modulus (GPa) = 19.10250 20.46526 19.78388
#
# Velocity S-wave (km/s) = 3.42776 3.54792 3.48836
# Velocity P-wave (km/s) = 6.52037 6.88115 6.70319
#
# Compressibility (1/GPa) = 0.02290859
#
# Stress axis : x y z
#
# Youngs Moduli (GPa) = 54.98715 43.67540 55.00272
#
# Poissons Ratio (x) = 0.15952 0.40001
# Poissons Ratio (y) = 0.20083 0.39890
# Poissons Ratio (z) = 0.39990 0.31675
#
# Static dielectric constant tensor:
#      x y z
#    x 3.129510 0.000000 0.081290 
#    y 0.000000 2.993370 0.000000 
#    z 0.081290 0.000000 3.389170 
# 
# 
# High freq. dielectric constant tensor:
#      x y z
#    x 1.615310 0.000000 0.021820 
#    y 0.000000 1.601380 0.000000 
#    z 0.021820 0.000000 1.631730 
# 
# From -- ./inp_files/99652.got.cif
#   From: 2010.06.25/outbox.cif.g09.slc.cpg/sg12_50_cif.got.tgz:99652.got - 2010.06.28 00:19:55.
