data_PCOD8082136
_publ_section_title
;
Structure prediction by ZEFSAII (Michael W. Deem and Ramdas Pophale) SiO2 
 PCOD8082136
Probable space group: C 2/M
;
_chemical_formula_sum "Si O2"
_cell_formula_units_Z 64
_cell_length_a 34.873805
_cell_length_b 8.800424
_cell_length_c 12.421106
_cell_angle_alpha 90.000000
_cell_angle_beta 76.834132
_cell_angle_gamma 90.000000
_cell_volume 3711.888771
_symmetry_space_group_name_H-M "C 2/M"
_symmetry_group_IT_number 12
_symmetry_cell_setting 'monoclinic'
loop_
_space_group_symop_operation_xyz
x,y,z
-x,y,-z
-x,-y,-z
x,-y,z
1/2+x,1/2+y,z
1/2-x,1/2+y,-z
1/2-x,1/2-y,-z
1/2+x,1/2-y,z
loop_
_atom_site_type_symbol
_atom_site_label
_atom_site_fract_x
_atom_site_fract_y
_atom_site_fract_z
Si Si1 0.291038 0.324573 0.752042
Si Si2 0.298127 0.825145 0.147709
Si Si3 0.076476 0.176632 0.826379
Si Si4 0.340295 0.677432 0.318070
Si Si5 0.289095 0.821275 0.523984
Si Si6 0.341234 0.821317 0.902444
Si Si7 0.502079 0.171157 0.126495
Si Si8 0.918655 0.821858 0.929249
O O1 0.298311 0.500000 0.718963
O O2 0.248442 0.299936 0.832719
O O3 0.295290 0.227483 0.641900
O O4 0.323757 0.268262 0.813357
O O5 0.314256 0.720535 0.232053
O O6 0.308530 0.000000 0.167395
O O7 0.317500 0.772035 0.024064
O O8 0.114149 0.218687 0.730690
O O9 0.039073 0.265012 0.800978
O O10 0.066121 0.000000 0.829642
O O11 0.085518 0.225253 0.943151
O O12 0.334463 0.500000 0.342849
O O13 0.326812 0.769049 0.431378
O O14 0.250000 0.750000 0.500000
O O15 0.284679 0.000000 0.519307
O O16 0.386464 0.772302 0.883991
O O17 0.338020 0.000000 0.883614
O O18 0.538528 0.273546 0.143336
O O19 0.508111 0.000000 0.164047
O O20 0.500000 0.179566 0.000000
O O21 0.912153 0.000000 0.915524
#
# Coordination Sequence:
#
# PCOD8082136 Si02
#       8
#     8   8   8   8   8   8   8   8
#     4  11  23  39  56  76 102 140 183 223 267 315
#     4  10  21  35  53  76 106 141 177 218 264 316
#     4   9  18  31  48  74 105 138 174 213 259 313
#     4  11  21  34  55  80 106 140 179 219 265 314
#     4  12  24  39  57  78 103 136 178 224 272 315
#     4  11  22  35  52  78 109 142 179 220 264 315
#     4   9  17  28  45  71 102 138 173 211 257 311
#     4  10  18  31  49  72 104 142 176 213 259 313
#
# _framework density 17.241896000000001
#
# number of rings (size 3 to 8) (size 9 to 14) (size 15 to 20)
#    0.000    1.625    2.500    3.375    0.000    4.000 
#    0.000    0.000    0.000    0.000    0.000    0.875 
#    0.000    7.000    0.000    0.000    0.000    0.000 
#
# Total GULP energy -396937.073236 kJ/mol
# GULP energy per Si atom -12404.283539 kJ/mol
# Density = 1.720265 g / cm^3
# Si number density = 17.241896 Si / 1000 Ang^3
#
#
#
# Elastic Constant Matrix: (Units=GPa)
#
#
# Indices 1 2 3 4 5 6 
#
# 1 115.9420 43.9243 41.6591 0.0000 -7.1699 0.0000
# 2 43.9243 85.7386 26.6862 0.0000 -5.8499 0.0000
# 3 41.6591 26.6862 64.5965 0.0000 -0.6163 0.0000
# 4 0.0000 0.0000 0.0000 26.0869 0.0000 0.6711
# 5 -7.1699 -5.8499 -0.6163 0.0000 16.9360 0.0000
# 6 0.0000 0.0000 0.0000 0.6711 0.0000 32.2433
#
#
#
# Elastic Compliance Matrix: (Units=1/GPa)
#
#
# Indices 1 2 3 4 5 6 
#
# 1 0.012797 -0.004299 -0.006442 0.000000 0.003698 0.000000
# 2 -0.004299 0.015168 -0.003463 0.000000 0.003293 0.000000
# 3 -0.006442 -0.003463 0.021035 0.000000 -0.003158 0.000000
# 4 0.000000 0.000000 0.000000 0.038354 0.000000 -0.000798
# 5 0.003698 0.003293 -0.003158 0.000000 0.061634 0.000000
# 6 0.000000 0.000000 0.000000 -0.000798 0.000000 0.031031
#
#
# Mechanical properties :
#
#
# Convention : Reuss Voigt Hill
#
# Bulk Modulus (GPa) = 48.55676 54.53513 51.54594
# Shear Modulus (GPa) = 23.22451 25.32039 24.27245
#
# Velocity S-wave (km/s) = 3.67411 3.83631 3.75608
# Velocity P-wave (km/s) = 6.79867 7.16388 6.98366
#
# Compressibility (1/GPa) = 0.02059446
#
# Stress axis : x y z
#
# Youngs Moduli (GPa) = 78.14477 65.92837 47.53895
#
# Poissons Ratio (x) = 0.28340 0.30623
# Poissons Ratio (y) = 0.33591 0.16461
# Poissons Ratio (z) = 0.50338 0.22828
#
# Static dielectric constant tensor:
#      x y z
#    x 3.343000 0.000000 -0.175890 
#    y 0.000000 3.306180 0.000000 
#    z -0.175890 0.000000 3.096520 
# 
# 
# High freq. dielectric constant tensor:
#      x y z
#    x 1.671210 0.000000 -0.009630 
#    y 0.000000 1.680170 0.000000 
#    z -0.009630 0.000000 1.628050 
# 
# From -- ./inp_files/187621.got.cif
#   From: 2010.06.25/outbox.cif.g09.slc.cpg/sg12_94_cif.got.tgz:187621.got - 2010.06.28 00:19:55.
