data_PCOD8082859
_publ_section_title
;
Structure prediction by ZEFSAII (Michael W. Deem and Ramdas Pophale) SiO2 
 PCOD8082859
Probable space group: C 2/M
;
_chemical_formula_sum "Si O2"
_cell_formula_units_Z 44
_cell_length_a 5.322686
_cell_length_b 14.979251
_cell_length_c 25.562414
_cell_angle_alpha 90.000000
_cell_angle_beta 108.200000
_cell_angle_gamma 90.000000
_cell_volume 1936.126091
_symmetry_space_group_name_H-M "C 2/M"
_symmetry_group_IT_number 12
_symmetry_cell_setting 'monoclinic'
loop_
_space_group_symop_operation_xyz
x,y,z
-x,y,-z
-x,-y,-z
x,-y,z
1/2+x,1/2+y,z
1/2-x,1/2+y,-z
1/2-x,1/2-y,-z
1/2+x,1/2-y,z
loop_
_atom_site_type_symbol
_atom_site_label
_atom_site_fract_x
_atom_site_fract_y
_atom_site_fract_z
Si Si1 0.030487 0.395366 0.853660
Si Si2 0.680456 0.646413 0.620302
Si Si3 0.750919 0.653064 0.333948
Si Si4 0.000000 0.808019 0.500000
Si Si5 0.284702 0.150660 0.023135
Si Si6 0.067985 0.105036 0.211988
O O1 0.049068 0.500000 0.866046
O O2 0.116782 0.344156 0.911188
O O3 0.231778 0.366941 0.820991
O O4 0.731186 0.366942 0.820992
O O5 0.469189 0.600718 0.645879
O O6 0.705974 0.750446 0.637312
O O7 0.581977 0.631550 0.554651
O O8 0.968455 0.600717 0.645878
O O9 0.652304 0.661003 0.268203
O O10 0.250000 0.750000 0.500000
O O11 0.500000 0.100771 0.000000
O O12 0.250000 0.250000 0.000000
O O13 0.000000 0.100771 0.000000
O O14 0.088335 0.000000 0.225554
#
# Coordination Sequence:
#
# PCOD8082859 Si02
#       6
#     8   8   8   4   8   8
#     4  10  21  38  58  78 101 136 182 219 253 309
#     4  10  19  30  48  77 103 134 170 214 269 315
#     4  10  18  32  48  74 106 130 171 217 259 311
#     4  12  16  30  48  74 106 138 174 216 266 318
#     4  10  21  38  56  81 112 138 168 212 265 319
#     4  10  21  37  56  77 103 140 180 216 254 301
#
# _framework density 22.725791000000001
#
# number of rings (size 3 to 8) (size 9 to 14) (size 15 to 20)
#    0.000    1.818    3.636    2.182    0.000    0.727 
#    0.000   21.818    0.000    0.000    0.000    7.000 
#    0.000    0.000    0.000    0.000    0.000    0.000 
#
# Total GULP energy -272712.074979 kJ/mol
# GULP energy per Si atom -12396.003408 kJ/mol
# Density = 2.267407 g / cm^3
# Si number density = 22.725791 Si / 1000 Ang^3
#
#
#
# Elastic Constant Matrix: (Units=GPa)
#
#
# Indices 1 2 3 4 5 6 
#
# 1 284.2370 -0.1238 100.2647 0.0000 -3.2021 0.0000
# 2 -0.1238 25.6324 20.3630 0.0000 0.7917 0.0000
# 3 100.2647 20.3630 234.6609 0.0000 1.2864 0.0000
# 4 0.0000 0.0000 0.0000 -9.0081 0.0000 -0.2888
# 5 -3.2021 0.7917 1.2864 0.0000 50.7260 0.0000
# 6 0.0000 0.0000 0.0000 -0.2888 0.0000 -1.5416
#
#
#
# Elastic Compliance Matrix: (Units=1/GPa)
#
#
# Indices 1 2 3 4 5 6 
#
# 1 0.004204 0.001546 -0.001932 0.000000 0.000290 0.000000
# 2 0.001546 0.042486 -0.004345 0.000000 -0.000455 0.000000
# 3 -0.001932 -0.004345 0.005465 0.000000 -0.000193 0.000000
# 4 0.000000 0.000000 0.000000 -0.111682 0.000000 0.020921
# 5 0.000290 -0.000455 -0.000193 0.000000 0.019744 0.000000
# 6 0.000000 0.000000 0.000000 0.020921 0.000000 -0.652596
#
#
# Mechanical properties :
#
#
# Convention : Reuss Voigt Hill
#
# Bulk Modulus (GPa) = 23.42279 87.28201 55.35240
# Shear Modulus (GPa) = -7.47735 36.30369 14.41317
#
# Velocity S-wave (km/s) = -1.81587 4.00117 2.52111
# Velocity P-wave (km/s) = 2.43568 7.73536 5.73447
#
# Compressibility (1/GPa) = 0.04269346
#
# Stress axis : x y z
#
# Youngs Moduli (GPa) = 237.89190 23.53702 182.98313
#
# Poissons Ratio (x) = -0.03639 0.35349
# Poissons Ratio (y) = -0.36779 0.79504
# Poissons Ratio (z) = 0.45957 0.10227
#
# Static dielectric constant tensor:
#      x y z
#    x 13.740180 0.000000 -0.370200 
#    y 0.000000 3.316940 0.000000 
#    z -0.370200 0.000000 4.159670 
# 
# 
# High freq. dielectric constant tensor:
#      x y z
#    x 1.940600 0.000000 -0.001270 
#    y 0.000000 1.833690 0.000000 
#    z -0.001270 0.000000 1.907790 
# 
# From -- ./inp_files/297632.got.cif
#   From: 2010.06.25/outbox.cif.g09.slc.cpg/sg12_149_cif.got.tgz:297632.got - 2010.06.28 00:19:55.
