data_PCOD8082629
_publ_section_title
;
Structure prediction by ZEFSAII (Michael W. Deem and Ramdas Pophale) SiO2 
 PCOD8082629
Probable space group: C 2/M
;
_chemical_formula_sum "Si O2"
_cell_formula_units_Z 32
_cell_length_a 24.330318
_cell_length_b 7.601961
_cell_length_c 11.245431
_cell_angle_alpha 90.000000
_cell_angle_beta 59.469667
_cell_angle_gamma 90.000000
_cell_volume 1791.572555
_symmetry_space_group_name_H-M "C 2/M"
_symmetry_group_IT_number 12
_symmetry_cell_setting 'monoclinic'
loop_
_space_group_symop_operation_xyz
x,y,z
-x,y,-z
-x,-y,-z
x,-y,z
1/2+x,1/2+y,z
1/2-x,1/2+y,-z
1/2-x,1/2-y,-z
1/2+x,1/2-y,z
loop_
_atom_site_type_symbol
_atom_site_label
_atom_site_fract_x
_atom_site_fract_y
_atom_site_fract_z
Si Si1 0.965960 0.298507 0.416578
Si Si2 0.691264 0.804064 0.728801
Si Si3 0.170276 0.793862 0.488748
Si Si4 0.605080 0.500000 0.898409
Si Si5 0.004473 0.000000 0.798795
O O1 0.982406 0.500000 0.366562
O O2 0.890157 0.273555 0.519565
O O3 0.990950 0.176398 0.283219
O O4 0.000000 0.239437 0.500000
O O5 0.765989 0.750621 0.656156
O O6 0.671089 0.805449 0.613220
O O7 0.649395 0.672138 0.852784
O O8 0.680118 0.000000 0.791814
O O9 0.164642 0.000000 0.522764
O O10 0.561709 0.500000 0.829418
O O11 0.563698 0.500000 0.062802
#
# Coordination Sequence:
#
# PCOD8082629 Si02
#       5
#     8   8   8   4   4
#     4  11  22  36  57  84 106 142 186 227 271 317
#     4  10  19  31  52  81 111 139 173 224 271 321
#     4  10  18  31  53  82 111 134 176 228 276 315
#     4  11  22  36  54  82 113 150 178 208 274 340
#     4  11  23  38  54  78 119 145 179 219 262 336
#
# _framework density 17.861404
#
# number of rings (size 3 to 8) (size 9 to 14) (size 15 to 20)
#    0.000    1.500    5.000    1.125    3.500    1.000 
#    0.000    2.500    0.000    1.500    0.000    0.000 
#    0.000    0.000    0.000    0.000    0.000    0.000 
#
# Total GULP energy -198432.836145 kJ/mol
# GULP energy per Si atom -12402.052259 kJ/mol
# Density = 1.782075 g / cm^3
# Si number density = 17.861404 Si / 1000 Ang^3
#
#
#
# Elastic Constant Matrix: (Units=GPa)
#
#
# Indices 1 2 3 4 5 6 
#
# 1 135.6567 41.3838 58.8883 0.0000 -12.4029 0.0000
# 2 41.3838 114.9452 58.6976 0.0000 -17.9493 0.0000
# 3 58.8883 58.6976 90.4348 0.0000 -20.0465 0.0000
# 4 0.0000 0.0000 0.0000 9.7268 0.0000 -5.9456
# 5 -12.4029 -17.9493 -20.0465 0.0000 29.9168 0.0000
# 6 0.0000 0.0000 0.0000 -5.9456 0.0000 26.7821
#
#
#
# Elastic Compliance Matrix: (Units=1/GPa)
#
#
# Indices 1 2 3 4 5 6 
#
# 1 0.010293 -0.000446 -0.006491 0.000000 -0.000349 0.000000
# 2 -0.000446 0.013196 -0.007705 0.000000 0.002570 0.000000
# 3 -0.006491 -0.007705 0.021920 0.000000 0.007374 0.000000
# 4 0.000000 0.000000 0.000000 0.118951 0.000000 0.026407
# 5 -0.000349 0.002570 0.007374 0.000000 0.039764 0.000000
# 6 0.000000 0.000000 0.000000 0.026407 0.000000 0.043201
#
#
# Mechanical properties :
#
#
# Convention : Reuss Voigt Hill
#
# Bulk Modulus (GPa) = 62.01215 73.21958 67.61586
# Shear Modulus (GPa) = 17.73150 25.42292 21.57721
#
# Velocity S-wave (km/s) = 3.15417 3.77682 3.47945
# Velocity P-wave (km/s) = 6.93246 7.75250 7.35392
#
# Compressibility (1/GPa) = 0.01612587
#
# Stress axis : x y z
#
# Youngs Moduli (GPa) = 97.15142 75.77861 45.62050
#
# Poissons Ratio (x) = 0.03379 0.29611
# Poissons Ratio (y) = 0.04332 0.35152
# Poissons Ratio (z) = 0.63057 0.58389
#
# Static dielectric constant tensor:
#      x y z
#    x 3.571740 0.000000 -0.249190 
#    y 0.000000 3.445690 0.000000 
#    z -0.249190 0.000000 2.940280 
# 
# 
# High freq. dielectric constant tensor:
#      x y z
#    x 1.697410 0.000000 -0.022090 
#    y 0.000000 1.711150 0.000000 
#    z -0.022090 0.000000 1.643630 
# 
# From -- ./inp_files/92059.got.cif
#   From: 2010.06.25/outbox.cif.g09.slc.cpg/sg12_47_cif.got.tgz:92059.got - 2010.06.28 00:19:55.
