data_PCOD8082238
_publ_section_title
;
Structure prediction by ZEFSAII (Michael W. Deem and Ramdas Pophale) SiO2 
 PCOD8082238
Probable space group: C 2/M
;
_chemical_formula_sum "Si O2"
_cell_formula_units_Z 56
_cell_length_a 14.537774
_cell_length_b 24.978085
_cell_length_c 8.408189
_cell_angle_alpha 90.000000
_cell_angle_beta 94.700325
_cell_angle_gamma 90.000000
_cell_volume 3042.961726
_symmetry_space_group_name_H-M "C 2/M"
_symmetry_group_IT_number 12
_symmetry_cell_setting 'monoclinic'
loop_
_space_group_symop_operation_xyz
x,y,z
-x,y,-z
-x,-y,-z
x,-y,z
1/2+x,1/2+y,z
1/2-x,1/2+y,-z
1/2-x,1/2-y,-z
1/2+x,1/2-y,z
loop_
_atom_site_type_symbol
_atom_site_label
_atom_site_fract_x
_atom_site_fract_y
_atom_site_fract_z
Si Si1 0.327438 0.720562 0.833661
Si Si2 0.285651 0.832382 0.940343
Si Si3 0.277231 0.132714 0.596640
Si Si4 0.094985 0.826197 0.451851
Si Si5 0.639548 0.216329 0.613265
Si Si6 0.048569 0.352674 0.852257
Si Si7 0.560005 0.060006 0.352193
O O1 0.348041 0.780290 0.899258
O O2 0.406264 0.693743 0.733093
O O3 0.233075 0.723568 0.721800
O O4 0.309677 0.683503 0.985605
O O5 0.257295 0.864580 0.781028
O O6 0.348048 0.868078 0.070935
O O7 0.179230 0.131718 0.490259
O O8 0.339519 0.182478 0.543490
O O9 0.337538 0.079316 0.580899
O O10 0.105556 0.774750 0.565055
O O11 0.000000 0.853679 0.500000
O O12 0.559000 0.188584 0.706700
O O13 0.987444 0.403289 0.789362
O O14 0.000000 0.326587 0.000000
O O15 0.500000 0.061398 0.500000
O O16 0.567441 0.000000 0.284500
#
# Coordination Sequence:
#
# PCOD8082238 Si02
#       7
#     8   8   8   8   8   8   8
#     4   9  18  33  46  71 112 149 195 214 261 320
#     4  10  18  31  50  74 108 153 178 221 267 329
#     4  11  19  38  54  73 109 147 185 229 279 323
#     4  11  22  32  52  79 111 148 196 228 260 320
#     4  10  19  32  50  75 110 153 184 221 258 332
#     4  11  22  31  50  81 110 148 178 223 275 327
#     4  11  24  41  61  82 106 142 191 236 281 340
#
# _framework density 18.403123000000001
#
# number of rings (size 3 to 8) (size 9 to 14) (size 15 to 20)
#    0.000    1.571    5.714    0.857    4.000    0.286 
#    0.000    0.714    0.000    0.429    0.000    0.000 
#    0.000    1.143    0.000    0.000    0.000    0.000 
#
# Total GULP energy -346967.022029 kJ/mol
# GULP energy per Si atom -12391.679358 kJ/mol
# Density = 1.836124 g / cm^3
# Si number density = 18.403123 Si / 1000 Ang^3
#
#
#
# Elastic Constant Matrix: (Units=GPa)
#
#
# Indices 1 2 3 4 5 6 
#
# 1 89.4498 34.0455 25.2239 0.0000 -14.8022 0.0000
# 2 34.0455 62.8586 19.2401 0.0000 -0.0097 0.0000
# 3 25.2239 19.2401 83.3457 0.0000 -18.5343 0.0000
# 4 0.0000 0.0000 0.0000 11.4040 0.0000 7.8726
# 5 -14.8022 -0.0097 -18.5343 0.0000 28.9112 0.0000
# 6 0.0000 0.0000 0.0000 7.8726 0.0000 12.6164
#
#
#
# Elastic Compliance Matrix: (Units=1/GPa)
#
#
# Indices 1 2 3 4 5 6 
#
# 1 0.015872 -0.008201 -0.001287 0.000000 0.007298 0.000000
# 2 -0.008201 0.021574 -0.004001 0.000000 -0.006757 0.000000
# 3 -0.001287 -0.004001 0.015353 0.000000 0.009182 0.000000
# 4 0.000000 0.000000 0.000000 0.154049 0.000000 -0.096127
# 5 0.007298 -0.006757 0.009182 0.000000 0.044209 0.000000
# 6 0.000000 0.000000 0.000000 -0.096127 0.000000 0.139245
#
#
# Mechanical properties :
#
#
# Convention : Reuss Voigt Hill
#
# Bulk Modulus (GPa) = 38.72884 43.63035 41.17959
# Shear Modulus (GPa) = 11.74018 21.06262 16.40140
#
# Velocity S-wave (km/s) = 2.52850 3.38674 2.98858
# Velocity P-wave (km/s) = 5.44195 6.24923 5.85951
#
# Compressibility (1/GPa) = 0.02582055
#
# Stress axis : x y z
#
# Youngs Moduli (GPa) = 63.00549 46.35154 65.13258
#
# Poissons Ratio (x) = 0.38014 0.08384
# Poissons Ratio (y) = 0.51673 0.26058
# Poissons Ratio (z) = 0.08110 0.18544
#
# Static dielectric constant tensor:
#      x y z
#    x 3.520440 0.000000 -0.166040 
#    y 0.000000 3.069090 0.000000 
#    z -0.166040 0.000000 3.800620 
# 
# 
# High freq. dielectric constant tensor:
#      x y z
#    x 1.703390 0.000000 -0.013230 
#    y 0.000000 1.643010 0.000000 
#    z -0.013230 0.000000 1.735990 
# 
# From -- ./inp_files/64101.got.cif
#   From: 2010.06.25/outbox.cif.g09.slc.cpg/sg12_33_cif.got.tgz:64101.got - 2010.06.28 00:19:55.
