data_PCOD8082278
_publ_section_title
;
Structure prediction by ZEFSAII (Michael W. Deem and Ramdas Pophale) SiO2 
 PCOD8082278
Probable space group: C 2/M
;
_chemical_formula_sum "Si O2"
_cell_formula_units_Z 48
_cell_length_a 25.023468
_cell_length_b 25.109914
_cell_length_c 14.880054
_cell_angle_alpha 90.000000
_cell_angle_beta 17.772275
_cell_angle_gamma 90.000000
_cell_volume 2853.848462
_symmetry_space_group_name_H-M "C 2/M"
_symmetry_group_IT_number 12
_symmetry_cell_setting 'monoclinic'
loop_
_space_group_symop_operation_xyz
x,y,z
-x,y,-z
-x,-y,-z
x,-y,z
1/2+x,1/2+y,z
1/2-x,1/2+y,-z
1/2-x,1/2-y,-z
1/2+x,1/2-y,z
loop_
_atom_site_type_symbol
_atom_site_label
_atom_site_fract_x
_atom_site_fract_y
_atom_site_fract_z
Si Si1 0.224504 0.203824 0.417663
Si Si2 0.527428 0.915243 0.149675
Si Si3 0.782595 0.500000 0.048952
Si Si4 0.521240 0.500000 0.321953
Si Si5 0.151338 0.940529 0.696436
Si Si6 0.042957 0.299411 0.786308
Si Si7 0.337244 0.590768 0.521381
O O1 0.092740 0.253157 0.636642
O O2 0.298212 0.187465 0.398841
O O3 0.128476 0.154084 0.521221
O O4 0.381155 0.222405 0.102680
O O5 0.338341 0.941624 0.444881
O O6 0.505244 0.851564 0.195645
O O7 0.611053 0.945140 0.102164
O O8 0.652332 0.926424 0.863011
O O9 0.717342 0.500000 0.049636
O O10 0.614709 0.500000 0.380398
O O11 0.494485 0.553831 0.306103
O O12 0.178462 0.912066 0.559471
O O13 0.086105 0.000000 0.781341
O O14 0.000000 0.912385 0.000000
#
# Coordination Sequence:
#
# PCOD8082278 Si02
#       7
#     8   8   4   4   8   8   8
#     4   9  17  28  43  67  96 127 159 187 228 284
#     4  10  18  31  51  70  96 129 160 194 238 287
#     4   9  18  31  51  76  94 117 160 209 246 275
#     4   9  18  31  51  76  94 117 160 209 246 275
#     4  11  21  29  42  71 104 127 156 190 235 294
#     4   9  17  28  43  67  96 127 159 187 228 284
#     4  10  18  31  51  70  96 129 160 194 238 287
#
# _framework density 16.819393999999999
#
# number of rings (size 3 to 8) (size 9 to 14) (size 15 to 20)
#    0.000    2.333    3.333    0.500    0.000    2.000 
#    0.000    0.000    0.000    3.000    0.000    0.000 
#    0.000    0.000    0.000    0.000    0.000    0.000 
#
# Total GULP energy -297357.682009 kJ/mol
# GULP energy per Si atom -12389.903417 kJ/mol
# Density = 1.678111 g / cm^3
# Si number density = 16.819394 Si / 1000 Ang^3
#
#
#
# Elastic Constant Matrix: (Units=GPa)
#
#
# Indices 1 2 3 4 5 6 
#
# 1 55.8381 42.5676 42.4638 -0.0229 -16.9424 0.0046
# 2 42.5676 128.0504 44.9880 -0.0559 -6.0433 -0.0032
# 3 42.4638 44.9880 73.7056 -0.0755 -3.4432 0.0384
# 4 -0.0229 -0.0559 -0.0755 24.1727 0.0311 3.6317
# 5 -16.9424 -6.0433 -3.4432 0.0311 17.3856 -0.0511
# 6 0.0046 -0.0032 0.0384 3.6317 -0.0511 13.6788
#
#
#
# Elastic Compliance Matrix: (Units=1/GPa)
#
#
# Indices 1 2 3 4 5 6 
#
# 1 0.060140 -0.007979 -0.027424 -0.000155 0.050403 0.000284
# 2 -0.007979 0.011090 -0.002377 0.000018 -0.004391 -0.000009
# 3 -0.027424 -0.002377 0.029807 0.000118 -0.021649 -0.000187
# 4 -0.000155 0.000018 0.000118 0.043088 -0.000232 -0.011441
# 5 0.050403 -0.004391 -0.021649 -0.000232 0.100825 0.000481
# 6 0.000284 -0.000009 -0.000187 -0.011441 0.000481 0.076146
#
#
# Mechanical properties :
#
#
# Convention : Reuss Voigt Hill
#
# Bulk Modulus (GPa) = 39.25121 57.51476 48.38299
# Shear Modulus (GPa) = 12.34118 19.55240 15.94679
#
# Velocity S-wave (km/s) = 2.71172 3.41323 3.08249
# Velocity P-wave (km/s) = 5.76126 7.05714 6.44187
#
# Compressibility (1/GPa) = 0.02547692
#
# Stress axis : x y z
#
# Youngs Moduli (GPa) = 16.62790 90.17359 33.54901
#
# Poissons Ratio (x) = 0.71946 0.92005
# Poissons Ratio (y) = 0.13267 0.07976
# Poissons Ratio (z) = 0.45600 0.21437
#
# Static dielectric constant tensor:
#      x y z
#    x 2.966470 0.000030 -0.006560 
#    y 0.000030 3.231030 0.000160 
#    z -0.006560 0.000160 3.157890 
# 
# 
# High freq. dielectric constant tensor:
#      x y z
#    x 1.598330 0.000000 0.011680 
#    y 0.000000 1.656500 0.000010 
#    z 0.011680 0.000010 1.633960 
# 
# From -- ./inp_files/123114.got.cif
#   From: 2010.06.25/outbox.cif.g09.slc.cpg/sg12_62_cif.got.tgz:123114.got - 2010.06.28 00:19:55.
