data_PCOD8082982
_publ_section_title
;
Structure prediction by ZEFSAII (Michael W. Deem and Ramdas Pophale) SiO2 
 PCOD8082982
Probable space group: C 2/M
;
_chemical_formula_sum "Si O2"
_cell_formula_units_Z 40
_cell_length_a 16.167504
_cell_length_b 16.730861
_cell_length_c 17.122891
_cell_angle_alpha 90.000000
_cell_angle_beta 153.486313
_cell_angle_gamma 90.000000
_cell_volume 2067.634724
_symmetry_space_group_name_H-M "C 2/M"
_symmetry_group_IT_number 12
_symmetry_cell_setting 'monoclinic'
loop_
_space_group_symop_operation_xyz
x,y,z
-x,y,-z
-x,-y,-z
x,-y,z
1/2+x,1/2+y,z
1/2-x,1/2+y,-z
1/2-x,1/2-y,-z
1/2+x,1/2-y,z
loop_
_atom_site_type_symbol
_atom_site_label
_atom_site_fract_x
_atom_site_fract_y
_atom_site_fract_z
Si Si1 0.893839 0.407608 0.636932
Si Si2 0.994835 0.907125 0.752439
Si Si3 0.260116 0.689795 0.936919
Si Si4 0.742947 0.839596 0.152225
Si Si5 0.858289 0.408069 0.781304
O O1 0.956147 0.500000 0.691126
O O2 0.726462 0.392969 0.434756
O O3 0.818841 0.382183 0.659133
O O4 0.067808 0.355138 0.758394
O O5 0.077371 0.863724 0.745617
O O6 0.044138 0.000000 0.788909
O O7 0.077427 0.872856 0.903728
O O8 0.303838 0.744819 0.898415
O O9 0.250000 0.750000 0.000000
O O10 0.768675 0.855935 0.266531
O O11 0.575156 0.894331 0.980248
O O12 0.807646 0.500000 0.752417
#
# Coordination Sequence:
#
# PCOD8082982 Si02
#       5
#     8   8   8   8   8
#     4  10  20  33  53  77 101 134 173 209 249 302
#     4  10  19  32  52  74 100 135 173 209 250 299
#     4  10  19  32  48  73 105 137 167 209 251 301
#     4  10  19  30  48  74 104 139 165 201 255 301
#     4  10  18  32  52  74 106 138 167 203 245 307
#
# _framework density 19.345777999999999
#
# number of rings (size 3 to 8) (size 9 to 14) (size 15 to 20)
#    0.000    2.000    4.000    3.000    0.000    4.000 
#    0.000    3.000    0.000    0.000    0.000   11.200 
#    0.000   12.800    0.000    0.000    0.000    0.000 
#
# Total GULP energy -247897.508481 kJ/mol
# GULP energy per Si atom -12394.875424 kJ/mol
# Density = 1.930175 g / cm^3
# Si number density = 19.345778 Si / 1000 Ang^3
#
#
#
# Elastic Constant Matrix: (Units=GPa)
#
#
# Indices 1 2 3 4 5 6 
#
# 1 49.0489 33.9963 17.0915 -0.0232 -7.8675 -0.0107
# 2 33.9963 81.9210 43.6153 -0.0332 -9.7097 -0.0183
# 3 17.0915 43.6153 93.9863 -0.0051 0.8951 -0.0107
# 4 -0.0232 -0.0332 -0.0051 19.6475 -0.0243 -6.2739
# 5 -7.8675 -9.7097 0.8951 -0.0243 13.4612 -0.0156
# 6 -0.0107 -0.0183 -0.0107 -6.2739 -0.0156 33.8490
#
#
#
# Elastic Compliance Matrix: (Units=1/GPa)
#
#
# Indices 1 2 3 4 5 6 
#
# 1 0.029645 -0.010979 -0.000386 0.000032 0.009433 0.000014
# 2 -0.010979 0.022564 -0.008574 0.000042 0.010429 0.000019
# 3 -0.000386 -0.008574 0.014759 -0.000023 -0.007391 -0.000008
# 4 0.000032 0.000042 -0.000023 0.054099 0.000160 0.010027
# 5 0.009433 0.010429 -0.007391 0.000160 0.087815 0.000076
# 6 0.000014 0.000019 -0.000008 0.010027 0.000076 0.031402
#
#
# Mechanical properties :
#
#
# Convention : Reuss Voigt Hill
#
# Bulk Modulus (GPa) = 36.91285 46.04026 41.47655
# Shear Modulus (GPa) = 17.28959 22.07508 19.68233
#
# Velocity S-wave (km/s) = 2.99275 3.38165 3.19313
# Velocity P-wave (km/s) = 5.57351 6.25282 5.92291
#
# Compressibility (1/GPa) = 0.02709084
#
# Stress axis : x y z
#
# Youngs Moduli (GPa) = 33.73265 44.31868 67.75443
#
# Poissons Ratio (x) = 0.48656 0.02615
# Poissons Ratio (y) = 0.37034 0.58091
# Poissons Ratio (z) = 0.01302 0.37998
#
# Static dielectric constant tensor:
#      x y z
#    x 3.462190 -0.000250 -0.248720 
#    y -0.000250 4.000050 0.000120 
#    z -0.248720 0.000120 3.595790 
# 
# 
# High freq. dielectric constant tensor:
#      x y z
#    x 1.704230 0.000000 0.001080 
#    y 0.000000 1.756120 0.000000 
#    z 0.001080 0.000000 1.750510 
# 
# From -- ./inp_files/284920.got.cif
#   From: 2010.06.25/outbox.cif.g09.slc.cpg/sg12_143_cif.got.tgz:284920.got - 2010.06.28 00:19:55.
