data_PCOD8082230
_publ_section_title
;
Structure prediction by ZEFSAII (Michael W. Deem and Ramdas Pophale) SiO2 
 PCOD8082230
Probable space group: C 2/M
;
_chemical_formula_sum "Si O2"
_cell_formula_units_Z 64
_cell_length_a 23.294218
_cell_length_b 9.029741
_cell_length_c 21.252543
_cell_angle_alpha 90.000000
_cell_angle_beta 51.505284
_cell_angle_gamma 90.000000
_cell_volume 3498.731045
_symmetry_space_group_name_H-M "C 2/M"
_symmetry_group_IT_number 12
_symmetry_cell_setting 'monoclinic'
loop_
_space_group_symop_operation_xyz
x,y,z
-x,y,-z
-x,-y,-z
x,-y,z
1/2+x,1/2+y,z
1/2-x,1/2+y,-z
1/2-x,1/2-y,-z
1/2+x,1/2-y,z
loop_
_atom_site_type_symbol
_atom_site_label
_atom_site_fract_x
_atom_site_fract_y
_atom_site_fract_z
Si Si1 0.835292 0.826242 0.090336
Si Si2 0.324629 0.826490 0.969487
Si Si3 0.929374 0.827973 0.262897
Si Si4 0.768413 0.827438 0.422710
Si Si5 0.116074 0.667360 0.824717
Si Si6 0.675591 0.171445 0.251019
Si Si7 0.719911 0.666486 0.338042
Si Si8 0.565361 0.171074 0.218156
O O1 0.888392 0.760899 0.107993
O O2 0.750637 0.791572 0.163399
O O3 0.850103 0.000000 0.073511
O O4 0.855654 0.744407 0.012080
O O5 0.384630 0.795136 0.875806
O O6 0.309765 0.000000 0.988819
O O7 0.250000 0.750000 0.000000
O O8 0.852867 0.795327 0.349298
O O9 0.935646 0.741993 0.192301
O O10 0.992930 0.770913 0.265559
O O11 0.939203 0.000000 0.241747
O O12 0.750000 0.750000 0.500000
O O13 0.715672 0.760652 0.404865
O O14 0.751371 0.000000 0.439673
O O15 0.088922 0.500000 0.855380
O O16 0.198381 0.670107 0.743822
O O17 0.667136 0.263443 0.321143
O O18 0.608596 0.215362 0.251787
O O19 0.674565 0.000000 0.270277
O O20 0.693707 0.500000 0.370202
O O21 0.542083 0.000000 0.235811
#
# Coordination Sequence:
#
# PCOD8082230 Si02
#       8
#     8   8   8   8   8   8   8   8
#     4  10  18  31  50  74 102 133 173 225 271 310
#     4  11  21  34  50  73 103 137 179 224 269 313
#     4  10  21  36  54  79 107 137 172 213 258 309
#     4  10  20  35  57  84 111 137 167 206 254 305
#     4   9  17  31  51  74 100 135 173 214 261 313
#     4   9  17  31  49  72 103 138 175 214 259 305
#     4   9  17  29  49  79 107 133 170 211 253 301
#     4  10  21  36  52  73 104 143 179 215 262 315
#
# _framework density 18.292346999999999
#
# number of rings (size 3 to 8) (size 9 to 14) (size 15 to 20)
#    0.000    2.250    1.250    2.250    0.000    6.500 
#    0.000    0.625    0.000    4.500    0.000    5.250 
#    0.000    0.000    0.000    0.000    0.000    0.000 
#
# Total GULP energy -396880.620153 kJ/mol
# GULP energy per Si atom -12402.519380 kJ/mol
# Density = 1.825071 g / cm^3
# Si number density = 18.292347 Si / 1000 Ang^3
#
#
#
# Elastic Constant Matrix: (Units=GPa)
#
#
# Indices 1 2 3 4 5 6 
#
# 1 118.5844 63.9083 47.4103 0.0002 25.5120 -0.0001
# 2 63.9083 128.8584 58.9948 0.0003 19.6444 -0.0010
# 3 47.4103 58.9948 69.8159 0.0000 31.0859 -0.0003
# 4 0.0002 0.0003 0.0000 29.4090 0.0000 8.6619
# 5 25.5120 19.6444 31.0859 0.0000 29.9302 0.0001
# 6 -0.0001 -0.0010 -0.0003 8.6619 0.0001 37.5059
#
#
#
# Elastic Compliance Matrix: (Units=1/GPa)
#
#
# Indices 1 2 3 4 5 6 
#
# 1 0.013063 -0.004394 -0.002761 0.000000 -0.005383 0.000000
# 2 -0.004394 0.014587 -0.012552 0.000000 0.007207 0.000000
# 3 -0.002761 -0.012552 0.041091 0.000000 -0.032086 0.000000
# 4 0.000000 0.000000 0.000000 0.036485 0.000000 -0.008426
# 5 -0.005383 0.007207 -0.032086 0.000000 0.066594 0.000000
# 6 0.000000 0.000000 0.000000 -0.008426 0.000000 0.028609
#
#
# Mechanical properties :
#
#
# Convention : Reuss Voigt Hill
#
# Bulk Modulus (GPa) = 34.09698 73.09839 53.59769
# Shear Modulus (GPa) = 20.03060 29.16535 24.59798
#
# Velocity S-wave (km/s) = 3.31271 3.99733 3.67101
# Velocity P-wave (km/s) = 5.77170 7.83280 6.87987
#
# Compressibility (1/GPa) = 0.02932811
#
# Stress axis : x y z
#
# Youngs Moduli (GPa) = 76.55382 68.55225 24.33617
#
# Poissons Ratio (x) = 0.30121 0.06719
# Poissons Ratio (y) = 0.33637 0.30546
# Poissons Ratio (z) = 0.21135 0.86045
#
# Static dielectric constant tensor:
#      x y z
#    x 3.337120 0.000000 0.389960 
#    y 0.000000 3.509790 0.000000 
#    z 0.389960 0.000000 2.958150 
# 
# 
# High freq. dielectric constant tensor:
#      x y z
#    x 1.707520 0.000000 0.028160 
#    y 0.000000 1.722480 0.000000 
#    z 0.028160 0.000000 1.676200 
# 
# From -- ./inp_files/295741.got.cif
#   From: 2010.06.25/outbox.cif.g09.slc.cpg/sg12_148_cif.got.tgz:295741.got - 2010.06.28 00:19:55.
