data_PCOD8082980
_publ_section_title
;
Structure prediction by ZEFSAII (Michael W. Deem and Ramdas Pophale) SiO2 
 PCOD8082980
Probable space group: C 2/M
;
_chemical_formula_sum "Si O2"
_cell_formula_units_Z 56
_cell_length_a 28.417671
_cell_length_b 8.898368
_cell_length_c 19.076347
_cell_angle_alpha 90.000000
_cell_angle_beta 42.114782
_cell_angle_gamma 90.000000
_cell_volume 3234.962709
_symmetry_space_group_name_H-M "C 2/M"
_symmetry_group_IT_number 12
_symmetry_cell_setting 'monoclinic'
loop_
_space_group_symop_operation_xyz
x,y,z
-x,y,-z
-x,-y,-z
x,-y,z
1/2+x,1/2+y,z
1/2-x,1/2+y,-z
1/2-x,1/2-y,-z
1/2+x,1/2-y,z
loop_
_atom_site_type_symbol
_atom_site_label
_atom_site_fract_x
_atom_site_fract_y
_atom_site_fract_z
Si Si1 0.860437 0.675314 0.886784
Si Si2 0.552976 0.678457 0.499555
Si Si3 0.252205 0.324856 0.103691
Si Si4 0.709042 0.326239 0.291157
Si Si5 0.638145 0.174035 0.614934
Si Si6 0.250636 0.328205 0.601219
Si Si7 0.991570 0.177837 0.299059
O O1 0.874944 0.500000 0.879340
O O2 0.817999 0.712217 0.862601
O O3 0.933075 0.761778 0.805185
O O4 0.817145 0.731881 0.001520
O O5 0.500000 0.744366 0.500000
O O6 0.549696 0.500000 0.504917
O O7 0.630966 0.732112 0.394648
O O8 0.530085 0.741333 0.600546
O O9 0.270609 0.500000 0.079293
O O10 0.241374 0.276184 0.195344
O O11 0.707930 0.500000 0.268183
O O12 0.756949 0.303531 0.307228
O O13 0.688541 0.222610 0.495749
O O14 0.676314 0.208559 0.646850
O O15 0.565634 0.265432 0.693863
O O16 0.620500 0.000000 0.625693
O O17 0.273522 0.500000 0.559962
O O18 0.993924 0.000000 0.295317
#
# Coordination Sequence:
#
# PCOD8082980 Si02
#       7
#     8   8   8   8   8   8   8
#     4  10  21  37  55  76 103 137 177 216 255 305
#     4   9  17  28  45  71 102 136 170 203 246 303
#     4  10  21  36  54  78 105 135 174 217 260 304
#     4  10  18  32  52  74 104 139 176 212 253 307
#     4  10  19  31  50  75 105 137 174 217 260 306
#     4   9  18  33  51  73 102 140 179 213 254 310
#     4  11  20  33  53  76 105 138 174 214 259 310
#
# _framework density 17.310865
#
# number of rings (size 3 to 8) (size 9 to 14) (size 15 to 20)
#    0.000    2.143    1.429    2.571    0.000    4.000 
#    0.000    0.000    0.000    3.857    0.000    6.000 
#    0.000    0.000    0.000    0.000    0.000    0.000 
#
# Total GULP energy -347270.455185 kJ/mol
# GULP energy per Si atom -12402.516257 kJ/mol
# Density = 1.727146 g / cm^3
# Si number density = 17.310865 Si / 1000 Ang^3
#
#
#
# Elastic Constant Matrix: (Units=GPa)
#
#
# Indices 1 2 3 4 5 6 
#
# 1 119.3933 41.9771 58.4171 -0.0018 -4.1284 0.0038
# 2 41.9771 66.0954 35.6726 0.0214 -7.6820 -0.0123
# 3 58.4171 35.6726 89.5980 -0.0106 -3.2480 0.0145
# 4 -0.0018 0.0214 -0.0106 30.5681 -0.0015 -1.3734
# 5 -4.1284 -7.6820 -3.2480 -0.0015 24.1229 -0.0012
# 6 0.0038 -0.0123 0.0145 -1.3734 -0.0012 26.2392
#
#
#
# Elastic Compliance Matrix: (Units=1/GPa)
#
#
# Indices 1 2 3 4 5 6 
#
# 1 0.013414 -0.004860 -0.006817 0.000002 -0.000170 0.000000
# 2 -0.004860 0.021684 -0.005270 -0.000016 0.005364 0.000013
# 3 -0.006817 -0.005270 0.017687 0.000009 -0.000464 -0.000011
# 4 0.000002 -0.000016 0.000009 0.032791 -0.000002 0.001716
# 5 -0.000170 0.005364 -0.000464 -0.000002 0.043071 0.000005
# 6 0.000000 0.000013 -0.000011 0.001716 0.000005 0.038201
#
#
# Mechanical properties :
#
#
# Convention : Reuss Voigt Hill
#
# Bulk Modulus (GPa) = 52.93567 60.80227 56.86897
# Shear Modulus (GPa) = 24.15006 25.45404 24.80205
#
# Velocity S-wave (km/s) = 3.73913 3.83875 3.78927
# Velocity P-wave (km/s) = 7.02049 7.40594 7.21579
#
# Compressibility (1/GPa) = 0.01889085
#
# Stress axis : x y z
#
# Youngs Moduli (GPa) = 74.54983 46.11707 56.53810
#
# Poissons Ratio (x) = 0.22411 0.38542
# Poissons Ratio (y) = 0.36228 0.29798
# Poissons Ratio (z) = 0.50821 0.24306
#
# Static dielectric constant tensor:
#      x y z
#    x 3.414990 -0.000020 0.026810 
#    y -0.000020 3.154130 0.000020 
#    z 0.026810 0.000020 3.048590 
# 
# 
# High freq. dielectric constant tensor:
#      x y z
#    x 1.672380 0.000000 -0.000590 
#    y 0.000000 1.665000 0.000000 
#    z -0.000590 0.000000 1.648630 
# 
# From -- ./inp_files/288250.got.cif
#   From: 2010.06.25/outbox.cif.g09.slc.cpg/sg12_145_cif.got.tgz:288250.got - 2010.06.28 00:19:55.
