data_PCOD8082943
_publ_section_title
;
Structure prediction by ZEFSAII (Michael W. Deem and Ramdas Pophale) SiO2 
 PCOD8082943
Probable space group: C 2/M
;
_chemical_formula_sum "Si O2"
_cell_formula_units_Z 64
_cell_length_a 9.710001
_cell_length_b 19.045713
_cell_length_c 20.404640
_cell_angle_alpha 90.000000
_cell_angle_beta 58.303746
_cell_angle_gamma 90.000000
_cell_volume 3210.673434
_symmetry_space_group_name_H-M "C 2/M"
_symmetry_group_IT_number 12
_symmetry_cell_setting 'monoclinic'
loop_
_space_group_symop_operation_xyz
x,y,z
-x,y,-z
-x,-y,-z
x,-y,z
1/2+x,1/2+y,z
1/2-x,1/2+y,-z
1/2-x,1/2-y,-z
1/2+x,1/2-y,z
loop_
_atom_site_type_symbol
_atom_site_label
_atom_site_fract_x
_atom_site_fract_y
_atom_site_fract_z
Si Si1 0.610354 0.076284 0.910433
Si Si2 0.018997 0.819762 0.683229
Si Si3 0.384519 0.168581 0.584383
Si Si4 0.894674 0.583685 0.843177
Si Si5 0.877907 0.816412 0.852658
Si Si6 0.623917 0.691279 0.909891
Si Si7 0.614619 0.666933 0.415451
Si Si8 0.977861 0.655181 0.318266
O O1 0.509919 0.109406 0.874324
O O2 0.753945 0.123233 0.903024
O O3 0.677112 0.000000 0.871727
O O4 0.500000 0.066267 0.000000
O O5 0.963574 0.848969 0.766783
O O6 0.913777 0.856530 0.652639
O O7 0.995166 0.736972 0.702135
O O8 0.197465 0.841251 0.615335
O O9 0.500000 0.134258 0.500000
O O10 0.425904 0.250687 0.577882
O O11 0.415726 0.131217 0.646309
O O12 0.873967 0.500000 0.848909
O O13 0.714177 0.616464 0.895418
O O14 0.977147 0.608685 0.755252
O O15 0.770968 0.746559 0.869399
O O16 0.018572 0.804409 0.870305
O O17 0.500000 0.706188 0.000000
O O18 0.500000 0.632519 0.500000
O O19 0.794370 0.644132 0.387874
#
# Coordination Sequence:
#
# PCOD8082943 Si02
#       8
#     8   8   8   8   8   8   8   8
#     4  10  22  41  62  84 114 153 193 237 289 343
#     4  10  19  29  51  77 112 145 180 228 282 332
#     4   9  17  29  47  76 109 144 179 224 278 332
#     4  11  23  40  61  83 113 153 197 239 287 347
#     4  12  23  37  61  87 120 151 190 238 288 349
#     4  12  25  40  60  87 116 151 192 239 294 343
#     4   9  17  28  48  78 109 143 179 226 276 332
#     4  10  18  32  51  73 110 142 184 230 278 334
#
# _framework density 19.933513000000001
#
# number of rings (size 3 to 8) (size 9 to 14) (size 15 to 20)
#    0.000    1.625    1.250    4.500    3.500    3.750 
#    0.000    0.000    0.000    0.750    0.000    1.750 
#    0.000    0.000    0.000    0.000    0.000    0.000 
#
# Total GULP energy -396580.542317 kJ/mol
# GULP energy per Si atom -12393.141947 kJ/mol
# Density = 1.988814 g / cm^3
# Si number density = 19.933513 Si / 1000 Ang^3
#
#
#
# Elastic Constant Matrix: (Units=GPa)
#
#
# Indices 1 2 3 4 5 6 
#
# 1 99.2781 30.5977 9.1023 0.0000 14.7106 0.0000
# 2 30.5977 53.3105 7.0988 0.0000 -5.7412 0.0000
# 3 9.1023 7.0988 102.0464 0.0000 4.6353 0.0000
# 4 0.0000 0.0000 0.0000 12.2975 0.0000 10.5368
# 5 14.7106 -5.7412 4.6353 0.0000 36.0463 0.0000
# 6 0.0000 0.0000 0.0000 10.5368 0.0000 -6.8717
#
#
#
# Elastic Compliance Matrix: (Units=1/GPa)
#
#
# Indices 1 2 3 4 5 6 
#
# 1 0.013791 -0.008623 -0.000314 0.000000 -0.006961 0.000000
# 2 -0.008623 0.024700 -0.001295 0.000000 0.007620 0.000000
# 3 -0.000314 -0.001295 0.009979 0.000000 -0.001361 0.000000
# 4 0.000000 0.000000 0.000000 0.035144 0.000000 0.053889
# 5 -0.006961 0.007620 -0.001361 0.000000 0.031972 0.000000
# 6 0.000000 0.000000 0.000000 0.053889 0.000000 -0.062894
#
#
# Mechanical properties :
#
#
# Convention : Reuss Voigt Hill
#
# Bulk Modulus (GPa) = 35.70689 38.69249 37.19969
# Shear Modulus (GPa) = 60.61183 22.15016 41.38100
#
# Velocity S-wave (km/s) = 5.52024 3.33709 4.56120
# Velocity P-wave (km/s) = 7.65392 5.85671 6.81482
#
# Compressibility (1/GPa) = 0.02800580
#
# Stress axis : x y z
#
# Youngs Moduli (GPa) = 72.51331 40.48536 100.20622
#
# Poissons Ratio (x) = 0.34910 0.03147
# Poissons Ratio (y) = 0.62528 0.12979
# Poissons Ratio (z) = 0.02277 0.05244
#
# Static dielectric constant tensor:
#      x y z
#    x 3.769940 0.000000 0.106920 
#    y 0.000000 3.249750 0.000000 
#    z 0.106920 0.000000 3.772530 
# 
# 
# High freq. dielectric constant tensor:
#      x y z
#    x 1.791630 0.000000 0.003890 
#    y 0.000000 1.720250 0.000000 
#    z 0.003890 0.000000 1.798300 
# 
# From -- ./inp_files/301721.got.cif
#   From: 2010.06.25/outbox.cif.g09.slc.cpg/sg12_151_cif.got.tgz:301721.got - 2010.06.28 00:19:55.
