data_PCOD8082191
_publ_section_title
;
Structure prediction by ZEFSAII (Michael W. Deem and Ramdas Pophale) SiO2 
 PCOD8082191
Probable space group: C 2/M
;
_chemical_formula_sum "Si O2"
_cell_formula_units_Z 64
_cell_length_a 23.149160
_cell_length_b 9.180929
_cell_length_c 19.670429
_cell_angle_alpha 90.000000
_cell_angle_beta 58.789173
_cell_angle_gamma 90.000000
_cell_volume 3575.502491
_symmetry_space_group_name_H-M "C 2/M"
_symmetry_group_IT_number 12
_symmetry_cell_setting 'monoclinic'
loop_
_space_group_symop_operation_xyz
x,y,z
-x,y,-z
-x,-y,-z
x,-y,z
1/2+x,1/2+y,z
1/2-x,1/2+y,-z
1/2-x,1/2-y,-z
1/2+x,1/2-y,z
loop_
_atom_site_type_symbol
_atom_site_label
_atom_site_fract_x
_atom_site_fract_y
_atom_site_fract_z
Si Si1 0.561101 0.333619 0.762209
Si Si2 0.319008 0.833843 0.597600
Si Si3 0.459599 0.330953 0.708105
Si Si4 0.962945 0.667647 0.453436
Si Si5 0.195309 0.334704 0.833901
Si Si6 0.809790 0.663147 0.324664
Si Si7 0.671694 0.171584 0.251464
Si Si8 0.437035 0.329433 0.083549
O O1 0.585027 0.500000 0.744230
O O2 0.492982 0.307901 0.761493
O O3 0.622031 0.241200 0.692085
O O4 0.546098 0.287940 0.848903
O O5 0.383048 0.807872 0.510450
O O6 0.257412 0.739552 0.605395
O O7 0.338480 0.790999 0.662856
O O8 0.294827 0.000000 0.611419
O O9 0.443980 0.500000 0.703059
O O10 0.511966 0.273634 0.620357
O O11 0.390941 0.239702 0.750554
O O12 0.979985 0.500000 0.424432
O O13 0.000000 0.711279 0.500000
O O14 0.199294 0.500000 0.858683
O O15 0.193087 0.330245 0.754398
O O16 0.260475 0.245063 0.819296
O O17 0.128221 0.257766 0.903620
O O18 0.811228 0.500000 0.352289
O O19 0.674835 0.000000 0.235966
O O20 0.421960 0.500000 0.084270
O O21 0.500000 0.279124 0.000000
#
# Coordination Sequence:
#
# PCOD8082191 Si02
#       8
#     8   8   8   8   8   8   8   8
#     4   9  19  35  51  71 102 133 162 198 245 299
#     4   9  17  30  49  69  93 125 162 208 255 291
#     4  11  22  33  48  72 101 133 165 204 253 297
#     4  10  19  34  50  69  96 129 171 211 250 294
#     4   9  17  29  47  76 107 129 157 203 252 291
#     4   9  17  29  48  72  96 124 163 206 245 292
#     4  10  18  31  50  71  97 132 171 207 244 290
#     4   9  17  32  56  81 102 130 166 200 239 293
#
# _framework density 17.899581999999999
#
# number of rings (size 3 to 8) (size 9 to 14) (size 15 to 20)
#    0.000    2.500    1.250    1.500    0.000    5.500 
#    0.000    0.625    0.000    0.750    0.000    0.000 
#    0.000    0.000    0.000    0.000    0.000    0.000 
#
# Total GULP energy -396844.726824 kJ/mol
# GULP energy per Si atom -12401.397713 kJ/mol
# Density = 1.785884 g / cm^3
# Si number density = 17.899582 Si / 1000 Ang^3
#
#
#
# Elastic Constant Matrix: (Units=GPa)
#
#
# Indices 1 2 3 4 5 6 
#
# 1 106.4749 64.7935 47.2848 -0.0001 -25.6880 0.0002
# 2 64.7935 109.8655 42.6344 -0.0004 -19.7909 0.0011
# 3 47.2848 42.6344 70.6936 -0.0001 -22.6610 0.0001
# 4 -0.0001 -0.0004 -0.0001 21.9500 0.0001 -9.4077
# 5 -25.6880 -19.7909 -22.6610 0.0001 27.4795 0.0000
# 6 0.0002 0.0011 0.0001 -9.4077 0.0000 33.1092
#
#
#
# Elastic Compliance Matrix: (Units=1/GPa)
#
#
# Indices 1 2 3 4 5 6 
#
# 1 0.017838 -0.007171 -0.005324 0.000000 0.007120 0.000000
# 2 -0.007171 0.015034 -0.004008 0.000000 0.000819 0.000000
# 3 -0.005324 -0.004008 0.023928 0.000000 0.011869 0.000000
# 4 0.000000 0.000000 0.000000 0.051876 0.000000 0.014740
# 5 0.007120 0.000819 0.011869 0.000000 0.053424 0.000000
# 6 0.000000 0.000000 0.000000 0.014740 0.000000 0.034391
#
#
# Mechanical properties :
#
#
# Convention : Reuss Voigt Hill
#
# Bulk Modulus (GPa) = 42.02711 66.27327 54.15019
# Shear Modulus (GPa) = 21.05891 25.32915 23.19403
#
# Velocity S-wave (km/s) = 3.43374 3.76582 3.60361
# Velocity P-wave (km/s) = 6.26507 7.48425 6.90163
#
# Compressibility (1/GPa) = 0.02379417
#
# Stress axis : x y z
#
# Youngs Moduli (GPa) = 56.06005 66.51529 41.79148
#
# Poissons Ratio (x) = 0.47701 0.22250
# Poissons Ratio (y) = 0.40203 0.16749
# Poissons Ratio (z) = 0.29847 0.26657
#
# Static dielectric constant tensor:
#      x y z
#    x 3.287120 0.000000 -0.210380 
#    y 0.000000 3.404000 0.000000 
#    z -0.210380 0.000000 3.059270 
# 
# 
# High freq. dielectric constant tensor:
#      x y z
#    x 1.689290 0.000000 -0.026200 
#    y 0.000000 1.699290 0.000000 
#    z -0.026200 0.000000 1.658140 
# 
# From -- ./inp_files/319856.got.cif
#   From: 2010.06.25/outbox.cif.g09.slc.cpg/sg12_160_cif.got.tgz:319856.got - 2010.06.28 00:19:55.
