data_PCOD8082851
_publ_section_title
;
Structure prediction by ZEFSAII (Michael W. Deem and Ramdas Pophale) SiO2 
 PCOD8082851
Probable space group: C 2/M
;
_chemical_formula_sum "Si O2"
_cell_formula_units_Z 56
_cell_length_a 13.941352
_cell_length_b 19.414489
_cell_length_c 13.308894
_cell_angle_alpha 90.000000
_cell_angle_beta 119.093009
_cell_angle_gamma 90.000000
_cell_volume 3147.752283
_symmetry_space_group_name_H-M "C 2/M"
_symmetry_group_IT_number 12
_symmetry_cell_setting 'monoclinic'
loop_
_space_group_symop_operation_xyz
x,y,z
-x,y,-z
-x,-y,-z
x,-y,z
1/2+x,1/2+y,z
1/2-x,1/2+y,-z
1/2-x,1/2-y,-z
1/2+x,1/2-y,z
loop_
_atom_site_type_symbol
_atom_site_label
_atom_site_fract_x
_atom_site_fract_y
_atom_site_fract_z
Si Si1 0.522446 0.581623 0.674432
Si Si2 0.103623 0.664419 0.836925
Si Si3 0.665066 0.418920 0.561258
Si Si4 0.032028 0.816063 0.856271
Si Si5 0.396546 0.919238 0.743615
Si Si6 0.122914 0.339730 0.066968
Si Si7 0.173140 0.193941 0.122154
O O1 0.530391 0.500000 0.700662
O O2 0.400403 0.603424 0.572524
O O3 0.607343 0.607832 0.633177
O O4 0.554064 0.622822 0.789757
O O5 0.057640 0.741876 0.821472
O O6 0.206163 0.658392 0.811778
O O7 0.002725 0.617153 0.749413
O O8 0.148446 0.634566 0.967145
O O9 0.657765 0.500000 0.565483
O O10 0.791967 0.394977 0.623930
O O11 0.903155 0.822757 0.821433
O O12 0.112315 0.829831 0.989963
O O13 0.374190 0.900123 0.849325
O O14 0.415578 0.000000 0.748363
O O15 0.200758 0.275878 0.134497
O O16 0.000000 0.306462 0.000000
#
# Coordination Sequence:
#
# PCOD8082851 Si02
#       7
#     8   8   8   8   8   8   8
#     4   9  18  33  53  77  98 128 171 216 261 300
#     4  10  20  30  48  73 104 140 166 205 250 309
#     4   8  17  33  53  76 100 125 164 216 270 307
#     4  10  18  32  53  72  98 138 173 207 251 302
#     4  10  19  32  51  76 103 132 168 215 261 299
#     4   9  15  29  47  70  99 132 169 203 245 300
#     4  10  18  32  47  74 103 136 174 195 249 312
#
# _framework density 17.790472000000001
#
# number of rings (size 3 to 8) (size 9 to 14) (size 15 to 20)
#    0.000    2.571    4.286    2.571    4.000    2.571 
#    0.000    3.571    0.000    0.857    0.000    3.000 
#    0.000    0.000    0.000    0.000    0.000    0.000 
#
# Total GULP energy -346923.299253 kJ/mol
# GULP energy per Si atom -12390.117830 kJ/mol
# Density = 1.774998 g / cm^3
# Si number density = 17.790472 Si / 1000 Ang^3
#
#
#
# Elastic Constant Matrix: (Units=GPa)
#
#
# Indices 1 2 3 4 5 6 
#
# 1 104.8026 25.2511 19.3194 0.0000 20.1396 0.0000
# 2 25.2511 61.2707 31.0931 0.0000 8.3586 0.0000
# 3 19.3194 31.0931 44.5463 0.0000 8.0111 0.0000
# 4 0.0000 0.0000 0.0000 15.1560 0.0000 3.7955
# 5 20.1396 8.3586 8.0111 0.0000 26.2270 0.0000
# 6 0.0000 0.0000 0.0000 3.7955 0.0000 18.1222
#
#
#
# Elastic Compliance Matrix: (Units=1/GPa)
#
#
# Indices 1 2 3 4 5 6 
#
# 1 0.012089 -0.003050 -0.001713 0.000000 -0.007788 0.000000
# 2 -0.003050 0.026242 -0.016836 0.000000 -0.000878 0.000000
# 3 -0.001713 -0.016836 0.035702 0.000000 -0.004224 0.000000
# 4 0.000000 0.000000 0.000000 0.069633 0.000000 -0.014584
# 5 -0.007788 -0.000878 -0.004224 0.000000 0.045679 0.000000
# 6 0.000000 0.000000 0.000000 -0.014584 0.000000 0.058235
#
#
# Mechanical properties :
#
#
# Convention : Reuss Voigt Hill
#
# Bulk Modulus (GPa) = 32.43114 40.21633 36.32373
# Shear Modulus (GPa) = 16.60816 20.89811 18.75313
#
# Velocity S-wave (km/s) = 3.05871 3.43108 3.25023
# Velocity P-wave (km/s) = 5.54467 6.19282 5.87768
#
# Compressibility (1/GPa) = 0.03083457
#
# Stress axis : x y z
#
# Youngs Moduli (GPa) = 82.71947 38.10752 28.00926
#
# Poissons Ratio (x) = 0.11624 0.04799
# Poissons Ratio (y) = 0.25232 0.47155
# Poissons Ratio (z) = 0.14172 0.64156
#
# Static dielectric constant tensor:
#      x y z
#    x 3.577940 0.000000 0.312310 
#    y 0.000000 2.960160 0.000000 
#    z 0.312310 0.000000 3.314020 
# 
# 
# High freq. dielectric constant tensor:
#      x y z
#    x 1.691480 0.000000 0.020390 
#    y 0.000000 1.658500 0.000000 
#    z 0.020390 0.000000 1.657510 
# 
# From -- ./inp_files/216007.got.cif
#   From: 2010.06.25/outbox.cif.g09.slc.cpg/sg12_109_cif.got.tgz:216007.got - 2010.06.28 00:19:55.
