data_PCOD8082618
_publ_section_title
;
Structure prediction by ZEFSAII (Michael W. Deem and Ramdas Pophale) SiO2 
 PCOD8082618
Probable space group: C 2/M
;
_chemical_formula_sum "Si O2"
_cell_formula_units_Z 56
_cell_length_a 30.441500
_cell_length_b 8.710615
_cell_length_c 11.848065
_cell_angle_alpha 90.000000
_cell_angle_beta 118.148720
_cell_angle_gamma 90.000000
_cell_volume 2770.103267
_symmetry_space_group_name_H-M "C 2/M"
_symmetry_group_IT_number 12
_symmetry_cell_setting 'monoclinic'
loop_
_space_group_symop_operation_xyz
x,y,z
-x,y,-z
-x,-y,-z
x,-y,z
1/2+x,1/2+y,z
1/2-x,1/2+y,-z
1/2-x,1/2-y,-z
1/2+x,1/2-y,z
loop_
_atom_site_type_symbol
_atom_site_label
_atom_site_fract_x
_atom_site_fract_y
_atom_site_fract_z
Si Si1 0.836936 0.682701 0.364321
Si Si2 0.246204 0.318342 0.121743
Si Si3 0.943841 0.819251 0.908093
Si Si4 0.362539 0.174138 0.962670
Si Si5 0.508930 0.170574 0.379881
Si Si6 0.402040 0.678592 0.620487
Si Si7 0.596240 0.175438 0.752701
O O1 0.832262 0.500000 0.356692
O O2 0.785653 0.753127 0.258616
O O3 0.852608 0.738481 0.509392
O O4 0.879565 0.746679 0.330568
O O5 0.252024 0.500000 0.115383
O O6 0.194663 0.276818 0.125462
O O7 0.250000 0.250000 0.000000
O O8 0.904153 0.780766 0.956972
O O9 0.919309 0.753642 0.762857
O O10 0.949324 0.000000 0.903863
O O11 0.000000 0.751172 0.000000
O O12 0.373192 0.000000 0.936291
O O13 0.364731 0.191579 0.100124
O O14 0.500000 0.156406 0.500000
O O15 0.552091 0.290403 0.406947
O O16 0.456940 0.244127 0.270507
O O17 0.521626 0.000000 0.345156
O O18 0.389722 0.500000 0.613481
O O19 0.583926 0.000000 0.707797
#
# Coordination Sequence:
#
# PCOD8082618 Si02
#       7
#     8   8   8   8   8   8   8
#     4  11  21  38  60  85 120 158 198 244 302 362
#     4  11  22  38  61  93 128 161 200 250 304 360
#     4  10  23  43  63  86 121 161 203 253 303 356
#     4  10  21  38  61  88 119 155 203 251 293 354
#     4  10  18  31  53  80 113 153 192 235 292 361
#     4  11  23  38  56  84 121 157 200 253 305 363
#     4   9  17  32  53  82 117 150 188 240 294 349
#
# _framework density 20.215852999999999
#
# number of rings (size 3 to 8) (size 9 to 14) (size 15 to 20)
#    0.000    1.714    2.857    2.143    0.000    2.857 
#    0.000    0.714    0.000    0.000    0.000    0.000 
#    0.000    0.000    0.000    0.000    0.000    0.000 
#
# Total GULP energy -346914.746066 kJ/mol
# GULP energy per Si atom -12389.812359 kJ/mol
# Density = 2.016984 g / cm^3
# Si number density = 20.215853 Si / 1000 Ang^3
#
#
#
# Elastic Constant Matrix: (Units=GPa)
#
#
# Indices 1 2 3 4 5 6 
#
# 1 91.7893 26.8615 51.8248 0.0000 16.8743 0.0000
# 2 26.8615 51.5248 30.1966 0.0000 7.9217 0.0000
# 3 51.8248 30.1966 135.7428 0.0000 25.0424 0.0000
# 4 0.0000 0.0000 0.0000 26.0994 0.0000 11.9696
# 5 16.8743 7.9217 25.0424 0.0000 35.5462 0.0000
# 6 0.0000 0.0000 0.0000 11.9696 0.0000 1.5841
#
#
#
# Elastic Compliance Matrix: (Units=1/GPa)
#
#
# Indices 1 2 3 4 5 6 
#
# 1 0.015295 -0.005064 -0.004117 0.000000 -0.003232 0.000000
# 2 -0.005064 0.024084 -0.003307 0.000000 -0.000633 0.000000
# 3 -0.004117 -0.003307 0.010549 0.000000 -0.004740 0.000000
# 4 0.000000 0.000000 0.000000 -0.015542 0.000000 0.117434
# 5 -0.003232 -0.000633 -0.004740 0.000000 0.033147 0.000000
# 6 0.000000 0.000000 0.000000 0.117434 0.000000 -0.256061
#
#
# Mechanical properties :
#
#
# Convention : Reuss Voigt Hill
#
# Bulk Modulus (GPa) = 40.07801 55.20253 47.64027
# Shear Modulus (GPa) = -32.20932 23.99087 -4.10922
#
# Velocity S-wave (km/s) = -3.99591 3.44864 -1.42727
# Velocity P-wave (km/s) = 1.19233 6.57444 4.57174
#
# Compressibility (1/GPa) = 0.02495134
#
# Stress axis : x y z
#
# Youngs Moduli (GPa) = 65.38109 41.52149 94.79768
#
# Poissons Ratio (x) = 0.21028 0.39024
# Poissons Ratio (y) = 0.33111 0.31352
# Poissons Ratio (z) = 0.26915 0.13732
#
# Static dielectric constant tensor:
#      x y z
#    x 3.724170 0.000000 0.409840 
#    y 0.000000 3.432470 0.000000 
#    z 0.409840 0.000000 4.081730 
# 
# 
# High freq. dielectric constant tensor:
#      x y z
#    x 1.778030 0.000000 0.022760 
#    y 0.000000 1.764840 0.000000 
#    z 0.022760 0.000000 1.802880 
# 
# From -- ./inp_files/187720.got.cif
#   From: 2010.06.25/outbox.cif.g09.slc.cpg/sg12_94_cif.got.tgz:187720.got - 2010.06.28 00:19:55.
