data_PCOD8082183
_publ_section_title
;
Structure prediction by ZEFSAII (Michael W. Deem and Ramdas Pophale) SiO2 
 PCOD8082183
Probable space group: C 2/M
;
_chemical_formula_sum "Si O2"
_cell_formula_units_Z 64
_cell_length_a 24.570826
_cell_length_b 17.479306
_cell_length_c 11.422877
_cell_angle_alpha 90.000000
_cell_angle_beta 128.184443
_cell_angle_gamma 90.000000
_cell_volume 3856.165610
_symmetry_space_group_name_H-M "C 2/M"
_symmetry_group_IT_number 12
_symmetry_cell_setting 'monoclinic'
loop_
_space_group_symop_operation_xyz
x,y,z
-x,y,-z
-x,-y,-z
x,-y,z
1/2+x,1/2+y,z
1/2-x,1/2+y,-z
1/2-x,1/2-y,-z
1/2+x,1/2-y,z
loop_
_atom_site_type_symbol
_atom_site_label
_atom_site_fract_x
_atom_site_fract_y
_atom_site_fract_z
Si Si1 0.343111 0.086731 0.623390
Si Si2 0.303925 0.811374 0.357027
Si Si3 0.217586 0.333296 0.234387
Si Si4 0.330401 0.586925 0.239544
Si Si5 0.499498 0.086245 0.129880
Si Si6 0.729319 0.086548 0.897609
Si Si7 0.381344 0.168076 0.105763
Si Si8 0.081034 0.231179 0.632291
O O1 0.309426 0.132456 0.472987
O O2 0.325887 0.126327 0.722852
O O3 0.424935 0.087145 0.713806
O O4 0.314583 0.000000 0.584871
O O5 0.257187 0.740553 0.336207
O O6 0.264008 0.855889 0.201352
O O7 0.378391 0.781086 0.411059
O O8 0.272324 0.394661 0.258774
O O9 0.166083 0.303983 0.064524
O O10 0.355966 0.500000 0.291364
O O11 0.395958 0.642601 0.342424
O O12 0.297017 0.598725 0.067243
O O13 0.452792 0.134794 0.154155
O O14 0.469589 0.000000 0.081996
O O15 0.500000 0.122027 0.000000
O O16 0.659259 0.102834 0.876693
O O17 0.724700 0.000000 0.844915
O O18 0.399541 0.239380 0.212667
O O19 0.000000 0.238100 0.500000
#
# Coordination Sequence:
#
# PCOD8082183 Si02
#       8
#     8   8   8   8   8   8   8   8
#     4  11  21  32  48  69  96 127 159 192 229 273
#     4  10  20  33  47  69  98 125 155 191 232 280
#     4  10  19  32  50  70  93 123 158 195 235 272
#     4   9  18  32  51  73  93 117 156 199 236 275
#     4  10  19  30  45  68  96 123 154 189 223 266
#     4   9  17  30  50  72  96 124 153 188 232 278
#     4  10  18  31  50  71  96 125 156 190 228 273
#     4  10  20  33  49  69  96 126 154 190 236 281
#
# _framework density 16.596796999999999
#
# number of rings (size 3 to 8) (size 9 to 14) (size 15 to 20)
#    0.000    2.125    1.250    3.000    0.000    4.250 
#    0.000    0.000    0.000    6.000    0.000    0.000 
#    0.000    0.500    0.000    1.750    0.000    0.000 
#
# Total GULP energy -396819.253501 kJ/mol
# GULP energy per Si atom -12400.601672 kJ/mol
# Density = 1.655902 g / cm^3
# Si number density = 16.596797 Si / 1000 Ang^3
#
#
#
# Elastic Constant Matrix: (Units=GPa)
#
#
# Indices 1 2 3 4 5 6 
#
# 1 63.2587 33.6143 23.8184 0.0000 1.2287 0.0000
# 2 33.6143 98.0284 36.4248 0.0000 -0.5896 0.0000
# 3 23.8184 36.4248 72.1426 0.0000 -2.5365 0.0000
# 4 0.0000 0.0000 0.0000 28.4368 0.0000 -2.1090
# 5 1.2287 -0.5896 -2.5365 0.0000 25.9690 0.0000
# 6 0.0000 0.0000 0.0000 -2.1090 0.0000 19.9768
#
#
#
# Elastic Compliance Matrix: (Units=1/GPa)
#
#
# Indices 1 2 3 4 5 6 
#
# 1 0.020240 -0.005474 -0.003970 0.000000 -0.001470 0.000000
# 2 -0.005474 0.014040 -0.005279 0.000000 0.000062 0.000000
# 3 -0.003970 -0.005279 0.017902 0.000000 0.001817 0.000000
# 4 0.000000 0.000000 0.000000 0.035443 0.000000 0.003742
# 5 -0.001470 0.000062 0.001817 0.000000 0.038756 0.000000
# 6 0.000000 0.000000 0.000000 0.003742 0.000000 0.050453
#
#
# Mechanical properties :
#
#
# Convention : Reuss Voigt Hill
#
# Bulk Modulus (GPa) = 43.98563 46.79386 45.38974
# Shear Modulus (GPa) = 23.37974 24.18134 23.78054
#
# Velocity S-wave (km/s) = 3.75732 3.82119 3.78939
# Velocity P-wave (km/s) = 6.73671 6.90829 6.82304
#
# Compressibility (1/GPa) = 0.02273470
#
# Stress axis : x y z
#
# Youngs Moduli (GPa) = 49.40621 71.22357 55.86055
#
# Poissons Ratio (x) = 0.38988 0.22178
# Poissons Ratio (y) = 0.27045 0.29491
# Poissons Ratio (z) = 0.19616 0.37602
#
# Static dielectric constant tensor:
#      x y z
#    x 3.014420 0.000000 -0.046360 
#    y 0.000000 3.133670 0.000000 
#    z -0.046360 0.000000 3.023190 
# 
# 
# High freq. dielectric constant tensor:
#      x y z
#    x 1.629810 0.000000 -0.005210 
#    y 0.000000 1.639620 0.000000 
#    z -0.005210 0.000000 1.635190 
# 
# From -- ./inp_files/167305.got.cif
#   From: 2010.06.25/outbox.cif.g09.slc.cpg/sg12_84_cif.got.tgz:167305.got - 2010.06.28 00:19:55.
