data_PCOD8082621
_publ_section_title
;
Structure prediction by ZEFSAII (Michael W. Deem and Ramdas Pophale) SiO2 
 PCOD8082621
Probable space group: C 2/M
;
_chemical_formula_sum "Si O2"
_cell_formula_units_Z 56
_cell_length_a 27.826935
_cell_length_b 9.135609
_cell_length_c 12.168682
_cell_angle_alpha 90.000000
_cell_angle_beta 108.941952
_cell_angle_gamma 90.000000
_cell_volume 2925.955644
_symmetry_space_group_name_H-M "C 2/M"
_symmetry_group_IT_number 12
_symmetry_cell_setting 'monoclinic'
loop_
_space_group_symop_operation_xyz
x,y,z
-x,y,-z
-x,-y,-z
x,-y,z
1/2+x,1/2+y,z
1/2-x,1/2+y,-z
1/2-x,1/2-y,-z
1/2+x,1/2-y,z
loop_
_atom_site_type_symbol
_atom_site_label
_atom_site_fract_x
_atom_site_fract_y
_atom_site_fract_z
Si Si1 0.249875 0.172514 0.381577
Si Si2 0.640247 0.327833 0.254994
Si Si3 0.398895 0.336209 0.552588
Si Si4 0.088356 0.330459 0.823931
Si Si5 0.558306 0.674300 0.021367
Si Si6 0.849866 0.670735 0.331916
Si Si7 0.989515 0.837870 0.366372
O O1 0.250000 0.250000 0.500000
O O2 0.199067 0.209029 0.271678
O O3 0.295475 0.227995 0.336076
O O4 0.253432 0.000000 0.407262
O O5 0.630009 0.500000 0.249725
O O6 0.634471 0.265474 0.374681
O O7 0.598054 0.261495 0.141003
O O8 0.380909 0.500000 0.510180
O O9 0.394122 0.245705 0.436653
O O10 0.455027 0.336906 0.647061
O O11 0.086043 0.500000 0.856290
O O12 0.139772 0.295439 0.790373
O O13 0.042095 0.292858 0.709098
O O14 0.082310 0.231367 0.926097
O O15 0.558361 0.500000 0.016033
O O16 0.500000 0.729435 0.000000
O O17 0.854905 0.500000 0.355992
O O18 0.000000 0.805626 0.500000
O O19 0.964197 0.000000 0.330839
#
# Coordination Sequence:
#
# PCOD8082621 Si02
#       7
#     8   8   8   8   8   8   8
#     4  10  19  34  56  82 113 146 184 227 278 331
#     4   9  18  33  56  82 106 139 183 232 279 325
#     4  10  18  31  53  81 109 138 179 228 273 325
#     4  11  23  37  53  77 115 153 185 224 279 340
#     4  10  21  40  63  82 106 142 190 239 282 328
#     4  10  21  34  50  78 115 149 176 217 277 334
#     4  10  19  31  51  79 108 140 183 229 272 323
#
# _framework density 19.139046
#
# number of rings (size 3 to 8) (size 9 to 14) (size 15 to 20)
#    0.000    2.000    2.857    1.286    0.000    4.000 
#    0.000    2.143    0.000    0.000    0.000    0.000 
#    0.000    0.000    0.000    0.000    0.000    0.000 
#
# Total GULP energy -346889.187880 kJ/mol
# GULP energy per Si atom -12388.899567 kJ/mol
# Density = 1.909549 g / cm^3
# Si number density = 19.139046 Si / 1000 Ang^3
#
#
#
# Elastic Constant Matrix: (Units=GPa)
#
#
# Indices 1 2 3 4 5 6 
#
# 1 119.1144 26.0043 52.2685 0.0000 -8.2753 0.0000
# 2 26.0043 27.4123 23.2617 0.0000 -4.4899 0.0000
# 3 52.2685 23.2617 86.3159 0.0000 -5.6853 0.0000
# 4 0.0000 0.0000 0.0000 25.5756 0.0000 -4.6776
# 5 -8.2753 -4.4899 -5.6853 0.0000 35.2316 0.0000
# 6 0.0000 0.0000 0.0000 -4.6776 0.0000 20.7563
#
#
#
# Elastic Compliance Matrix: (Units=1/GPa)
#
#
# Indices 1 2 3 4 5 6 
#
# 1 0.012429 -0.006846 -0.005606 0.000000 0.001142 0.000000
# 2 -0.006846 0.051635 -0.009543 0.000000 0.003432 0.000000
# 3 -0.005606 -0.009543 0.017572 0.000000 0.000303 0.000000
# 4 0.000000 0.000000 0.000000 0.040781 0.000000 0.009190
# 5 0.001142 0.003432 0.000303 0.000000 0.029138 0.000000
# 6 0.000000 0.000000 0.000000 0.009190 0.000000 0.050249
#
#
# Mechanical properties :
#
#
# Convention : Reuss Voigt Hill
#
# Bulk Modulus (GPa) = 26.56445 48.43461 37.49953
# Shear Modulus (GPa) = 19.35393 25.06659 22.21026
#
# Velocity S-wave (km/s) = 3.18343 3.62292 3.41026
# Velocity P-wave (km/s) = 5.23662 6.54693 5.92809
#
# Compressibility (1/GPa) = 0.03764430
#
# Stress axis : x y z
#
# Youngs Moduli (GPa) = 80.45423 19.36659 56.90844
#
# Poissons Ratio (x) = 0.13259 0.31905
# Poissons Ratio (y) = 0.55083 0.54311
# Poissons Ratio (z) = 0.45105 0.18482
#
# Static dielectric constant tensor:
#      x y z
#    x 4.116800 0.000000 -0.037240 
#    y 0.000000 3.234670 0.000000 
#    z -0.037240 0.000000 3.496170 
# 
# 
# High freq. dielectric constant tensor:
#      x y z
#    x 1.760940 0.000000 -0.012610 
#    y 0.000000 1.716720 0.000000 
#    z -0.012610 0.000000 1.725880 
# 
# From -- ./inp_files/186809.got.cif
#   From: 2010.06.25/outbox.cif.g09.slc.cpg/sg12_94_cif.got.tgz:186809.got - 2010.06.28 00:19:55.
