data_PCOD8082563
_publ_section_title
;
Structure prediction by ZEFSAII (Michael W. Deem and Ramdas Pophale) SiO2 
 PCOD8082563
Probable space group: C 2/M
;
_chemical_formula_sum "Si O2"
_cell_formula_units_Z 56
_cell_length_a 8.730081
_cell_length_b 19.450205
_cell_length_c 27.978413
_cell_angle_alpha 90.000000
_cell_angle_beta 144.464867
_cell_angle_gamma 90.000000
_cell_volume 2761.166981
_symmetry_space_group_name_H-M "C 2/M"
_symmetry_group_IT_number 12
_symmetry_cell_setting 'monoclinic'
loop_
_space_group_symop_operation_xyz
x,y,z
-x,y,-z
-x,-y,-z
x,-y,z
1/2+x,1/2+y,z
1/2-x,1/2+y,-z
1/2-x,1/2-y,-z
1/2+x,1/2-y,z
loop_
_atom_site_type_symbol
_atom_site_label
_atom_site_fract_x
_atom_site_fract_y
_atom_site_fract_z
Si Si1 0.916926 0.723339 0.325761
Si Si2 0.794271 0.156187 0.360608
Si Si3 0.530295 0.662350 0.732756
Si Si4 0.748547 0.081101 0.034724
Si Si5 0.476419 0.922222 0.120282
Si Si6 0.704956 0.419632 0.416010
Si Si7 0.325543 0.079207 0.189290
O O1 0.185076 0.677167 0.385607
O O2 0.876722 0.764263 0.265490
O O3 0.939776 0.777125 0.374831
O O4 0.679507 0.671981 0.277787
O O5 0.541522 0.129844 0.266334
O O6 0.021785 0.097941 0.416081
O O7 0.770469 0.625782 0.818903
O O8 0.410894 0.616403 0.660056
O O9 0.031036 0.106137 0.127612
O O10 0.747655 0.000000 0.041022
O O11 0.500000 0.113886 0.000000
O O12 0.722795 0.100642 0.972214
O O13 0.333164 0.915547 0.134175
O O14 0.574300 0.000000 0.136294
O O15 0.699334 0.500000 0.405089
O O16 0.000000 0.393039 0.500000
O O17 0.377300 0.000000 0.218848
#
# Coordination Sequence:
#
# PCOD8082563 Si02
#       7
#     8   8   8   8   8   8   8
#     4   9  20  35  55  78 107 143 187 228 258 305
#     4  10  19  36  56  80 107 144 185 219 267 319
#     4  10  19  36  56  80 107 144 185 219 267 319
#     4   9  19  31  45  76 111 136 174 230 282 320
#     4  10  18  31  53  76 104 139 178 223 273 332
#     4  10  20  37  60  86 116 142 169 215 270 323
#     4  10  18  31  53  76 104 139 178 223 273 332
#
# _framework density 20.281279999999999
#
# number of rings (size 3 to 8) (size 9 to 14) (size 15 to 20)
#    0.000    2.286    2.857    1.286    2.000    1.714 
#    0.000   14.286    0.000    6.857    0.000    0.000 
#    0.000    0.000    0.000    0.000    0.000    0.000 
#
# Total GULP energy -346925.999884 kJ/mol
# GULP energy per Si atom -12390.214282 kJ/mol
# Density = 2.023512 g / cm^3
# Si number density = 20.281280 Si / 1000 Ang^3
#
#
#
# Elastic Constant Matrix: (Units=GPa)
#
#
# Indices 1 2 3 4 5 6 
#
# 1 105.7764 25.1070 14.2518 0.0031 33.3677 0.0005
# 2 25.1070 55.2142 21.4643 0.0040 13.2555 0.0002
# 3 14.2518 21.4643 68.5789 0.0132 32.0515 -0.0003
# 4 0.0031 0.0040 0.0132 7.3245 0.0038 12.5127
# 5 33.3677 13.2555 32.0515 0.0038 33.4584 0.0006
# 6 0.0005 0.0002 -0.0003 12.5127 0.0006 26.5952
#
#
#
# Elastic Compliance Matrix: (Units=1/GPa)
#
#
# Indices 1 2 3 4 5 6 
#
# 1 0.016983 -0.005664 0.009253 -0.000046 -0.023557 0.000022
# 2 -0.005664 0.022751 -0.007915 0.000012 0.004217 -0.000006
# 3 0.009253 -0.007915 0.032562 -0.000207 -0.037285 0.000098
# 4 -0.000046 0.000012 -0.000207 0.695671 0.000167 -0.327304
# 5 -0.023557 0.004217 -0.037285 0.000167 0.087427 -0.000080
# 6 0.000022 -0.000006 0.000098 -0.327304 -0.000080 0.191593
#
#
# Mechanical properties :
#
#
# Convention : Reuss Voigt Hill
#
# Bulk Modulus (GPa) = 15.71228 39.02397 27.36812
# Shear Modulus (GPa) = 4.64316 24.72537 14.68426
#
# Velocity S-wave (km/s) = 1.51471 3.49538 2.69370
# Velocity P-wave (km/s) = 3.28985 5.96434 4.81646
#
# Compressibility (1/GPa) = 0.06364450
#
# Stress axis : x y z
#
# Youngs Moduli (GPa) = 58.88356 43.95367 30.71080
#
# Poissons Ratio (x) = 0.24896 -0.28417
# Poissons Ratio (y) = 0.33352 0.24306
# Poissons Ratio (z) = -0.54486 0.34788
#
# Static dielectric constant tensor:
#      x y z
#    x 4.044690 -0.000010 0.428100 
#    y -0.000010 3.688360 -0.000010 
#    z 0.428100 -0.000010 3.566690 
# 
# 
# High freq. dielectric constant tensor:
#      x y z
#    x 1.800450 0.000000 0.026370 
#    y 0.000000 1.774680 0.000000 
#    z 0.026370 0.000000 1.768210 
# 
# From -- ./inp_files/373189.got.cif
#   From: 2010.06.25/outbox.cif.g09.slc.cpg/sg12_187_cif.got.tgz:373189.got - 2010.06.28 00:19:55.
