data_PCOD8082532
_publ_section_title
;
Structure prediction by ZEFSAII (Michael W. Deem and Ramdas Pophale) SiO2 
 PCOD8082532
Probable space group: C 2/M
;
_chemical_formula_sum "Si O2"
_cell_formula_units_Z 64
_cell_length_a 24.106827
_cell_length_b 8.845774
_cell_length_c 15.380365
_cell_angle_alpha 90.000000
_cell_angle_beta 72.650538
_cell_angle_gamma 90.000000
_cell_volume 3130.546518
_symmetry_space_group_name_H-M "C 2/M"
_symmetry_group_IT_number 12
_symmetry_cell_setting 'monoclinic'
loop_
_space_group_symop_operation_xyz
x,y,z
-x,y,-z
-x,-y,-z
x,-y,z
1/2+x,1/2+y,z
1/2-x,1/2+y,-z
1/2-x,1/2-y,-z
1/2+x,1/2-y,z
loop_
_atom_site_type_symbol
_atom_site_label
_atom_site_fract_x
_atom_site_fract_y
_atom_site_fract_z
Si Si1 0.120571 0.825271 0.048241
Si Si2 0.688485 0.177768 0.867727
Si Si3 0.688845 0.180308 0.174381
Si Si4 0.994585 0.171507 0.808999
Si Si5 0.632533 0.827795 0.377958
Si Si6 0.610392 0.323859 0.555994
Si Si7 0.126013 0.824565 0.744731
Si Si8 0.492302 0.172032 0.636216
O O1 0.150978 0.763480 0.120156
O O2 0.050679 0.809197 0.090846
O O3 0.138160 0.000000 0.025621
O O4 0.137688 0.726299 0.957221
O O5 0.745049 0.270286 0.869730
O O6 0.669824 0.221657 0.778995
O O7 0.700466 0.000000 0.868152
O O8 0.667417 0.238264 0.279091
O O9 0.682020 0.000000 0.167332
O O10 0.974758 0.283892 0.742217
O O11 0.060258 0.207340 0.808559
O O12 0.992892 0.000000 0.772898
O O13 0.649563 0.746471 0.460452
O O14 0.563707 0.807579 0.397649
O O15 0.650852 0.000000 0.380247
O O16 0.614219 0.500000 0.543317
O O17 0.633219 0.275040 0.640628
O O18 0.543576 0.275685 0.576343
O O19 0.142419 0.000000 0.750370
O O20 0.514257 0.000000 0.624364
#
# Coordination Sequence:
#
# PCOD8082532 Si02
#       8
#     8   8   8   8   8   8   8   8
#     4  11  22  39  64  92 121 153 189 239 296 352
#     4  12  26  42  61  86 113 153 202 246 293 348
#     4  11  23  42  63  87 120 155 194 243 294 346
#     4   9  19  35  59  89 120 154 192 235 290 348
#     4  10  21  35  55  85 118 153 191 236 291 345
#     4  10  21  35  56  85 117 155 196 236 284 346
#     4   9  20  41  61  83 117 156 197 241 288 340
#     4  10  18  31  52  82 121 157 190 233 288 344
#
# _framework density 20.443714
#
# number of rings (size 3 to 8) (size 9 to 14) (size 15 to 20)
#    0.000    1.750    1.250    4.125    0.000    7.000 
#    0.000    3.125    0.000    0.000    0.000    0.000 
#    0.000    0.000    0.000    0.000    0.000    0.000 
#
# Total GULP energy -396827.432309 kJ/mol
# GULP energy per Si atom -12400.857260 kJ/mol
# Density = 2.039718 g / cm^3
# Si number density = 20.443714 Si / 1000 Ang^3
#
#
#
# Elastic Constant Matrix: (Units=GPa)
#
#
# Indices 1 2 3 4 5 6 
#
# 1 35.4227 13.4009 -0.1622 0.0000 9.3332 0.0000
# 2 13.4009 54.8400 26.2026 0.0000 8.5018 0.0000
# 3 -0.1622 26.2026 92.1198 0.0000 5.2588 0.0000
# 4 0.0000 0.0000 0.0000 38.2391 0.0000 2.7463
# 5 9.3332 8.5018 5.2588 0.0000 14.7278 0.0000
# 6 0.0000 0.0000 0.0000 2.7463 0.0000 26.0140
#
#
#
# Elastic Compliance Matrix: (Units=1/GPa)
#
#
# Indices 1 2 3 4 5 6 
#
# 1 0.036274 -0.007348 0.003291 0.000000 -0.019921 0.000000
# 2 -0.007348 0.024224 -0.006503 0.000000 -0.007004 0.000000
# 3 0.003291 -0.006503 0.012878 0.000000 -0.002930 0.000000
# 4 0.000000 0.000000 0.000000 0.026351 0.000000 -0.002782
# 5 -0.019921 -0.007004 -0.002930 0.000000 0.085612 0.000000
# 6 0.000000 0.000000 0.000000 -0.002782 0.000000 0.038734
#
#
# Mechanical properties :
#
#
# Convention : Reuss Voigt Hill
#
# Bulk Modulus (GPa) = 19.13674 29.02945 24.08309
# Shear Modulus (GPa) = 19.03939 25.32561 22.18250
#
# Velocity S-wave (km/s) = 3.05504 3.52347 3.29759
# Velocity P-wave (km/s) = 4.67177 5.54830 5.12880
#
# Compressibility (1/GPa) = 0.05225551
#
# Stress axis : x y z
#
# Youngs Moduli (GPa) = 27.56774 41.28186 77.65012
#
# Poissons Ratio (x) = 0.30335 -0.25557
# Poissons Ratio (y) = 0.20258 0.50498
# Poissons Ratio (z) = -0.09073 0.26847
#
# Static dielectric constant tensor:
#      x y z
#    x 3.491140 0.000000 -0.066270 
#    y 0.000000 3.688990 0.000000 
#    z -0.066270 0.000000 3.899460 
# 
# 
# High freq. dielectric constant tensor:
#      x y z
#    x 1.777890 0.000000 -0.002860 
#    y 0.000000 1.798080 0.000000 
#    z -0.002860 0.000000 1.808540 
# 
# From -- ./inp_files/243878.got.cif
#   From: 2010.06.25/outbox.cif.g09.slc.cpg/sg12_122_cif.got.tgz:243878.got - 2010.06.28 00:19:55.
