data_PCOD8082820
_publ_section_title
;
Structure prediction by ZEFSAII (Michael W. Deem and Ramdas Pophale) SiO2 
 PCOD8082820
Probable space group: C 2/M
;
_chemical_formula_sum "Si O2"
_cell_formula_units_Z 64
_cell_length_a 9.024319
_cell_length_b 20.723566
_cell_length_c 22.369779
_cell_angle_alpha 90.000000
_cell_angle_beta 52.894765
_cell_angle_gamma 90.000000
_cell_volume 3336.468295
_symmetry_space_group_name_H-M "C 2/M"
_symmetry_group_IT_number 12
_symmetry_cell_setting 'monoclinic'
loop_
_space_group_symop_operation_xyz
x,y,z
-x,y,-z
-x,-y,-z
x,-y,z
1/2+x,1/2+y,z
1/2-x,1/2+y,-z
1/2-x,1/2-y,-z
1/2+x,1/2-y,z
loop_
_atom_site_type_symbol
_atom_site_label
_atom_site_fract_x
_atom_site_fract_y
_atom_site_fract_z
Si Si1 0.596029 0.733746 0.613183
Si Si2 0.758265 0.818200 0.311314
Si Si3 0.526509 0.925109 0.424431
Si Si4 0.812988 0.304146 0.085244
Si Si5 0.308357 0.571876 0.080534
Si Si6 0.096087 0.185538 0.857207
Si Si7 0.318352 0.651223 0.515126
Si Si8 0.035698 0.570649 0.920873
O O1 0.407871 0.767965 0.640643
O O2 0.580396 0.709714 0.685376
O O3 0.639513 0.670381 0.563508
O O4 0.764646 0.784103 0.564294
O O5 0.695284 0.887914 0.351195
O O6 0.834967 0.821131 0.226574
O O7 0.500000 0.906464 0.500000
O O8 0.335277 0.904051 0.439913
O O9 0.565971 0.000000 0.405204
O O10 0.807655 0.245146 0.132557
O O11 0.628639 0.305872 0.088269
O O12 0.817787 0.370889 0.123067
O O13 0.000000 0.298132 0.000000
O O14 0.274383 0.500000 0.115105
O O15 0.324290 0.621795 0.130607
O O16 0.147898 0.589416 0.071932
O O17 0.500000 0.574923 0.000000
O O18 0.500000 0.620229 0.500000
O O19 0.111973 0.500000 0.881268
O O20 0.000000 0.566516 0.000000
#
# Coordination Sequence:
#
# PCOD8082820 Si02
#       8
#     8   8   8   8   8   8   8   8
#     4  10  19  32  53  84 114 143 188 235 290 330
#     4  11  22  37  56  83 119 152 189 243 291 350
#     4  10  21  37  58  84 116 155 194 232 280 342
#     4  11  22  38  59  84 119 155 198 249 297 359
#     4  10  20  36  59  85 112 145 196 247 290 354
#     4  12  24  37  57  87 118 159 196 245 309 360
#     4  10  18  31  57  86 110 143 188 241 277 330
#     4   9  18  34  58  86 113 143 184 239 294 342
#
# _framework density 19.181961000000001
#
# number of rings (size 3 to 8) (size 9 to 14) (size 15 to 20)
#    0.000    1.625    2.500    3.750    0.000    2.250 
#    0.000    0.000    0.000    0.000    0.000    0.000 
#    0.000    0.000    0.000    0.000    0.000    0.000 
#
# Total GULP energy -396616.021852 kJ/mol
# GULP energy per Si atom -12394.250683 kJ/mol
# Density = 1.913830 g / cm^3
# Si number density = 19.181961 Si / 1000 Ang^3
#
#
#
# Elastic Constant Matrix: (Units=GPa)
#
#
# Indices 1 2 3 4 5 6 
#
# 1 107.8561 40.6822 13.0990 0.0000 11.7916 0.0000
# 2 40.6822 114.2770 26.6608 0.0000 15.1689 0.0000
# 3 13.0990 26.6608 73.3902 0.0000 19.4585 0.0000
# 4 0.0000 0.0000 0.0000 20.6759 0.0000 10.6059
# 5 11.7916 15.1689 19.4585 0.0000 30.4905 0.0000
# 6 0.0000 0.0000 0.0000 10.6059 0.0000 29.4696
#
#
#
# Elastic Compliance Matrix: (Units=1/GPa)
#
#
# Indices 1 2 3 4 5 6 
#
# 1 0.010877 -0.003547 -0.000006 0.000000 -0.002438 0.000000
# 2 -0.003547 0.010960 -0.002728 0.000000 -0.002340 0.000000
# 3 -0.000006 -0.002728 0.017161 0.000000 -0.009592 0.000000
# 4 0.000000 0.000000 0.000000 0.059316 0.000000 -0.021347
# 5 -0.002438 -0.002340 -0.009592 0.000000 0.041026 0.000000
# 6 0.000000 0.000000 0.000000 -0.021347 0.000000 0.041616
#
#
# Mechanical properties :
#
#
# Convention : Reuss Voigt Hill
#
# Bulk Modulus (GPa) = 37.82825 50.71192 44.27009
# Shear Modulus (GPa) = 24.71192 30.46593 27.58892
#
# Velocity S-wave (km/s) = 3.59317 3.98962 3.79657
# Velocity P-wave (km/s) = 6.08096 6.90778 6.50751
#
# Compressibility (1/GPa) = 0.02643527
#
# Stress axis : x y z
#
# Youngs Moduli (GPa) = 91.93878 91.23685 58.27058
#
# Poissons Ratio (x) = 0.32362 0.00038
# Poissons Ratio (y) = 0.32611 0.15897
# Poissons Ratio (z) = 0.00060 0.24891
#
# Static dielectric constant tensor:
#      x y z
#    x 3.772100 0.000000 0.030380 
#    y 0.000000 3.877360 0.000000 
#    z 0.030380 0.000000 3.181860 
# 
# 
# High freq. dielectric constant tensor:
#      x y z
#    x 1.762210 0.000000 0.005320 
#    y 0.000000 1.749940 0.000000 
#    z 0.005320 0.000000 1.711370 
# 
# From -- ./inp_files/333703.got.cif
#   From: 2010.06.25/outbox.cif.g09.slc.cpg/sg12_167_cif.got.tgz:333703.got - 2010.06.28 00:19:55.
