data_PCOD8082712
_publ_section_title
;
Structure prediction by ZEFSAII (Michael W. Deem and Ramdas Pophale) SiO2 
 PCOD8082712
Probable space group: C 2/M
;
_chemical_formula_sum "Si O2"
_cell_formula_units_Z 64
_cell_length_a 15.228442
_cell_length_b 9.177617
_cell_length_c 23.942279
_cell_angle_alpha 90.000000
_cell_angle_beta 91.498252
_cell_angle_gamma 90.000000
_cell_volume 3345.048277
_symmetry_space_group_name_H-M "C 2/M"
_symmetry_group_IT_number 12
_symmetry_cell_setting 'monoclinic'
loop_
_space_group_symop_operation_xyz
x,y,z
-x,y,-z
-x,-y,-z
x,-y,z
1/2+x,1/2+y,z
1/2-x,1/2+y,-z
1/2-x,1/2-y,-z
1/2+x,1/2-y,z
loop_
_atom_site_type_symbol
_atom_site_label
_atom_site_fract_x
_atom_site_fract_y
_atom_site_fract_z
Si Si1 0.102037 0.671971 0.612504
Si Si2 0.604062 0.663598 0.003355
Si Si3 0.237097 0.170229 0.313552
Si Si4 0.840915 0.329078 0.505845
Si Si5 0.241093 0.831706 0.185006
Si Si6 0.599386 0.828091 0.113822
Si Si7 0.910947 0.671881 0.626353
Si Si8 0.103082 0.330809 0.894203
O O1 0.108084 0.500000 0.617760
O O2 0.183998 0.738724 0.648014
O O3 0.102376 0.717507 0.547330
O O4 0.010909 0.723700 0.638631
O O5 0.642870 0.500000 0.007587
O O6 0.634820 0.754929 0.057490
O O7 0.500000 0.660078 0.000000
O O8 0.638462 0.741007 0.947957
O O9 0.258712 0.202365 0.249794
O O10 0.147439 0.248750 0.328766
O O11 0.225074 0.000000 0.325043
O O12 0.823405 0.500000 0.505647
O O13 0.750000 0.250000 0.500000
O O14 0.888458 0.279030 0.563001
O O15 0.158939 0.734218 0.164485
O O16 0.332087 0.792011 0.155480
O O17 0.216027 0.000000 0.174541
O O18 0.497102 0.788217 0.123864
O O19 0.612631 0.000000 0.109394
O O20 0.899159 0.500000 0.633590
O O21 0.106608 0.500000 0.910568
#
# Coordination Sequence:
#
# PCOD8082712 Si02
#       8
#     8   8   8   8   8   8   8   8
#     4   9  18  34  56  79 107 143 179 215 265 325
#     4   9  17  31  54  83 113 143 174 213 266 324
#     4  10  21  38  56  75 104 142 181 222 270 320
#     4  10  18  31  54  82 111 142 174 215 266 319
#     4  10  22  38  55  76 104 141 183 223 267 320
#     4  10  20  35  57  83 109 139 177 223 269 314
#     4  10  20  34  56  83 108 138 179 223 265 316
#     4   9  19  36  56  79 108 141 179 221 264 317
#
# _framework density 19.132759
#
# number of rings (size 3 to 8) (size 9 to 14) (size 15 to 20)
#    0.000    2.375    1.250    1.125    0.000    6.000 
#    0.000    3.750    0.000    1.500    0.000    0.000 
#    0.000    0.000    0.000    0.000    0.000    0.000 
#
# Total GULP energy -396789.854735 kJ/mol
# GULP energy per Si atom -12399.682960 kJ/mol
# Density = 1.908921 g / cm^3
# Si number density = 19.132759 Si / 1000 Ang^3
#
#
#
# Elastic Constant Matrix: (Units=GPa)
#
#
# Indices 1 2 3 4 5 6 
#
# 1 104.0023 31.3352 38.6807 0.0000 -17.9144 0.0000
# 2 31.3352 56.3965 36.2864 0.0000 -5.3063 0.0000
# 3 38.6807 36.2864 97.2831 0.0000 -19.5369 0.0000
# 4 0.0000 0.0000 0.0000 25.9605 0.0000 0.3157
# 5 -17.9144 -5.3063 -19.5369 0.0000 30.1910 0.0000
# 6 0.0000 0.0000 0.0000 0.3157 0.0000 27.9596
#
#
#
# Elastic Compliance Matrix: (Units=1/GPa)
#
#
# Indices 1 2 3 4 5 6 
#
# 1 0.012921 -0.005346 -0.002060 0.000000 0.005394 0.000000
# 2 -0.005346 0.025624 -0.008235 0.000000 -0.003998 0.000000
# 3 -0.002060 -0.008235 0.015670 0.000000 0.007471 0.000000
# 4 0.000000 0.000000 0.000000 0.038525 0.000000 -0.000435
# 5 0.005394 -0.003998 0.007471 0.000000 0.040455 0.000000
# 6 0.000000 0.000000 0.000000 -0.000435 0.000000 0.035771
#
#
# Mechanical properties :
#
#
# Convention : Reuss Voigt Hill
#
# Bulk Modulus (GPa) = 43.60467 52.25405 47.92936
# Shear Modulus (GPa) = 24.05066 26.91421 25.48243
#
# Velocity S-wave (km/s) = 3.54932 3.75468 3.65344
# Velocity P-wave (km/s) = 6.29579 6.79466 6.54998
#
# Compressibility (1/GPa) = 0.02293332
#
# Stress axis : x y z
#
# Youngs Moduli (GPa) = 77.39114 39.02520 63.81485
#
# Poissons Ratio (x) = 0.20864 0.13147
# Poissons Ratio (y) = 0.41376 0.52551
# Poissons Ratio (z) = 0.15944 0.32137
#
# Static dielectric constant tensor:
#      x y z
#    x 3.595760 0.000000 0.164680 
#    y 0.000000 3.381430 0.000000 
#    z 0.164680 0.000000 3.817990 
# 
# 
# High freq. dielectric constant tensor:
#      x y z
#    x 1.747650 0.000000 -0.001890 
#    y 0.000000 1.725160 0.000000 
#    z -0.001890 0.000000 1.743210 
# 
# From -- ./inp_files/338670.got.cif
#   From: 2010.06.25/outbox.cif.g09.slc.cpg/sg12_170_cif.got.tgz:338670.got - 2010.06.28 00:19:55.
