data_PCOD8082891
_publ_section_title
;
Structure prediction by ZEFSAII (Michael W. Deem and Ramdas Pophale) SiO2 
 PCOD8082891
Probable space group: C 2/M
;
_chemical_formula_sum "Si O2"
_cell_formula_units_Z 64
_cell_length_a 24.957550
_cell_length_b 8.936827
_cell_length_c 30.215188
_cell_angle_alpha 90.000000
_cell_angle_beta 34.107732
_cell_angle_gamma 90.000000
_cell_volume 3779.030989
_symmetry_space_group_name_H-M "C 2/M"
_symmetry_group_IT_number 12
_symmetry_cell_setting 'monoclinic'
loop_
_space_group_symop_operation_xyz
x,y,z
-x,y,-z
-x,-y,-z
x,-y,z
1/2+x,1/2+y,z
1/2-x,1/2+y,-z
1/2-x,1/2-y,-z
1/2+x,1/2-y,z
loop_
_atom_site_type_symbol
_atom_site_label
_atom_site_fract_x
_atom_site_fract_y
_atom_site_fract_z
Si Si1 0.277107 0.824409 0.661146
Si Si2 0.084023 0.322949 0.817089
Si Si3 0.896538 0.173426 0.916476
Si Si4 0.732276 0.673043 0.078771
Si Si5 0.932740 0.168562 0.503583
Si Si6 0.784427 0.326237 0.820114
Si Si7 0.910854 0.826902 0.092553
Si Si8 0.410201 0.827638 0.651412
O O1 0.176320 0.742211 0.729613
O O2 0.338448 0.766320 0.577372
O O3 0.329295 0.782214 0.671312
O O4 0.260629 0.000000 0.667535
O O5 0.088385 0.500000 0.812693
O O6 0.075495 0.270589 0.873328
O O7 0.993689 0.266014 0.851140
O O8 0.851116 0.200862 0.899552
O O9 0.917497 0.000000 0.911654
O O10 0.825668 0.231298 0.003070
O O11 0.761860 0.500000 0.060231
O O12 0.692712 0.727055 0.152851
O O13 0.000000 0.176466 0.500000
O O14 0.992417 0.234274 0.421501
O O15 0.901641 0.000000 0.513705
O O16 0.780186 0.500000 0.836302
O O17 0.684260 0.274913 0.867566
O O18 0.869822 0.294245 0.727540
O O19 0.902247 0.000000 0.112805
O O20 0.000000 0.797975 0.000000
O O21 0.436900 0.000000 0.626339
#
# Coordination Sequence:
#
# PCOD8082891 Si02
#       8
#     8   8   8   8   8   8   8   8
#     4  10  18  32  50  69  99 136 171 202 242 302
#     4  12  23  33  50  76 103 130 167 213 255 293
#     4  10  21  38  56  72  97 133 170 210 257 307
#     4  10  21  36  55  78  99 125 168 218 261 296
#     4   9  17  28  44  69  99 130 166 207 251 287
#     4  10  19  32  50  74 103 137 171 204 247 303
#     4  10  20  34  50  69  98 138 173 199 242 305
#     4   9  17  30  47  69  98 136 174 200 237 299
#
# _framework density 16.935558
#
# number of rings (size 3 to 8) (size 9 to 14) (size 15 to 20)
#    0.000    2.000    1.250    3.375    0.000    5.750 
#    0.000    0.000    0.000    0.000    0.000    0.875 
#    0.000    0.000    0.000    0.000    0.000    0.000 
#
# Total GULP energy -396925.990760 kJ/mol
# GULP energy per Si atom -12403.937211 kJ/mol
# Density = 1.689701 g / cm^3
# Si number density = 16.935558 Si / 1000 Ang^3
#
#
#
# Elastic Constant Matrix: (Units=GPa)
#
#
# Indices 1 2 3 4 5 6 
#
# 1 60.4887 39.5142 45.6908 -0.0042 0.0318 0.0040
# 2 39.5142 106.4001 61.8174 -0.0010 -7.3826 0.0214
# 3 45.6908 61.8174 121.1888 -0.0018 -3.9910 0.0049
# 4 -0.0042 -0.0010 -0.0018 31.6490 -0.0017 1.0382
# 5 0.0318 -7.3826 -3.9910 -0.0017 16.2355 0.0036
# 6 0.0040 0.0214 0.0049 1.0382 0.0036 24.2462
#
#
#
# Elastic Compliance Matrix: (Units=1/GPa)
#
#
# Indices 1 2 3 4 5 6 
#
# 1 0.025450 -0.005821 -0.006770 0.000002 -0.004361 0.000003
# 2 -0.005821 0.015013 -0.005281 0.000000 0.005540 -0.000012
# 3 -0.006770 -0.005281 0.013528 0.000000 0.000938 0.000003
# 4 0.000002 0.000000 0.000000 0.031641 0.000004 -0.001355
# 5 -0.004361 0.005540 0.000938 0.000004 0.064352 -0.000014
# 6 0.000003 -0.000012 0.000003 -0.001355 -0.000014 0.041302
#
#
# Mechanical properties :
#
#
# Convention : Reuss Voigt Hill
#
# Bulk Modulus (GPa) = 54.79879 64.68027 59.73953
# Shear Modulus (GPa) = 21.44892 23.82982 22.63937
#
# Velocity S-wave (km/s) = 3.56266 3.75519 3.66019
# Velocity P-wave (km/s) = 7.02502 7.55492 7.29478
#
# Compressibility (1/GPa) = 0.01824858
#
# Stress axis : x y z
#
# Youngs Moduli (GPa) = 39.29200 66.61008 73.91827
#
# Poissons Ratio (x) = 0.38774 0.50040
# Poissons Ratio (y) = 0.22872 0.39034
# Poissons Ratio (z) = 0.26599 0.35175
#
# Static dielectric constant tensor:
#      x y z
#    x 2.901410 -0.000010 -0.009920 
#    y -0.000010 3.236550 0.000010 
#    z -0.009920 0.000010 3.273080 
# 
# 
# High freq. dielectric constant tensor:
#      x y z
#    x 1.615220 0.000000 0.001870 
#    y 0.000000 1.662450 0.000000 
#    z 0.001870 0.000000 1.660600 
# 
# From -- ./inp_files/382284.got.cif
#   From: 2010.06.25/outbox.cif.g09.slc.cpg/sg12_192_cif.got.tgz:382284.got - 2010.06.28 00:19:55.
