data_PCOD8082212
_publ_section_title
;
Structure prediction by ZEFSAII (Michael W. Deem and Ramdas Pophale) SiO2 
 PCOD8082212
Probable space group: C 2/M
;
_chemical_formula_sum "Si O2"
_cell_formula_units_Z 48
_cell_length_a 22.539814
_cell_length_b 8.661471
_cell_length_c 19.757593
_cell_angle_alpha 90.000000
_cell_angle_beta 136.576170
_cell_angle_gamma 90.000000
_cell_volume 2651.422896
_symmetry_space_group_name_H-M "C 2/M"
_symmetry_group_IT_number 12
_symmetry_cell_setting 'monoclinic'
loop_
_space_group_symop_operation_xyz
x,y,z
-x,y,-z
-x,-y,-z
x,-y,z
1/2+x,1/2+y,z
1/2-x,1/2+y,-z
1/2-x,1/2-y,-z
1/2+x,1/2-y,z
loop_
_atom_site_type_symbol
_atom_site_label
_atom_site_fract_x
_atom_site_fract_y
_atom_site_fract_z
Si Si1 0.696994 0.682978 0.518568
Si Si2 0.189274 0.678429 0.038793
Si Si3 0.377273 0.321643 0.147581
Si Si4 0.842216 0.180770 0.713494
Si Si5 0.947012 0.318861 0.677300
Si Si6 0.902710 0.678643 0.899903
O O1 0.697905 0.500000 0.520682
O O2 0.750000 0.750000 0.500000
O O3 0.745372 0.748087 0.625242
O O4 0.599385 0.744059 0.427362
O O5 0.171178 0.500000 0.006258
O O6 0.290454 0.717281 0.116920
O O7 0.159344 0.719665 0.089122
O O8 0.134488 0.779545 0.940897
O O9 0.402875 0.500000 0.173918
O O10 0.452248 0.221042 0.243627
O O11 0.908749 0.254598 0.715616
O O12 0.874656 0.213623 0.815402
O O13 0.838641 0.000000 0.696730
O O14 0.932341 0.500000 0.663288
O O15 0.894253 0.500000 0.871478
O O16 0.000000 0.719512 0.000000
#
# Coordination Sequence:
#
# PCOD8082212 Si02
#       6
#     8   8   8   8   8   8
#     4  10  18  31  50  73 101 131 164 203 249 297
#     4   9  19  34  51  73 103 137 169 204 249 298
#     4  10  19  32  51  75 102 132 169 210 250 294
#     4  11  21  33  50  75 105 134 165 204 251 298
#     4  11  20  32  51  75 102 132 168 208 252 297
#     4  10  20  34  52  74 102 136 170 202 243 297
#
# _framework density 18.103486
#
# number of rings (size 3 to 8) (size 9 to 14) (size 15 to 20)
#    0.000    1.833    0.000    8.000    0.000    3.000 
#    0.000    0.000    0.000    1.000    0.000    7.000 
#    0.000    0.000    0.000    0.000    0.000    0.000 
#
# Total GULP energy -297634.257137 kJ/mol
# GULP energy per Si atom -12401.427381 kJ/mol
# Density = 1.806228 g / cm^3
# Si number density = 18.103486 Si / 1000 Ang^3
#
#
#
# Elastic Constant Matrix: (Units=GPa)
#
#
# Indices 1 2 3 4 5 6 
#
# 1 67.9617 27.7758 44.9183 0.0000 7.5026 0.0000
# 2 27.7758 128.9217 52.2832 0.0000 8.1869 0.0000
# 3 44.9183 52.2832 123.0960 0.0000 16.1937 0.0000
# 4 0.0000 0.0000 0.0000 37.3256 0.0000 2.5574
# 5 7.5026 8.1869 16.1937 0.0000 24.9657 0.0000
# 6 0.0000 0.0000 0.0000 2.5574 0.0000 21.3715
#
#
#
# Elastic Compliance Matrix: (Units=1/GPa)
#
#
# Indices 1 2 3 4 5 6 
#
# 1 0.019699 -0.001590 -0.006344 0.000000 -0.001283 0.000000
# 2 -0.001590 0.009506 -0.003400 0.000000 -0.000434 0.000000
# 3 -0.006344 -0.003400 0.012557 0.000000 -0.005123 0.000000
# 4 0.000000 0.000000 0.000000 0.027013 0.000000 -0.003232
# 5 -0.001283 -0.000434 -0.005123 0.000000 0.043906 0.000000
# 6 0.000000 0.000000 0.000000 -0.003232 0.000000 0.047178
#
#
# Mechanical properties :
#
#
# Convention : Reuss Voigt Hill
#
# Bulk Modulus (GPa) = 52.37473 63.32600 57.85037
# Shear Modulus (GPa) = 26.47037 29.73269 28.10153
#
# Velocity S-wave (km/s) = 3.82798 4.05702 3.94416
# Velocity P-wave (km/s) = 6.96645 7.54995 7.26406
#
# Compressibility (1/GPa) = 0.01909318
#
# Stress axis : x y z
#
# Youngs Moduli (GPa) = 50.76505 105.20086 79.63752
#
# Poissons Ratio (x) = 0.16724 0.50522
# Poissons Ratio (y) = 0.08070 0.27078
# Poissons Ratio (z) = 0.32206 0.35770
#
# Static dielectric constant tensor:
#      x y z
#    x 3.157690 0.000000 0.267020 
#    y 0.000000 3.391920 0.000000 
#    z 0.267020 0.000000 3.806110 
# 
# 
# High freq. dielectric constant tensor:
#      x y z
#    x 1.666570 0.000000 0.019780 
#    y 0.000000 1.713800 0.000000 
#    z 0.019780 0.000000 1.710940 
# 
# From -- ./inp_files/281838.got.cif
#   From: 2010.06.25/outbox.cif.g09.slc.cpg/sg12_141_cif.got.tgz:281838.got - 2010.06.28 00:19:55.
