data_PCOD8082267
_publ_section_title
;
Structure prediction by ZEFSAII (Michael W. Deem and Ramdas Pophale) SiO2 
 PCOD8082267
Probable space group: C 2/M
;
_chemical_formula_sum "Si O2"
_cell_formula_units_Z 64
_cell_length_a 27.144924
_cell_length_b 13.771071
_cell_length_c 16.455469
_cell_angle_alpha 90.000000
_cell_angle_beta 33.148414
_cell_angle_gamma 90.000000
_cell_volume 3363.587752
_symmetry_space_group_name_H-M "C 2/M"
_symmetry_group_IT_number 12
_symmetry_cell_setting 'monoclinic'
loop_
_space_group_symop_operation_xyz
x,y,z
-x,y,-z
-x,-y,-z
x,-y,z
1/2+x,1/2+y,z
1/2-x,1/2+y,-z
1/2-x,1/2-y,-z
1/2+x,1/2-y,z
loop_
_atom_site_type_symbol
_atom_site_label
_atom_site_fract_x
_atom_site_fract_y
_atom_site_fract_z
Si Si1 0.244658 0.112752 0.517216
Si Si2 0.681928 0.614415 0.128591
Si Si3 0.101926 0.256445 0.673507
Si Si4 0.882993 0.391010 0.852019
Si Si5 0.871864 0.115276 0.617118
Si Si6 0.948974 0.389153 0.941939
Si Si7 0.211147 0.611806 0.730734
Si Si8 0.512804 0.714364 0.320276
O O1 0.149247 0.168535 0.658823
O O2 0.321017 0.167361 0.465328
O O3 0.279905 0.128498 0.376858
O O4 0.234340 0.000000 0.555977
O O5 0.678823 0.500000 0.125990
O O6 0.656167 0.648133 0.254806
O O7 0.607460 0.659093 0.170613
O O8 0.783295 0.648959 0.967086
O O9 0.033744 0.316888 0.824125
O O10 0.051518 0.205358 0.668632
O O11 0.896827 0.500000 0.801061
O O12 0.893703 0.385891 0.934401
O O13 0.959771 0.326687 0.702254
O O14 0.796573 0.157188 0.659309
O O15 0.965478 0.167594 0.463989
O O16 0.887528 0.000000 0.588007
O O17 0.983123 0.500000 0.911305
O O18 0.884017 0.348765 0.103253
O O19 0.212246 0.500000 0.754034
#
# Coordination Sequence:
#
# PCOD8082267 Si02
#       8
#     8   8   8   8   8   8   8   8
#     4  10  20  35  52  73 103 132 165 207 254 303
#     4  10  19  32  52  77 106 134 161 198 251 308
#     4  10  21  32  47  75 104 133 166 203 250 299
#     4   9  18  32  48  70 103 140 171 201 236 286
#     4  10  18  31  50  79 109 131 157 197 255 310
#     4   9  16  30  51  76 105 133 163 201 246 299
#     4   9  16  29  52  75 102 133 157 199 256 300
#     4  11  20  30  48  75 105 133 168 203 245 297
#
# _framework density 19.027303
#
# number of rings (size 3 to 8) (size 9 to 14) (size 15 to 20)
#    0.000    2.250    2.500    1.500    0.000    2.500 
#    0.000    1.875    0.000    1.500    0.000    8.750 
#    0.000    0.000    0.000    0.000    0.000    0.000 
#
# Total GULP energy -396637.632286 kJ/mol
# GULP energy per Si atom -12394.926009 kJ/mol
# Density = 1.898400 g / cm^3
# Si number density = 19.027303 Si / 1000 Ang^3
#
#
#
# Elastic Constant Matrix: (Units=GPa)
#
#
# Indices 1 2 3 4 5 6 
#
# 1 62.3297 7.9979 15.1716 0.0000 -19.7567 0.0000
# 2 7.9979 51.9426 32.0081 0.0000 -5.6915 0.0000
# 3 15.1716 32.0081 85.9374 0.0000 -16.8989 0.0000
# 4 0.0000 0.0000 0.0000 31.7294 0.0000 -13.1019
# 5 -19.7567 -5.6915 -16.8989 0.0000 29.0789 0.0000
# 6 0.0000 0.0000 0.0000 -13.1019 0.0000 21.6838
#
#
#
# Elastic Compliance Matrix: (Units=1/GPa)
#
#
# Indices 1 2 3 4 5 6 
#
# 1 0.020602 -0.001411 -0.000467 0.000000 0.013450 0.000000
# 2 -0.001411 0.025092 -0.009393 0.000000 -0.001506 0.000000
# 3 -0.000467 -0.009393 0.016702 0.000000 0.007551 0.000000
# 4 0.000000 0.000000 0.000000 0.041994 0.000000 0.025374
# 5 0.013450 -0.001506 0.007551 0.000000 0.047620 0.000000
# 6 0.000000 0.000000 0.000000 0.025374 0.000000 0.061449
#
#
# Mechanical properties :
#
#
# Convention : Reuss Voigt Hill
#
# Bulk Modulus (GPa) = 25.09103 34.50720 29.79911
# Shear Modulus (GPa) = 20.05735 26.16724 23.11230
#
# Velocity S-wave (km/s) = 3.25027 3.71246 3.48902
# Velocity P-wave (km/s) = 5.22505 6.04578 5.65033
#
# Compressibility (1/GPa) = 0.03985489
#
# Stress axis : x y z
#
# Youngs Moduli (GPa) = 48.54011 39.85282 59.87297
#
# Poissons Ratio (x) = 0.05622 0.02795
# Poissons Ratio (y) = 0.06848 0.56238
# Poissons Ratio (z) = 0.02266 0.37433
#
# Static dielectric constant tensor:
#      x y z
#    x 3.436950 0.000000 -0.368790 
#    y 0.000000 3.471590 0.000000 
#    z -0.368790 0.000000 3.490610 
# 
# 
# High freq. dielectric constant tensor:
#      x y z
#    x 1.732250 0.000000 -0.038600 
#    y 0.000000 1.724900 0.000000 
#    z -0.038600 0.000000 1.727850 
# 
# From -- ./inp_files/296689.got.cif
#   From: 2010.06.25/outbox.cif.g09.slc.cpg/sg12_149_cif.got.tgz:296689.got - 2010.06.28 00:19:55.
