data_PCOD8082485
_publ_section_title
;
Structure prediction by ZEFSAII (Michael W. Deem and Ramdas Pophale) SiO2 
 PCOD8082485
Probable space group: C 2/M
;
_chemical_formula_sum "Si O2"
_cell_formula_units_Z 64
_cell_length_a 26.184675
_cell_length_b 9.166330
_cell_length_c 14.180506
_cell_angle_alpha 90.000000
_cell_angle_beta 86.141985
_cell_angle_gamma 90.000000
_cell_volume 3395.854792
_symmetry_space_group_name_H-M "C 2/M"
_symmetry_group_IT_number 12
_symmetry_cell_setting 'monoclinic'
loop_
_space_group_symop_operation_xyz
x,y,z
-x,y,-z
-x,-y,-z
x,-y,z
1/2+x,1/2+y,z
1/2-x,1/2+y,-z
1/2-x,1/2-y,-z
1/2+x,1/2-y,z
loop_
_atom_site_type_symbol
_atom_site_label
_atom_site_fract_x
_atom_site_fract_y
_atom_site_fract_z
Si Si1 0.275913 0.832203 0.911152
Si Si2 0.438451 0.667820 0.712466
Si Si3 0.250587 0.330904 0.293859
Si Si4 0.548934 0.671667 0.941100
Si Si5 0.154886 0.174239 0.396578
Si Si6 0.121974 0.166374 0.094857
Si Si7 0.950314 0.174869 0.269853
Si Si8 0.148839 0.173073 0.611341
O O1 0.243664 0.809834 0.819323
O O2 0.332514 0.773811 0.885409
O O3 0.279155 0.000000 0.938977
O O4 0.250000 0.750000 0.000000
O O5 0.441348 0.500000 0.684083
O O6 0.396260 0.738130 0.647821
O O7 0.422743 0.688066 0.823257
O O8 0.495700 0.733922 0.693694
O O9 0.240870 0.500000 0.320372
O O10 0.204071 0.237287 0.338839
O O11 0.302711 0.271810 0.334464
O O12 0.539639 0.500000 0.934281
O O13 0.556039 0.736616 0.835634
O O14 0.500000 0.742518 0.000000
O O15 0.599868 0.705636 0.994847
O O16 0.154165 0.229644 0.504060
O O17 0.157761 0.000000 0.388270
O O18 0.142353 0.000000 0.094769
O O19 0.903532 0.236900 0.337824
O O20 0.950176 0.000000 0.268746
O O21 0.146412 0.000000 0.614121
#
# Coordination Sequence:
#
# PCOD8082485 Si02
#       8
#     8   8   8   8   8   8   8   8
#     4  11  24  38  54  78 107 138 173 214 264 315
#     4   9  16  27  47  77 109 135 167 213 262 309
#     4  10  21  37  55  77 103 136 179 217 253 311
#     4   9  15  24  44  74 103 135 173 211 252 303
#     4  10  19  33  54  79 105 135 172 218 269 313
#     4  10  18  31  52  78 106 135 174 218 259 311
#     4   9  16  27  44  73 110 139 168 214 265 310
#     4   9  19  32  48  74 107 139 173 217 267 311
#
# _framework density 18.846506000000002
#
# number of rings (size 3 to 8) (size 9 to 14) (size 15 to 20)
#    0.000    2.375    2.500    0.750    1.750    1.000 
#    0.000    2.500    0.000    0.375    0.000    4.375 
#    0.000    0.000    0.000    0.000    0.000    0.000 
#
# Total GULP energy -396710.727554 kJ/mol
# GULP energy per Si atom -12397.210236 kJ/mol
# Density = 1.880361 g / cm^3
# Si number density = 18.846506 Si / 1000 Ang^3
#
#
#
# Elastic Constant Matrix: (Units=GPa)
#
#
# Indices 1 2 3 4 5 6 
#
# 1 147.2480 29.6924 68.5374 0.0000 10.7911 0.0000
# 2 29.6924 35.9505 29.6089 0.0000 0.9379 0.0000
# 3 68.5374 29.6089 124.8945 0.0000 10.0195 0.0000
# 4 0.0000 0.0000 0.0000 14.7510 0.0000 1.0045
# 5 10.7911 0.9379 10.0195 0.0000 30.5678 0.0000
# 6 0.0000 0.0000 0.0000 1.0045 0.0000 17.2666
#
#
#
# Elastic Compliance Matrix: (Units=1/GPa)
#
#
# Indices 1 2 3 4 5 6 
#
# 1 0.009785 -0.004645 -0.004111 0.000000 -0.001964 0.000000
# 2 -0.004645 0.036853 -0.006397 0.000000 0.002606 0.000000
# 3 -0.004111 -0.006397 0.011962 0.000000 -0.002273 0.000000
# 4 0.000000 0.000000 0.000000 0.068061 0.000000 -0.003960
# 5 -0.001964 0.002606 -0.002273 0.000000 0.034073 0.000000
# 6 0.000000 0.000000 0.000000 -0.003960 0.000000 0.058146
#
#
# Mechanical properties :
#
#
# Convention : Reuss Voigt Hill
#
# Bulk Modulus (GPa) = 35.34293 62.64119 48.99206
# Shear Modulus (GPa) = 19.33362 24.53403 21.93382
#
# Velocity S-wave (km/s) = 3.20636 3.61193 3.41517
# Velocity P-wave (km/s) = 5.70100 7.12071 6.45003
#
# Compressibility (1/GPa) = 0.02829420
#
# Stress axis : x y z
#
# Youngs Moduli (GPa) = 102.19319 27.13499 83.60039
#
# Poissons Ratio (x) = 0.12604 0.34369
# Poissons Ratio (y) = 0.47467 0.53478
# Poissons Ratio (z) = 0.42013 0.17358
#
# Static dielectric constant tensor:
#      x y z
#    x 3.675930 0.000000 0.135500 
#    y 0.000000 2.933510 0.000000 
#    z 0.135500 0.000000 3.690880 
# 
# 
# High freq. dielectric constant tensor:
#      x y z
#    x 1.744710 0.000000 0.008330 
#    y 0.000000 1.664110 0.000000 
#    z 0.008330 0.000000 1.743810 
# 
# From -- ./inp_files/238712.got.cif
#   From: 2010.06.25/outbox.cif.g09.slc.cpg/sg12_120_cif.got.tgz:238712.got - 2010.06.28 00:19:55.
