data_PCOD8082166
_publ_section_title
;
Structure prediction by ZEFSAII (Michael W. Deem and Ramdas Pophale) SiO2 
 PCOD8082166
Probable space group: C 2/M
;
_chemical_formula_sum "Si O2"
_cell_formula_units_Z 56
_cell_length_a 29.173482
_cell_length_b 8.708084
_cell_length_c 13.735898
_cell_angle_alpha 90.000000
_cell_angle_beta 75.905215
_cell_angle_gamma 90.000000
_cell_volume 3384.482632
_symmetry_space_group_name_H-M "C 2/M"
_symmetry_group_IT_number 12
_symmetry_cell_setting 'monoclinic'
loop_
_space_group_symop_operation_xyz
x,y,z
-x,y,-z
-x,-y,-z
x,-y,z
1/2+x,1/2+y,z
1/2-x,1/2+y,-z
1/2-x,1/2-y,-z
1/2+x,1/2-y,z
loop_
_atom_site_type_symbol
_atom_site_label
_atom_site_fract_x
_atom_site_fract_y
_atom_site_fract_z
Si Si1 0.486273 0.319086 0.114219
Si Si2 0.201413 0.680818 0.634363
Si Si3 0.601555 0.820523 0.745428
Si Si4 0.969809 0.677596 0.724956
Si Si5 0.895867 0.677033 0.613855
Si Si6 0.797301 0.319775 0.586922
Si Si7 0.556010 0.320244 0.587164
O O1 0.491102 0.500000 0.122192
O O2 0.431962 0.271676 0.162955
O O3 0.523293 0.242797 0.170063
O O4 0.500000 0.261718 0.000000
O O5 0.205639 0.500000 0.628186
O O6 0.156831 0.727738 0.725820
O O7 0.194294 0.743184 0.527330
O O8 0.249331 0.748146 0.655940
O O9 0.588029 0.780694 0.642270
O O10 0.594342 0.000000 0.768795
O O11 0.985170 0.500000 0.717571
O O12 0.915683 0.696489 0.714249
O O13 0.001986 0.770864 0.632035
O O14 0.900614 0.500000 0.577458
O O15 0.841235 0.729728 0.633132
O O16 0.928445 0.783087 0.529741
O O17 0.790572 0.500000 0.590365
O O18 0.561769 0.500000 0.606699
#
# Coordination Sequence:
#
# PCOD8082166 Si02
#       7
#     8   8   8   8   8   8   8
#     4  10  21  36  52  72  97 119 146 191 241 285
#     4   9  17  29  44  65  92 123 159 195 229 265
#     4  10  18  31  50  69  94 125 158 195 231 275
#     4  10  20  32  49  67  89 122 158 192 228 277
#     4  10  19  32  45  63  92 128 162 191 227 268
#     4   9  17  29  44  62  92 127 160 194 225 265
#     4  11  20  28  42  65  94 126 160 193 227 270
#
# _framework density 16.546102999999999
#
# number of rings (size 3 to 8) (size 9 to 14) (size 15 to 20)
#    0.000    2.143    1.429    4.714    0.000    5.714 
#    0.000    0.000    0.000    0.000    0.000    1.000 
#    0.000    0.000    0.000    0.000    0.000    0.000 
#
# Total GULP energy -347050.615063 kJ/mol
# GULP energy per Si atom -12394.664824 kJ/mol
# Density = 1.650844 g / cm^3
# Si number density = 16.546103 Si / 1000 Ang^3
#
#
#
# Elastic Constant Matrix: (Units=GPa)
#
#
# Indices 1 2 3 4 5 6 
#
# 1 142.7542 26.5535 57.3914 0.0000 4.0899 0.0000
# 2 26.5535 34.3012 22.7753 0.0000 -0.9731 0.0000
# 3 57.3914 22.7753 82.7406 0.0000 -1.8407 0.0000
# 4 0.0000 0.0000 0.0000 20.5618 0.0000 -2.0763
# 5 4.0899 -0.9731 -1.8407 0.0000 11.1110 0.0000
# 6 0.0000 0.0000 0.0000 -2.0763 0.0000 23.6551
#
#
#
# Elastic Compliance Matrix: (Units=1/GPa)
#
#
# Indices 1 2 3 4 5 6 
#
# 1 0.010412 -0.004082 -0.006215 0.000000 -0.005220 0.000000
# 2 -0.004082 0.037299 -0.007356 0.000000 0.003551 0.000000
# 3 -0.006215 -0.007356 0.018527 0.000000 0.004712 0.000000
# 4 0.000000 0.000000 0.000000 0.049069 0.000000 0.004307
# 5 -0.005220 0.003551 0.004712 0.000000 0.093014 0.000000
# 6 0.000000 0.000000 0.000000 0.004307 0.000000 0.042652
#
#
# Mechanical properties :
#
#
# Convention : Reuss Voigt Hill
#
# Bulk Modulus (GPa) = 32.33006 52.58184 42.45595
# Shear Modulus (GPa) = 16.85827 21.27062 19.06444
#
# Velocity S-wave (km/s) = 3.19543 3.58933 3.39809
# Velocity P-wave (km/s) = 5.76161 7.00183 6.41178
#
# Compressibility (1/GPa) = 0.03093096
#
# Stress axis : x y z
#
# Youngs Moduli (GPa) = 96.03874 26.81046 53.97649
#
# Poissons Ratio (x) = 0.10944 0.33546
# Poissons Ratio (y) = 0.39204 0.39708
# Poissons Ratio (z) = 0.59687 0.19723
#
# Static dielectric constant tensor:
#      x y z
#    x 3.332020 0.000000 -0.030300 
#    y 0.000000 3.093750 0.000000 
#    z -0.030300 0.000000 2.803840 
# 
# 
# High freq. dielectric constant tensor:
#      x y z
#    x 1.641520 0.000000 -0.000250 
#    y 0.000000 1.643680 0.000000 
#    z -0.000250 0.000000 1.584020 
# 
# From -- ./inp_files/247800.got.cif
#   From: 2010.06.25/outbox.cif.g09.slc.cpg/sg12_124_cif.got.tgz:247800.got - 2010.06.28 00:19:55.
