data_PCOD8082042
_publ_section_title
;
Structure prediction by ZEFSAII (Michael W. Deem and Ramdas Pophale) SiO2 
 PCOD8082042
Probable space group: C 2/M
;
_chemical_formula_sum "Si O2"
_cell_formula_units_Z 56
_cell_length_a 14.820038
_cell_length_b 26.455300
_cell_length_c 14.312181
_cell_angle_alpha 90.000000
_cell_angle_beta 145.513249
_cell_angle_gamma 90.000000
_cell_volume 3177.237636
_symmetry_space_group_name_H-M "C 2/M"
_symmetry_group_IT_number 12
_symmetry_cell_setting 'monoclinic'
loop_
_space_group_symop_operation_xyz
x,y,z
-x,y,-z
-x,-y,-z
x,-y,z
1/2+x,1/2+y,z
1/2-x,1/2+y,-z
1/2-x,1/2-y,-z
1/2+x,1/2-y,z
loop_
_atom_site_type_symbol
_atom_site_label
_atom_site_fract_x
_atom_site_fract_y
_atom_site_fract_z
Si Si1 0.296437 0.329455 0.000391
Si Si2 0.455851 0.135283 0.691548
Si Si3 0.595521 0.628749 0.176573
Si Si4 0.690351 0.771254 0.075781
Si Si5 0.340876 0.798940 0.742762
Si Si6 0.867362 0.440570 0.463383
Si Si7 0.643786 0.207998 0.552287
O O1 0.457805 0.362260 0.135532
O O2 0.312251 0.298649 0.110347
O O3 0.278053 0.289442 0.897517
O O4 0.145098 0.367203 0.872115
O O5 0.354027 0.146291 0.700803
O O6 0.405159 0.083707 0.596988
O O7 0.418202 0.182871 0.594308
O O8 0.693542 0.577521 0.281151
O O9 0.719798 0.674872 0.280500
O O10 0.500000 0.622586 0.000000
O O11 0.708400 0.799875 0.190032
O O12 0.515019 0.775201 0.883040
O O13 0.214501 0.762530 0.583992
O O14 0.865939 0.500000 0.475848
O O15 0.000000 0.423648 0.500000
O O16 0.500000 0.216449 0.500000
#
# Coordination Sequence:
#
# PCOD8082042 Si02
#       7
#     8   8   8   8   8   8   8
#     4  10  18  31  51  72 106 138 172 202 247 297
#     4  10  20  33  51  73  97 136 170 210 256 305
#     4  11  19  31  53  77 102 133 169 210 255 306
#     4   9  18  30  47  73 105 145 170 204 239 283
#     4  10  18  31  46  70 104 140 176 202 235 294
#     4  10  22  40  56  73  99 129 169 221 273 316
#     4  11  20  30  44  69 108 141 170 201 238 296
#
# _framework density 17.625373
#
# number of rings (size 3 to 8) (size 9 to 14) (size 15 to 20)
#    0.000    1.857    1.429    5.571    0.000    0.286 
#    5.143    0.714    0.000    0.000    0.000   10.000 
#    0.000    0.000    0.000    0.000    0.000    0.000 
#
# Total GULP energy -346971.231248 kJ/mol
# GULP energy per Si atom -12391.829687 kJ/mol
# Density = 1.758526 g / cm^3
# Si number density = 17.625373 Si / 1000 Ang^3
#
#
#
# Elastic Constant Matrix: (Units=GPa)
#
#
# Indices 1 2 3 4 5 6 
#
# 1 105.8681 40.0291 25.7091 0.0000 3.8734 0.0000
# 2 40.0291 73.9542 31.5137 0.0000 8.0526 0.0000
# 3 25.7091 31.5137 74.2715 0.0000 14.9894 0.0000
# 4 0.0000 0.0000 0.0000 18.9660 0.0000 0.1106
# 5 3.8734 8.0526 14.9894 0.0000 23.9833 0.0000
# 6 0.0000 0.0000 0.0000 0.1106 0.0000 23.0009
#
#
#
# Elastic Compliance Matrix: (Units=1/GPa)
#
#
# Indices 1 2 3 4 5 6 
#
# 1 0.012084 -0.005843 -0.001952 0.000000 0.001230 0.000000
# 2 -0.005843 0.019369 -0.005806 0.000000 -0.001931 0.000000
# 3 -0.001952 -0.005806 0.018477 0.000000 -0.009283 0.000000
# 4 0.000000 0.000000 0.000000 0.052728 0.000000 -0.000254
# 5 0.001230 -0.001931 -0.009283 0.000000 0.047947 0.000000
# 6 0.000000 0.000000 0.000000 -0.000254 0.000000 0.043478
#
#
# Mechanical properties :
#
#
# Convention : Reuss Voigt Hill
#
# Bulk Modulus (GPa) = 43.99897 49.84419 46.92158
# Shear Modulus (GPa) = 21.84742 23.64615 22.74679
#
# Velocity S-wave (km/s) = 3.52454 3.66676 3.59635
# Velocity P-wave (km/s) = 6.44831 6.80206 6.62755
#
# Compressibility (1/GPa) = 0.02272781
#
# Stress axis : x y z
#
# Youngs Moduli (GPa) = 82.75463 51.62956 54.12171
#
# Poissons Ratio (x) = 0.30166 0.10565
# Poissons Ratio (y) = 0.48352 0.31423
# Poissons Ratio (z) = 0.16154 0.29976
#
# Static dielectric constant tensor:
#      x y z
#    x 3.580660 0.000000 0.100810 
#    y 0.000000 2.949630 0.000000 
#    z 0.100810 0.000000 3.456230 
# 
# 
# High freq. dielectric constant tensor:
#      x y z
#    x 1.686200 0.000000 0.009060 
#    y 0.000000 1.625790 0.000000 
#    z 0.009060 0.000000 1.690660 
# 
# From -- ./inp_files/219126.got.cif
#   From: 2010.06.25/outbox.cif.g09.slc.cpg/sg12_110_cif.got.tgz:219126.got - 2010.06.28 00:19:55.
