data_PCOD8082519
_publ_section_title
;
Structure prediction by ZEFSAII (Michael W. Deem and Ramdas Pophale) SiO2 
 PCOD8082519
Probable space group: C 2/M
;
_chemical_formula_sum "Si O2"
_cell_formula_units_Z 64
_cell_length_a 24.203514
_cell_length_b 8.987466
_cell_length_c 16.194064
_cell_angle_alpha 90.000000
_cell_angle_beta 88.288931
_cell_angle_gamma 90.000000
_cell_volume 3521.095830
_symmetry_space_group_name_H-M "C 2/M"
_symmetry_group_IT_number 12
_symmetry_cell_setting 'monoclinic'
loop_
_space_group_symop_operation_xyz
x,y,z
-x,y,-z
-x,-y,-z
x,-y,z
1/2+x,1/2+y,z
1/2-x,1/2+y,-z
1/2-x,1/2-y,-z
1/2+x,1/2-y,z
loop_
_atom_site_type_symbol
_atom_site_label
_atom_site_fract_x
_atom_site_fract_y
_atom_site_fract_z
Si Si1 0.942273 0.324155 0.216390
Si Si2 0.267163 0.323781 0.807083
Si Si3 0.147972 0.326244 0.305773
Si Si4 0.341584 0.676168 0.132620
Si Si5 0.850690 0.174026 0.944595
Si Si6 0.079971 0.171668 0.437519
Si Si7 0.435222 0.827270 0.835184
Si Si8 0.540927 0.672143 0.617266
O O1 0.932879 0.500000 0.210475
O O2 0.899343 0.237612 0.161944
O O3 0.935504 0.275280 0.311557
O O4 0.002164 0.274626 0.180299
O O5 0.261576 0.500000 0.800928
O O6 0.297089 0.261256 0.724113
O O7 0.207008 0.251593 0.813293
O O8 0.301467 0.272701 0.886525
O O9 0.161476 0.500000 0.307975
O O10 0.128850 0.270691 0.396643
O O11 0.098595 0.286114 0.245398
O O12 0.339033 0.500000 0.144617
O O13 0.335209 0.723482 0.037415
O O14 0.908793 0.246335 0.915323
O O15 0.859465 0.000000 0.937539
O O16 0.079502 0.198514 0.535735
O O17 0.021370 0.220094 0.401623
O O18 0.091539 0.000000 0.416566
O O19 0.432216 0.000000 0.854507
O O20 0.542981 0.500000 0.644325
#
# Coordination Sequence:
#
# PCOD8082519 Si02
#       8
#     8   8   8   8   8   8   8   8
#     4  11  22  36  52  75 108 145 181 216 257 313
#     4  10  20  36  57  80 103 134 175 222 268 312
#     4  10  18  31  52  80 110 140 173 216 263 308
#     4  11  23  38  54  76 103 138 179 220 266 316
#     4   9  20  36  56  79 103 132 173 221 269 314
#     4   9  17  30  51  80 110 139 174 213 259 310
#     4   9  19  33  50  75 107 140 174 213 262 309
#     4   9  18  32  51  77 109 143 175 213 258 307
#
# _framework density 18.176159999999999
#
# number of rings (size 3 to 8) (size 9 to 14) (size 15 to 20)
#    0.000    2.250    1.250    2.625    0.000    4.000 
#    0.000    3.750    0.000    0.750    0.000    0.000 
#    0.000    0.000    0.000    0.000    0.000    0.000 
#
# Total GULP energy -396891.297381 kJ/mol
# GULP energy per Si atom -12402.853043 kJ/mol
# Density = 1.813479 g / cm^3
# Si number density = 18.176160 Si / 1000 Ang^3
#
#
#
# Elastic Constant Matrix: (Units=GPa)
#
#
# Indices 1 2 3 4 5 6 
#
# 1 91.1929 34.9611 22.8239 0.0000 -22.6421 0.0000
# 2 34.9611 65.9498 29.0239 0.0000 -13.5697 0.0000
# 3 22.8239 29.0239 46.5205 0.0000 -22.0882 0.0000
# 4 0.0000 0.0000 0.0000 30.5911 0.0000 -5.5511
# 5 -22.6421 -13.5697 -22.0882 0.0000 28.2795 0.0000
# 6 0.0000 0.0000 0.0000 -5.5511 0.0000 32.3157
#
#
#
# Elastic Compliance Matrix: (Units=1/GPa)
#
#
# Indices 1 2 3 4 5 6 
#
# 1 0.015857 -0.006915 0.001569 0.000000 0.010603 0.000000
# 2 -0.006915 0.023919 -0.013843 0.000000 -0.004872 0.000000
# 3 0.001569 -0.013843 0.042606 0.000000 0.027892 0.000000
# 4 0.000000 0.000000 0.000000 0.033741 0.000000 0.005796
# 5 0.010603 -0.004872 0.027892 0.000000 0.063298 0.000000
# 6 0.000000 0.000000 0.000000 0.005796 0.000000 0.031940
#
#
# Mechanical properties :
#
#
# Convention : Reuss Voigt Hill
#
# Bulk Modulus (GPa) = 22.72569 41.92011 32.32290
# Shear Modulus (GPa) = 18.91027 26.02756 22.46891
#
# Velocity S-wave (km/s) = 3.22900 3.78823 3.51974
# Velocity P-wave (km/s) = 5.14122 6.49981 5.86002
#
# Compressibility (1/GPa) = 0.04400307
#
# Stress axis : x y z
#
# Youngs Moduli (GPa) = 63.06507 41.80859 23.47082
#
# Poissons Ratio (x) = 0.28909 -0.03682
# Poissons Ratio (y) = 0.43607 0.32491
# Poissons Ratio (z) = -0.09894 0.57877
#
# Static dielectric constant tensor:
#      x y z
#    x 3.249850 0.000000 -0.162580 
#    y 0.000000 3.287020 0.000000 
#    z -0.162580 0.000000 3.326000 
# 
# 
# High freq. dielectric constant tensor:
#      x y z
#    x 1.689200 0.000000 -0.022050 
#    y 0.000000 1.708240 0.000000 
#    z -0.022050 0.000000 1.696250 
# 
# From -- ./inp_files/287626.got.cif
#   From: 2010.06.25/outbox.cif.g09.slc.cpg/sg12_144_cif.got.tgz:287626.got - 2010.06.28 00:19:55.
