data_PCOD8082573
_publ_section_title
;
Structure prediction by ZEFSAII (Michael W. Deem and Ramdas Pophale) SiO2 
 PCOD8082573
Probable space group: C 2/M
;
_chemical_formula_sum "Si O2"
_cell_formula_units_Z 64
_cell_length_a 25.721130
_cell_length_b 9.186670
_cell_length_c 14.808869
_cell_angle_alpha 90.000000
_cell_angle_beta 98.235424
_cell_angle_gamma 90.000000
_cell_volume 3463.126013
_symmetry_space_group_name_H-M "C 2/M"
_symmetry_group_IT_number 12
_symmetry_cell_setting 'monoclinic'
loop_
_space_group_symop_operation_xyz
x,y,z
-x,y,-z
-x,-y,-z
x,-y,z
1/2+x,1/2+y,z
1/2-x,1/2+y,-z
1/2-x,1/2-y,-z
1/2+x,1/2-y,z
loop_
_atom_site_type_symbol
_atom_site_label
_atom_site_fract_x
_atom_site_fract_y
_atom_site_fract_z
Si Si1 0.599772 0.673493 0.131153
Si Si2 0.594807 0.328888 0.928408
Si Si3 0.312336 0.670939 0.172617
Si Si4 0.284998 0.673317 0.785722
Si Si5 0.533882 0.332377 0.597055
Si Si6 0.499624 0.672008 0.784803
Si Si7 0.365308 0.164230 0.345633
Si Si8 0.240293 0.338490 0.586365
O O1 0.600338 0.500000 0.130790
O O2 0.656613 0.729027 0.178437
O O3 0.554478 0.734838 0.186211
O O4 0.588884 0.734847 0.027839
O O5 0.585610 0.500000 0.928474
O O6 0.654023 0.295387 0.909177
O O7 0.549860 0.261776 0.851453
O O8 0.302509 0.500000 0.183318
O O9 0.256366 0.753206 0.155090
O O10 0.348563 0.728816 0.261967
O O11 0.278140 0.500000 0.793365
O O12 0.270803 0.726244 0.680959
O O13 0.500000 0.307927 0.500000
O O14 0.552118 0.500000 0.610300
O O15 0.502517 0.285049 0.679960
O O16 0.582987 0.227537 0.595716
O O17 0.499113 0.500000 0.795975
O O18 0.321689 0.161971 0.412247
O O19 0.374319 0.000000 0.310978
O O20 0.261769 0.500000 0.574259
O O21 0.250000 0.250000 0.500000
#
# Coordination Sequence:
#
# PCOD8082573 Si02
#       8
#     8   8   8   8   8   8   8   8
#     4   9  17  29  48  73 105 140 169 213 266 310
#     4   9  16  27  48  77 102 130 176 219 258 307
#     4  10  18  31  53  77 102 133 171 215 257 303
#     4   9  19  34  49  74 108 136 170 211 261 316
#     4  10  20  33  52  80 108 135 171 215 261 305
#     4   9  16  29  48  74 106 136 173 216 256 305
#     4  10  20  35  53  74 103 136 171 211 258 309
#     4   9  19  33  50  72  97 130 171 212 251 306
#
# _framework density 18.480412999999999
#
# number of rings (size 3 to 8) (size 9 to 14) (size 15 to 20)
#    0.000    2.625    1.250    1.875    0.000    5.750 
#    0.000    2.500    0.000    1.500    0.000    0.875 
#    0.000    0.000    0.000    0.000    0.000    0.000 
#
# Total GULP energy -396672.499180 kJ/mol
# GULP energy per Si atom -12396.015599 kJ/mol
# Density = 1.843835 g / cm^3
# Si number density = 18.480413 Si / 1000 Ang^3
#
#
#
# Elastic Constant Matrix: (Units=GPa)
#
#
# Indices 1 2 3 4 5 6 
#
# 1 144.7167 32.8098 75.0383 0.0000 4.6379 0.0000
# 2 32.8098 38.3756 23.4148 0.0000 -3.7673 0.0000
# 3 75.0383 23.4148 129.8759 0.0000 -9.4103 0.0000
# 4 0.0000 0.0000 0.0000 13.2657 0.0000 -1.4202
# 5 4.6379 -3.7673 -9.4103 0.0000 24.0424 0.0000
# 6 0.0000 0.0000 0.0000 -1.4202 0.0000 28.5020
#
#
#
# Elastic Compliance Matrix: (Units=1/GPa)
#
#
# Indices 1 2 3 4 5 6 
#
# 1 0.011760 -0.006984 -0.005948 0.000000 -0.005691 0.000000
# 2 -0.006984 0.033585 -0.001586 0.000000 0.005989 0.000000
# 3 -0.005948 -0.001586 0.011822 0.000000 0.005526 0.000000
# 4 0.000000 0.000000 0.000000 0.075786 0.000000 0.003776
# 5 -0.005691 0.005989 0.005526 0.000000 0.045792 0.000000
# 6 0.000000 0.000000 0.000000 0.003776 0.000000 0.035273
#
#
# Mechanical properties :
#
#
# Convention : Reuss Voigt Hill
#
# Bulk Modulus (GPa) = 35.54660 63.94374 49.74517
# Shear Modulus (GPa) = 19.80738 25.27572 22.54155
#
# Velocity S-wave (km/s) = 3.27739 3.70226 3.49629
# Velocity P-wave (km/s) = 5.79640 7.27678 6.57837
#
# Compressibility (1/GPa) = 0.02813208
#
# Stress axis : x y z
#
# Youngs Moduli (GPa) = 85.03557 29.77542 84.58557
#
# Poissons Ratio (x) = 0.20795 0.50309
# Poissons Ratio (y) = 0.59388 0.13414
# Poissons Ratio (z) = 0.50576 0.04722
#
# Static dielectric constant tensor:
#      x y z
#    x 3.653850 0.000000 -0.035120 
#    y 0.000000 3.068400 0.000000 
#    z -0.035120 0.000000 3.402290 
# 
# 
# High freq. dielectric constant tensor:
#      x y z
#    x 1.725570 0.000000 -0.004500 
#    y 0.000000 1.673820 0.000000 
#    z -0.004500 0.000000 1.714150 
# 
# From -- ./inp_files/244050.got.cif
#   From: 2010.06.25/outbox.cif.g09.slc.cpg/sg12_123_cif.got.tgz:244050.got - 2010.06.28 00:19:55.
