data_PCOD8082036
_publ_section_title
;
Structure prediction by ZEFSAII (Michael W. Deem and Ramdas Pophale) SiO2 
 PCOD8082036
Probable space group: C 2/M
;
_chemical_formula_sum "Si O2"
_cell_formula_units_Z 56
_cell_length_a 27.220235
_cell_length_b 9.304127
_cell_length_c 17.279716
_cell_angle_alpha 90.000000
_cell_angle_beta 125.204708
_cell_angle_gamma 90.000000
_cell_volume 3575.839341
_symmetry_space_group_name_H-M "C 2/M"
_symmetry_group_IT_number 12
_symmetry_cell_setting 'monoclinic'
loop_
_space_group_symop_operation_xyz
x,y,z
-x,y,-z
-x,-y,-z
x,-y,z
1/2+x,1/2+y,z
1/2-x,1/2+y,-z
1/2-x,1/2-y,-z
1/2+x,1/2-y,z
loop_
_atom_site_type_symbol
_atom_site_label
_atom_site_fract_x
_atom_site_fract_y
_atom_site_fract_z
Si Si1 0.450084 0.665029 0.290258
Si Si2 0.920766 0.164992 0.558439
Si Si3 0.840786 0.833773 0.089951
Si Si4 0.403509 0.828677 0.391495
Si Si5 0.716574 0.664827 0.704709
Si Si6 0.272339 0.164307 0.910227
Si Si7 0.788718 0.835858 0.474671
O O1 0.434683 0.500000 0.299889
O O2 0.521095 0.678517 0.332214
O O3 0.407258 0.710911 0.180053
O O4 0.440384 0.771303 0.352402
O O5 0.933194 0.264312 0.495655
O O6 0.858775 0.213610 0.543552
O O7 0.912390 0.000000 0.522646
O O8 0.791882 0.790739 0.110821
O O9 0.837895 0.000000 0.067511
O O10 0.826824 0.753294 0.996974
O O11 0.335435 0.775799 0.321926
O O12 0.406399 0.000000 0.396773
O O13 0.693305 0.500000 0.693081
O O14 0.769740 0.692992 0.815215
O O15 0.737888 0.690644 0.635907
O O16 0.286358 0.000000 0.941528
O O17 0.750000 0.750000 0.500000
O O18 0.782689 0.000000 0.493544
#
# Coordination Sequence:
#
# PCOD8082036 Si02
#       7
#     8   8   8   8   8   8   8
#     4  10  18  31  46  60  85 125 160 181 208 260
#     4   9  19  33  48  62  83 120 157 180 212 270
#     4   9  17  27  42  63  88 118 152 186 218 250
#     4  11  20  27  40  65  94 119 148 188 225 254
#     4   9  17  32  49  64  87 123 159 181 212 271
#     4   9  16  28  44  62  87 118 152 186 217 253
#     4   9  18  32  50  70  89 110 142 185 229 271
#
# _framework density 15.660658
#
# number of rings (size 3 to 8) (size 9 to 14) (size 15 to 20)
#    0.000    2.571    1.429    2.571    0.000    5.714 
#    0.000    0.000    0.000    0.000    0.000    1.000 
#    0.000    8.000    0.000    0.000    0.000    0.000 
#
# Total GULP energy -347018.973350 kJ/mol
# GULP energy per Si atom -12393.534763 kJ/mol
# Density = 1.562501 g / cm^3
# Si number density = 15.660658 Si / 1000 Ang^3
#
#
#
# Elastic Constant Matrix: (Units=GPa)
#
#
# Indices 1 2 3 4 5 6 
#
# 1 69.3576 34.9551 61.3364 0.0000 3.2089 0.0000
# 2 34.9551 65.8663 45.3509 0.0000 4.4805 0.0000
# 3 61.3364 45.3509 136.5783 0.0000 17.1260 0.0000
# 4 0.0000 0.0000 0.0000 24.6207 0.0000 -2.5801
# 5 3.2089 4.4805 17.1260 0.0000 18.6203 0.0000
# 6 0.0000 0.0000 0.0000 -2.5801 0.0000 19.7831
#
#
#
# Elastic Compliance Matrix: (Units=1/GPa)
#
#
# Indices 1 2 3 4 5 6 
#
# 1 0.027335 -0.007686 -0.010586 0.000000 0.006875 0.000000
# 2 -0.007686 0.021877 -0.003751 0.000000 -0.000489 0.000000
# 3 -0.010586 -0.003751 0.014672 0.000000 -0.010767 0.000000
# 4 0.000000 0.000000 0.000000 0.041179 0.000000 0.005371
# 5 0.006875 -0.000489 -0.010767 0.000000 0.062541 0.000000
# 6 0.000000 0.000000 0.000000 0.005371 0.000000 0.051249
#
#
# Mechanical properties :
#
#
# Convention : Reuss Voigt Hill
#
# Bulk Modulus (GPa) = 50.40848 61.67633 56.04240
# Shear Modulus (GPa) = 18.55208 21.28217 19.91712
#
# Velocity S-wave (km/s) = 3.44558 3.69040 3.57009
# Velocity P-wave (km/s) = 6.93449 7.59126 7.27030
#
# Compressibility (1/GPa) = 0.01983793
#
# Stress axis : x y z
#
# Youngs Moduli (GPa) = 36.58287 45.70962 68.15793
#
# Poissons Ratio (x) = 0.35130 0.72153
# Poissons Ratio (y) = 0.28116 0.25569
# Poissons Ratio (z) = 0.38727 0.17148
#
# Static dielectric constant tensor:
#      x y z
#    x 2.654780 0.000000 0.150310 
#    y 0.000000 2.940890 0.000000 
#    z 0.150310 0.000000 3.143770 
# 
# 
# High freq. dielectric constant tensor:
#      x y z
#    x 1.552020 0.000000 0.015590 
#    y 0.000000 1.599380 0.000000 
#    z 0.015590 0.000000 1.602630 
# 
# From -- ./inp_files/291675.got.cif
#   From: 2010.06.25/outbox.cif.g09.slc.cpg/sg12_146_cif.got.tgz:291675.got - 2010.06.28 00:19:55.
