data_PCOD8082605
_publ_section_title
;
Structure prediction by ZEFSAII (Michael W. Deem and Ramdas Pophale) SiO2 
 PCOD8082605
Probable space group: C 2/M
;
_chemical_formula_sum "Si O2"
_cell_formula_units_Z 64
_cell_length_a 15.521467
_cell_length_b 8.937610
_cell_length_c 23.930738
_cell_angle_alpha 90.000000
_cell_angle_beta 89.889909
_cell_angle_gamma 90.000000
_cell_volume 3319.781162
_symmetry_space_group_name_H-M "C 2/M"
_symmetry_group_IT_number 12
_symmetry_cell_setting 'monoclinic'
loop_
_space_group_symop_operation_xyz
x,y,z
-x,y,-z
-x,-y,-z
x,-y,z
1/2+x,1/2+y,z
1/2-x,1/2+y,-z
1/2-x,1/2-y,-z
1/2+x,1/2-y,z
loop_
_atom_site_type_symbol
_atom_site_label
_atom_site_fract_x
_atom_site_fract_y
_atom_site_fract_z
Si Si1 0.587187 0.322388 0.389211
Si Si2 0.158333 0.824239 0.998260
Si Si3 0.250388 0.821981 0.188880
Si Si4 0.593241 0.677216 0.115492
Si Si5 0.097330 0.175857 0.877137
Si Si6 0.087570 0.326828 0.618957
Si Si7 0.253595 0.677614 0.684932
Si Si8 0.157928 0.326404 0.496537
O O1 0.588325 0.500000 0.395122
O O2 0.496301 0.268429 0.364208
O O3 0.662629 0.264135 0.348179
O O4 0.599832 0.249843 0.449660
O O5 0.110096 0.778718 0.941706
O O6 0.172002 0.000000 0.001839
O O7 0.250000 0.750000 0.000000
O O8 0.104290 0.766058 0.051742
O O9 0.168852 0.756607 0.154588
O O10 0.338779 0.764746 0.162615
O O11 0.243055 0.761257 0.251964
O O12 0.251483 0.000000 0.187370
O O13 0.598904 0.500000 0.116261
O O14 0.499775 0.726307 0.138656
O O15 0.112187 0.000000 0.868243
O O16 0.070060 0.500000 0.632865
O O17 0.167212 0.263022 0.655071
O O18 0.107757 0.304319 0.554074
O O19 0.253323 0.500000 0.683660
O O20 0.171274 0.500000 0.482465
O O21 0.250000 0.250000 0.500000
#
# Coordination Sequence:
#
# PCOD8082605 Si02
#       8
#     8   8   8   8   8   8   8   8
#     4  11  22  38  59  87 116 146 186 232 277 332
#     4  10  18  31  53  79 107 141 177 217 271 329
#     4  10  20  37  59  78 103 145 189 225 268 327
#     4   9  18  33  54  79 107 142 180 216 270 335
#     4  10  20  34  54  80 111 141 176 228 277 322
#     4  10  21  39  58  81 114 150 183 224 280 334
#     4   9  20  39  58  77 109 149 185 225 277 326
#     4  11  21  36  60  86 116 152 186 225 280 337
#
# _framework density 19.278378
#
# number of rings (size 3 to 8) (size 9 to 14) (size 15 to 20)
#    0.000    2.000    2.500    1.500    0.000    5.000 
#    0.000    4.375    0.000    1.500    0.000    0.000 
#    0.000    0.000    0.000    0.000    0.000    0.000 
#
# Total GULP energy -396823.222512 kJ/mol
# GULP energy per Si atom -12400.725703 kJ/mol
# Density = 1.923450 g / cm^3
# Si number density = 19.278378 Si / 1000 Ang^3
#
#
#
# Elastic Constant Matrix: (Units=GPa)
#
#
# Indices 1 2 3 4 5 6 
#
# 1 165.1282 33.0621 64.4171 0.0000 -3.5788 0.0000
# 2 33.0621 41.9818 30.9593 0.0000 -2.5931 0.0000
# 3 64.4171 30.9593 134.7497 0.0000 -2.6388 0.0000
# 4 0.0000 0.0000 0.0000 19.9354 0.0000 -1.9488
# 5 -3.5788 -2.5931 -2.6388 0.0000 14.7162 0.0000
# 6 0.0000 0.0000 0.0000 -1.9488 0.0000 34.6437
#
#
#
# Elastic Compliance Matrix: (Units=1/GPa)
#
#
# Indices 1 2 3 4 5 6 
#
# 1 0.008022 -0.004161 -0.002865 0.000000 0.000704 0.000000
# 2 -0.004161 0.031061 -0.005077 0.000000 0.003551 0.000000
# 3 -0.002865 -0.005077 0.009961 0.000000 0.000195 0.000000
# 4 0.000000 0.000000 0.000000 0.050439 0.000000 0.002837
# 5 0.000704 0.003551 0.000195 0.000000 0.068784 0.000000
# 6 0.000000 0.000000 0.000000 0.002837 0.000000 0.029025
#
#
# Mechanical properties :
#
#
# Convention : Reuss Voigt Hill
#
# Bulk Modulus (GPa) = 40.26379 66.52629 53.39504
# Shear Modulus (GPa) = 21.76008 28.08715 24.92361
#
# Velocity S-wave (km/s) = 3.36330 3.82111 3.59949
# Velocity P-wave (km/s) = 6.00110 7.35194 6.71060
#
# Compressibility (1/GPa) = 0.02483621
#
# Stress axis : x y z
#
# Youngs Moduli (GPa) = 124.65721 32.19503 100.38952
#
# Poissons Ratio (x) = 0.13397 0.28762
# Poissons Ratio (y) = 0.51873 0.50973
# Poissons Ratio (z) = 0.35715 0.16347
#
# Static dielectric constant tensor:
#      x y z
#    x 3.919400 0.000000 0.222440 
#    y 0.000000 3.229460 0.000000 
#    z 0.222440 0.000000 3.854960 
# 
# 
# High freq. dielectric constant tensor:
#      x y z
#    x 1.766830 0.000000 0.001790 
#    y 0.000000 1.718590 0.000000 
#    z 0.001790 0.000000 1.751460 
# 
# From -- ./inp_files/338691.got.cif
#   From: 2010.06.25/outbox.cif.g09.slc.cpg/sg12_170_cif.got.tgz:338691.got - 2010.06.28 00:19:55.
