data_PCOD8082788
_publ_section_title
;
Structure prediction by ZEFSAII (Michael W. Deem and Ramdas Pophale) SiO2 
 PCOD8082788
Probable space group: C 2/M
;
_chemical_formula_sum "Si O2"
_cell_formula_units_Z 56
_cell_length_a 18.549587
_cell_length_b 14.766579
_cell_length_c 15.173786
_cell_angle_alpha 90.000000
_cell_angle_beta 135.093155
_cell_angle_gamma 90.000000
_cell_volume 2934.173854
_symmetry_space_group_name_H-M "C 2/M"
_symmetry_group_IT_number 12
_symmetry_cell_setting 'monoclinic'
loop_
_space_group_symop_operation_xyz
x,y,z
-x,y,-z
-x,-y,-z
x,-y,z
1/2+x,1/2+y,z
1/2-x,1/2+y,-z
1/2-x,1/2-y,-z
1/2+x,1/2-y,z
loop_
_atom_site_type_symbol
_atom_site_label
_atom_site_fract_x
_atom_site_fract_y
_atom_site_fract_z
Si Si1 0.524062 0.774605 0.112266
Si Si2 0.048075 0.837233 0.787567
Si Si3 0.823050 0.106263 0.568524
Si Si4 0.191631 0.758852 0.774321
Si Si5 0.759064 0.901389 0.949758
Si Si6 0.251433 0.755311 0.639805
Si Si7 0.650099 0.101229 0.028291
O O1 0.475136 0.731415 0.155153
O O2 0.643038 0.790141 0.227849
O O3 0.500000 0.718859 0.000000
O O4 0.465307 0.869832 0.049580
O O5 0.085444 0.782530 0.732351
O O6 0.946132 0.894139 0.679324
O O7 0.137858 0.900077 0.902290
O O8 0.791426 0.161922 0.454667
O O9 0.769396 0.160398 0.603179
O O10 0.787529 0.000000 0.536264
O O11 0.250935 0.673795 0.868058
O O12 0.173847 0.737728 0.654775
O O13 0.267682 0.842574 0.845710
O O14 0.752919 0.000000 0.898744
O O15 0.666433 0.886854 0.937411
O O16 0.666646 0.000000 0.074431
#
# Coordination Sequence:
#
# PCOD8082788 Si02
#       7
#     8   8   8   8   8   8   8
#     4  11  18  34  55  83 114 148 183 225 280 340
#     4  10  19  35  60  81 114 155 185 234 281 329
#     4  10  23  43  60  82 111 150 199 241 281 341
#     4  11  19  37  56  83 119 147 184 238 286 339
#     4  10  18  31  55  87 116 148 181 222 284 341
#     4  10  23  38  60  83 110 151 191 235 292 339
#     4  10  19  30  49  81 115 147 180 218 277 337
#
# _framework density 19.085440999999999
#
# number of rings (size 3 to 8) (size 9 to 14) (size 15 to 20)
#    0.000    1.714    4.286    1.286    0.000    3.143 
#    0.000    0.714    0.000    4.714    0.000    4.000 
#    0.000    0.000    0.000    0.000    0.000    0.000 
#
# Total GULP energy -346930.509670 kJ/mol
# GULP energy per Si atom -12390.375345 kJ/mol
# Density = 1.904200 g / cm^3
# Si number density = 19.085441 Si / 1000 Ang^3
#
#
#
# Elastic Constant Matrix: (Units=GPa)
#
#
# Indices 1 2 3 4 5 6 
#
# 1 114.9280 42.8837 31.4337 0.0000 -28.9131 0.0000
# 2 42.8837 109.5087 31.0608 0.0000 -8.2134 0.0000
# 3 31.4337 31.0608 72.6117 0.0000 -15.4698 0.0000
# 4 0.0000 0.0000 0.0000 12.9335 0.0000 7.0327
# 5 -28.9131 -8.2134 -15.4698 0.0000 30.1630 0.0000
# 6 0.0000 0.0000 0.0000 7.0327 0.0000 7.0024
#
#
#
# Elastic Compliance Matrix: (Units=1/GPa)
#
#
# Indices 1 2 3 4 5 6 
#
# 1 0.013382 -0.003914 -0.001811 0.000000 0.010833 0.000000
# 2 -0.003914 0.011548 -0.003789 0.000000 -0.002551 0.000000
# 3 -0.001811 -0.003789 0.017499 0.000000 0.006207 0.000000
# 4 0.000000 0.000000 0.000000 0.170349 0.000000 -0.171087
# 5 0.010833 -0.002551 0.006207 0.000000 0.046026 0.000000
# 6 0.000000 0.000000 0.000000 -0.171087 0.000000 0.314635
#
#
# Mechanical properties :
#
#
# Convention : Reuss Voigt Hill
#
# Bulk Modulus (GPa) = 42.73259 56.42276 49.57768
# Shear Modulus (GPa) = 8.32961 22.79779 15.56370
#
# Velocity S-wave (km/s) = 2.09138 3.45992 2.85875
# Velocity P-wave (km/s) = 5.31701 6.75195 6.07698
#
# Compressibility (1/GPa) = 0.02340134
#
# Stress axis : x y z
#
# Youngs Moduli (GPa) = 74.72545 86.59602 57.14639
#
# Poissons Ratio (x) = 0.33897 0.10348
# Poissons Ratio (y) = 0.29251 0.21651
# Poissons Ratio (z) = 0.13531 0.32809
#
# Static dielectric constant tensor:
#      x y z
#    x 3.986570 0.000000 0.017180 
#    y 0.000000 3.360470 0.000000 
#    z 0.017180 0.000000 3.440820 
# 
# 
# High freq. dielectric constant tensor:
#      x y z
#    x 1.758890 0.000000 -0.007690 
#    y 0.000000 1.728480 0.000000 
#    z -0.007690 0.000000 1.720970 
# 
# From -- ./inp_files/225360.got.cif
#   From: 2010.06.25/outbox.cif.g09.slc.cpg/sg12_113_cif.got.tgz:225360.got - 2010.06.28 00:19:55.
