data_PCOD8082529
_publ_section_title
;
Structure prediction by ZEFSAII (Michael W. Deem and Ramdas Pophale) SiO2 
 PCOD8082529
Probable space group: C 2/M
;
_chemical_formula_sum "Si O2"
_cell_formula_units_Z 64
_cell_length_a 20.295561
_cell_length_b 8.488148
_cell_length_c 31.298672
_cell_angle_alpha 90.000000
_cell_angle_beta 141.875624
_cell_angle_gamma 90.000000
_cell_volume 3328.785940
_symmetry_space_group_name_H-M "C 2/M"
_symmetry_group_IT_number 12
_symmetry_cell_setting 'monoclinic'
loop_
_space_group_symop_operation_xyz
x,y,z
-x,y,-z
-x,-y,-z
x,-y,z
1/2+x,1/2+y,z
1/2-x,1/2+y,-z
1/2-x,1/2-y,-z
1/2+x,1/2-y,z
loop_
_atom_site_type_symbol
_atom_site_label
_atom_site_fract_x
_atom_site_fract_y
_atom_site_fract_z
Si Si1 0.814223 0.683519 0.993975
Si Si2 0.872450 0.186234 0.155265
Si Si3 0.715685 0.817680 0.360035
Si Si4 0.551530 0.681463 0.640614
Si Si5 0.923404 0.682953 0.499182
Si Si6 0.994496 0.686662 0.856446
Si Si7 0.729064 0.316676 0.274170
Si Si8 0.497016 0.182880 0.294321
O O1 0.801529 0.500000 0.990613
O O2 0.751830 0.736069 0.918908
O O3 0.750000 0.750000 0.000000
O O4 0.938636 0.728727 0.065638
O O5 0.901405 0.277195 0.213130
O O6 0.951128 0.237922 0.157395
O O7 0.884963 0.000000 0.168776
O O8 0.814722 0.782628 0.441656
O O9 0.725565 0.713290 0.322853
O O10 0.608676 0.769835 0.329902
O O11 0.713570 0.000000 0.345534
O O12 0.533303 0.500000 0.619692
O O13 0.480339 0.787120 0.573046
O O14 0.675396 0.722661 0.698979
O O15 0.514719 0.712596 0.669801
O O16 0.895245 0.500000 0.480344
O O17 0.000000 0.739250 0.500000
O O18 0.986503 0.500000 0.844885
O O19 0.878431 0.759648 0.803783
O O20 0.746935 0.500000 0.274959
O O21 0.492290 0.000000 0.304315
#
# Coordination Sequence:
#
# PCOD8082529 Si02
#       8
#     8   8   8   8   8   8   8   8
#     4   8  16  28  46  76 114 151 190 238 287 340
#     4  10  18  31  53  82 116 155 196 238 291 345
#     4  11  23  39  63  90 117 154 197 239 288 345
#     4  12  26  43  64  87 116 154 197 240 293 354
#     4  11  23  40  64  91 120 153 191 238 292 344
#     4  10  18  31  52  82 117 153 195 242 291 340
#     4  12  23  37  59  87 119 153 195 244 294 345
#     4  11  24  41  60  86 122 157 196 243 293 347
#
# _framework density 19.226229
#
# number of rings (size 3 to 8) (size 9 to 14) (size 15 to 20)
#    0.000    1.375    2.500    4.125    0.000    3.500 
#    0.000    0.000    0.000    0.750    0.000    5.250 
#    0.000    0.000    0.000    0.000    0.000    0.000 
#
# Total GULP energy -396747.942458 kJ/mol
# GULP energy per Si atom -12398.373202 kJ/mol
# Density = 1.918247 g / cm^3
# Si number density = 19.226229 Si / 1000 Ang^3
#
#
#
# Elastic Constant Matrix: (Units=GPa)
#
#
# Indices 1 2 3 4 5 6 
#
# 1 66.1183 21.1452 34.5768 -0.0001 -1.9489 0.0005
# 2 21.1452 45.6302 19.6221 0.0000 6.1344 0.0013
# 3 34.5768 19.6221 142.4261 -0.0001 3.4810 0.0003
# 4 -0.0001 0.0000 -0.0001 31.2645 -0.0001 -0.8690
# 5 -1.9489 6.1344 3.4810 -0.0001 22.4978 0.0000
# 6 0.0005 0.0013 0.0003 -0.8690 0.0000 25.3491
#
#
#
# Elastic Compliance Matrix: (Units=1/GPa)
#
#
# Indices 1 2 3 4 5 6 
#
# 1 0.019865 -0.008179 -0.003807 0.000000 0.004540 0.000000
# 2 -0.008179 0.027464 -0.001604 0.000000 -0.007949 -0.000001
# 3 -0.003807 -0.001604 0.008195 0.000000 -0.001160 0.000000
# 4 0.000000 0.000000 0.000000 0.032016 0.000000 0.001098
# 5 0.004540 -0.007949 -0.001160 0.000000 0.047189 0.000000
# 6 0.000000 -0.000001 0.000000 0.001098 0.000000 0.039487
#
#
# Mechanical properties :
#
#
# Convention : Reuss Voigt Hill
#
# Bulk Modulus (GPa) = 35.28029 44.98473 40.13251
# Shear Modulus (GPa) = 23.71457 27.74432 25.72944
#
# Velocity S-wave (km/s) = 3.51586 3.80286 3.66217
# Velocity P-wave (km/s) = 5.90522 6.53688 6.22906
#
# Compressibility (1/GPa) = 0.02834444
#
# Stress axis : x y z
#
# Youngs Moduli (GPa) = 50.34095 36.41175 122.03069
#
# Poissons Ratio (x) = 0.29780 0.46453
# Poissons Ratio (y) = 0.41172 0.19572
# Poissons Ratio (z) = 0.19163 0.05840
#
# Static dielectric constant tensor:
#      x y z
#    x 3.215400 0.000000 0.151690 
#    y 0.000000 3.521620 0.000000 
#    z 0.151690 0.000000 4.183610 
# 
# 
# High freq. dielectric constant tensor:
#      x y z
#    x 1.706460 0.000000 0.007120 
#    y 0.000000 1.759840 0.000000 
#    z 0.007120 0.000000 1.773610 
# 
# From -- ./inp_files/378464.got.cif
#   From: 2010.06.25/outbox.cif.g09.slc.cpg/sg12_190_cif.got.tgz:378464.got - 2010.06.28 00:19:55.
