data_PCOD8082757
_publ_section_title
;
Structure prediction by ZEFSAII (Michael W. Deem and Ramdas Pophale) SiO2 
 PCOD8082757
Probable space group: C 2/M
;
_chemical_formula_sum "Si O2"
_cell_formula_units_Z 64
_cell_length_a 18.004669
_cell_length_b 22.584539
_cell_length_c 11.076086
_cell_angle_alpha 90.000000
_cell_angle_beta 131.105605
_cell_angle_gamma 90.000000
_cell_volume 3393.637245
_symmetry_space_group_name_H-M "C 2/M"
_symmetry_group_IT_number 12
_symmetry_cell_setting 'monoclinic'
loop_
_space_group_symop_operation_xyz
x,y,z
-x,y,-z
-x,-y,-z
x,-y,z
1/2+x,1/2+y,z
1/2-x,1/2+y,-z
1/2-x,1/2-y,-z
1/2+x,1/2-y,z
loop_
_atom_site_type_symbol
_atom_site_label
_atom_site_fract_x
_atom_site_fract_y
_atom_site_fract_z
Si Si1 0.053819 0.265578 0.297827
Si Si2 0.598706 0.133324 0.167406
Si Si3 0.657825 0.760226 0.817852
Si Si4 0.555438 0.433463 0.686885
Si Si5 0.388668 0.365820 0.620356
Si Si6 0.704205 0.929763 0.499750
Si Si7 0.702812 0.354879 0.735357
Si Si8 0.891543 0.346076 0.428194
O O1 0.071887 0.303395 0.196898
O O2 0.099086 0.201026 0.319809
O O3 0.109808 0.295767 0.469688
O O4 0.938397 0.260940 0.202017
O O5 0.640510 0.088861 0.313838
O O6 0.678228 0.144001 0.144552
O O7 0.500000 0.106488 0.000000
O O8 0.653063 0.706725 0.718715
O O9 0.668312 0.820653 0.751289
O O10 0.750000 0.750000 0.000000
O O11 0.500000 0.430891 0.500000
O O12 0.569284 0.500000 0.747730
O O13 0.494442 0.397984 0.723778
O O14 0.663774 0.404602 0.787349
O O15 0.314044 0.402135 0.625345
O O16 0.336106 0.368764 0.437042
O O17 0.653008 0.906699 0.567658
O O18 0.711687 0.000000 0.510051
O O19 0.000000 0.361434 0.500000
#
# Coordination Sequence:
#
# PCOD8082757 Si02
#       8
#     8   8   8   8   8   8   8   8
#     4  10  19  34  54  81 114 146 179 226 284 340
#     4  10  22  36  52  79 117 148 184 230 286 338
#     4  11  20  32  53  82 111 141 182 226 281 337
#     4   9  17  29  48  76 106 137 171 218 267 317
#     4  10  18  31  55  81 111 141 179 226 276 324
#     4  10  22  37  57  83 108 147 199 232 270 329
#     4  10  19  30  52  76 108 142 179 223 272 325
#     4   9  20  35  57  79 109 143 184 231 281 324
#
# _framework density 18.858820999999999
#
# number of rings (size 3 to 8) (size 9 to 14) (size 15 to 20)
#    0.000    2.125    2.500    1.125    1.750    5.000 
#    0.000    0.000    0.000    0.750    0.000    0.875 
#    0.000    0.000    0.000    0.000    0.000    0.000 
#
# Total GULP energy -396697.542608 kJ/mol
# GULP energy per Si atom -12396.798207 kJ/mol
# Density = 1.881590 g / cm^3
# Si number density = 18.858821 Si / 1000 Ang^3
#
#
#
# Elastic Constant Matrix: (Units=GPa)
#
#
# Indices 1 2 3 4 5 6 
#
# 1 131.0181 67.2054 36.5071 0.0000 17.8120 0.0000
# 2 67.2054 130.8846 15.8945 0.0000 7.3278 0.0000
# 3 36.5071 15.8945 58.7395 0.0000 13.3581 0.0000
# 4 0.0000 0.0000 0.0000 13.8713 0.0000 -0.0394
# 5 17.8120 7.3278 13.3581 0.0000 20.6094 0.0000
# 6 0.0000 0.0000 0.0000 -0.0394 0.0000 32.2532
#
#
#
# Elastic Compliance Matrix: (Units=1/GPa)
#
#
# Indices 1 2 3 4 5 6 
#
# 1 0.012681 -0.005576 -0.005080 0.000000 -0.005685 0.000000
# 2 -0.005576 0.010401 0.000465 0.000000 0.000820 0.000000
# 3 -0.005080 0.000465 0.022396 0.000000 -0.010291 0.000000
# 4 0.000000 0.000000 0.000000 0.072092 0.000000 0.000088
# 5 -0.005685 0.000820 -0.010291 0.000000 0.059813 0.000000
# 6 0.000000 0.000000 0.000000 0.000088 0.000000 0.031005
#
#
# Mechanical properties :
#
#
# Convention : Reuss Voigt Hill
#
# Bulk Modulus (GPa) = 39.84730 62.20625 51.02678
# Shear Modulus (GPa) = 21.08494 26.74911 23.91703
#
# Velocity S-wave (km/s) = 3.34734 3.77023 3.56506
# Velocity P-wave (km/s) = 6.00955 7.21178 6.63794
#
# Compressibility (1/GPa) = 0.02509580
#
# Stress axis : x y z
#
# Youngs Moduli (GPa) = 78.85736 96.14266 44.65084
#
# Poissons Ratio (x) = 0.53611 0.22681
# Poissons Ratio (y) = 0.43973 -0.02075
# Poissons Ratio (z) = 0.40058 -0.04468
#
# Static dielectric constant tensor:
#      x y z
#    x 2.583300 0.000000 0.040060 
#    y 0.000000 3.557340 0.000000 
#    z 0.040060 0.000000 3.078550 
# 
# 
# High freq. dielectric constant tensor:
#      x y z
#    x 1.749560 0.000000 0.014150 
#    y 0.000000 1.723660 0.000000 
#    z 0.014150 0.000000 1.689600 
# 
# From -- ./inp_files/160312.got.cif
#   From: 2010.06.25/outbox.cif.g09.slc.cpg/sg12_81_cif.got.tgz:160312.got - 2010.06.28 00:19:55.
