data_PCOD8082965
_publ_section_title
;
Structure prediction by ZEFSAII (Michael W. Deem and Ramdas Pophale) SiO2 
 PCOD8082965
Probable space group: C 2/M
;
_chemical_formula_sum "Si O2"
_cell_formula_units_Z 56
_cell_length_a 15.887071
_cell_length_b 26.780095
_cell_length_c 12.552397
_cell_angle_alpha 90.000000
_cell_angle_beta 141.300149
_cell_angle_gamma 90.000000
_cell_volume 3339.102924
_symmetry_space_group_name_H-M "C 2/M"
_symmetry_group_IT_number 12
_symmetry_cell_setting 'monoclinic'
loop_
_space_group_symop_operation_xyz
x,y,z
-x,y,-z
-x,-y,-z
x,-y,z
1/2+x,1/2+y,z
1/2-x,1/2+y,-z
1/2-x,1/2-y,-z
1/2+x,1/2-y,z
loop_
_atom_site_type_symbol
_atom_site_label
_atom_site_fract_x
_atom_site_fract_y
_atom_site_fract_z
Si Si1 0.272244 0.942318 0.886556
Si Si2 0.398896 0.869918 0.489769
Si Si3 0.773835 0.104427 0.380796
Si Si4 0.901343 0.128022 0.808570
Si Si5 0.254667 0.308822 0.510151
Si Si6 0.999606 0.057483 0.730761
Si Si7 0.534239 0.942033 0.271968
O O1 0.248972 0.904254 0.766197
O O2 0.157070 0.936179 0.861158
O O3 0.278931 0.000000 0.852199
O O4 0.410522 0.924788 0.076369
O O5 0.500000 0.849779 0.500000
O O6 0.249760 0.885147 0.297336
O O7 0.379852 0.826365 0.559536
O O8 0.470747 0.916762 0.617048
O O9 0.758665 0.163277 0.398484
O O10 0.921205 0.084893 0.557718
O O11 0.671791 0.071822 0.349744
O O12 0.886022 0.173449 0.708080
O O13 0.965823 0.080514 0.812706
O O14 0.000000 0.145189 0.000000
O O15 0.250000 0.250000 0.500000
O O16 0.956884 0.000000 0.692125
O O17 0.525295 0.000000 0.285082
#
# Coordination Sequence:
#
# PCOD8082965 Si02
#       7
#     8   8   8   8   8   8   8
#     4  10  20  29  47  75 109 140 171 211 247 301
#     4   9  20  35  56  77  99 137 167 212 259 298
#     4  10  18  32  52  72  97 141 175 209 261 305
#     4   9  20  35  56  77  99 137 167 212 259 298
#     4   8  18  37  57  73 102 129 165 210 267 312
#     4  10  19  32  48  74 108 140 173 209 249 300
#     4  10  19  32  48  74 108 140 173 209 249 300
#
# _framework density 16.770970999999999
#
# number of rings (size 3 to 8) (size 9 to 14) (size 15 to 20)
#    0.857    1.714    1.429    2.143    2.000    2.857 
#    0.000    5.714    0.000    0.857    0.000    0.000 
#    0.000    0.000    0.000    0.000    0.000    0.000 
#
# Total GULP energy -346989.245024 kJ/mol
# GULP energy per Si atom -12392.473037 kJ/mol
# Density = 1.673280 g / cm^3
# Si number density = 16.770971 Si / 1000 Ang^3
#
#
#
# Elastic Constant Matrix: (Units=GPa)
#
#
# Indices 1 2 3 4 5 6 
#
# 1 70.4783 31.1724 15.3221 0.0000 -2.3362 0.0000
# 2 31.1724 105.0081 37.9036 0.0000 -6.5382 0.0000
# 3 15.3221 37.9036 95.7925 0.0000 -8.0082 0.0000
# 4 0.0000 0.0000 0.0000 15.7683 0.0000 -2.4952
# 5 -2.3362 -6.5382 -8.0082 0.0000 14.4652 0.0000
# 6 0.0000 0.0000 0.0000 -2.4952 0.0000 15.4179
#
#
#
# Elastic Compliance Matrix: (Units=1/GPa)
#
#
# Indices 1 2 3 4 5 6 
#
# 1 0.016388 -0.004566 -0.000803 0.000000 0.000138 0.000000
# 2 -0.004566 0.012485 -0.003984 0.000000 0.002700 0.000000
# 3 -0.000803 -0.003984 0.012564 0.000000 0.005025 0.000000
# 4 0.000000 0.000000 0.000000 0.065085 0.000000 0.010533
# 5 0.000138 0.002700 0.005025 0.000000 0.073156 0.000000
# 6 0.000000 0.000000 0.000000 0.010533 0.000000 0.066565
#
#
# Mechanical properties :
#
#
# Convention : Reuss Voigt Hill
#
# Bulk Modulus (GPa) = 43.99416 48.89723 46.44570
# Shear Modulus (GPa) = 18.34693 21.58902 19.96797
#
# Velocity S-wave (km/s) = 3.31111 3.59177 3.45429
# Velocity P-wave (km/s) = 6.39587 6.81324 6.60785
#
# Compressibility (1/GPa) = 0.02273029
#
# Stress axis : x y z
#
# Youngs Moduli (GPa) = 61.02182 80.09755 79.59169
#
# Poissons Ratio (x) = 0.36576 0.06390
# Poissons Ratio (y) = 0.27865 0.31709
# Poissons Ratio (z) = 0.04899 0.31910
#
# Static dielectric constant tensor:
#      x y z
#    x 3.031770 0.000000 0.049520 
#    y 0.000000 2.854420 0.000000 
#    z 0.049520 0.000000 3.203590 
# 
# 
# High freq. dielectric constant tensor:
#      x y z
#    x 1.641820 0.000000 0.006670 
#    y 0.000000 1.616130 0.000000 
#    z 0.006670 0.000000 1.646350 
# 
# From -- ./inp_files/149510.got.cif
#   From: 2010.06.25/outbox.cif.g09.slc.cpg/sg12_75_cif.got.tgz:149510.got - 2010.06.28 00:19:55.
