data_PCOD8082999
_publ_section_title
;
Structure prediction by ZEFSAII (Michael W. Deem and Ramdas Pophale) SiO2 
 PCOD8082999
Probable space group: C 2/M
;
_chemical_formula_sum "Si O2"
_cell_formula_units_Z 60
_cell_length_a 21.889886
_cell_length_b 13.474957
_cell_length_c 16.228262
_cell_angle_alpha 90.000000
_cell_angle_beta 132.405501
_cell_angle_gamma 90.000000
_cell_volume 3534.508708
_symmetry_space_group_name_H-M "C 2/M"
_symmetry_group_IT_number 12
_symmetry_cell_setting 'monoclinic'
loop_
_space_group_symop_operation_xyz
x,y,z
-x,y,-z
-x,-y,-z
x,-y,z
1/2+x,1/2+y,z
1/2-x,1/2+y,-z
1/2-x,1/2-y,-z
1/2+x,1/2-y,z
loop_
_atom_site_type_symbol
_atom_site_label
_atom_site_fract_x
_atom_site_fract_y
_atom_site_fract_z
Si Si1 0.927546 0.387737 0.500022
Si Si2 0.250437 0.611488 0.140806
Si Si3 0.564488 0.886326 0.926360
Si Si4 0.500000 0.250007 0.000000
Si Si5 0.861855 0.113675 0.926325
Si Si6 0.109680 0.111490 0.859239
Si Si7 0.687176 0.196387 0.732219
Si Si8 0.454912 0.803613 0.267738
O O1 0.901387 0.500000 0.500031
O O2 0.849712 0.328371 0.391260
O O3 0.000000 0.390772 0.500000
O O4 0.958492 0.328371 0.608799
O O5 0.255490 0.500000 0.181938
O O6 0.300126 0.618510 0.100282
O O7 0.288973 0.686935 0.242733
O O8 0.157207 0.644226 0.036999
O O9 0.552402 0.871995 0.818694
O O10 0.546730 0.000000 0.932218
O O11 0.500634 0.818856 0.919427
O O12 0.418801 0.318869 0.919427
O O13 0.766295 0.128009 0.818624
O O14 0.885477 0.000000 0.932210
O O15 0.879721 0.144240 0.036930
O O16 0.046286 0.186935 0.757316
O O17 0.073601 0.000000 0.818124
O O18 0.621644 0.168423 0.743264
#
# Coordination Sequence:
#
# PCOD8082999 Si02
#       8
#     8   8   8   4   8   8   8   8
#     4   9  18  30  47  74 103 129 160 198 244 299
#     4   9  17  30  50  76 101 127 161 201 249 305
#     4  11  21  33  51  74 100 132 165 203 250 296
#     4  12  22  36  46  72 104 132 170 206 238 294
#     4  11  21  33  51  74 100 132 165 203 250 296
#     4   9  17  30  50  76 101 127 161 201 249 305
#     4  10  18  32  52  76 104 131 159 201 251 298
#     4  10  18  32  52  76 104 131 159 201 251 298
#
# _framework density 16.975484999999999
#
# number of rings (size 3 to 8) (size 9 to 14) (size 15 to 20)
#    0.000    2.000    2.667    2.000    0.000    4.800 
#    0.000    0.667    0.000    4.800    0.000    0.000 
#    0.000    0.000    0.000    0.000    0.000    0.000 
#
# Total GULP energy -372012.683851 kJ/mol
# GULP energy per Si atom -12400.422795 kJ/mol
# Density = 1.693685 g / cm^3
# Si number density = 16.975485 Si / 1000 Ang^3
#
#
#
# Elastic Constant Matrix: (Units=GPa)
#
#
# Indices 1 2 3 4 5 6 
#
# 1 60.5800 46.4257 39.6301 0.0000 -0.4257 0.0000
# 2 46.4257 118.3740 69.6806 0.0000 0.8897 0.0000
# 3 39.6301 69.6806 136.7519 0.0000 3.3396 0.0000
# 4 0.0000 0.0000 0.0000 27.3800 0.0000 0.0199
# 5 -0.4257 0.8897 3.3396 0.0000 4.6228 0.0000
# 6 0.0000 0.0000 0.0000 0.0199 0.0000 26.9208
#
#
#
# Elastic Compliance Matrix: (Units=1/GPa)
#
#
# Indices 1 2 3 4 5 6 
#
# 1 0.024687 -0.007754 -0.003354 0.000000 0.006189 0.000000
# 2 -0.007754 0.014524 -0.005159 0.000000 0.000217 0.000000
# 3 -0.003354 -0.005159 0.011092 0.000000 -0.007329 0.000000
# 4 0.000000 0.000000 0.000000 0.036523 0.000000 -0.000027
# 5 0.006189 0.000217 -0.007329 0.000000 0.222141 0.000000
# 6 0.000000 0.000000 0.000000 -0.000027 0.000000 0.037146
#
#
# Mechanical properties :
#
#
# Convention : Reuss Voigt Hill
#
# Bulk Modulus (GPa) = 56.27802 69.68652 62.98227
# Shear Modulus (GPa) = 13.00150 22.44936 17.72543
#
# Velocity S-wave (km/s) = 2.77049 3.64051 3.23488
# Velocity P-wave (km/s) = 6.59232 7.66886 7.15088
#
# Compressibility (1/GPa) = 0.01776893
#
# Stress axis : x y z
#
# Youngs Moduli (GPa) = 40.50643 68.85147 90.15391
#
# Poissons Ratio (x) = 0.53389 0.30241
# Poissons Ratio (y) = 0.31410 0.46508
# Poissons Ratio (z) = 0.13587 0.35519
#
# Static dielectric constant tensor:
#      x y z
#    x 2.987090 0.000000 0.004700 
#    y 0.000000 3.401280 0.000000 
#    z 0.004700 0.000000 3.110560 
# 
# 
# High freq. dielectric constant tensor:
#      x y z
#    x 1.626590 0.000000 0.000090 
#    y 0.000000 1.677420 0.000000 
#    z 0.000090 0.000000 1.628690 
# 
# From -- ./inp_files/233458.got.cif
#   From: 2010.06.25/outbox.cif.g09.slc.cpg/sg12_117_cif.got.tgz:233458.got - 2010.06.28 00:19:55.
