data_PCOD8082676
_publ_section_title
;
Structure prediction by ZEFSAII (Michael W. Deem and Ramdas Pophale) SiO2 
 PCOD8082676
Probable space group: C 2/M
;
_chemical_formula_sum "Si O2"
_cell_formula_units_Z 48
_cell_length_a 23.154377
_cell_length_b 9.362752
_cell_length_c 12.224476
_cell_angle_alpha 90.000000
_cell_angle_beta 110.061790
_cell_angle_gamma 90.000000
_cell_volume 2489.326908
_symmetry_space_group_name_H-M "C 2/M"
_symmetry_group_IT_number 12
_symmetry_cell_setting 'monoclinic'
loop_
_space_group_symop_operation_xyz
x,y,z
-x,y,-z
-x,-y,-z
x,-y,z
1/2+x,1/2+y,z
1/2-x,1/2+y,-z
1/2-x,1/2-y,-z
1/2+x,1/2-y,z
loop_
_atom_site_type_symbol
_atom_site_label
_atom_site_fract_x
_atom_site_fract_y
_atom_site_fract_z
Si Si1 0.489962 0.333119 0.112544
Si Si2 0.100058 0.829944 0.331330
Si Si3 0.350712 0.667090 0.045639
Si Si4 0.805099 0.834289 0.784027
Si Si5 0.826990 0.664521 0.238105
Si Si6 0.929763 0.332347 0.474183
O O1 0.502842 0.500000 0.108953
O O2 0.538745 0.273101 0.230934
O O3 0.422290 0.299542 0.111003
O O4 0.500000 0.261534 0.000000
O O5 0.158246 0.774153 0.297296
O O6 0.101817 0.753561 0.448704
O O7 0.100710 0.000000 0.350438
O O8 0.335621 0.500000 0.044109
O O9 0.316008 0.745912 0.121151
O O10 0.329420 0.730861 0.914862
O O11 0.732319 0.805741 0.722921
O O12 0.821908 0.000000 0.800581
O O13 0.828477 0.500000 0.203830
O O14 0.889350 0.706705 0.341404
O O15 0.926563 0.500000 0.498542
O O16 0.000000 0.282595 0.500000
#
# Coordination Sequence:
#
# PCOD8082676 Si02
#       6
#     8   8   8   8   8   8
#     4   9  15  27  50  78 103 127 157 199 254 304
#     4  10  19  33  56  81 103 129 168 213 252 298
#     4  10  18  31  54  80 105 131 166 210 253 301
#     4   9  18  33  53  78 105 133 165 207 259 306
#     4  10  21  36  52  71 102 142 175 204 250 304
#     4  10  22  39  54  70 101 141 174 208 253 301
#
# _framework density 19.282321
#
# number of rings (size 3 to 8) (size 9 to 14) (size 15 to 20)
#    0.000    2.333    1.667    1.500    0.000    1.667 
#    0.000    1.667    0.000    1.000    0.000    0.000 
#    0.000    0.000    0.000    0.000    0.000    0.000 
#
# Total GULP energy -297547.712981 kJ/mol
# GULP energy per Si atom -12397.821374 kJ/mol
# Density = 1.923843 g / cm^3
# Si number density = 19.282321 Si / 1000 Ang^3
#
#
#
# Elastic Constant Matrix: (Units=GPa)
#
#
# Indices 1 2 3 4 5 6 
#
# 1 110.8890 30.1566 49.4570 0.0000 -7.3394 0.0000
# 2 30.1566 32.7979 32.4406 0.0000 -10.2954 0.0000
# 3 49.4570 32.4406 92.8064 0.0000 -14.6324 0.0000
# 4 0.0000 0.0000 0.0000 22.0633 0.0000 -7.9914
# 5 -7.3394 -10.2954 -14.6324 0.0000 38.0127 0.0000
# 6 0.0000 0.0000 0.0000 -7.9914 0.0000 18.2933
#
#
#
# Elastic Compliance Matrix: (Units=1/GPa)
#
#
# Indices 1 2 3 4 5 6 
#
# 1 0.013081 -0.008172 -0.004328 0.000000 -0.001354 0.000000
# 2 -0.008172 0.053399 -0.013073 0.000000 0.007853 0.000000
# 3 -0.004328 -0.013073 0.018057 0.000000 0.002574 0.000000
# 4 0.000000 0.000000 0.000000 0.053844 0.000000 0.023522
# 5 -0.001354 0.007853 0.002574 0.000000 0.029163 0.000000
# 6 0.000000 0.000000 0.000000 0.023522 0.000000 0.064940
#
#
# Mechanical properties :
#
#
# Convention : Reuss Voigt Hill
#
# Bulk Modulus (GPa) = 29.94729 51.17796 40.56262
# Shear Modulus (GPa) = 16.96295 23.96980 20.46637
#
# Velocity S-wave (km/s) = 2.96922 3.52958 3.26146
# Velocity P-wave (km/s) = 5.22682 6.57340 5.93840
#
# Compressibility (1/GPa) = 0.03339200
#
# Stress axis : x y z
#
# Youngs Moduli (GPa) = 76.44662 18.72702 55.38019
#
# Poissons Ratio (x) = 0.15303 0.23968
# Poissons Ratio (y) = 0.62470 0.72397
# Poissons Ratio (z) = 0.33085 0.24481
#
# Static dielectric constant tensor:
#      x y z
#    x 3.649240 0.000000 0.060880 
#    y 0.000000 3.038150 0.000000 
#    z 0.060880 0.000000 3.501030 
# 
# 
# High freq. dielectric constant tensor:
#      x y z
#    x 1.766470 0.000000 0.002480 
#    y 0.000000 1.700220 0.000000 
#    z 0.002480 0.000000 1.751860 
# 
# From -- ./inp_files/102402.got.cif
#   From: 2010.06.25/outbox.cif.g09.slc.cpg/sg12_52_cif.got.tgz:102402.got - 2010.06.28 00:19:55.
