data_PCOD8082655
_publ_section_title
;
Structure prediction by ZEFSAII (Michael W. Deem and Ramdas Pophale) SiO2 
 PCOD8082655
Probable space group: C 2/M
;
_chemical_formula_sum "Si O2"
_cell_formula_units_Z 48
_cell_length_a 17.579463
_cell_length_b 17.088541
_cell_length_c 14.355574
_cell_angle_alpha 90.000000
_cell_angle_beta 38.438897
_cell_angle_gamma 90.000000
_cell_volume 2681.006198
_symmetry_space_group_name_H-M "C 2/M"
_symmetry_group_IT_number 12
_symmetry_cell_setting 'monoclinic'
loop_
_space_group_symop_operation_xyz
x,y,z
-x,y,-z
-x,-y,-z
x,-y,z
1/2+x,1/2+y,z
1/2-x,1/2+y,-z
1/2-x,1/2-y,-z
1/2+x,1/2-y,z
loop_
_atom_site_type_symbol
_atom_site_label
_atom_site_fract_x
_atom_site_fract_y
_atom_site_fract_z
Si Si1 0.864787 0.909007 0.172685
Si Si2 0.626367 0.173989 0.848906
Si Si3 0.225463 0.196694 0.884962
Si Si4 0.128766 0.091104 0.339015
Si Si5 0.859113 0.781180 0.333670
Si Si6 0.900953 0.810684 0.799957
O O1 0.766694 0.880322 0.188089
O O2 0.838951 0.860261 0.292169
O O3 0.842568 0.000000 0.216617
O O4 0.000000 0.894660 0.000000
O O5 0.640659 0.242055 0.911508
O O6 0.748955 0.121998 0.726945
O O7 0.602977 0.210390 0.769979
O O8 0.500000 0.128515 0.000000
O O9 0.356552 0.234969 0.782748
O O10 0.164946 0.174773 0.039927
O O11 0.131251 0.111696 0.227565
O O12 0.000000 0.127549 0.500000
O O13 0.129072 0.000000 0.355017
O O14 0.750000 0.750000 0.500000
O O15 0.957225 0.799578 0.318926
#
# Coordination Sequence:
#
# PCOD8082655 Si02
#       6
#     8   8   8   8   8   8
#     4  10  19  34  55  80 111 140 174 222 275 323
#     4  10  18  35  57  76 105 140 181 223 259 317
#     4   9  17  32  54  79 103 130 175 223 262 313
#     4  10  22  36  49  73 110 145 174 214 272 325
#     4  11  20  33  55  83 107 138 178 223 268 319
#     4  10  18  31  54  79 101 132 177 224 260 309
#
# _framework density 17.903725999999999
#
# number of rings (size 3 to 8) (size 9 to 14) (size 15 to 20)
#    0.000    2.000    3.333    2.000    0.000    1.667 
#    0.000    0.833    0.000    2.000    0.000    0.000 
#    0.000    0.000    0.000    0.000    0.000    0.000 
#
# Total GULP energy -297363.178837 kJ/mol
# GULP energy per Si atom -12390.132452 kJ/mol
# Density = 1.786298 g / cm^3
# Si number density = 17.903726 Si / 1000 Ang^3
#
#
#
# Elastic Constant Matrix: (Units=GPa)
#
#
# Indices 1 2 3 4 5 6 
#
# 1 82.4383 32.3693 17.5730 0.0000 -5.0068 0.0000
# 2 32.3693 87.6567 40.0918 0.0000 -2.0622 0.0000
# 3 17.5730 40.0918 85.6138 0.0000 -3.8468 0.0000
# 4 0.0000 0.0000 0.0000 25.1360 0.0000 1.4643
# 5 -5.0068 -2.0622 -3.8468 0.0000 30.1507 0.0000
# 6 0.0000 0.0000 0.0000 1.4643 0.0000 15.9193
#
#
#
# Elastic Compliance Matrix: (Units=1/GPa)
#
#
# Indices 1 2 3 4 5 6 
#
# 1 0.014326 -0.005013 -0.000504 0.000000 0.001972 0.000000
# 2 -0.005013 0.016272 -0.006616 0.000000 -0.000564 0.000000
# 3 -0.000504 -0.006616 0.014944 0.000000 0.001370 0.000000
# 4 0.000000 0.000000 0.000000 0.039998 0.000000 -0.003679
# 5 0.001972 -0.000564 0.001370 0.000000 0.033630 0.000000
# 6 0.000000 0.000000 0.000000 -0.003679 0.000000 0.063155
#
#
# Mechanical properties :
#
#
# Convention : Reuss Voigt Hill
#
# Bulk Modulus (GPa) = 47.00519 48.41965 47.71242
# Shear Modulus (GPa) = 23.39893 25.28618 24.34256
#
# Velocity S-wave (km/s) = 3.61907 3.76219 3.69132
# Velocity P-wave (km/s) = 6.61627 6.78051 6.69889
#
# Compressibility (1/GPa) = 0.02127425
#
# Stress axis : x y z
#
# Youngs Moduli (GPa) = 69.80344 61.45423 66.91721
#
# Poissons Ratio (x) = 0.30808 0.03375
# Poissons Ratio (y) = 0.34993 0.44275
# Poissons Ratio (z) = 0.03521 0.40661
#
# Static dielectric constant tensor:
#      x y z
#    x 4.749670 0.000000 -0.014520 
#    y 0.000000 3.136270 0.000000 
#    z -0.014520 0.000000 3.372660 
# 
# 
# High freq. dielectric constant tensor:
#      x y z
#    x 1.708810 0.000000 0.004490 
#    y 0.000000 1.666220 0.000000 
#    z 0.004490 0.000000 1.683710 
# 
# From -- ./inp_files/75044.got.cif
#   From: 2010.06.25/outbox.cif.g09.slc.cpg/sg12_38_cif.got.tgz:75044.got - 2010.06.28 00:19:55.
