data_PCOD8082705
_publ_section_title
;
Structure prediction by ZEFSAII (Michael W. Deem and Ramdas Pophale) SiO2 
 PCOD8082705
Probable space group: C 2/M
;
_chemical_formula_sum "Si O2"
_cell_formula_units_Z 64
_cell_length_a 24.115719
_cell_length_b 8.844235
_cell_length_c 29.101218
_cell_angle_alpha 90.000000
_cell_angle_beta 149.215885
_cell_angle_gamma 90.000000
_cell_volume 3176.697978
_symmetry_space_group_name_H-M "C 2/M"
_symmetry_group_IT_number 12
_symmetry_cell_setting 'monoclinic'
loop_
_space_group_symop_operation_xyz
x,y,z
-x,y,-z
-x,-y,-z
x,-y,z
1/2+x,1/2+y,z
1/2-x,1/2+y,-z
1/2-x,1/2-y,-z
1/2+x,1/2-y,z
loop_
_atom_site_type_symbol
_atom_site_label
_atom_site_fract_x
_atom_site_fract_y
_atom_site_fract_z
Si Si1 0.094540 0.322573 0.669734
Si Si2 0.539227 0.177963 0.165496
Si Si3 0.066461 0.320781 0.002868
Si Si4 0.238388 0.325813 0.692314
Si Si5 0.518165 0.822053 0.774922
Si Si6 0.309238 0.320587 0.585608
Si Si7 0.202984 0.674993 0.839918
Si Si8 0.372140 0.826494 0.476973
O O1 0.088089 0.500000 0.654962
O O2 0.193616 0.262733 0.708798
O O3 0.118492 0.285234 0.739365
O O4 0.980800 0.244961 0.573590
O O5 0.482580 0.247062 0.079535
O O6 0.663735 0.222660 0.254040
O O7 0.485270 0.237645 0.174697
O O8 0.527839 0.000000 0.155682
O O9 0.058883 0.500000 0.997880
O O10 0.191398 0.274599 0.092682
O O11 0.000000 0.256841 0.000000
O O12 0.277702 0.500000 0.722353
O O13 0.139499 0.306471 0.585923
O O14 0.429654 0.742046 0.679647
O O15 0.638645 0.785595 0.841059
O O16 0.494781 0.000000 0.755577
O O17 0.316980 0.500000 0.585600
O O18 0.250000 0.250000 0.500000
O O19 0.237021 0.264795 0.577240
O O20 0.237814 0.500000 0.863057
O O21 0.381693 0.000000 0.498374
#
# Coordination Sequence:
#
# PCOD8082705 Si02
#       8
#     8   8   8   8   8   8   8   8
#     4   9  17  30  51  78 109 141 175 224 282 327
#     4  10  21  37  57  79 110 150 183 225 287 339
#     4  10  22  40  60  83 112 146 184 228 283 345
#     4  10  18  31  54  82 107 137 182 229 270 325
#     4  10  21  38  57  79 112 148 185 229 281 334
#     4  11  21  34  54  80 112 151 193 233 274 324
#     4  10  21  37  57  82 110 143 184 232 280 327
#     4   9  17  30  49  77 109 140 179 224 270 321
#
# _framework density 20.146705999999998
#
# number of rings (size 3 to 8) (size 9 to 14) (size 15 to 20)
#    0.000    2.125    1.250    2.250    0.000    5.250 
#    0.000    0.000    0.000    3.750    0.000    0.000 
#    0.000    0.000    0.000    0.000    0.000    0.000 
#
# Total GULP energy -396678.333530 kJ/mol
# GULP energy per Si atom -12396.197923 kJ/mol
# Density = 2.010085 g / cm^3
# Si number density = 20.146706 Si / 1000 Ang^3
#
#
#
# Elastic Constant Matrix: (Units=GPa)
#
#
# Indices 1 2 3 4 5 6 
#
# 1 142.5020 18.0801 48.2733 0.0000 2.4581 0.0000
# 2 18.0801 17.8004 14.8064 0.0001 -3.2372 0.0005
# 3 48.2733 14.8064 96.9593 0.0002 2.4900 0.0000
# 4 0.0000 0.0001 0.0002 27.7589 0.0000 5.0829
# 5 2.4581 -3.2372 2.4900 0.0000 35.9278 0.0000
# 6 0.0000 0.0005 0.0000 5.0829 0.0000 19.8089
#
#
#
# Elastic Compliance Matrix: (Units=1/GPa)
#
#
# Indices 1 2 3 4 5 6 
#
# 1 0.009034 -0.006448 -0.003488 0.000000 -0.000957 0.000000
# 2 -0.006448 0.070503 -0.007744 0.000000 0.007330 -0.000002
# 3 -0.003488 -0.007744 0.013268 0.000000 -0.001379 0.000000
# 4 0.000000 0.000000 0.000000 0.037800 0.000000 -0.009699
# 5 -0.000957 0.007330 -0.001379 0.000000 0.028655 0.000000
# 6 0.000000 -0.000002 0.000000 -0.009699 0.000000 0.052971
#
#
# Mechanical properties :
#
#
# Convention : Reuss Voigt Hill
#
# Bulk Modulus (GPa) = 17.40848 46.62016 32.01432
# Shear Modulus (GPa) = 18.74478 28.43924 23.59201
#
# Velocity S-wave (km/s) = 3.05358 3.76121 3.42572
# Velocity P-wave (km/s) = 4.59261 6.48482 5.61894
#
# Compressibility (1/GPa) = 0.05744326
#
# Stress axis : x y z
#
# Youngs Moduli (GPa) = 110.69546 14.18388 75.36716
#
# Poissons Ratio (x) = 0.09146 0.26291
# Poissons Ratio (y) = 0.71378 0.58366
# Poissons Ratio (z) = 0.38615 0.10984
#
# Static dielectric constant tensor:
#      x y z
#    x 4.100680 0.000000 -0.106580 
#    y 0.000000 3.244540 0.000000 
#    z -0.106580 0.000000 3.631920 
# 
# 
# High freq. dielectric constant tensor:
#      x y z
#    x 1.806800 0.000000 -0.002870 
#    y 0.000000 1.742260 0.000000 
#    z -0.002870 0.000000 1.787170 
# 
# From -- ./inp_files/382522.got.cif
#   From: 2010.06.25/outbox.cif.g09.slc.cpg/sg12_192_cif.got.tgz:382522.got - 2010.06.28 00:19:55.
