data_PCOD8082575
_publ_section_title
;
Structure prediction by ZEFSAII (Michael W. Deem and Ramdas Pophale) SiO2 
 PCOD8082575
Probable space group: C 2/M
;
_chemical_formula_sum "Si O2"
_cell_formula_units_Z 64
_cell_length_a 14.292524
_cell_length_b 14.085113
_cell_length_c 19.267913
_cell_angle_alpha 90.000000
_cell_angle_beta 120.252770
_cell_angle_gamma 90.000000
_cell_volume 3350.601260
_symmetry_space_group_name_H-M "C 2/M"
_symmetry_group_IT_number 12
_symmetry_cell_setting 'monoclinic'
loop_
_space_group_symop_operation_xyz
x,y,z
-x,y,-z
-x,-y,-z
x,-y,z
1/2+x,1/2+y,z
1/2-x,1/2+y,-z
1/2-x,1/2-y,-z
1/2+x,1/2-y,z
loop_
_atom_site_type_symbol
_atom_site_label
_atom_site_fract_x
_atom_site_fract_y
_atom_site_fract_z
Si Si1 0.623042 0.386983 0.328544
Si Si2 0.674533 0.757419 0.585702
Si Si3 0.539835 0.606865 0.851337
Si Si4 0.426834 0.772093 0.039470
Si Si5 0.027656 0.253750 0.398643
Si Si6 0.581637 0.106792 0.172074
Si Si7 0.725367 0.892213 0.098304
Si Si8 0.852893 0.608853 0.647563
O O1 0.627729 0.500000 0.339888
O O2 0.743837 0.344528 0.368809
O O3 0.560575 0.358393 0.233732
O O4 0.561218 0.343224 0.372027
O O5 0.603152 0.777847 0.492002
O O6 0.597135 0.745164 0.623995
O O7 0.739949 0.661885 0.590990
O O8 0.517803 0.500000 0.868242
O O9 0.565659 0.663844 0.932039
O O10 0.646189 0.614009 0.843135
O O11 0.474164 0.831240 0.121807
O O12 0.500000 0.788776 0.000000
O O13 0.310000 0.815915 0.974698
O O14 0.045888 0.343086 0.354184
O O15 0.675160 0.136984 0.153190
O O16 0.628527 0.122326 0.264767
O O17 0.544605 0.000000 0.145391
O O18 0.690881 0.000000 0.063885
O O19 0.842590 0.500000 0.620366
#
# Coordination Sequence:
#
# PCOD8082575 Si02
#       8
#     8   8   8   8   8   8   8   8
#     4  10  21  38  60  81 110 151 187 223 275 335
#     4  10  22  38  56  82 114 144 183 229 276 328
#     4  10  21  35  51  75 107 142 181 221 260 315
#     4  10  18  31  53  77 102 142 181 213 268 320
#     4  10  22  38  56  83 113 144 182 232 276 325
#     4   9  18  32  52  79 107 133 170 225 275 317
#     4   9  18  32  52  78 106 135 175 223 270 319
#     4  10  20  35  57  82 112 146 181 228 281 326
#
# _framework density 19.101049
#
# number of rings (size 3 to 8) (size 9 to 14) (size 15 to 20)
#    0.000    2.250    0.000    3.750    1.750    4.750 
#    0.000    2.500    0.000    0.000    0.000    0.000 
#    0.000    0.000    0.000    0.000    0.000    0.000 
#
# Total GULP energy -396651.354262 kJ/mol
# GULP energy per Si atom -12395.354821 kJ/mol
# Density = 1.905757 g / cm^3
# Si number density = 19.101049 Si / 1000 Ang^3
#
#
#
# Elastic Constant Matrix: (Units=GPa)
#
#
# Indices 1 2 3 4 5 6 
#
# 1 78.0697 31.5070 10.8316 0.0000 -0.2466 0.0000
# 2 31.5070 112.2429 33.0228 0.0000 -1.3484 0.0000
# 3 10.8316 33.0228 63.2664 0.0000 4.8693 0.0000
# 4 0.0000 0.0000 0.0000 33.0789 0.0000 -1.8739
# 5 -0.2466 -1.3484 4.8693 0.0000 25.1566 0.0000
# 6 0.0000 0.0000 0.0000 -1.8739 0.0000 19.7542
#
#
#
# Elastic Compliance Matrix: (Units=1/GPa)
#
#
# Indices 1 2 3 4 5 6 
#
# 1 0.014455 -0.003933 -0.000423 0.000000 0.000013 0.000000
# 2 -0.003933 0.011664 -0.005542 0.000000 0.001659 0.000000
# 3 -0.000423 -0.005542 0.019079 0.000000 -0.003994 0.000000
# 4 0.000000 0.000000 0.000000 0.030394 0.000000 0.002883
# 5 0.000013 0.001659 -0.003994 0.000000 0.040613 0.000000
# 6 0.000000 0.000000 0.000000 0.002883 0.000000 0.050896
#
#
# Mechanical properties :
#
#
# Convention : Reuss Voigt Hill
#
# Bulk Modulus (GPa) = 39.36833 44.92240 42.14537
# Shear Modulus (GPa) = 25.59320 27.47912 26.53616
#
# Velocity S-wave (km/s) = 3.66441 3.79703 3.73131
# Velocity P-wave (km/s) = 6.20961 6.54160 6.37777
#
# Compressibility (1/GPa) = 0.02540113
#
# Stress axis : x y z
#
# Youngs Moduli (GPa) = 69.17997 85.73508 52.41377
#
# Poissons Ratio (x) = 0.33720 0.02216
# Poissons Ratio (y) = 0.27209 0.29050
# Poissons Ratio (z) = 0.02925 0.47518
#
# Static dielectric constant tensor:
#      x y z
#    x 3.520190 0.000000 -0.004540 
#    y 0.000000 3.580820 0.000000 
#    z -0.004540 0.000000 3.551770 
# 
# 
# High freq. dielectric constant tensor:
#      x y z
#    x 1.733220 0.000000 0.002720 
#    y 0.000000 1.744150 0.000000 
#    z 0.002720 0.000000 1.745810 
# 
# From -- ./inp_files/270305.got.cif
#   From: 2010.06.25/outbox.cif.g09.slc.cpg/sg12_136_cif.got.tgz:270305.got - 2010.06.28 00:19:55.
