data_PCOD8082928
_publ_section_title
;
Structure prediction by ZEFSAII (Michael W. Deem and Ramdas Pophale) SiO2 
 PCOD8082928
Probable space group: C 2/M
;
_chemical_formula_sum "Si O2"
_cell_formula_units_Z 48
_cell_length_a 25.528376
_cell_length_b 8.779833
_cell_length_c 29.348752
_cell_angle_alpha 90.000000
_cell_angle_beta 151.288760
_cell_angle_gamma 90.000000
_cell_volume 3160.079937
_symmetry_space_group_name_H-M "C 2/M"
_symmetry_group_IT_number 12
_symmetry_cell_setting 'monoclinic'
loop_
_space_group_symop_operation_xyz
x,y,z
-x,y,-z
-x,-y,-z
x,-y,z
1/2+x,1/2+y,z
1/2-x,1/2+y,-z
1/2-x,1/2-y,-z
1/2+x,1/2-y,z
loop_
_atom_site_type_symbol
_atom_site_label
_atom_site_fract_x
_atom_site_fract_y
_atom_site_fract_z
Si Si1 0.450800 0.672410 0.758272
Si Si2 0.382701 0.832171 0.887881
Si Si3 0.854463 0.680922 0.603523
Si Si4 0.707402 0.322014 0.097983
Si Si5 0.502893 0.180377 0.893559
Si Si6 0.572096 0.327287 0.764136
O O1 0.411409 0.500000 0.737637
O O2 0.356976 0.763222 0.658459
O O3 0.474435 0.755823 0.822958
O O4 0.560600 0.671833 0.810718
O O5 0.306970 0.719879 0.859476
O O6 0.404748 0.771411 0.853309
O O7 0.327883 0.000000 0.845368
O O8 0.500000 0.844980 0.000000
O O9 0.852519 0.500000 0.599233
O O10 0.750000 0.750000 0.500000
O O11 0.962356 0.747714 0.660270
O O12 0.693948 0.500000 0.081553
O O13 0.825711 0.271826 0.172272
O O14 0.618827 0.242219 0.998558
O O15 0.513160 0.000000 0.899414
O O16 0.582583 0.500000 0.753482
#
# Coordination Sequence:
#
# PCOD8082928 Si02
#       6
#     8   8   8   8   8   8
#     4   9  19  32  47  69  94 121 154 190 229 274
#     4   8  16  30  45  62  86 121 161 194 228 267
#     4  10  18  32  51  71  94 119 149 186 228 276
#     4  11  20  29  45  67  93 126 159 195 231 268
#     4  10  19  31  47  65  92 128 159 193 231 270
#     4   9  19  33  47  67  94 122 154 190 229 275
#
# _framework density 15.189489999999999
#
# number of rings (size 3 to 8) (size 9 to 14) (size 15 to 20)
#    1.000    1.500    0.000    5.000    0.000    4.333 
#    0.000    0.000    0.000    0.000    0.000    1.167 
#    0.000    9.333    0.000    0.000    0.000    0.000 
#
# Total GULP energy -297358.661844 kJ/mol
# GULP energy per Si atom -12389.944244 kJ/mol
# Density = 1.515492 g / cm^3
# Si number density = 15.189490 Si / 1000 Ang^3
#
#
#
# Elastic Constant Matrix: (Units=GPa)
#
#
# Indices 1 2 3 4 5 6 
#
# 1 83.4002 35.1858 44.5530 0.0000 -6.6198 0.0001
# 2 35.1858 96.3423 28.1643 0.0000 0.3232 0.0011
# 3 44.5530 28.1643 72.7425 -0.0001 3.1955 0.0001
# 4 0.0000 0.0000 -0.0001 27.1414 0.0000 -1.0649
# 5 -6.6198 0.3232 3.1955 0.0000 -4.1409 0.0000
# 6 0.0001 0.0011 0.0001 -1.0649 0.0000 25.2688
#
#
#
# Elastic Compliance Matrix: (Units=1/GPa)
#
#
# Indices 1 2 3 4 5 6 
#
# 1 0.014549 -0.003358 -0.006362 0.000000 -0.028430 0.000000
# 2 -0.003358 0.012453 -0.002943 0.000000 0.004070 0.000000
# 3 -0.006362 -0.002943 0.017745 0.000000 0.023634 0.000000
# 4 0.000000 0.000000 0.000000 0.036905 0.000000 0.001555
# 5 -0.028430 0.004070 0.023634 0.000000 -0.177490 0.000000
# 6 0.000000 0.000000 0.000000 0.001555 0.000000 0.039640
#
#
# Mechanical properties :
#
#
# Convention : Reuss Voigt Hill
#
# Bulk Modulus (GPa) = 51.49336 52.03236 51.76286
# Shear Modulus (GPa) = -204.94162 19.29268 -92.82447
#
# Velocity S-wave (km/s) = -11.62825 3.56776 -7.82583
# Velocity P-wave (km/s) = 12.09603 7.16252 6.89247
#
# Compressibility (1/GPa) = 0.01941998
#
# Stress axis : x y z
#
# Youngs Moduli (GPa) = 68.73261 80.30191 56.35421
#
# Poissons Ratio (x) = 0.26969 0.35851
# Poissons Ratio (y) = 0.23083 0.16587
# Poissons Ratio (z) = 0.43726 0.23636
#
# Static dielectric constant tensor:
#      x y z
#    x 3.114100 0.000000 -0.135820 
#    y 0.000000 3.059950 0.000000 
#    z -0.135820 0.000000 2.691000 
# 
# 
# High freq. dielectric constant tensor:
#      x y z
#    x 1.573770 0.000000 -0.004600 
#    y 0.000000 1.601490 0.000000 
#    z -0.004600 0.000000 1.544310 
# 
# From -- ./inp_files/345702.got.cif
#   From: 2010.06.25/outbox.cif.g09.slc.cpg/sg12_173_cif.got.tgz:345702.got - 2010.06.28 00:19:55.
