data_PCOD8082121
_publ_section_title
;
Structure prediction by ZEFSAII (Michael W. Deem and Ramdas Pophale) SiO2 
 PCOD8082121
Probable space group: C 2/M
;
_chemical_formula_sum "Si O2"
_cell_formula_units_Z 48
_cell_length_a 26.861603
_cell_length_b 9.141869
_cell_length_c 11.912655
_cell_angle_alpha 90.000000
_cell_angle_beta 108.585963
_cell_angle_gamma 90.000000
_cell_volume 2772.767826
_symmetry_space_group_name_H-M "C 2/M"
_symmetry_group_IT_number 12
_symmetry_cell_setting 'monoclinic'
loop_
_space_group_symop_operation_xyz
x,y,z
-x,y,-z
-x,-y,-z
x,-y,z
1/2+x,1/2+y,z
1/2-x,1/2+y,-z
1/2-x,1/2-y,-z
1/2+x,1/2-y,z
loop_
_atom_site_type_symbol
_atom_site_label
_atom_site_fract_x
_atom_site_fract_y
_atom_site_fract_z
Si Si1 0.603696 0.827241 0.238005
Si Si2 0.613192 0.172109 0.593348
Si Si3 0.076568 0.835590 0.765355
Si Si4 0.695648 0.168812 0.468492
Si Si5 0.958527 0.833212 0.624533
Si Si6 0.058767 0.827321 0.006576
O O1 0.659506 0.790298 0.335646
O O2 0.557666 0.747916 0.273174
O O3 0.601370 0.760780 0.111436
O O4 0.593300 0.000000 0.229956
O O5 0.616597 0.233280 0.723208
O O6 0.666019 0.211368 0.562803
O O7 0.563998 0.248468 0.498229
O O8 0.603143 0.000000 0.587068
O O9 0.021008 0.831830 0.662396
O O10 0.099196 0.000000 0.781828
O O11 0.070462 0.778432 0.887778
O O12 0.750000 0.250000 0.500000
O O13 0.709276 0.000000 0.477501
O O14 0.937425 0.000000 0.611067
O O15 0.066445 0.000000 0.028991
O O16 0.000000 0.780897 0.000000
#
# Coordination Sequence:
#
# PCOD8082121 Si02
#       6
#     8   8   8   8   8   8
#     4  10  20  33  50  78 108 133 170 215 260 304
#     4  10  21  34  48  74 106 130 164 214 263 308
#     4  10  20  32  48  71 102 141 179 207 240 295
#     4   9  20  37  56  78 101 126 163 214 265 314
#     4  10  18  31  49  70 101 140 176 209 245 295
#     4  10  19  34  51  72 105 144 182 213 239 289
#
# _framework density 17.311221
#
# number of rings (size 3 to 8) (size 9 to 14) (size 15 to 20)
#    0.000    2.167    1.667    3.000    0.000    8.333 
#    0.000    0.000    0.000    1.000    0.000    0.000 
#    0.000    0.000    0.000    0.000    0.000    0.000 
#
# Total GULP energy -297566.672617 kJ/mol
# GULP energy per Si atom -12398.611359 kJ/mol
# Density = 1.727182 g / cm^3
# Si number density = 17.311221 Si / 1000 Ang^3
#
#
#
# Elastic Constant Matrix: (Units=GPa)
#
#
# Indices 1 2 3 4 5 6 
#
# 1 88.6461 51.3731 64.3029 0.0000 -8.5492 0.0000
# 2 51.3731 88.5735 59.3185 0.0000 -10.0601 0.0000
# 3 64.3029 59.3185 120.5685 0.0000 -25.4559 0.0000
# 4 0.0000 0.0000 0.0000 34.2851 0.0000 -2.2764
# 5 -8.5492 -10.0601 -25.4559 0.0000 22.4031 0.0000
# 6 0.0000 0.0000 0.0000 -2.2764 0.0000 28.1275
#
#
#
# Elastic Compliance Matrix: (Units=1/GPa)
#
#
# Indices 1 2 3 4 5 6 
#
# 1 0.021392 -0.006889 -0.009143 0.000000 -0.005319 0.000000
# 2 -0.006889 0.019158 -0.005908 0.000000 -0.000738 0.000000
# 3 -0.009143 -0.005908 0.019445 0.000000 0.015953 0.000000
# 4 0.000000 0.000000 0.000000 0.029325 0.000000 0.002373
# 5 -0.005319 -0.000738 0.015953 0.000000 0.060402 0.000000
# 6 0.000000 0.000000 0.000000 0.002373 0.000000 0.035745
#
#
# Mechanical properties :
#
#
# Convention : Reuss Voigt Hill
#
# Bulk Modulus (GPa) = 62.04687 71.97525 67.01106
# Shear Modulus (GPa) = 21.30228 25.14938 23.22583
#
# Velocity S-wave (km/s) = 3.51172 3.81567 3.66685
# Velocity P-wave (km/s) = 7.23621 7.81536 7.53136
#
# Compressibility (1/GPa) = 0.01611685
#
# Stress axis : x y z
#
# Youngs Moduli (GPa) = 46.74599 52.19777 51.42746
#
# Poissons Ratio (x) = 0.35957 0.47020
# Poissons Ratio (y) = 0.32201 0.30381
# Poissons Ratio (z) = 0.42740 0.30836
#
# Static dielectric constant tensor:
#      x y z
#    x 2.953120 0.000000 -0.210430 
#    y 0.000000 3.268740 0.000000 
#    z -0.210430 0.000000 3.402940 
# 
# 
# High freq. dielectric constant tensor:
#      x y z
#    x 1.634880 0.000000 -0.019180 
#    y 0.000000 1.675990 0.000000 
#    z -0.019180 0.000000 1.668950 
# 
# From -- ./inp_files/172373.got.cif
#   From: 2010.06.25/outbox.cif.g09.slc.cpg/sg12_87_cif.got.tgz:172373.got - 2010.06.28 00:19:55.
