data_PCOD8082430
_publ_section_title
;
Structure prediction by ZEFSAII (Michael W. Deem and Ramdas Pophale) SiO2 
 PCOD8082430
Probable space group: C 2/M
;
_chemical_formula_sum "Si O2"
_cell_formula_units_Z 48
_cell_length_a 9.839319
_cell_length_b 18.789051
_cell_length_c 18.373788
_cell_angle_alpha 90.000000
_cell_angle_beta 133.792238
_cell_angle_gamma 90.000000
_cell_volume 2451.985781
_symmetry_space_group_name_H-M "C 2/M"
_symmetry_group_IT_number 12
_symmetry_cell_setting 'monoclinic'
loop_
_space_group_symop_operation_xyz
x,y,z
-x,y,-z
-x,-y,-z
x,-y,z
1/2+x,1/2+y,z
1/2-x,1/2+y,-z
1/2-x,1/2-y,-z
1/2+x,1/2-y,z
loop_
_atom_site_type_symbol
_atom_site_label
_atom_site_fract_x
_atom_site_fract_y
_atom_site_fract_z
Si Si1 0.736473 0.349726 0.280534
Si Si2 0.964187 0.083414 0.069296
Si Si3 0.602360 0.334772 0.380161
Si Si4 0.157655 0.670239 0.401733
Si Si5 0.182543 0.315526 0.250519
Si Si6 0.370099 0.180764 0.023328
O O1 0.647739 0.397936 0.184691
O O2 0.682067 0.378429 0.340758
O O3 0.660666 0.269556 0.244162
O O4 0.959615 0.354099 0.359854
O O5 0.929762 0.000000 0.056164
O O6 0.781547 0.117838 0.040437
O O7 0.000000 0.111486 0.000000
O O8 0.680278 0.364528 0.486523
O O9 0.682412 0.254940 0.406870
O O10 0.379224 0.337697 0.288112
O O11 0.176565 0.644452 0.325865
O O12 0.009472 0.343721 0.139139
O O13 0.500000 0.193134 0.000000
O O14 0.250000 0.250000 0.000000
#
# Coordination Sequence:
#
# PCOD8082430 Si02
#       6
#     8   8   8   8   8   8
#     4  10  18  31  52  75 108 145 186 232 286 344
#     4  11  24  41  59  82 117 160 206 250 296 354
#     4   9  17  29  46  77 108 142 178 227 285 343
#     4   9  17  28  48  75 110 141 178 226 284 346
#     4  10  19  29  51  78 112 144 182 229 291 352
#     4  12  24  37  60  87 119 155 197 250 298 360
#
# _framework density 19.575970000000002
#
# number of rings (size 3 to 8) (size 9 to 14) (size 15 to 20)
#    0.000    1.833    1.667    3.500    4.667    4.333 
#    0.000    0.000    0.000    2.000    0.000    0.000 
#    0.000    8.000    0.000    0.000    0.000    0.000 
#
# Total GULP energy -297509.910510 kJ/mol
# GULP energy per Si atom -12396.246271 kJ/mol
# Density = 1.953141 g / cm^3
# Si number density = 19.575970 Si / 1000 Ang^3
#
#
#
# Elastic Constant Matrix: (Units=GPa)
#
#
# Indices 1 2 3 4 5 6 
#
# 1 112.1331 24.4318 27.1082 0.0000 -20.4851 0.0000
# 2 24.4318 40.2192 15.6679 0.0000 0.2090 0.0000
# 3 27.1082 15.6679 131.1811 0.0000 -9.8790 0.0000
# 4 0.0000 0.0000 0.0000 12.3687 0.0000 -1.2131
# 5 -20.4851 0.2090 -9.8790 0.0000 35.7562 0.0000
# 6 0.0000 0.0000 0.0000 -1.2131 0.0000 14.2739
#
#
#
# Elastic Compliance Matrix: (Units=1/GPa)
#
#
# Indices 1 2 3 4 5 6 
#
# 1 0.011868 -0.006795 -0.001150 0.000000 0.006521 0.000000
# 2 -0.006795 0.030005 -0.002539 0.000000 -0.004770 0.000000
# 3 -0.001150 -0.002539 0.008288 0.000000 0.001646 0.000000
# 4 0.000000 0.000000 0.000000 0.081529 0.000000 0.006929
# 5 0.006521 -0.004770 0.001646 0.000000 0.032186 0.000000
# 6 0.000000 0.000000 0.000000 0.006929 0.000000 0.070647
#
#
# Mechanical properties :
#
#
# Convention : Reuss Voigt Hill
#
# Bulk Modulus (GPa) = 34.25418 46.43879 40.34649
# Shear Modulus (GPa) = 18.85218 26.90147 22.87683
#
# Velocity S-wave (km/s) = 3.10663 3.71105 3.42221
# Velocity P-wave (km/s) = 5.51401 6.49126 6.02249
#
# Compressibility (1/GPa) = 0.02919352
#
# Stress axis : x y z
#
# Youngs Moduli (GPa) = 84.26135 33.32731 120.65914
#
# Poissons Ratio (x) = 0.22647 0.13873
# Poissons Ratio (y) = 0.57258 0.30632
# Poissons Ratio (z) = 0.09688 0.08461
#
# Static dielectric constant tensor:
#      x y z
#    x 3.760690 0.000000 -0.186260 
#    y 0.000000 2.970230 0.000000 
#    z -0.186260 0.000000 3.915720 
# 
# 
# High freq. dielectric constant tensor:
#      x y z
#    x 1.778070 0.000000 -0.003190 
#    y 0.000000 1.681660 0.000000 
#    z -0.003190 0.000000 1.787850 
# 
# From -- ./inp_files/190260.got.cif
#   From: 2010.06.25/outbox.cif.g09.slc.cpg/sg12_96_cif.got.tgz:190260.got - 2010.06.28 00:19:55.
