data_PCOD8082338
_publ_section_title
;
Structure prediction by ZEFSAII (Michael W. Deem and Ramdas Pophale) SiO2 
 PCOD8082338
Probable space group: C 2/M
;
_chemical_formula_sum "Si O2"
_cell_formula_units_Z 40
_cell_length_a 20.360538
_cell_length_b 7.790508
_cell_length_c 14.206422
_cell_angle_alpha 90.000000
_cell_angle_beta 102.544399
_cell_angle_gamma 90.000000
_cell_volume 2199.614156
_symmetry_space_group_name_H-M "C 2/M"
_symmetry_group_IT_number 12
_symmetry_cell_setting 'monoclinic'
loop_
_space_group_symop_operation_xyz
x,y,z
-x,y,-z
-x,-y,-z
x,-y,z
1/2+x,1/2+y,z
1/2-x,1/2+y,-z
1/2-x,1/2-y,-z
1/2+x,1/2-y,z
loop_
_atom_site_type_symbol
_atom_site_label
_atom_site_fract_x
_atom_site_fract_y
_atom_site_fract_z
Si Si1 0.590338 0.500000 0.115128
Si Si2 0.567714 0.500000 0.900264
Si Si3 0.603597 0.196050 0.250201
Si Si4 0.173562 0.698633 0.464036
Si Si5 0.552063 0.809542 0.769202
Si Si6 0.934822 0.194747 0.427772
O O1 0.510701 0.500000 0.101924
O O2 0.620874 0.327374 0.171238
O O3 0.609429 0.500000 0.010680
O O4 0.587381 0.670688 0.848056
O O5 0.651738 0.244978 0.351540
O O6 0.527592 0.223490 0.261214
O O7 0.615482 0.000000 0.219346
O O8 0.161508 0.500000 0.480967
O O9 0.250000 0.750000 0.500000
O O10 0.129727 0.802933 0.525214
O O11 0.580919 0.797088 0.672678
O O12 0.567836 0.000000 0.813749
O O13 0.000000 0.276204 0.500000
O O14 0.951466 0.000000 0.403940
#
# Coordination Sequence:
#
# PCOD8082338 Si02
#       6
#     4   4   8   8   8   8
#     4   9  18  30  53  68 109 140 173 225 274 322
#     4   9  18  32  44  81 104 135 178 225 274 314
#     4   9  19  32  50  75 103 143 181 216 264 324
#     4  11  23  36  51  77 114 145 183 225 266 322
#     4  10  18  31  51  75 108 140 176 221 266 320
#     4  11  21  32  54  80 108 148 183 218 270 330
#
# _framework density 18.185006999999999
#
# number of rings (size 3 to 8) (size 9 to 14) (size 15 to 20)
#    0.000    2.000    3.000    1.200    2.800    1.600 
#    0.000    4.000    0.000    0.000    0.000    1.400 
#    0.000    0.000    0.000    0.000    0.000    0.000 
#
# Total GULP energy -248028.891886 kJ/mol
# GULP energy per Si atom -12401.444594 kJ/mol
# Density = 1.814362 g / cm^3
# Si number density = 18.185007 Si / 1000 Ang^3
#
#
#
# Elastic Constant Matrix: (Units=GPa)
#
#
# Indices 1 2 3 4 5 6 
#
# 1 64.1227 15.6681 33.1221 0.0000 -0.3925 0.0000
# 2 15.6681 123.9111 75.7710 0.0000 1.0609 0.0000
# 3 33.1221 75.7710 151.2555 0.0000 -1.7425 0.0000
# 4 0.0000 0.0000 0.0000 26.7040 0.0000 -0.6054
# 5 -0.3925 1.0609 -1.7425 0.0000 14.5853 0.0000
# 6 0.0000 0.0000 0.0000 -0.6054 0.0000 17.5782
#
#
#
# Elastic Compliance Matrix: (Units=1/GPa)
#
#
# Indices 1 2 3 4 5 6 
#
# 1 0.017587 0.000189 -0.003946 0.000000 -0.000012 0.000000
# 2 0.000189 0.011671 -0.005906 0.000000 -0.001549 0.000000
# 3 -0.003946 -0.005906 0.010452 0.000000 0.001572 0.000000
# 4 0.000000 0.000000 0.000000 0.037477 0.000000 0.001291
# 5 -0.000012 -0.001549 0.001572 0.000000 0.068862 0.000000
# 6 0.000000 0.000000 0.000000 0.001291 0.000000 0.056933
#
#
# Mechanical properties :
#
#
# Convention : Reuss Voigt Hill
#
# Bulk Modulus (GPa) = 49.05614 65.37907 57.21760
# Shear Modulus (GPa) = 21.82423 26.08871 23.95647
#
# Velocity S-wave (km/s) = 3.46804 3.79176 3.63350
# Velocity P-wave (km/s) = 6.56286 7.42968 7.00968
#
# Compressibility (1/GPa) = 0.02038481
#
# Stress axis : x y z
#
# Youngs Moduli (GPa) = 56.85961 85.68211 95.67413
#
# Poissons Ratio (x) = -0.01623 0.37756
# Poissons Ratio (y) = -0.01077 0.56504
# Poissons Ratio (z) = 0.22438 0.50603
#
# Static dielectric constant tensor:
#      x y z
#    x 2.811300 0.000000 -0.002950 
#    y 0.000000 3.561100 0.000000 
#    z -0.002950 0.000000 3.375540 
# 
# 
# High freq. dielectric constant tensor:
#      x y z
#    x 1.648270 0.000000 -0.003320 
#    y 0.000000 1.722700 0.000000 
#    z -0.003320 0.000000 1.699770 
# 
# From -- ./inp_files/151807.got.cif
#   From: 2010.06.25/outbox.cif.g09.slc.cpg/sg12_76_cif.got.tgz:151807.got - 2010.06.28 00:19:55.
