data_PCOD8082786
_publ_section_title
;
Structure prediction by ZEFSAII (Michael W. Deem and Ramdas Pophale) SiO2 
 PCOD8082786
Probable space group: C 2/M
;
_chemical_formula_sum "Si O2"
_cell_formula_units_Z 64
_cell_length_a 21.244938
_cell_length_b 11.980020
_cell_length_c 14.259650
_cell_angle_alpha 90.000000
_cell_angle_beta 113.316804
_cell_angle_gamma 90.000000
_cell_volume 3332.888672
_symmetry_space_group_name_H-M "C 2/M"
_symmetry_group_IT_number 12
_symmetry_cell_setting 'monoclinic'
loop_
_space_group_symop_operation_xyz
x,y,z
-x,y,-z
-x,-y,-z
x,-y,z
1/2+x,1/2+y,z
1/2-x,1/2+y,-z
1/2-x,1/2-y,-z
1/2+x,1/2-y,z
loop_
_atom_site_type_symbol
_atom_site_label
_atom_site_fract_x
_atom_site_fract_y
_atom_site_fract_z
Si Si1 0.792461 0.869028 0.023905
Si Si2 0.670808 0.621927 0.499668
Si Si3 0.655700 0.374726 0.152236
Si Si4 0.720351 0.734464 0.355756
Si Si5 0.569616 0.626053 0.805811
Si Si6 0.522307 0.290844 0.407939
Si Si7 0.976262 0.258703 0.886249
Si Si8 0.090171 0.625680 0.314341
O O1 0.847660 0.859689 0.140889
O O2 0.758686 0.000000 0.010347
O O3 0.750000 0.750000 0.000000
O O4 0.832418 0.862981 0.950247
O O5 0.688362 0.500000 0.549910
O O6 0.705581 0.631587 0.417135
O O7 0.703290 0.715354 0.587994
O O8 0.588646 0.629841 0.445951
O O9 0.664534 0.500000 0.192511
O O10 0.710823 0.300931 0.242345
O O11 0.579166 0.338292 0.131977
O O12 0.666560 0.827536 0.357829
O O13 0.549459 0.500000 0.819944
O O14 0.541222 0.652623 0.684983
O O15 0.538829 0.706941 0.866076
O O16 0.500000 0.263110 0.500000
O O17 0.542715 0.178625 0.366447
O O18 0.944010 0.359773 0.808158
O O19 0.000000 0.307748 0.000000
O O20 0.095645 0.500000 0.346574
#
# Coordination Sequence:
#
# PCOD8082786 Si02
#       8
#     8   8   8   8   8   8   8   8
#     4  10  22  40  59  81 112 151 191 231 278 336
#     4  10  19  33  54  79 110 144 176 224 285 331
#     4  10  19  33  57  84 112 143 180 226 278 336
#     4   9  19  33  53  81 110 139 178 226 272 336
#     4  10  20  35  58  84 113 143 178 233 289 337
#     4  10  22  37  54  79 108 142 191 236 275 326
#     4  10  18  31  55  87 114 135 174 227 282 340
#     4   9  19  35  53  76 110 147 182 224 275 332
#
# _framework density 19.202562
#
# number of rings (size 3 to 8) (size 9 to 14) (size 15 to 20)
#    0.000    2.250    1.250    2.250    0.000    3.000 
#    0.000    7.500    0.000    0.000    0.000    0.000 
#    0.000    0.000    0.000    0.000    0.000    0.000 
#
# Total GULP energy -396430.368320 kJ/mol
# GULP energy per Si atom -12388.449010 kJ/mol
# Density = 1.915886 g / cm^3
# Si number density = 19.202562 Si / 1000 Ang^3
#
#
#
# Elastic Constant Matrix: (Units=GPa)
#
#
# Indices 1 2 3 4 5 6 
#
# 1 53.3184 29.3067 30.2415 0.0000 8.3094 0.0000
# 2 29.3067 98.5980 14.7974 0.0000 8.2033 0.0000
# 3 30.2415 14.7974 115.5972 0.0000 10.0379 0.0000
# 4 0.0000 0.0000 0.0000 16.5174 0.0000 0.6157
# 5 8.3094 8.2033 10.0379 0.0000 31.1780 0.0000
# 6 0.0000 0.0000 0.0000 0.6157 0.0000 13.1396
#
#
#
# Elastic Compliance Matrix: (Units=1/GPa)
#
#
# Indices 1 2 3 4 5 6 
#
# 1 0.026167 -0.006640 -0.005701 0.000000 -0.003391 0.000000
# 2 -0.006640 0.012197 0.000309 0.000000 -0.001539 0.000000
# 3 -0.005701 0.000309 0.010265 0.000000 -0.001867 0.000000
# 4 0.000000 0.000000 0.000000 0.060648 0.000000 -0.002842
# 5 -0.003391 -0.001539 -0.001867 0.000000 0.033984 0.000000
# 6 0.000000 0.000000 0.000000 -0.002842 0.000000 0.076239
#
#
# Mechanical properties :
#
#
# Convention : Reuss Voigt Hill
#
# Bulk Modulus (GPa) = 40.70706 46.24498 43.47602
# Shear Modulus (GPa) = 19.86081 25.04488 22.45284
#
# Velocity S-wave (km/s) = 3.21951 3.61535 3.42316
# Velocity P-wave (km/s) = 5.92158 6.44691 6.18982
#
# Compressibility (1/GPa) = 0.02456576
#
# Stress axis : x y z
#
# Youngs Moduli (GPa) = 38.21599 81.98429 97.42126
#
# Poissons Ratio (x) = 0.54437 0.55541
# Poissons Ratio (y) = 0.25375 -0.03014
# Poissons Ratio (z) = 0.21787 -0.02536
#
# Static dielectric constant tensor:
#      x y z
#    x 3.315430 0.000000 0.195000 
#    y 0.000000 3.555610 0.000000 
#    z 0.195000 0.000000 3.750160 
# 
# 
# High freq. dielectric constant tensor:
#      x y z
#    x 1.718470 0.000000 0.013260 
#    y 0.000000 1.738890 0.000000 
#    z 0.013260 0.000000 1.760330 
# 
# From -- ./inp_files/232504.got.cif
#   From: 2010.06.25/outbox.cif.g09.slc.cpg/sg12_117_cif.got.tgz:232504.got - 2010.06.28 00:19:55.
