data_PCOD8082425
_publ_section_title
;
Structure prediction by ZEFSAII (Michael W. Deem and Ramdas Pophale) SiO2 
 PCOD8082425
Probable space group: C 2/M
;
_chemical_formula_sum "Si O2"
_cell_formula_units_Z 48
_cell_length_a 18.187958
_cell_length_b 8.583269
_cell_length_c 18.404490
_cell_angle_alpha 90.000000
_cell_angle_beta 117.615330
_cell_angle_gamma 90.000000
_cell_volume 2545.852194
_symmetry_space_group_name_H-M "C 2/M"
_symmetry_group_IT_number 12
_symmetry_cell_setting 'monoclinic'
loop_
_space_group_symop_operation_xyz
x,y,z
-x,y,-z
-x,-y,-z
x,-y,z
1/2+x,1/2+y,z
1/2-x,1/2+y,-z
1/2-x,1/2-y,-z
1/2+x,1/2-y,z
loop_
_atom_site_type_symbol
_atom_site_label
_atom_site_fract_x
_atom_site_fract_y
_atom_site_fract_z
Si Si1 0.575831 0.322410 0.760066
Si Si2 0.255490 0.316661 0.582356
Si Si3 0.910331 0.319648 0.734930
Si Si4 0.818050 0.820083 0.320905
Si Si5 0.332872 0.319500 0.829538
Si Si6 0.245995 0.817963 0.918572
O O1 0.549546 0.500000 0.764534
O O2 0.502486 0.207908 0.747920
O O3 0.595087 0.300984 0.682339
O O4 0.657389 0.276201 0.842878
O O5 0.241581 0.500000 0.574624
O O6 0.250000 0.250000 0.500000
O O7 0.345106 0.277675 0.657233
O O8 0.180458 0.235939 0.594638
O O9 0.888153 0.500000 0.717334
O O10 0.905751 0.267215 0.817610
O O11 0.751716 0.708079 0.252723
O O12 0.788523 0.000000 0.301480
O O13 0.355201 0.500000 0.844305
O O14 0.321402 0.253715 0.905672
O O15 0.260503 0.000000 0.927897
O O16 0.250000 0.750000 0.000000
#
# Coordination Sequence:
#
# PCOD8082425 Si02
#       6
#     8   8   8   8   8   8
#     4   9  19  35  54  77 106 138 170 210 259 308
#     4  11  21  35  55  78 106 137 173 214 258 308
#     4  11  21  34  54  79 106 136 174 216 256 304
#     4   9  17  32  53  76 103 135 173 212 254 307
#     4  10  18  31  52  75 102 137 175 211 253 307
#     4  10  20  35  55  79 107 137 173 215 260 309
#
# _framework density 18.854199000000001
#
# number of rings (size 3 to 8) (size 9 to 14) (size 15 to 20)
#    0.000    2.000    0.000    8.500    0.000    4.000 
#    0.000    1.667    0.000   10.000    0.000    0.000 
#    0.000    0.000    0.000    0.000    0.000    0.000 
#
# Total GULP energy -297509.259053 kJ/mol
# GULP energy per Si atom -12396.219127 kJ/mol
# Density = 1.881129 g / cm^3
# Si number density = 18.854199 Si / 1000 Ang^3
#
#
#
# Elastic Constant Matrix: (Units=GPa)
#
#
# Indices 1 2 3 4 5 6 
#
# 1 137.4442 48.9450 49.1105 0.0000 -33.3381 0.0000
# 2 48.9450 105.6234 30.6454 0.0000 -13.2922 0.0000
# 3 49.1105 30.6454 84.2122 0.0000 -37.8309 0.0000
# 4 0.0000 0.0000 0.0000 29.0578 0.0000 -7.3624
# 5 -33.3381 -13.2922 -37.8309 0.0000 35.7862 0.0000
# 6 0.0000 0.0000 0.0000 -7.3624 0.0000 34.5298
#
#
#
# Elastic Compliance Matrix: (Units=1/GPa)
#
#
# Indices 1 2 3 4 5 6 
#
# 1 0.010914 -0.003623 -0.002063 0.000000 0.006641 0.000000
# 2 -0.003623 0.011789 -0.003288 0.000000 -0.002472 0.000000
# 3 -0.002063 -0.003288 0.024495 0.000000 0.022751 0.000000
# 4 0.000000 0.000000 0.000000 0.036380 0.000000 0.007757
# 5 0.006641 -0.002472 0.022751 0.000000 0.057263 0.000000
# 6 0.000000 0.000000 0.000000 0.007757 0.000000 0.030614
#
#
# Mechanical properties :
#
#
# Convention : Reuss Voigt Hill
#
# Bulk Modulus (GPa) = 34.18770 64.96460 49.57615
# Shear Modulus (GPa) = 25.10630 33.11335 29.10983
#
# Velocity S-wave (km/s) = 3.65307 4.19535 3.93357
# Velocity P-wave (km/s) = 5.99711 7.61571 6.85435
#
# Compressibility (1/GPa) = 0.02925029
#
# Stress axis : x y z
#
# Youngs Moduli (GPa) = 91.62757 84.82233 40.82458
#
# Poissons Ratio (x) = 0.30732 0.08422
# Poissons Ratio (y) = 0.33198 0.13422
# Poissons Ratio (z) = 0.18903 0.27888
#
# Static dielectric constant tensor:
#      x y z
#    x 3.741400 0.000000 -0.563360 
#    y 0.000000 3.521820 0.000000 
#    z -0.563360 0.000000 3.324590 
# 
# 
# High freq. dielectric constant tensor:
#      x y z
#    x 1.736960 0.000000 -0.039600 
#    y 0.000000 1.746590 0.000000 
#    z -0.039600 0.000000 1.697880 
# 
# From -- ./inp_files/273716.got.cif
#   From: 2010.06.25/outbox.cif.g09.slc.cpg/sg12_137_cif.got.tgz:273716.got - 2010.06.28 00:19:55.
