data_PCOD8082727
_publ_section_title
;
Structure prediction by ZEFSAII (Michael W. Deem and Ramdas Pophale) SiO2 
 PCOD8082727
Probable space group: C 2/M
;
_chemical_formula_sum "Si O2"
_cell_formula_units_Z 56
_cell_length_a 27.910096
_cell_length_b 13.493392
_cell_length_c 9.259947
_cell_angle_alpha 90.000000
_cell_angle_beta 56.864329
_cell_angle_gamma 90.000000
_cell_volume 2920.201421
_symmetry_space_group_name_H-M "C 2/M"
_symmetry_group_IT_number 12
_symmetry_cell_setting 'monoclinic'
loop_
_space_group_symop_operation_xyz
x,y,z
-x,y,-z
-x,-y,-z
x,-y,z
1/2+x,1/2+y,z
1/2-x,1/2+y,-z
1/2-x,1/2-y,-z
1/2+x,1/2-y,z
loop_
_atom_site_type_symbol
_atom_site_label
_atom_site_fract_x
_atom_site_fract_y
_atom_site_fract_z
Si Si1 0.219479 0.382270 0.920469
Si Si2 0.668695 0.734872 0.232665
Si Si3 0.516283 0.108575 0.138920
Si Si4 0.908097 0.276559 0.379315
Si Si5 0.514106 0.610556 0.820868
Si Si6 0.628903 0.210010 0.879398
Si Si7 0.891117 0.886906 0.908213
O O1 0.222635 0.500000 0.942389
O O2 0.192990 0.327567 0.103124
O O3 0.282052 0.337319 0.788714
O O4 0.181604 0.358517 0.841719
O O5 0.636271 0.786633 0.418496
O O6 0.625634 0.666226 0.212768
O O7 0.462870 0.152861 0.315490
O O8 0.530041 0.000000 0.179717
O O9 0.500000 0.100548 0.000000
O O10 0.572277 0.176482 0.061833
O O11 0.932072 0.164926 0.337346
O O12 0.875837 0.303297 0.283860
O O13 0.535433 0.500000 0.816965
O O14 0.459775 0.613090 0.805533
O O15 0.500000 0.662251 0.000000
O O16 0.637589 0.325343 0.911528
O O17 0.867838 0.000000 0.952328
#
# Coordination Sequence:
#
# PCOD8082727 Si02
#       7
#     8   8   8   8   8   8   8
#     4  10  22  44  62  78 111 157 203 241 286 345
#     4  10  24  39  60  85 113 152 194 245 296 341
#     4   9  17  31  53  83 115 148 181 220 278 344
#     4  11  20  35  56  89 123 141 186 244 295 339
#     4  10  18  31  54  84 119 157 189 227 286 352
#     4  10  19  35  62  85 114 155 193 235 284 340
#     4  10  19  35  56  80 115 159 197 226 280 350
#
# _framework density 19.176759000000001
#
# number of rings (size 3 to 8) (size 9 to 14) (size 15 to 20)
#    0.000    2.000    2.857    1.286    0.000    3.429 
#    0.000    1.429    0.000    2.571    0.000    0.000 
#    0.000    0.000    0.000    0.000    0.000    0.000 
#
# Total GULP energy -347164.488235 kJ/mol
# GULP energy per Si atom -12398.731723 kJ/mol
# Density = 1.913311 g / cm^3
# Si number density = 19.176759 Si / 1000 Ang^3
#
#
#
# Elastic Constant Matrix: (Units=GPa)
#
#
# Indices 1 2 3 4 5 6 
#
# 1 111.5813 27.9785 32.0121 0.0000 -2.2478 0.0000
# 2 27.9785 125.0524 24.9365 0.0000 -4.2078 0.0000
# 3 32.0121 24.9365 88.7376 0.0000 -8.2332 0.0000
# 4 0.0000 0.0000 0.0000 13.8963 0.0000 -1.3616
# 5 -2.2478 -4.2078 -8.2332 0.0000 19.5909 0.0000
# 6 0.0000 0.0000 0.0000 -1.3616 0.0000 26.1073
#
#
#
# Elastic Compliance Matrix: (Units=1/GPa)
#
#
# Indices 1 2 3 4 5 6 
#
# 1 0.010317 -0.001668 -0.003306 0.000000 -0.000564 0.000000
# 2 -0.001668 0.008755 -0.001771 0.000000 0.000945 0.000000
# 3 -0.003306 -0.001771 0.013412 0.000000 0.004877 0.000000
# 4 0.000000 0.000000 0.000000 0.072331 0.000000 0.003773
# 5 -0.000564 0.000945 0.004877 0.000000 0.053232 0.000000
# 6 0.000000 0.000000 0.000000 0.003773 0.000000 0.038500
#
#
# Mechanical properties :
#
#
# Convention : Reuss Voigt Hill
#
# Bulk Modulus (GPa) = 52.64549 55.02505 53.83527
# Shear Modulus (GPa) = 23.10881 27.94852 25.52866
#
# Velocity S-wave (km/s) = 3.47514 3.82175 3.65256
# Velocity P-wave (km/s) = 6.60413 6.94480 6.77661
#
# Compressibility (1/GPa) = 0.01899498
#
# Stress axis : x y z
#
# Youngs Moduli (GPa) = 96.92430 114.22350 74.56161
#
# Poissons Ratio (x) = 0.19054 0.24646
# Poissons Ratio (y) = 0.16169 0.13203
# Poissons Ratio (z) = 0.32038 0.20226
#
# Static dielectric constant tensor:
#      x y z
#    x 3.633080 0.000000 -0.035580 
#    y 0.000000 3.740930 0.000000 
#    z -0.035580 0.000000 3.081210 
# 
# 
# High freq. dielectric constant tensor:
#      x y z
#    x 1.753200 0.000000 -0.000330 
#    y 0.000000 1.759500 0.000000 
#    z -0.000330 0.000000 1.700980 
# 
# From -- ./inp_files/111551.got.cif
#   From: 2010.06.25/outbox.cif.g09.slc.cpg/sg12_56_cif.got.tgz:111551.got - 2010.06.28 00:19:55.
