data_PCOD8082815
_publ_section_title
;
Structure prediction by ZEFSAII (Michael W. Deem and Ramdas Pophale) SiO2 
 PCOD8082815
Probable space group: C 2/M
;
_chemical_formula_sum "Si O2"
_cell_formula_units_Z 56
_cell_length_a 9.870716
_cell_length_b 17.600971
_cell_length_c 16.012306
_cell_angle_alpha 90.000000
_cell_angle_beta 89.239075
_cell_angle_gamma 90.000000
_cell_volume 2781.639625
_symmetry_space_group_name_H-M "C 2/M"
_symmetry_group_IT_number 12
_symmetry_cell_setting 'monoclinic'
loop_
_space_group_symop_operation_xyz
x,y,z
-x,y,-z
-x,-y,-z
x,-y,z
1/2+x,1/2+y,z
1/2-x,1/2+y,-z
1/2-x,1/2-y,-z
1/2+x,1/2-y,z
loop_
_atom_site_type_symbol
_atom_site_label
_atom_site_fract_x
_atom_site_fract_y
_atom_site_fract_z
Si Si1 0.353335 0.910784 0.462513
Si Si2 0.990590 0.914119 0.744293
Si Si3 0.922476 0.413414 0.767117
Si Si4 0.991417 0.824888 0.093505
Si Si5 0.719050 0.413439 0.626484
Si Si6 0.226251 0.727455 0.163043
Si Si7 0.296498 0.852509 0.287296
O O1 0.500000 0.899302 0.500000
O O2 0.244420 0.881698 0.532948
O O3 0.333996 0.853958 0.384588
O O4 0.332855 0.000000 0.437168
O O5 0.835510 0.904506 0.721163
O O6 0.019470 0.890974 0.838750
O O7 0.095425 0.871890 0.678561
O O8 0.034790 0.000000 0.740290
O O9 0.912251 0.500000 0.801862
O O10 0.861980 0.408655 0.674497
O O11 0.833632 0.356939 0.824578
O O12 0.079038 0.387642 0.766112
O O13 0.859048 0.773029 0.104864
O O14 0.122774 0.775721 0.110292
O O15 0.000000 0.858597 0.000000
O O16 0.677113 0.500000 0.613350
O O17 0.260034 0.768375 0.252280
#
# Coordination Sequence:
#
# PCOD8082815 Si02
#       7
#     8   8   8   8   8   8   8
#     4  10  18  31  56  90 122 161 215 255 292 356
#     4  10  21  37  59  90 122 154 199 253 311 365
#     4  11  20  37  65  88 117 166 213 246 293 369
#     4  11  23  40  64  88 117 159 201 252 311 380
#     4   9  18  32  56  86 120 161 202 247 297 356
#     4  11  23  41  62  91 123 157 203 253 314 372
#     4  11  22  37  61  89 123 164 204 257 302 358
#
# _framework density 20.132010999999999
#
# number of rings (size 3 to 8) (size 9 to 14) (size 15 to 20)
#    0.000    1.571    4.286    1.714    0.000    0.857 
#    0.000    2.857    0.000    0.429    0.000    0.000 
#    0.000    0.000    0.000    0.000    0.000    0.000 
#
# Total GULP energy -346984.958856 kJ/mol
# GULP energy per Si atom -12392.319959 kJ/mol
# Density = 2.008619 g / cm^3
# Si number density = 20.132011 Si / 1000 Ang^3
#
#
#
# Elastic Constant Matrix: (Units=GPa)
#
#
# Indices 1 2 3 4 5 6 
#
# 1 135.5349 20.6356 41.3540 0.0000 -5.2045 0.0000
# 2 20.6356 57.5467 18.5814 0.0000 0.9469 0.0000
# 3 41.3540 18.5814 122.3126 0.0000 -12.6911 0.0000
# 4 0.0000 0.0000 0.0000 19.6898 0.0000 -4.9416
# 5 -5.2045 0.9469 -12.6911 0.0000 21.2154 0.0000
# 6 0.0000 0.0000 0.0000 -4.9416 0.0000 18.8725
#
#
#
# Elastic Compliance Matrix: (Units=1/GPa)
#
#
# Indices 1 2 3 4 5 6 
#
# 1 0.008500 -0.002267 -0.002455 0.000000 0.000718 0.000000
# 2 -0.002267 0.019018 -0.002419 0.000000 -0.002852 0.000000
# 3 -0.002455 -0.002419 0.009939 0.000000 0.005451 0.000000
# 4 0.000000 0.000000 0.000000 0.054360 0.000000 0.014234
# 5 0.000718 -0.002852 0.005451 0.000000 0.050700 0.000000
# 6 0.000000 0.000000 0.000000 0.014234 0.000000 0.056714
#
#
# Mechanical properties :
#
#
# Convention : Reuss Voigt Hill
#
# Bulk Modulus (GPa) = 43.14892 52.94848 48.04870
# Shear Modulus (GPa) = 22.60018 27.61040 25.10529
#
# Velocity S-wave (km/s) = 3.35416 3.70735 3.53517
# Velocity P-wave (km/s) = 6.03987 6.68458 6.37039
#
# Compressibility (1/GPa) = 0.02317555
#
# Stress axis : x y z
#
# Youngs Moduli (GPa) = 117.64760 52.58173 100.61558
#
# Poissons Ratio (x) = 0.11921 0.24701
# Poissons Ratio (y) = 0.26672 0.24334
# Poissons Ratio (z) = 0.28882 0.12717
#
# Static dielectric constant tensor:
#      x y z
#    x 3.941070 0.000000 -0.117640 
#    y 0.000000 3.427650 0.000000 
#    z -0.117640 0.000000 3.593560 
# 
# 
# High freq. dielectric constant tensor:
#      x y z
#    x 1.809260 0.000000 -0.009790 
#    y 0.000000 1.756880 0.000000 
#    z -0.009790 0.000000 1.768490 
# 
# From -- ./inp_files/197506.got.cif
#   From: 2010.06.25/outbox.cif.g09.slc.cpg/sg12_99_cif.got.tgz:197506.got - 2010.06.28 00:19:55.
