data_PCOD8082682
_publ_section_title
;
Structure prediction by ZEFSAII (Michael W. Deem and Ramdas Pophale) SiO2 
 PCOD8082682
Probable space group: C 2/M
;
_chemical_formula_sum "Si O2"
_cell_formula_units_Z 64
_cell_length_a 11.552665
_cell_length_b 21.024170
_cell_length_c 23.516752
_cell_angle_alpha 90.000000
_cell_angle_beta 38.227303
_cell_angle_gamma 90.000000
_cell_volume 3534.407477
_symmetry_space_group_name_H-M "C 2/M"
_symmetry_group_IT_number 12
_symmetry_cell_setting 'monoclinic'
loop_
_space_group_symop_operation_xyz
x,y,z
-x,y,-z
-x,-y,-z
x,-y,z
1/2+x,1/2+y,z
1/2-x,1/2+y,-z
1/2-x,1/2-y,-z
1/2+x,1/2-y,z
loop_
_atom_site_type_symbol
_atom_site_label
_atom_site_fract_x
_atom_site_fract_y
_atom_site_fract_z
Si Si1 0.781433 0.074783 0.410520
Si Si2 0.370511 0.246151 0.100344
Si Si3 0.056080 0.575401 0.387341
Si Si4 0.824983 0.072095 0.771665
Si Si5 0.444518 0.860790 0.911218
Si Si6 0.827697 0.131789 0.885100
Si Si7 0.222350 0.135528 0.795030
Si Si8 0.216839 0.929081 0.908430
O O1 0.677360 0.098404 0.394132
O O2 0.661563 0.090785 0.513439
O O3 0.992562 0.102965 0.330440
O O4 0.797696 0.000000 0.397493
O O5 0.510632 0.213117 0.092684
O O6 0.226032 0.195604 0.129062
O O7 0.251017 0.299199 0.179684
O O8 0.500000 0.275799 0.000000
O O9 0.083426 0.500000 0.362970
O O10 0.116367 0.622133 0.313149
O O11 0.640053 0.106290 0.822276
O O12 0.852085 0.076226 0.829473
O O13 0.803106 0.000000 0.761577
O O14 0.318523 0.873035 0.904597
O O15 0.338807 0.888417 0.007755
O O16 0.017848 0.138487 0.846469
O O17 0.251015 0.078161 0.828205
O O18 0.282037 0.000000 0.902483
O O19 0.000000 0.919337 0.000000
#
# Coordination Sequence:
#
# PCOD8082682 Si02
#       8
#     8   8   8   8   8   8   8   8
#     4   8  15  29  52  80 106 131 165 214 264 314
#     4   9  22  36  54  73 102 139 193 230 250 298
#     4   9  17  31  51  81 111 130 163 216 273 323
#     4  10  18  31  54  80 106 137 171 215 266 313
#     4  10  21  38  50  73 107 147 182 216 254 309
#     4  10  21  34  50  79 104 138 182 221 260 302
#     4  12  21  33  55  76 104 144 176 220 270 310
#     4  11  23  35  49  76 113 147 173 208 271 332
#
# _framework density 18.107702
#
# number of rings (size 3 to 8) (size 9 to 14) (size 15 to 20)
#    0.000    2.125    2.500    3.000    1.750    3.000 
#    0.000    0.000    0.000    3.750    0.000    3.500 
#    0.000    0.000    0.000    0.000    0.000    0.000 
#
# Total GULP energy -396489.832467 kJ/mol
# GULP energy per Si atom -12390.307265 kJ/mol
# Density = 1.806649 g / cm^3
# Si number density = 18.107702 Si / 1000 Ang^3
#
#
#
# Elastic Constant Matrix: (Units=GPa)
#
#
# Indices 1 2 3 4 5 6 
#
# 1 79.2851 24.6108 36.6783 -0.0028 2.0098 0.0059
# 2 24.6108 58.5176 41.2889 -0.0298 2.9043 0.0102
# 3 36.6783 41.2889 154.9612 -0.0777 -8.1604 0.0204
# 4 -0.0028 -0.0298 -0.0777 28.3357 0.0004 3.3567
# 5 2.0098 2.9043 -8.1604 0.0004 28.5191 -0.0024
# 6 0.0059 0.0102 0.0204 3.3567 -0.0024 20.8789
#
#
#
# Elastic Compliance Matrix: (Units=1/GPa)
#
#
# Indices 1 2 3 4 5 6 
#
# 1 0.015205 -0.004609 -0.002439 -0.000010 -0.001300 0.000002
# 2 -0.004609 0.022857 -0.005183 0.000010 -0.003486 -0.000007
# 3 -0.002439 -0.005183 0.008578 0.000019 0.003154 -0.000008
# 4 -0.000010 0.000010 0.000019 0.035976 0.000004 -0.005784
# 5 -0.001300 -0.003486 0.003154 0.000004 0.036413 0.000002
# 6 0.000002 -0.000007 -0.000008 -0.005784 0.000002 0.048825
#
#
# Mechanical properties :
#
#
# Convention : Reuss Voigt Hill
#
# Bulk Modulus (GPa) = 45.09114 55.32441 50.20777
# Shear Modulus (GPa) = 25.03637 28.22581 26.63109
#
# Velocity S-wave (km/s) = 3.72242 3.95241 3.83914
# Velocity P-wave (km/s) = 6.59021 7.17273 6.88763
#
# Compressibility (1/GPa) = 0.02217730
#
# Stress axis : x y z
#
# Youngs Moduli (GPa) = 65.76875 43.74974 116.58197
#
# Poissons Ratio (x) = 0.20165 0.28438
# Poissons Ratio (y) = 0.30313 0.60423
# Poissons Ratio (z) = 0.16043 0.22675
#
# Static dielectric constant tensor:
#      x y z
#    x 3.410590 -0.000020 -0.018920 
#    y -0.000020 3.169080 0.000050 
#    z -0.018920 0.000050 3.661070 
# 
# 
# High freq. dielectric constant tensor:
#      x y z
#    x 1.691670 0.000000 -0.003740 
#    y 0.000000 1.677790 0.000000 
#    z -0.003740 0.000000 1.695450 
# 
# From -- ./inp_files/307115.got.cif
#   From: 2010.06.25/outbox.cif.g09.slc.cpg/sg12_154_cif.got.tgz:307115.got - 2010.06.28 00:19:55.
