data_PCOD8082782
_publ_section_title
;
Structure prediction by ZEFSAII (Michael W. Deem and Ramdas Pophale) SiO2 
 PCOD8082782
Probable space group: C 2/M
;
_chemical_formula_sum "Si O2"
_cell_formula_units_Z 40
_cell_length_a 9.368037
_cell_length_b 25.424317
_cell_length_c 12.164399
_cell_angle_alpha 90.000000
_cell_angle_beta 50.788815
_cell_angle_gamma 90.000000
_cell_volume 2244.863733
_symmetry_space_group_name_H-M "C 2/M"
_symmetry_group_IT_number 12
_symmetry_cell_setting 'monoclinic'
loop_
_space_group_symop_operation_xyz
x,y,z
-x,y,-z
-x,-y,-z
x,-y,z
1/2+x,1/2+y,z
1/2-x,1/2+y,-z
1/2-x,1/2-y,-z
1/2+x,1/2-y,z
loop_
_atom_site_type_symbol
_atom_site_label
_atom_site_fract_x
_atom_site_fract_y
_atom_site_fract_z
Si Si1 0.197094 0.136062 0.627529
Si Si2 0.575978 0.439710 0.340997
Si Si3 0.938256 0.783056 0.653161
Si Si4 0.955501 0.659820 0.684058
Si Si5 0.390668 0.857669 0.165288
O O1 0.275393 0.134915 0.713723
O O2 0.362679 0.136399 0.460134
O O3 0.073471 0.084418 0.670066
O O4 0.076276 0.188573 0.670346
O O5 0.500000 0.432614 0.500000
O O6 0.608176 0.500000 0.293492
O O7 0.769001 0.409940 0.236363
O O8 0.947193 0.721982 0.671530
O O9 0.732787 0.805063 0.770379
O O10 0.000000 0.797147 0.500000
O O11 0.958389 0.644621 0.810543
O O12 0.500000 0.859882 0.000000
#
# Coordination Sequence:
#
# PCOD8082782 Si02
#       5
#     8   8   8   8   8
#     4  10  18  31  55  86 106 131 180 235 261 305
#     4  10  20  39  61  79 102 138 184 228 273 318
#     4  11  18  33  56  80 110 150 182 212 259 316
#     4  11  19  31  55  85 109 141 179 221 263 305
#     4  11  23  37  53  79 115 146 179 215 263 331
#
# _framework density 17.818453999999999
#
# number of rings (size 3 to 8) (size 9 to 14) (size 15 to 20)
#    0.000    1.400    6.000    3.000    0.000    1.200 
#    0.000    7.000    0.000    1.200    0.000    0.000 
#    0.000    0.000    0.000    0.000    0.000    0.000 
#
# Total GULP energy -248032.949443 kJ/mol
# GULP energy per Si atom -12401.647472 kJ/mol
# Density = 1.777790 g / cm^3
# Si number density = 17.818454 Si / 1000 Ang^3
#
#
#
# Elastic Constant Matrix: (Units=GPa)
#
#
# Indices 1 2 3 4 5 6 
#
# 1 157.5620 39.2410 46.1403 0.0000 18.3539 0.0000
# 2 39.2410 91.2408 30.6289 0.0000 -4.0365 0.0000
# 3 46.1403 30.6289 101.7173 0.0000 11.4061 0.0000
# 4 0.0000 0.0000 0.0000 2.1140 0.0000 -3.6413
# 5 18.3539 -4.0365 11.4061 0.0000 23.1360 0.0000
# 6 0.0000 0.0000 0.0000 -3.6413 0.0000 8.3392
#
#
#
# Elastic Compliance Matrix: (Units=1/GPa)
#
#
# Indices 1 2 3 4 5 6 
#
# 1 0.008513 -0.003198 -0.002200 0.000000 -0.006226 0.000000
# 2 -0.003198 0.013786 -0.003445 0.000000 0.006641 0.000000
# 3 -0.002200 -0.003445 0.012425 0.000000 -0.004981 0.000000
# 4 0.000000 0.000000 0.000000 1.908241 0.000000 0.833239
# 5 -0.006226 0.006641 -0.004981 0.000000 0.051777 0.000000
# 6 0.000000 0.000000 0.000000 0.833239 0.000000 0.483751
#
#
# Mechanical properties :
#
#
# Convention : Reuss Voigt Hill
#
# Bulk Modulus (GPa) = 58.69646 64.72672 61.71159
# Shear Modulus (GPa) = 1.99851 22.35184 12.17518
#
# Velocity S-wave (km/s) = 1.06020 3.54562 2.61682
# Velocity P-wave (km/s) = 5.87466 7.29153 6.62110
#
# Compressibility (1/GPa) = 0.01703680
#
# Stress axis : x y z
#
# Youngs Moduli (GPa) = 117.46973 72.53889 80.48138
#
# Poissons Ratio (x) = 0.23198 0.17709
# Poissons Ratio (y) = 0.37567 0.27727
# Poissons Ratio (z) = 0.25847 0.24991
#
# Static dielectric constant tensor:
#      x y z
#    x 3.682110 0.000000 0.015750 
#    y 0.000000 3.231000 0.000000 
#    z 0.015750 0.000000 3.070700 
# 
# 
# High freq. dielectric constant tensor:
#      x y z
#    x 1.709200 0.000000 -0.000930 
#    y 0.000000 1.678790 0.000000 
#    z -0.000930 0.000000 1.655990 
# 
# From -- ./inp_files/39204.got.cif
#   From: 2010.06.25/outbox.cif.g09.slc.cpg/sg12_20_cif.got.tgz:39204.got - 2010.06.28 00:19:55.
