data_PCOD8082311
_publ_section_title
;
Structure prediction by ZEFSAII (Michael W. Deem and Ramdas Pophale) SiO2 
 PCOD8082311
Probable space group: C 2/M
;
_chemical_formula_sum "Si O2"
_cell_formula_units_Z 56
_cell_length_a 28.809293
_cell_length_b 8.705483
_cell_length_c 17.235669
_cell_angle_alpha 90.000000
_cell_angle_beta 130.187927
_cell_angle_gamma 90.000000
_cell_volume 3302.237693
_symmetry_space_group_name_H-M "C 2/M"
_symmetry_group_IT_number 12
_symmetry_cell_setting 'monoclinic'
loop_
_space_group_symop_operation_xyz
x,y,z
-x,y,-z
-x,-y,-z
x,-y,z
1/2+x,1/2+y,z
1/2-x,1/2+y,-z
1/2-x,1/2-y,-z
1/2+x,1/2-y,z
loop_
_atom_site_type_symbol
_atom_site_label
_atom_site_fract_x
_atom_site_fract_y
_atom_site_fract_z
Si Si1 0.846653 0.321188 0.089852
Si Si2 0.080282 0.680735 0.228679
Si Si3 0.770477 0.177421 0.131858
Si Si4 0.711186 0.318272 0.389245
Si Si5 0.461658 0.322897 0.140305
Si Si6 0.722383 0.821173 0.241086
Si Si7 0.595500 0.320978 0.086009
O O1 0.860329 0.500000 0.099157
O O2 0.824272 0.277163 0.152235
O O3 0.909170 0.234175 0.140764
O O4 0.794771 0.269473 0.972887
O O5 0.089509 0.500000 0.242833
O O6 0.142247 0.760889 0.322951
O O7 0.064132 0.734640 0.124083
O O8 0.024452 0.731582 0.223698
O O9 0.772150 0.202714 0.226757
O O10 0.781022 0.000000 0.121519
O O11 0.712725 0.500000 0.394762
O O12 0.750000 0.250000 0.500000
O O13 0.741532 0.263208 0.340934
O O14 0.473502 0.500000 0.170563
O O15 0.444027 0.293594 0.032396
O O16 0.661061 0.750180 0.141006
O O17 0.711997 0.000000 0.248038
O O18 0.601581 0.500000 0.113757
#
# Coordination Sequence:
#
# PCOD8082311 Si02
#       7
#     8   8   8   8   8   8   8
#     4  10  19  30  46  68  97 135 176 213 247 287
#     4  11  22  34  50  71  97 129 166 205 248 298
#     4   9  18  31  46  68  99 134 171 210 250 292
#     4  11  22  38  57  78 102 127 161 204 254 302
#     4  11  21  32  46  67  99 136 172 207 247 292
#     4  10  18  31  51  74 101 132 168 207 251 297
#     4  10  19  30  45  67  97 133 170 205 243 290
#
# _framework density 16.958196999999998
#
# number of rings (size 3 to 8) (size 9 to 14) (size 15 to 20)
#    0.000    1.714    1.429    6.429    0.000    5.143 
#    0.000    0.000    0.000    0.000    0.000    1.000 
#    0.000    8.000    0.000    0.000    0.000    0.000 
#
# Total GULP energy -347198.821850 kJ/mol
# GULP energy per Si atom -12399.957923 kJ/mol
# Density = 1.691960 g / cm^3
# Si number density = 16.958197 Si / 1000 Ang^3
#
#
#
# Elastic Constant Matrix: (Units=GPa)
#
#
# Indices 1 2 3 4 5 6 
#
# 1 123.0213 55.4111 43.9553 0.0000 4.1857 0.0000
# 2 55.4111 129.9368 42.1835 0.0000 -0.2647 0.0000
# 3 43.9553 42.1835 69.1665 0.0000 -5.0521 0.0000
# 4 0.0000 0.0000 0.0000 23.0354 0.0000 0.5437
# 5 4.1857 -0.2647 -5.0521 0.0000 14.1000 0.0000
# 6 0.0000 0.0000 0.0000 0.5437 0.0000 33.1359
#
#
#
# Elastic Compliance Matrix: (Units=1/GPa)
#
#
# Indices 1 2 3 4 5 6 
#
# 1 0.011901 -0.003111 -0.006088 0.000000 -0.005773 0.000000
# 2 -0.003111 0.010463 -0.004438 0.000000 -0.000470 0.000000
# 3 -0.006088 -0.004438 0.021728 0.000000 0.009509 0.000000
# 4 0.000000 0.000000 0.000000 0.043428 0.000000 -0.000713
# 5 -0.005773 -0.000470 0.009509 0.000000 0.076034 0.000000
# 6 0.000000 0.000000 0.000000 -0.000713 0.000000 0.030190
#
#
# Mechanical properties :
#
#
# Convention : Reuss Voigt Hill
#
# Bulk Modulus (GPa) = 59.45943 67.24718 63.35331
# Shear Modulus (GPa) = 22.06293 26.09258 24.07775
#
# Velocity S-wave (km/s) = 3.61088 3.92681 3.77215
# Velocity P-wave (km/s) = 7.24728 7.76534 7.51078
#
# Compressibility (1/GPa) = 0.01681819
#
# Stress axis : x y z
#
# Youngs Moduli (GPa) = 84.02404 95.57889 46.02312
#
# Poissons Ratio (x) = 0.29731 0.28018
# Poissons Ratio (y) = 0.26137 0.20427
# Poissons Ratio (z) = 0.51152 0.42423
#
# Static dielectric constant tensor:
#      x y z
#    x 3.274770 0.000000 -0.021260 
#    y 0.000000 3.303820 0.000000 
#    z -0.021260 0.000000 2.847960 
# 
# 
# High freq. dielectric constant tensor:
#      x y z
#    x 1.657780 0.000000 -0.000110 
#    y 0.000000 1.672610 0.000000 
#    z -0.000110 0.000000 1.604220 
# 
# From -- ./inp_files/291940.got.cif
#   From: 2010.06.25/outbox.cif.g09.slc.cpg/sg12_146_cif.got.tgz:291940.got - 2010.06.28 00:19:55.
