data_PCOD8082155
_publ_section_title
;
Structure prediction by ZEFSAII (Michael W. Deem and Ramdas Pophale) SiO2 
 PCOD8082155
Probable space group: C 2/M
;
_chemical_formula_sum "Si O2"
_cell_formula_units_Z 48
_cell_length_a 23.720942
_cell_length_b 9.007644
_cell_length_c 17.167258
_cell_angle_alpha 90.000000
_cell_angle_beta 46.472530
_cell_angle_gamma 90.000000
_cell_volume 2659.552691
_symmetry_space_group_name_H-M "C 2/M"
_symmetry_group_IT_number 12
_symmetry_cell_setting 'monoclinic'
loop_
_space_group_symop_operation_xyz
x,y,z
-x,y,-z
-x,-y,-z
x,-y,z
1/2+x,1/2+y,z
1/2-x,1/2+y,-z
1/2-x,1/2-y,-z
1/2+x,1/2-y,z
loop_
_atom_site_type_symbol
_atom_site_label
_atom_site_fract_x
_atom_site_fract_y
_atom_site_fract_z
Si Si1 0.636051 0.671925 0.105579
Si Si2 0.789004 0.325991 0.694838
Si Si3 0.739654 0.826136 0.885900
Si Si4 0.053042 0.340381 0.378759
Si Si5 0.312852 0.176792 0.495205
Si Si6 0.026525 0.170606 0.674309
O O1 0.654768 0.500000 0.071094
O O2 0.679721 0.718672 0.145195
O O3 0.542904 0.699995 0.197626
O O4 0.667058 0.770000 0.005496
O O5 0.771999 0.500000 0.711514
O O6 0.728277 0.244388 0.810067
O O7 0.867854 0.278939 0.661654
O O8 0.792331 0.268892 0.602528
O O9 0.733288 0.000000 0.881623
O O10 0.064183 0.500000 0.322239
O O11 0.000000 0.383307 0.500000
O O12 0.012309 0.209811 0.370478
O O13 0.250000 0.250000 0.500000
O O14 0.397656 0.228655 0.384700
O O15 0.310080 0.000000 0.492190
O O16 0.053151 0.000000 0.649555
#
# Coordination Sequence:
#
# PCOD8082155 Si02
#       6
#     8   8   8   8   8   8
#     4   9  19  33  48  75 114 150 181 214 262 321
#     4  10  20  34  54  77 110 147 178 217 271 328
#     4  10  19  31  50  79 112 146 184 220 260 315
#     4  10  18  31  49  76 110 145 179 214 266 330
#     4  11  24  42  59  80 106 142 186 228 277 327
#     4  11  21  34  54  81 112 145 180 224 270 321
#
# _framework density 18.048148000000001
#
# number of rings (size 3 to 8) (size 9 to 14) (size 15 to 20)
#    0.000    1.833    3.333    1.500    0.000    3.667 
#    0.000    0.000    0.000    1.000    0.000    7.000 
#    0.000    0.000    0.000    0.000    0.000    0.000 
#
# Total GULP energy -297380.336505 kJ/mol
# GULP energy per Si atom -12390.847354 kJ/mol
# Density = 1.800707 g / cm^3
# Si number density = 18.048148 Si / 1000 Ang^3
#
#
#
# Elastic Constant Matrix: (Units=GPa)
#
#
# Indices 1 2 3 4 5 6 
#
# 1 87.1944 41.8620 51.7961 0.0002 -3.6551 0.0000
# 2 41.8620 70.1286 49.7650 -0.0010 -0.2318 0.0003
# 3 51.7961 49.7650 109.7731 -0.0007 1.8073 0.0001
# 4 0.0002 -0.0010 -0.0007 31.8851 0.0001 -0.8290
# 5 -3.6551 -0.2318 1.8073 0.0001 12.4962 0.0000
# 6 0.0000 0.0003 0.0001 -0.8290 0.0000 27.9720
#
#
#
# Elastic Compliance Matrix: (Units=1/GPa)
#
#
# Indices 1 2 3 4 5 6 
#
# 1 0.018416 -0.006982 -0.005624 0.000000 0.006071 0.000000
# 2 -0.006982 0.023709 -0.007445 0.000001 -0.000526 0.000000
# 3 -0.005624 -0.007445 0.015204 0.000000 -0.003982 0.000000
# 4 0.000000 0.000001 0.000000 0.031387 0.000000 0.000930
# 5 0.006071 -0.000526 -0.003982 0.000000 0.082366 0.000000
# 6 0.000000 0.000000 0.000000 0.000930 0.000000 0.035778
#
#
# Mechanical properties :
#
#
# Convention : Reuss Voigt Hill
#
# Bulk Modulus (GPa) = 58.05056 61.54912 59.79984
# Shear Modulus (GPa) = 19.78593 22.71552 21.25072
#
# Velocity S-wave (km/s) = 3.31461 3.55153 3.43512
# Velocity P-wave (km/s) = 6.84711 7.14105 6.99563
#
# Compressibility (1/GPa) = 0.01722636
#
# Stress axis : x y z
#
# Youngs Moduli (GPa) = 54.30011 42.17839 65.77082
#
# Poissons Ratio (x) = 0.29449 0.36992
# Poissons Ratio (y) = 0.37912 0.48968
# Poissons Ratio (z) = 0.30540 0.31403
#
# Static dielectric constant tensor:
#      x y z
#    x 3.058240 0.000000 -0.055830 
#    y 0.000000 3.374180 0.000000 
#    z -0.055830 0.000000 3.588490 
# 
# 
# High freq. dielectric constant tensor:
#      x y z
#    x 1.653370 0.000000 -0.003910 
#    y 0.000000 1.707260 0.000000 
#    z -0.003910 0.000000 1.707380 
# 
# From -- ./inp_files/287262.got.cif
#   From: 2010.06.25/outbox.cif.g09.slc.cpg/sg12_144_cif.got.tgz:287262.got - 2010.06.28 00:19:55.
