data_PCOD8082929
_publ_section_title
;
Structure prediction by ZEFSAII (Michael W. Deem and Ramdas Pophale) SiO2 
 PCOD8082929
Probable space group: C 2/M
;
_chemical_formula_sum "Si O2"
_cell_formula_units_Z 56
_cell_length_a 19.231474
_cell_length_b 9.178491
_cell_length_c 28.802926
_cell_angle_alpha 90.000000
_cell_angle_beta 38.619043
_cell_angle_gamma 90.000000
_cell_volume 3173.233308
_symmetry_space_group_name_H-M "C 2/M"
_symmetry_group_IT_number 12
_symmetry_cell_setting 'monoclinic'
loop_
_space_group_symop_operation_xyz
x,y,z
-x,y,-z
-x,-y,-z
x,-y,z
1/2+x,1/2+y,z
1/2-x,1/2+y,-z
1/2-x,1/2-y,-z
1/2+x,1/2-y,z
loop_
_atom_site_type_symbol
_atom_site_label
_atom_site_fract_x
_atom_site_fract_y
_atom_site_fract_z
Si Si1 0.861810 0.670623 0.696094
Si Si2 0.353753 0.170494 0.208881
Si Si3 0.403159 0.830664 0.081601
Si Si4 0.153170 0.170702 0.199831
Si Si5 0.702710 0.169950 0.592589
Si Si6 0.395783 0.832864 0.454273
Si Si7 0.027269 0.330229 0.759588
O O1 0.840690 0.500000 0.715992
O O2 0.759671 0.741736 0.721320
O O3 0.880214 0.747971 0.735751
O O4 0.972721 0.695241 0.607446
O O5 0.404163 0.229807 0.133921
O O6 0.443009 0.199988 0.202430
O O7 0.322253 0.000000 0.221751
O O8 0.283338 0.801941 0.120575
O O9 0.430194 0.000000 0.070831
O O10 0.500000 0.754463 0.000000
O O11 0.082406 0.236938 0.194440
O O12 0.127890 0.000000 0.218743
O O13 0.636492 0.216571 0.580941
O O14 0.824511 0.244394 0.529425
O O15 0.630431 0.223140 0.674143
O O16 0.723886 0.000000 0.584616
O O17 0.365048 0.000000 0.477689
O O18 0.002061 0.500000 0.763446
#
# Coordination Sequence:
#
# PCOD8082929 Si02
#       7
#     8   8   8   8   8   8   8
#     4  10  18  32  51  71  99 131 164 208 254 289
#     4   9  19  33  52  75  98 131 169 200 240 296
#     4   8  15  31  53  76 100 126 160 201 241 284
#     4  10  19  30  51  78  98 127 170 203 236 291
#     4   9  17  29  45  66  93 127 162 202 248 288
#     4   9  17  29  45  68  93 123 164 205 248 290
#     4  10  19  34  50  70 103 134 163 203 250 292
#
# _framework density 17.647614999999998
#
# number of rings (size 3 to 8) (size 9 to 14) (size 15 to 20)
#    0.000    2.714    1.429    1.714    0.000    2.286 
#    0.000    1.429    0.000   15.000    0.000    0.000 
#    0.000    0.000    0.000    0.000    0.000    0.000 
#
# Total GULP energy -347133.827706 kJ/mol
# GULP energy per Si atom -12397.636704 kJ/mol
# Density = 1.760745 g / cm^3
# Si number density = 17.647615 Si / 1000 Ang^3
#
#
#
# Elastic Constant Matrix: (Units=GPa)
#
#
# Indices 1 2 3 4 5 6 
#
# 1 97.9233 42.2788 45.1543 -0.0001 -6.4355 -0.0001
# 2 42.2788 62.4072 38.2391 -0.0002 -9.7500 -0.0006
# 3 45.1543 38.2391 113.4042 0.0000 -7.7747 0.0000
# 4 -0.0001 -0.0002 0.0000 18.5353 0.0001 -6.3081
# 5 -6.4355 -9.7500 -7.7747 0.0001 19.0673 0.0000
# 6 -0.0001 -0.0006 0.0000 -6.3081 0.0000 26.3515
#
#
#
# Elastic Compliance Matrix: (Units=1/GPa)
#
#
# Indices 1 2 3 4 5 6 
#
# 1 0.015350 -0.008457 -0.003294 0.000000 -0.000487 0.000000
# 2 -0.008457 0.026040 -0.004831 0.000000 0.008491 0.000001
# 3 -0.003294 -0.004831 0.011844 0.000000 0.001247 0.000000
# 4 0.000000 0.000000 0.000000 0.058736 0.000000 0.014060
# 5 -0.000487 0.008491 0.001247 0.000000 0.057132 0.000000
# 6 0.000000 0.000001 0.000000 0.014060 0.000000 0.041314
#
#
# Mechanical properties :
#
#
# Convention : Reuss Voigt Hill
#
# Bulk Modulus (GPa) = 49.82430 58.34212 54.08321
# Shear Modulus (GPa) = 19.97837 22.66166 21.32001
#
# Velocity S-wave (km/s) = 3.36828 3.58735 3.47954
# Velocity P-wave (km/s) = 6.58948 7.09155 6.84512
#
# Compressibility (1/GPa) = 0.02007053
#
# Stress axis : x y z
#
# Youngs Moduli (GPa) = 65.14522 38.40254 84.43127
#
# Poissons Ratio (x) = 0.32478 0.27809
# Poissons Ratio (y) = 0.55095 0.40788
# Poissons Ratio (z) = 0.21457 0.18552
#
# Static dielectric constant tensor:
#      x y z
#    x 3.144660 0.000000 -0.081860 
#    y 0.000000 3.174900 0.000000 
#    z -0.081860 0.000000 3.426380 
# 
# 
# High freq. dielectric constant tensor:
#      x y z
#    x 1.663750 0.000000 -0.011520 
#    y 0.000000 1.669630 0.000000 
#    z -0.011520 0.000000 1.675790 
# 
# From -- ./inp_files/342044.got.cif
#   From: 2010.06.25/outbox.cif.g09.slc.cpg/sg12_172_cif.got.tgz:342044.got - 2010.06.28 00:19:55.
