data_PCOD8082535
_publ_section_title
;
Structure prediction by ZEFSAII (Michael W. Deem and Ramdas Pophale) SiO2 
 PCOD8082535
Probable space group: C 2/M
;
_chemical_formula_sum "Si O2"
_cell_formula_units_Z 64
_cell_length_a 21.834024
_cell_length_b 16.829066
_cell_length_c 9.596015
_cell_angle_alpha 90.000000
_cell_angle_beta 100.595278
_cell_angle_gamma 90.000000
_cell_volume 3465.902695
_symmetry_space_group_name_H-M "C 2/M"
_symmetry_group_IT_number 12
_symmetry_cell_setting 'monoclinic'
loop_
_space_group_symop_operation_xyz
x,y,z
-x,y,-z
-x,-y,-z
x,-y,z
1/2+x,1/2+y,z
1/2-x,1/2+y,-z
1/2-x,1/2-y,-z
1/2+x,1/2-y,z
loop_
_atom_site_type_symbol
_atom_site_label
_atom_site_fract_x
_atom_site_fract_y
_atom_site_fract_z
Si Si1 0.287056 0.349985 0.771884
Si Si2 0.736487 0.587646 0.514855
Si Si3 0.929123 0.748284 0.461685
Si Si4 0.190489 0.134435 0.914316
Si Si5 0.340830 0.192660 0.667477
Si Si6 0.167638 0.592098 0.078170
Si Si7 0.382801 0.588365 0.359992
Si Si8 0.657481 0.807820 0.815506
O O1 0.298965 0.409489 0.648629
O O2 0.312966 0.263857 0.745311
O O3 0.212668 0.351562 0.758303
O O4 0.319190 0.383027 0.925526
O O5 0.765060 0.500000 0.551599
O O6 0.788798 0.655273 0.544087
O O7 0.685084 0.607345 0.607600
O O8 0.896767 0.723058 0.592987
O O9 0.928723 0.844106 0.437719
O O10 0.898914 0.706443 0.314586
O O11 0.000000 0.719840 0.500000
O O12 0.257368 0.102412 0.890220
O O13 0.131666 0.093541 0.811650
O O14 0.187668 0.228390 0.890180
O O15 0.361167 0.126460 0.789383
O O16 0.149904 0.500000 0.061418
O O17 0.135130 0.637115 0.934561
O O18 0.408012 0.500000 0.409177
#
# Coordination Sequence:
#
# PCOD8082535 Si02
#       8
#     8   8   8   8   8   8   8   8
#     4  11  18  31  56  83 111 150 170 218 281 342
#     4  11  21  31  50  85 118 143 172 217 287 347
#     4  11  24  40  60  78 103 154 205 238 272 315
#     4  10  18  31  52  85 119 146 173 205 275 360
#     4  12  19  36  55  80 116 146 187 233 274 333
#     4  11  20  32  57  88 116 146 179 222 286 349
#     4  10  20  35  58  87 118 143 176 227 279 342
#     4  10  19  36  54  80 116 141 185 226 275 332
#
# _framework density 18.465608
#
# number of rings (size 3 to 8) (size 9 to 14) (size 15 to 20)
#    0.000    1.250    6.250    2.625    0.000    2.750 
#    0.000    0.625    0.000    4.125    0.000    0.875 
#    0.000    0.000    0.000    0.000    0.000    0.000 
#
# Total GULP energy -396672.260490 kJ/mol
# GULP energy per Si atom -12396.008140 kJ/mol
# Density = 1.842358 g / cm^3
# Si number density = 18.465608 Si / 1000 Ang^3
#
#
#
# Elastic Constant Matrix: (Units=GPa)
#
#
# Indices 1 2 3 4 5 6 
#
# 1 53.4040 21.9368 35.6645 0.0000 5.1552 0.0000
# 2 21.9368 74.2742 33.8836 0.0000 1.1967 0.0000
# 3 35.6645 33.8836 126.7464 0.0000 -3.3733 0.0000
# 4 0.0000 0.0000 0.0000 25.0912 0.0000 -0.8627
# 5 5.1552 1.1967 -3.3733 0.0000 13.2992 0.0000
# 6 0.0000 0.0000 0.0000 -0.8627 0.0000 10.1938
#
#
#
# Elastic Compliance Matrix: (Units=1/GPa)
#
#
# Indices 1 2 3 4 5 6 
#
# 1 0.025952 -0.004573 -0.006380 0.000000 -0.011266 0.000000
# 2 -0.004573 0.016218 -0.003061 0.000000 -0.000463 0.000000
# 3 -0.006380 -0.003061 0.010648 0.000000 0.005449 0.000000
# 4 0.000000 0.000000 0.000000 0.039971 0.000000 0.003383
# 5 -0.011266 -0.000463 0.005449 0.000000 0.080984 0.000000
# 6 0.000000 0.000000 0.000000 0.003383 0.000000 0.098385
#
#
# Mechanical properties :
#
#
# Convention : Reuss Voigt Hill
#
# Bulk Modulus (GPa) = 40.33810 48.59938 44.46874
# Shear Modulus (GPa) = 16.21013 20.57948 18.39481
#
# Velocity S-wave (km/s) = 2.96608 3.34200 3.15963
# Velocity P-wave (km/s) = 5.79850 6.42401 6.11925
#
# Compressibility (1/GPa) = 0.02479046
#
# Stress axis : x y z
#
# Youngs Moduli (GPa) = 38.53310 61.65906 93.91118
#
# Poissons Ratio (x) = 0.28196 0.59913
# Poissons Ratio (y) = 0.17621 0.28749
# Poissons Ratio (z) = 0.24583 0.18876
#
# Static dielectric constant tensor:
#      x y z
#    x 2.785840 0.000000 -0.022790 
#    y 0.000000 3.429260 0.000000 
#    z -0.022790 0.000000 3.731320 
# 
# 
# High freq. dielectric constant tensor:
#      x y z
#    x 1.643440 0.000000 -0.000270 
#    y 0.000000 1.719880 0.000000 
#    z -0.000270 0.000000 1.742420 
# 
# From -- ./inp_files/97755.got.cif
#   From: 2010.06.25/outbox.cif.g09.slc.cpg/sg12_49_cif.got.tgz:97755.got - 2010.06.28 00:19:55.
