data_PCOD8082393
_publ_section_title
;
Structure prediction by ZEFSAII (Michael W. Deem and Ramdas Pophale) SiO2 
 PCOD8082393
Probable space group: C 2/M
;
_chemical_formula_sum "Si O2"
_cell_formula_units_Z 64
_cell_length_a 15.296131
_cell_length_b 9.586506
_cell_length_c 27.978920
_cell_angle_alpha 90.000000
_cell_angle_beta 57.895900
_cell_angle_gamma 90.000000
_cell_volume 3475.356119
_symmetry_space_group_name_H-M "C 2/M"
_symmetry_group_IT_number 12
_symmetry_cell_setting 'monoclinic'
loop_
_space_group_symop_operation_xyz
x,y,z
-x,y,-z
-x,-y,-z
x,-y,z
1/2+x,1/2+y,z
1/2-x,1/2+y,-z
1/2-x,1/2-y,-z
1/2+x,1/2-y,z
loop_
_atom_site_type_symbol
_atom_site_label
_atom_site_fract_x
_atom_site_fract_y
_atom_site_fract_z
Si Si1 0.669037 0.840092 0.740473
Si Si2 0.440060 0.660740 0.387621
Si Si3 0.399611 0.333861 0.504515
Si Si4 0.531722 0.662365 0.206300
Si Si5 0.371166 0.338314 0.726069
Si Si6 0.208925 0.658171 0.621417
Si Si7 0.597492 0.163708 0.006737
Si Si8 0.165503 0.839977 0.075499
O O1 0.571539 0.743776 0.776401
O O2 0.756038 0.780470 0.751290
O O3 0.726165 0.832234 0.672688
O O4 0.637294 0.000000 0.760428
O O5 0.408311 0.500000 0.392201
O O6 0.401745 0.721450 0.449514
O O7 0.561614 0.682036 0.342056
O O8 0.388519 0.746530 0.360395
O O9 0.500000 0.269828 0.500000
O O10 0.404822 0.500000 0.503427
O O11 0.303142 0.279202 0.562967
O O12 0.503102 0.500000 0.220315
O O13 0.577315 0.729313 0.241904
O O14 0.615411 0.687732 0.141173
O O15 0.360019 0.500000 0.740929
O O16 0.187448 0.500000 0.611351
O O17 0.712364 0.195331 0.952106
O O18 0.583609 0.000000 0.021940
O O19 0.500000 0.209775 0.000000
O O20 0.601084 0.247674 0.055825
O O21 0.153422 0.000000 0.062427
#
# Coordination Sequence:
#
# PCOD8082393 Si02
#       8
#     8   8   8   8   8   8   8   8
#     4  10  20  34  53  75 100 135 178 220 263 310
#     4  10  18  31  52  72  93 129 170 205 256 323
#     4   9  17  29  47  71  96 123 163 212 257 311
#     4  10  20  36  54  75 107 141 175 216 259 304
#     4   9  18  33  53  74  98 134 177 215 256 313
#     4  10  19  31  48  72 100 126 161 216 268 307
#     4   9  18  34  57  84 111 141 177 214 252 297
#     4   9  19  34  53  79 111 144 174 211 260 305
#
# _framework density 18.415378
#
# number of rings (size 3 to 8) (size 9 to 14) (size 15 to 20)
#    0.000    2.500    1.250    1.125    0.000    4.750 
#    0.000    3.750    0.000    3.000    0.000    0.000 
#    0.000    0.000    0.000    0.000    0.000    0.000 
#
# Total GULP energy -396501.320125 kJ/mol
# GULP energy per Si atom -12390.666254 kJ/mol
# Density = 1.837346 g / cm^3
# Si number density = 18.415378 Si / 1000 Ang^3
#
#
#
# Elastic Constant Matrix: (Units=GPa)
#
#
# Indices 1 2 3 4 5 6 
#
# 1 131.2839 40.3905 31.9974 0.0000 -12.9021 0.0000
# 2 40.3905 43.5240 29.6727 0.0001 -4.1673 0.0000
# 3 31.9974 29.6727 89.6625 0.0000 -9.1661 0.0000
# 4 0.0000 0.0001 0.0000 99.6534 0.0000 -38.3998
# 5 -12.9021 -4.1673 -9.1661 0.0000 20.9399 0.0000
# 6 0.0000 0.0000 0.0000 -38.3998 0.0000 44.9288
#
#
#
# Elastic Compliance Matrix: (Units=1/GPa)
#
#
# Indices 1 2 3 4 5 6 
#
# 1 0.011138 -0.009686 -0.000277 0.000000 0.004814 0.000000
# 2 -0.009686 0.038150 -0.009424 0.000000 -0.002501 0.000000
# 3 -0.000277 -0.009424 0.014825 0.000000 0.004443 0.000000
# 4 0.000000 0.000000 0.000000 0.014962 0.000000 0.012788
# 5 0.004814 -0.002501 0.004443 0.000000 0.052169 0.000000
# 6 0.000000 0.000000 0.000000 0.012788 0.000000 0.033187
#
#
# Mechanical properties :
#
#
# Convention : Reuss Voigt Hill
#
# Bulk Modulus (GPa) = 39.46683 52.06573 45.76628
# Shear Modulus (GPa) = 23.62369 43.93175 33.77772
#
# Velocity S-wave (km/s) = 3.58554 4.88956 4.28742
# Velocity P-wave (km/s) = 6.21445 7.75960 7.02961
#
# Compressibility (1/GPa) = 0.02533774
#
# Stress axis : x y z
#
# Youngs Moduli (GPa) = 89.78568 26.21221 67.45403
#
# Poissons Ratio (x) = 0.25389 0.01869
# Poissons Ratio (y) = 0.86966 0.63571
# Poissons Ratio (z) = 0.02488 0.24703
#
# Static dielectric constant tensor:
#      x y z
#    x 3.586090 0.000000 0.000140 
#    y 0.000000 3.107970 0.000000 
#    z 0.000140 0.000000 3.426490 
# 
# 
# High freq. dielectric constant tensor:
#      x y z
#    x 1.719190 0.000000 -0.003550 
#    y 0.000000 1.679780 0.000000 
#    z -0.003550 0.000000 1.718630 
# 
# From -- ./inp_files/375018.got.cif
#   From: 2010.06.25/outbox.cif.g09.slc.cpg/sg12_188_cif.got.tgz:375018.got - 2010.06.28 00:19:55.
