data_PCOD8082583
_publ_section_title
;
Structure prediction by ZEFSAII (Michael W. Deem and Ramdas Pophale) SiO2 
 PCOD8082583
Probable space group: C 2/M
;
_chemical_formula_sum "Si O2"
_cell_formula_units_Z 40
_cell_length_a 9.025921
_cell_length_b 22.896112
_cell_length_c 13.048514
_cell_angle_alpha 90.000000
_cell_angle_beta 51.847100
_cell_angle_gamma 90.000000
_cell_volume 2120.501064
_symmetry_space_group_name_H-M "C 2/M"
_symmetry_group_IT_number 12
_symmetry_cell_setting 'monoclinic'
loop_
_space_group_symop_operation_xyz
x,y,z
-x,y,-z
-x,-y,-z
x,-y,z
1/2+x,1/2+y,z
1/2-x,1/2+y,-z
1/2-x,1/2-y,-z
1/2+x,1/2-y,z
loop_
_atom_site_type_symbol
_atom_site_label
_atom_site_fract_x
_atom_site_fract_y
_atom_site_fract_z
Si Si1 0.489572 0.934909 0.624180
Si Si2 0.943779 0.065309 0.138769
Si Si3 0.153260 0.751076 0.315723
Si Si4 0.704969 0.825794 0.559985
Si Si5 0.463564 0.327301 0.256216
O O1 0.500000 0.918530 0.500000
O O2 0.279247 0.930722 0.754904
O O3 0.611250 0.887243 0.633917
O O4 0.571563 0.000000 0.607719
O O5 0.038682 0.112613 0.174303
O O6 0.015076 0.000000 0.137029
O O7 0.000000 0.081472 0.000000
O O8 0.191684 0.798526 0.387083
O O9 0.322301 0.704399 0.236103
O O10 0.950575 0.719106 0.419805
O O11 0.139124 0.785471 0.212383
O O12 0.854180 0.840107 0.408302
#
# Coordination Sequence:
#
# PCOD8082583 Si02
#       5
#     8   8   8   8   8
#     4  10  18  31  53  78 100 130 174 221 256 299
#     4  10  21  36  54  75 102 138 176 214 259 307
#     4  10  20  29  51  80 113 137 168 205 262 306
#     4  11  17  30  50  81 107 137 167 212 254 308
#     4  11  18  32  51  77 106 141 169 210 252 311
#
# _framework density 18.863467
#
# number of rings (size 3 to 8) (size 9 to 14) (size 15 to 20)
#    0.000    1.600    4.000    4.800    0.000    0.000 
#    0.000    2.000    0.000    2.400    0.000    4.200 
#    0.000    0.000    0.000    0.000    0.000    0.000 
#
# Total GULP energy -247915.040052 kJ/mol
# GULP energy per Si atom -12395.752003 kJ/mol
# Density = 1.882053 g / cm^3
# Si number density = 18.863467 Si / 1000 Ang^3
#
#
#
# Elastic Constant Matrix: (Units=GPa)
#
#
# Indices 1 2 3 4 5 6 
#
# 1 86.5439 36.9061 16.3119 0.0000 13.2170 0.0000
# 2 36.9061 125.2134 38.0221 0.0000 19.5030 0.0000
# 3 16.3119 38.0221 79.7113 0.0000 5.9839 0.0000
# 4 0.0000 0.0000 0.0000 29.6550 0.0000 11.2997
# 5 13.2170 19.5030 5.9839 0.0000 14.8854 0.0000
# 6 0.0000 0.0000 0.0000 11.2997 0.0000 27.3195
#
#
#
# Elastic Compliance Matrix: (Units=1/GPa)
#
#
# Indices 1 2 3 4 5 6 
#
# 1 0.014168 -0.002466 -0.001053 0.000000 -0.008926 0.000000
# 2 -0.002466 0.011809 -0.004260 0.000000 -0.011570 0.000000
# 3 -0.001053 -0.004260 0.014748 0.000000 0.000587 0.000000
# 4 0.000000 0.000000 0.000000 0.040030 0.000000 -0.016557
# 5 -0.008926 -0.011570 0.000587 0.000000 0.090028 0.000000
# 6 0.000000 0.000000 0.000000 -0.016557 0.000000 0.043452
#
#
# Mechanical properties :
#
#
# Convention : Reuss Voigt Hill
#
# Bulk Modulus (GPa) = 39.73261 52.66098 46.19679
# Shear Modulus (GPa) = 20.99235 27.72056 24.35645
#
# Velocity S-wave (km/s) = 3.33957 3.83761 3.59722
# Velocity P-wave (km/s) = 5.99827 6.90028 6.46503
#
# Compressibility (1/GPa) = 0.02516824
#
# Stress axis : x y z
#
# Youngs Moduli (GPa) = 70.58140 84.68285 67.80353
#
# Poissons Ratio (x) = 0.20882 0.07140
# Poissons Ratio (y) = 0.17405 0.28881
# Poissons Ratio (z) = 0.07432 0.36071
#
# Static dielectric constant tensor:
#      x y z
#    x 0.752050 0.000000 1.790130 
#    y 0.000000 4.065480 0.000000 
#    z 1.790130 0.000000 1.992870 
# 
# 
# High freq. dielectric constant tensor:
#      x y z
#    x 1.707620 0.000000 0.001730 
#    y 0.000000 1.756440 0.000000 
#    z 0.001730 0.000000 1.693360 
# 
# From -- ./inp_files/39336.got.cif
#   From: 2010.06.25/outbox.cif.g09.slc.cpg/sg12_20_cif.got.tgz:39336.got - 2010.06.28 00:19:55.
