data_PCOD8082101
_publ_section_title
;
Structure prediction by ZEFSAII (Michael W. Deem and Ramdas Pophale) SiO2 
 PCOD8082101
Probable space group: C 2/M
;
_chemical_formula_sum "Si O2"
_cell_formula_units_Z 64
_cell_length_a 33.413002
_cell_length_b 13.050819
_cell_length_c 20.376621
_cell_angle_alpha 90.000000
_cell_angle_beta 154.888305
_cell_angle_gamma 90.000000
_cell_volume 3770.897209
_symmetry_space_group_name_H-M "C 2/M"
_symmetry_group_IT_number 12
_symmetry_cell_setting 'monoclinic'
loop_
_space_group_symop_operation_xyz
x,y,z
-x,y,-z
-x,-y,-z
x,-y,z
1/2+x,1/2+y,z
1/2-x,1/2+y,-z
1/2-x,1/2-y,-z
1/2+x,1/2-y,z
loop_
_atom_site_type_symbol
_atom_site_label
_atom_site_fract_x
_atom_site_fract_y
_atom_site_fract_z
Si Si1 0.512472 0.116020 0.723240
Si Si2 0.281993 0.112779 0.542637
Si Si3 0.020052 0.619872 0.104274
Si Si4 0.047337 0.378532 0.505165
Si Si5 0.111690 0.114429 0.387181
Si Si6 0.243794 0.121184 0.220459
Si Si7 0.814432 0.692237 0.455837
Si Si8 0.933774 0.241965 0.086485
O O1 0.511912 0.156462 0.646947
O O2 0.404876 0.117339 0.589549
O O3 0.576332 0.189250 0.862857
O O4 0.550716 0.000000 0.784746
O O5 0.370606 0.145193 0.719236
O O6 0.185394 0.112596 0.437912
O O7 0.269611 0.188284 0.462221
O O8 0.301657 0.000000 0.543343
O O9 0.996098 0.500000 0.078970
O O10 0.953166 0.685254 0.053036
O O11 0.000000 0.653659 0.000000
O O12 0.044815 0.500000 0.504640
O O13 0.156061 0.343766 0.661203
O O14 0.000000 0.330034 0.500000
O O15 0.150565 0.189742 0.502482
O O16 0.014712 0.157178 0.213881
O O17 0.097098 0.000000 0.394423
O O18 0.240058 0.156388 0.291063
O O19 0.226833 0.000000 0.189699
O O20 0.163683 0.181738 0.063448
#
# Coordination Sequence:
#
# PCOD8082101 Si02
#       8
#     8   8   8   8   8   8   8   8
#     4   9  16  30  52  76  97 124 164 203 239 282
#     4  10  18  31  49  66  86 123 173 217 252 283
#     4  10  21  33  47  69  97 131 173 220 257 280
#     4   8  15  31  56  80  99 121 155 199 239 281
#     4  10  21  32  46  67  93 127 167 206 245 297
#     4  10  21  34  50  74 102 127 157 197 245 296
#     4  10  18  31  52  68  88 125 167 210 248 281
#     4  11  21  32  48  68 105 136 161 195 251 301
#
# _framework density 16.972089
#
# number of rings (size 3 to 8) (size 9 to 14) (size 15 to 20)
#    0.000    2.250    2.500    3.000    1.750    0.000 
#    0.000    1.250    0.000    3.000    0.000    0.000 
#    0.000   56.000    0.000    0.000    0.000    0.000 
#
# Total GULP energy -396663.234028 kJ/mol
# GULP energy per Si atom -12395.726063 kJ/mol
# Density = 1.693346 g / cm^3
# Si number density = 16.972089 Si / 1000 Ang^3
#
#
#
# Elastic Constant Matrix: (Units=GPa)
#
#
# Indices 1 2 3 4 5 6 
#
# 1 87.4805 33.0876 51.0845 0.0000 -13.7914 0.0000
# 2 33.0876 101.5579 51.5858 0.0000 -9.2801 0.0000
# 3 51.0845 51.5858 112.1243 0.0000 -11.5140 0.0000
# 4 0.0000 0.0000 0.0000 26.5496 0.0000 -0.6558
# 5 -13.7914 -9.2801 -11.5140 0.0000 19.8464 0.0000
# 6 0.0000 0.0000 0.0000 -0.6558 0.0000 11.3872
#
#
#
# Elastic Compliance Matrix: (Units=1/GPa)
#
#
# Indices 1 2 3 4 5 6 
#
# 1 0.016804 -0.001694 -0.006123 0.000000 0.007332 0.000000
# 2 -0.001694 0.013162 -0.005075 0.000000 0.002033 0.000000
# 3 -0.006123 -0.005075 0.014209 0.000000 0.001615 0.000000
# 4 0.000000 0.000000 0.000000 0.037719 0.000000 0.002172
# 5 0.007332 0.002033 0.001615 0.000000 0.057370 0.000000
# 6 0.000000 0.000000 0.000000 0.002172 0.000000 0.087943
#
#
# Mechanical properties :
#
#
# Convention : Reuss Voigt Hill
#
# Bulk Modulus (GPa) = 54.37776 63.63095 59.00436
# Shear Modulus (GPa) = 19.29589 22.58361 20.93975
#
# Velocity S-wave (km/s) = 3.37548 3.65174 3.51633
# Velocity P-wave (km/s) = 6.87757 7.43997 7.16429
#
# Compressibility (1/GPa) = 0.01838987
#
# Stress axis : x y z
#
# Youngs Moduli (GPa) = 59.51082 75.97550 70.37658
#
# Poissons Ratio (x) = 0.12872 0.43094
# Poissons Ratio (y) = 0.10083 0.35715
# Poissons Ratio (z) = 0.36441 0.38557
#
# Static dielectric constant tensor:
#      x y z
#    x 3.212280 0.000000 -0.152240 
#    y 0.000000 3.390250 0.000000 
#    z -0.152240 0.000000 3.079410 
# 
# 
# High freq. dielectric constant tensor:
#      x y z
#    x 1.628650 0.000000 -0.010730 
#    y 0.000000 1.655460 0.000000 
#    z -0.010730 0.000000 1.642840 
# 
# From -- ./inp_files/296695.got.cif
#   From: 2010.06.25/outbox.cif.g09.slc.cpg/sg12_149_cif.got.tgz:296695.got - 2010.06.28 00:19:55.
