data_PCOD8082564
_publ_section_title
;
Structure prediction by ZEFSAII (Michael W. Deem and Ramdas Pophale) SiO2 
 PCOD8082564
Probable space group: C 2/M
;
_chemical_formula_sum "Si O2"
_cell_formula_units_Z 40
_cell_length_a 20.220847
_cell_length_b 9.040097
_cell_length_c 25.035004
_cell_angle_alpha 90.000000
_cell_angle_beta 151.276902
_cell_angle_gamma 90.000000
_cell_volume 2199.293253
_symmetry_space_group_name_H-M "C 2/M"
_symmetry_group_IT_number 12
_symmetry_cell_setting 'monoclinic'
loop_
_space_group_symop_operation_xyz
x,y,z
-x,y,-z
-x,-y,-z
x,-y,z
1/2+x,1/2+y,z
1/2-x,1/2+y,-z
1/2-x,1/2-y,-z
1/2+x,1/2-y,z
loop_
_atom_site_type_symbol
_atom_site_label
_atom_site_fract_x
_atom_site_fract_y
_atom_site_fract_z
Si Si1 0.923028 0.166547 0.202798
Si Si2 0.125579 0.333508 0.014588
Si Si3 0.681676 0.175563 0.777122
Si Si4 0.367832 0.825800 0.376782
Si Si5 0.428653 0.673959 0.796911
O O1 0.938198 0.268615 0.266729
O O2 0.011821 0.233904 0.217099
O O3 0.973734 0.000000 0.252015
O O4 0.760697 0.164391 0.071570
O O5 0.079814 0.500000 0.996781
O O6 0.000925 0.251712 0.897826
O O7 0.170968 0.247149 0.101086
O O8 0.644602 0.236055 0.692155
O O9 0.694584 0.000000 0.788289
O O10 0.500000 0.754251 0.500000
O O11 0.232430 0.786708 0.315071
O O12 0.387704 0.000000 0.386725
O O13 0.456775 0.500000 0.822308
#
# Coordination Sequence:
#
# PCOD8082564 Si02
#       5
#     8   8   8   8   8
#     4   8  17  31  48  74 104 132 156 194 246 293
#     4   9  18  31  49  75 107 131 155 196 247 296
#     4   9  17  31  52  73  99 131 161 199 244 292
#     4   9  19  35  53  73  96 126 168 213 247 278
#     4  10  18  31  53  76  98 129 168 201 237 289
#
# _framework density 18.187660999999999
#
# number of rings (size 3 to 8) (size 9 to 14) (size 15 to 20)
#    1.200    1.800    0.000    1.200    0.000    1.600 
#    0.000    7.000    0.000    5.400    0.000    0.000 
#    0.000    0.000    0.000    0.000    0.000    0.000 
#
# Total GULP energy -247789.261626 kJ/mol
# GULP energy per Si atom -12389.463081 kJ/mol
# Density = 1.814627 g / cm^3
# Si number density = 18.187661 Si / 1000 Ang^3
#
#
#
# Elastic Constant Matrix: (Units=GPa)
#
#
# Indices 1 2 3 4 5 6 
#
# 1 44.6149 12.4754 28.9179 0.0009 -1.1773 0.0001
# 2 12.4754 57.2919 22.9114 -0.0002 -2.7944 -0.0001
# 3 28.9179 22.9114 84.2458 -0.0013 4.0462 -0.0004
# 4 0.0009 -0.0002 -0.0013 12.4968 -0.0007 -1.5255
# 5 -1.1773 -2.7944 4.0462 -0.0007 20.1504 -0.0001
# 6 0.0001 -0.0001 -0.0004 -1.5255 -0.0001 20.1783
#
#
#
# Elastic Compliance Matrix: (Units=1/GPa)
#
#
# Indices 1 2 3 4 5 6 
#
# 1 0.029392 -0.002402 -0.009595 -0.000003 0.003311 -0.000001
# 2 -0.002402 0.020077 -0.004809 0.000000 0.003610 0.000000
# 3 -0.009595 -0.004809 0.016691 0.000002 -0.004579 0.000000
# 4 -0.000003 0.000000 0.000002 0.080766 0.000002 0.006106
# 5 0.003311 0.003610 -0.004579 0.000002 0.051240 0.000000
# 6 -0.000001 0.000000 0.000000 0.006106 0.000000 0.050020
#
#
# Mechanical properties :
#
#
# Convention : Reuss Voigt Hill
#
# Bulk Modulus (GPa) = 30.72295 34.97357 32.84826
# Shear Modulus (GPa) = 17.08544 18.68828 17.88686
#
# Velocity S-wave (km/s) = 3.06828 3.20898 3.13942
# Velocity P-wave (km/s) = 5.42967 5.74466 5.58939
#
# Compressibility (1/GPa) = 0.03254896
#
# Stress axis : x y z
#
# Youngs Moduli (GPa) = 34.02279 49.80912 59.91140
#
# Poissons Ratio (x) = 0.11962 0.57484
# Poissons Ratio (y) = 0.08171 0.28811
# Poissons Ratio (z) = 0.32644 0.23953
#
# Static dielectric constant tensor:
#      x y z
#    x 3.369150 0.000000 -0.048530 
#    y 0.000000 3.117640 0.000000 
#    z -0.048530 0.000000 3.236090 
# 
# 
# High freq. dielectric constant tensor:
#      x y z
#    x 1.704620 0.000000 -0.003790 
#    y 0.000000 1.685800 0.000000 
#    z -0.003790 0.000000 1.674590 
# 
# From -- ./inp_files/315834.got.cif
#   From: 2010.06.25/outbox.cif.g09.slc.cpg/sg12_158_cif.got.tgz:315834.got - 2010.06.28 00:19:55.
