data_PCOD8082407
_publ_section_title
;
Structure prediction by ZEFSAII (Michael W. Deem and Ramdas Pophale) SiO2 
 PCOD8082407
Probable space group: C 2/M
;
_chemical_formula_sum "Si O2"
_cell_formula_units_Z 56
_cell_length_a 19.091011
_cell_length_b 9.371148
_cell_length_c 27.031927
_cell_angle_alpha 90.000000
_cell_angle_beta 140.897568
_cell_angle_gamma 90.000000
_cell_volume 3050.194860
_symmetry_space_group_name_H-M "C 2/M"
_symmetry_group_IT_number 12
_symmetry_cell_setting 'monoclinic'
loop_
_space_group_symop_operation_xyz
x,y,z
-x,y,-z
-x,-y,-z
x,-y,z
1/2+x,1/2+y,z
1/2-x,1/2+y,-z
1/2-x,1/2-y,-z
1/2+x,1/2-y,z
loop_
_atom_site_type_symbol
_atom_site_label
_atom_site_fract_x
_atom_site_fract_y
_atom_site_fract_z
Si Si1 0.590923 0.160080 0.188340
Si Si2 0.292190 0.837336 0.476953
Si Si3 0.470276 0.837219 0.430924
Si Si4 0.845823 0.331406 0.080571
Si Si5 0.143894 0.338759 0.330930
Si Si6 0.786259 0.329507 0.255900
Si Si7 0.901185 0.669225 0.219155
O O1 0.462419 0.207760 0.118008
O O2 0.637576 0.164693 0.268949
O O3 0.662927 0.266485 0.194045
O O4 0.602290 0.000000 0.173257
O O5 0.250000 0.750000 0.500000
O O6 0.424898 0.828204 0.548059
O O7 0.242203 0.767403 0.400092
O O8 0.251978 0.000000 0.458885
O O9 0.500000 0.760904 0.500000
O O10 0.366122 0.770381 0.343909
O O11 0.438472 0.000000 0.425707
O O12 0.824875 0.500000 0.066546
O O13 0.846261 0.276922 0.137764
O O14 0.750000 0.250000 0.000000
O O15 0.168890 0.500000 0.363278
O O16 0.029360 0.280717 0.292364
O O17 0.780712 0.500000 0.253340
O O18 0.833614 0.273359 0.229345
O O19 0.902714 0.500000 0.218380
#
# Coordination Sequence:
#
# PCOD8082407 Si02
#       7
#     8   8   8   8   8   8   8
#     4   9  19  34  52  75 103 131 156 195 253 301
#     4  11  21  32  48  70  97 128 166 214 260 298
#     4   9  18  31  47  69  97 130 168 209 248 284
#     4   9  18  35  57  78 101 129 163 201 243 295
#     4   9  17  33  53  69  92 129 170 207 246 296
#     4  10  18  31  52  73  96 131 173 207 237 288
#     4   8  16  32  53  74  98 133 170 203 244 294
#
# _framework density 18.359483000000001
#
# number of rings (size 3 to 8) (size 9 to 14) (size 15 to 20)
#    0.000    2.714    0.000    3.857    0.000    4.571 
#    0.000    7.143    0.000    8.143    0.000    0.000 
#    0.000    0.000    0.000    0.000    0.000    0.000 
#
# Total GULP energy -347089.667394 kJ/mol
# GULP energy per Si atom -12396.059550 kJ/mol
# Density = 1.831770 g / cm^3
# Si number density = 18.359483 Si / 1000 Ang^3
#
#
#
# Elastic Constant Matrix: (Units=GPa)
#
#
# Indices 1 2 3 4 5 6 
#
# 1 102.7870 27.3167 30.7473 0.0000 7.2177 0.0000
# 2 27.3167 54.8301 31.3249 0.0000 7.9490 0.0000
# 3 30.7473 31.3249 98.7280 0.0000 10.1263 0.0000
# 4 0.0000 0.0000 0.0000 29.0900 0.0000 3.0365
# 5 7.2177 7.9490 10.1263 0.0000 22.3846 0.0000
# 6 0.0000 0.0000 0.0000 3.0365 0.0000 27.3397
#
#
#
# Elastic Compliance Matrix: (Units=1/GPa)
#
#
# Indices 1 2 3 4 5 6 
#
# 1 0.011613 -0.004413 -0.002090 0.000000 -0.001232 0.000000
# 2 -0.004413 0.024487 -0.005924 0.000000 -0.004593 0.000000
# 3 -0.002090 -0.005924 0.012977 0.000000 -0.003093 0.000000
# 4 0.000000 0.000000 0.000000 0.034779 0.000000 -0.003863
# 5 -0.001232 -0.004593 -0.003093 0.000000 0.048101 0.000000
# 6 0.000000 0.000000 0.000000 -0.003863 0.000000 0.037006
#
#
# Mechanical properties :
#
#
# Convention : Reuss Voigt Hill
#
# Bulk Modulus (GPa) = 41.28389 48.34699 44.81544
# Shear Modulus (GPa) = 24.76574 26.89327 25.82951
#
# Velocity S-wave (km/s) = 3.67677 3.83144 3.75490
# Velocity P-wave (km/s) = 6.36868 6.77967 6.57739
#
# Compressibility (1/GPa) = 0.02422252
#
# Stress axis : x y z
#
# Youngs Moduli (GPa) = 86.10689 40.83798 77.06180
#
# Poissons Ratio (x) = 0.18022 0.16108
# Poissons Ratio (y) = 0.38000 0.45651
# Poissons Ratio (z) = 0.17999 0.24192
#
# Static dielectric constant tensor:
#      x y z
#    x 3.561660 0.000000 -0.000840 
#    y 0.000000 3.180130 0.000000 
#    z -0.000840 0.000000 3.419990 
# 
# 
# High freq. dielectric constant tensor:
#      x y z
#    x 1.717860 0.000000 0.002330 
#    y 0.000000 1.677560 0.000000 
#    z 0.002330 0.000000 1.704070 
# 
# From -- ./inp_files/280367.got.cif
#   From: 2010.06.25/outbox.cif.g09.slc.cpg/sg12_141_cif.got.tgz:280367.got - 2010.06.28 00:19:55.
