data_PCOD8082813
_publ_section_title
;
Structure prediction by ZEFSAII (Michael W. Deem and Ramdas Pophale) SiO2 
 PCOD8082813
Probable space group: C 2/M
;
_chemical_formula_sum "Si O2"
_cell_formula_units_Z 56
_cell_length_a 21.758938
_cell_length_b 11.327525
_cell_length_c 12.045009
_cell_angle_alpha 90.000000
_cell_angle_beta 73.491005
_cell_angle_gamma 90.000000
_cell_volume 2846.404486
_symmetry_space_group_name_H-M "C 2/M"
_symmetry_group_IT_number 12
_symmetry_cell_setting 'monoclinic'
loop_
_space_group_symop_operation_xyz
x,y,z
-x,y,-z
-x,-y,-z
x,-y,z
1/2+x,1/2+y,z
1/2-x,1/2+y,-z
1/2-x,1/2-y,-z
1/2+x,1/2-y,z
loop_
_atom_site_type_symbol
_atom_site_label
_atom_site_fract_x
_atom_site_fract_y
_atom_site_fract_z
Si Si1 0.210056 0.631053 0.820053
Si Si2 0.143640 0.633355 0.067904
Si Si3 0.495933 0.864507 0.871110
Si Si4 0.688130 0.191618 0.277763
Si Si5 0.885146 0.710844 0.310745
Si Si6 0.223651 0.132195 0.578539
Si Si7 0.927752 0.635675 0.526375
O O1 0.226078 0.500000 0.847867
O O2 0.278769 0.681936 0.751084
O O3 0.162621 0.632908 0.739474
O O4 0.179058 0.696200 0.944790
O O5 0.129426 0.500000 0.036401
O O6 0.073413 0.687895 0.128430
O O7 0.185848 0.634467 0.157089
O O8 0.547895 0.776987 0.789031
O O9 0.507329 0.000000 0.823234
O O10 0.500000 0.858531 0.000000
O O11 0.732999 0.112950 0.334493
O O12 0.617420 0.207721 0.365891
O O13 0.850278 0.837340 0.350946
O O14 0.898955 0.644693 0.418555
O O15 0.250000 0.250000 0.500000
O O16 0.224649 0.000000 0.519017
O O17 0.927000 0.500000 0.565635
O O18 0.000000 0.686555 0.500000
#
# Coordination Sequence:
#
# PCOD8082813 Si02
#       7
#     8   8   8   8   8   8   8
#     4  10  21  35  56  85 117 158 196 242 298 352
#     4  10  19  34  56  84 119 151 194 250 298 345
#     4  10  18  31  56  88 118 152 197 249 298 343
#     4  11  22  36  56  87 118 150 192 243 297 362
#     4  11  21  36  57  87 118 152 195 247 296 359
#     4  11  24  41  63  90 121 161 203 248 301 361
#     4  11  22  36  56  84 116 153 196 247 305 353
#
# _framework density 19.673942
#
# number of rings (size 3 to 8) (size 9 to 14) (size 15 to 20)
#    0.000    1.429    2.857    3.857    0.000    5.143 
#    0.000    0.000    0.000    4.714    0.000    0.000 
#    0.000    0.000    0.000    0.000    0.000    0.000 
#
# Total GULP energy -346916.428795 kJ/mol
# GULP energy per Si atom -12389.872457 kJ/mol
# Density = 1.962916 g / cm^3
# Si number density = 19.673942 Si / 1000 Ang^3
#
#
#
# Elastic Constant Matrix: (Units=GPa)
#
#
# Indices 1 2 3 4 5 6 
#
# 1 129.0913 39.3957 62.1857 0.0000 -16.2615 0.0000
# 2 39.3957 82.7245 39.1590 0.0000 -18.6420 0.0000
# 3 62.1857 39.1590 124.8721 0.0000 -9.9598 0.0000
# 4 0.0000 0.0000 0.0000 24.2271 0.0000 -3.5993
# 5 -16.2615 -18.6420 -9.9598 0.0000 49.9890 0.0000
# 6 0.0000 0.0000 0.0000 -3.5993 0.0000 8.8134
#
#
#
# Elastic Compliance Matrix: (Units=1/GPa)
#
#
# Indices 1 2 3 4 5 6 
#
# 1 0.010934 -0.002724 -0.004459 0.000000 0.001653 0.000000
# 2 -0.002724 0.015934 -0.003289 0.000000 0.004401 0.000000
# 3 -0.004459 -0.003289 0.011225 0.000000 -0.000441 0.000000
# 4 0.000000 0.000000 0.000000 0.043942 0.000000 0.017946
# 5 0.001653 0.004401 -0.000441 0.000000 0.022095 0.000000
# 6 0.000000 0.000000 0.000000 0.017946 0.000000 0.120793
#
#
# Mechanical properties :
#
#
# Convention : Reuss Voigt Hill
#
# Bulk Modulus (GPa) = 58.31320 68.68540 63.49930
# Shear Modulus (GPa) = 19.87406 29.66908 24.77157
#
# Velocity S-wave (km/s) = 3.18177 3.88756 3.55224
# Velocity P-wave (km/s) = 6.57285 7.42553 7.01216
#
# Compressibility (1/GPa) = 0.01714878
#
# Stress axis : x y z
#
# Youngs Moduli (GPa) = 91.45882 62.75765 89.08571
#
# Poissons Ratio (x) = 0.17094 0.39724
# Poissons Ratio (y) = 0.24912 0.29304
# Poissons Ratio (z) = 0.40782 0.20644
#
# Static dielectric constant tensor:
#      x y z
#    x 3.912170 0.000000 -0.163810 
#    y 0.000000 3.218520 0.000000 
#    z -0.163810 0.000000 3.858140 
# 
# 
# High freq. dielectric constant tensor:
#      x y z
#    x 1.777600 0.000000 -0.001550 
#    y 0.000000 1.704620 0.000000 
#    z -0.001550 0.000000 1.786270 
# 
# From -- ./inp_files/165632.got.cif
#   From: 2010.06.25/outbox.cif.g09.slc.cpg/sg12_83_cif.got.tgz:165632.got - 2010.06.28 00:19:55.
