data_PCOD8082951
_publ_section_title
;
Structure prediction by ZEFSAII (Michael W. Deem and Ramdas Pophale) SiO2 
 PCOD8082951
Probable space group: C 2/M
;
_chemical_formula_sum "Si O2"
_cell_formula_units_Z 48
_cell_length_a 23.000234
_cell_length_b 8.737168
_cell_length_c 17.081814
_cell_angle_alpha 90.000000
_cell_angle_beta 48.208173
_cell_angle_gamma 90.000000
_cell_volume 2559.328174
_symmetry_space_group_name_H-M "C 2/M"
_symmetry_group_IT_number 12
_symmetry_cell_setting 'monoclinic'
loop_
_space_group_symop_operation_xyz
x,y,z
-x,y,-z
-x,-y,-z
x,-y,z
1/2+x,1/2+y,z
1/2-x,1/2+y,-z
1/2-x,1/2-y,-z
1/2+x,1/2-y,z
loop_
_atom_site_type_symbol
_atom_site_label
_atom_site_fract_x
_atom_site_fract_y
_atom_site_fract_z
Si Si1 0.626950 0.178690 0.613438
Si Si2 0.018147 0.177302 0.200463
Si Si3 0.454345 0.169593 0.113850
Si Si4 0.245960 0.822001 0.625372
Si Si5 0.181999 0.681976 0.009248
Si Si6 0.712709 0.831087 0.806009
O O1 0.540895 0.256053 0.680401
O O2 0.674338 0.215617 0.492236
O O3 0.674344 0.235993 0.647323
O O4 0.613496 0.000000 0.639182
O O5 0.967962 0.205620 0.167813
O O6 0.034319 0.000000 0.201316
O O7 0.100826 0.261710 0.118983
O O8 0.365840 0.154294 0.171294
O O9 0.487380 0.000000 0.108017
O O10 0.500000 0.237021 0.000000
O O11 0.263008 0.773111 0.700942
O O12 0.225713 0.000000 0.640540
O O13 0.182894 0.500000 0.010615
O O14 0.196802 0.740441 0.906478
O O15 0.250000 0.750000 0.000000
O O16 0.751021 0.000000 0.781019
#
# Coordination Sequence:
#
# PCOD8082951 Si02
#       6
#     8   8   8   8   8   8
#     4  10  20  34  51  76 115 155 184 220 272 326
#     4  12  23  34  54  83 112 146 185 228 272 324
#     4  10  18  32  51  76 110 148 180 215 272 335
#     4  10  20  32  51  81 114 148 187 225 266 323
#     4  11  24  43  61  81 108 144 186 230 280 331
#     4  10  20  34  56  80 112 150 180 218 276 334
#
# _framework density 18.754922000000001
#
# number of rings (size 3 to 8) (size 9 to 14) (size 15 to 20)
#    0.000    1.500    3.333    3.000    0.000    3.667 
#    0.000    0.000    0.000    1.000    0.000    7.000 
#    0.000    0.000    0.000    0.000    0.000    0.000 
#
# Total GULP energy -297378.614475 kJ/mol
# GULP energy per Si atom -12390.775603 kJ/mol
# Density = 1.871223 g / cm^3
# Si number density = 18.754922 Si / 1000 Ang^3
#
#
#
# Elastic Constant Matrix: (Units=GPa)
#
#
# Indices 1 2 3 4 5 6 
#
# 1 75.2248 35.0160 49.1401 0.0005 -8.6196 -0.0015
# 2 35.0160 91.5936 49.2493 0.0030 -3.5836 -0.0078
# 3 49.1401 49.2493 148.6775 -0.0001 -10.9104 -0.0006
# 4 0.0005 0.0030 -0.0001 31.4610 -0.0010 -1.7287
# 5 -8.6196 -3.5836 -10.9104 -0.0010 13.5948 0.0026
# 6 -0.0015 -0.0078 -0.0006 -1.7287 0.0026 25.8248
#
#
#
# Elastic Compliance Matrix: (Units=1/GPa)
#
#
# Indices 1 2 3 4 5 6 
#
# 1 0.019103 -0.004758 -0.004188 0.000000 0.007497 -0.000001
# 2 -0.004758 0.014469 -0.003360 -0.000001 -0.001899 0.000004
# 3 -0.004188 -0.003360 0.009524 0.000000 0.004103 -0.000001
# 4 0.000000 -0.000001 0.000000 0.031903 0.000002 0.002136
# 5 0.007497 -0.001899 0.004103 0.000002 0.081103 -0.000008
# 6 -0.000001 0.000004 -0.000001 0.002136 -0.000008 0.038865
#
#
# Mechanical properties :
#
#
# Convention : Reuss Voigt Hill
#
# Bulk Modulus (GPa) = 54.09671 64.70075 59.39873
# Shear Modulus (GPa) = 22.14949 26.31548 24.23249
#
# Velocity S-wave (km/s) = 3.44029 3.74989 3.59842
# Velocity P-wave (km/s) = 6.68487 7.30218 7.00033
#
# Compressibility (1/GPa) = 0.01848541
#
# Stress axis : x y z
#
# Youngs Moduli (GPa) = 52.34837 69.11379 104.99876
#
# Poissons Ratio (x) = 0.32885 0.43968
# Poissons Ratio (y) = 0.24908 0.35275
# Poissons Ratio (z) = 0.21921 0.23219
#
# Static dielectric constant tensor:
#      x y z
#    x 3.055600 0.000000 -0.038800 
#    y 0.000000 4.054810 0.000000 
#    z -0.038800 0.000000 4.018300 
# 
# 
# High freq. dielectric constant tensor:
#      x y z
#    x 1.675920 0.000000 -0.004830 
#    y 0.000000 1.729520 0.000000 
#    z -0.004830 0.000000 1.752550 
# 
# From -- ./inp_files/287265.got.cif
#   From: 2010.06.25/outbox.cif.g09.slc.cpg/sg12_144_cif.got.tgz:287265.got - 2010.06.28 00:19:55.
