data_PCOD8082812
_publ_section_title
;
Structure prediction by ZEFSAII (Michael W. Deem and Ramdas Pophale) SiO2 
 PCOD8082812
Probable space group: C 2/M
;
_chemical_formula_sum "Si O2"
_cell_formula_units_Z 56
_cell_length_a 17.333067
_cell_length_b 16.298814
_cell_length_c 14.886941
_cell_angle_alpha 90.000000
_cell_angle_beta 138.190878
_cell_angle_gamma 90.000000
_cell_volume 2803.725671
_symmetry_space_group_name_H-M "C 2/M"
_symmetry_group_IT_number 12
_symmetry_cell_setting 'monoclinic'
loop_
_space_group_symop_operation_xyz
x,y,z
-x,y,-z
-x,-y,-z
x,-y,z
1/2+x,1/2+y,z
1/2-x,1/2+y,-z
1/2-x,1/2-y,-z
1/2+x,1/2-y,z
loop_
_atom_site_type_symbol
_atom_site_label
_atom_site_fract_x
_atom_site_fract_y
_atom_site_fract_z
Si Si1 0.248264 0.094209 0.891092
Si Si2 0.680524 0.319592 0.992375
Si Si3 0.820542 0.404297 0.643461
Si Si4 0.977876 0.688980 0.085279
Si Si5 0.604717 0.904576 0.484132
Si Si6 0.654611 0.097667 0.723161
Si Si7 0.872433 0.903595 0.388139
O O1 0.195935 0.135666 0.755641
O O2 0.266412 0.000000 0.888531
O O3 0.163670 0.108458 0.903669
O O4 0.373235 0.130001 0.021758
O O5 0.749356 0.352903 0.138420
O O6 0.750000 0.250000 0.000000
O O7 0.557245 0.282385 0.917592
O O8 0.855528 0.500000 0.690209
O O9 0.815717 0.384040 0.533033
O O10 0.694937 0.385696 0.577321
O O11 0.910388 0.342535 0.766019
O O12 0.000000 0.684058 0.000000
O O13 0.472888 0.874342 0.353032
O O14 0.663593 0.871205 0.626795
O O15 0.592641 0.000000 0.491014
O O16 0.675886 0.000000 0.753260
O O17 0.000000 0.863122 0.500000
O O18 0.885102 0.000000 0.382366
#
# Coordination Sequence:
#
# PCOD8082812 Si02
#       7
#     8   8   8   8   8   8   8
#     4  10  19  34  58  83 106 143 193 233 276 328
#     4  10  21  33  51  75 113 150 184 228 280 334
#     4  10  18  31  56  88 115 141 182 235 288 335
#     4  11  21  34  54  80 120 150 184 232 285 328
#     4   8  15  27  51  84 112 140 181 237 289 329
#     4   9  16  31  53  78 110 149 192 233 276 335
#     4   9  18  32  53  81 111 139 173 227 286 338
#
# _framework density 19.973423
#
# number of rings (size 3 to 8) (size 9 to 14) (size 15 to 20)
#    0.000    2.429    1.429    3.429    0.000    1.714 
#    0.000    1.429   18.857    5.143    0.000    0.000 
#    0.000    0.000    0.000    0.000    0.000    1.143 
#
# Total GULP energy -346977.872579 kJ/mol
# GULP energy per Si atom -12392.066878 kJ/mol
# Density = 1.992796 g / cm^3
# Si number density = 19.973423 Si / 1000 Ang^3
#
#
#
# Elastic Constant Matrix: (Units=GPa)
#
#
# Indices 1 2 3 4 5 6 
#
# 1 137.8315 35.4273 69.9314 0.0000 -15.7575 0.0000
# 2 35.4273 30.9773 15.2280 0.0000 2.6565 0.0000
# 3 69.9314 15.2280 74.9232 0.0000 -7.4623 0.0000
# 4 0.0000 0.0000 0.0000 22.0668 0.0000 2.7357
# 5 -15.7575 2.6565 -7.4623 0.0000 35.7303 0.0000
# 6 0.0000 0.0000 0.0000 2.7357 0.0000 17.6122
#
#
#
# Elastic Compliance Matrix: (Units=1/GPa)
#
#
# Indices 1 2 3 4 5 6 
#
# 1 0.019138 -0.015559 -0.014037 0.000000 0.006665 0.000000
# 2 -0.015559 0.049166 0.003556 0.000000 -0.009774 0.000000
# 3 -0.014037 0.003556 0.025616 0.000000 -0.001105 0.000000
# 4 0.000000 0.000000 0.000000 0.046207 0.000000 -0.007177
# 5 0.006665 -0.009774 -0.001105 0.000000 0.031423 0.000000
# 6 0.000000 0.000000 0.000000 -0.007177 0.000000 0.057894
#
#
# Mechanical properties :
#
#
# Convention : Reuss Voigt Hill
#
# Bulk Modulus (GPa) = 23.90053 53.87839 38.88946
# Shear Modulus (GPa) = 16.92214 23.29153 20.10684
#
# Velocity S-wave (km/s) = 2.91388 3.41856 3.17626
# Velocity P-wave (km/s) = 4.82836 6.52807 5.74146
#
# Compressibility (1/GPa) = 0.04184008
#
# Stress axis : x y z
#
# Youngs Moduli (GPa) = 52.25095 20.33932 39.03789
#
# Poissons Ratio (x) = 0.31646 0.54798
# Poissons Ratio (y) = 0.81296 -0.13881
# Poissons Ratio (z) = 0.73345 -0.07232
#
# Static dielectric constant tensor:
#      x y z
#    x 4.208790 0.000000 -0.417740 
#    y 0.000000 3.757360 0.000000 
#    z -0.417740 0.000000 3.846060 
# 
# 
# High freq. dielectric constant tensor:
#      x y z
#    x 1.783860 0.000000 -0.023420 
#    y 0.000000 1.749850 0.000000 
#    z -0.023420 0.000000 1.767320 
# 
# From -- ./inp_files/226595.got.cif
#   From: 2010.06.25/outbox.cif.g09.slc.cpg/sg12_114_cif.got.tgz:226595.got - 2010.06.28 00:19:55.
