data_PCOD8082133
_publ_section_title
;
Structure prediction by ZEFSAII (Michael W. Deem and Ramdas Pophale) SiO2 
 PCOD8082133
Probable space group: C 2/M
;
_chemical_formula_sum "Si O2"
_cell_formula_units_Z 56
_cell_length_a 28.359342
_cell_length_b 9.231933
_cell_length_c 19.085865
_cell_angle_alpha 90.000000
_cell_angle_beta 42.225333
_cell_angle_gamma 90.000000
_cell_volume 3358.156853
_symmetry_space_group_name_H-M "C 2/M"
_symmetry_group_IT_number 12
_symmetry_cell_setting 'monoclinic'
loop_
_space_group_symop_operation_xyz
x,y,z
-x,y,-z
-x,-y,-z
x,-y,z
1/2+x,1/2+y,z
1/2-x,1/2+y,-z
1/2-x,1/2-y,-z
1/2+x,1/2-y,z
loop_
_atom_site_type_symbol
_atom_site_label
_atom_site_fract_x
_atom_site_fract_y
_atom_site_fract_z
Si Si1 0.197020 0.829861 0.007353
Si Si2 0.109444 0.670723 0.380463
Si Si3 0.387110 0.166773 0.120719
Si Si4 0.963296 0.171082 0.792906
Si Si5 0.005768 0.332477 0.880153
Si Si6 0.999157 0.328799 0.614554
Si Si7 0.265160 0.328686 0.190867
O O1 0.212300 0.779552 0.911479
O O2 0.209055 0.000000 0.002690
O O3 0.250000 0.750000 0.000000
O O4 0.118180 0.783655 0.113533
O O5 0.112301 0.500000 0.369622
O O6 0.065380 0.727339 0.362247
O O7 0.187781 0.734954 0.292102
O O8 0.071402 0.711411 0.495033
O O9 0.421497 0.194809 0.158759
O O10 0.317419 0.262006 0.190579
O O11 0.366399 0.000000 0.134979
O O12 0.441594 0.212369 0.000586
O O13 0.005314 0.230872 0.813248
O O14 0.998891 0.241194 0.686339
O O15 0.972507 0.000000 0.780269
O O16 0.999384 0.500000 0.864754
O O17 0.994172 0.500000 0.635062
O O18 0.267745 0.500000 0.196221
#
# Coordination Sequence:
#
# PCOD8082133 Si02
#       7
#     8   8   8   8   8   8   8
#     4  10  21  32  44  68 101 132 160 191 235 289
#     4   8  16  31  53  75  94 125 174 209 233 283
#     4   9  18  32  50  73  97 125 165 203 238 289
#     4  11  21  32  47  74 104 128 159 201 247 293
#     4   9  18  33  51  70  96 130 166 200 235 289
#     4   9  17  33  54  72  93 131 173 206 237 280
#     4  10  18  31  49  72 101 129 157 199 248 291
#
# _framework density 16.675813999999999
#
# number of rings (size 3 to 8) (size 9 to 14) (size 15 to 20)
#    0.000    2.571    1.429    3.000    0.000    3.429 
#    0.000    4.286    0.000    0.857    0.000    0.000 
#    0.000    0.000    0.000    0.000    0.000    0.000 
#
# Total GULP energy -347195.228017 kJ/mol
# GULP energy per Si atom -12399.829572 kJ/mol
# Density = 1.663786 g / cm^3
# Si number density = 16.675814 Si / 1000 Ang^3
#
#
#
# Elastic Constant Matrix: (Units=GPa)
#
#
# Indices 1 2 3 4 5 6 
#
# 1 108.4436 44.2913 51.5115 0.0066 4.9592 0.0048
# 2 44.2913 47.9885 37.0240 0.0020 6.8779 -0.0090
# 3 51.5115 37.0240 97.0743 -0.0092 7.0148 0.0116
# 4 0.0066 0.0020 -0.0092 19.3836 0.0017 -0.6099
# 5 4.9592 6.8779 7.0148 0.0017 27.2977 -0.0062
# 6 0.0048 -0.0090 0.0116 -0.6099 -0.0062 31.3156
#
#
#
# Elastic Compliance Matrix: (Units=1/GPa)
#
#
# Indices 1 2 3 4 5 6 
#
# 1 0.015861 -0.011678 -0.004042 -0.000006 0.001100 -0.000004
# 2 -0.011678 0.038711 -0.008168 -0.000003 -0.005533 0.000015
# 3 -0.004042 -0.008168 0.015650 0.000010 -0.001229 -0.000008
# 4 -0.000006 -0.000003 0.000010 0.051622 -0.000004 0.001005
# 5 0.001100 -0.005533 -0.001229 -0.000004 0.038143 0.000006
# 6 -0.000004 0.000015 -0.000008 0.001005 0.000006 0.031953
#
#
# Mechanical properties :
#
#
# Convention : Reuss Voigt Hill
#
# Bulk Modulus (GPa) = 44.54956 57.68445 51.11700
# Shear Modulus (GPa) = 20.22681 23.64467 21.93574
#
# Velocity S-wave (km/s) = 3.48651 3.76959 3.63081
# Velocity P-wave (km/s) = 6.55597 7.32210 6.94960
#
# Compressibility (1/GPa) = 0.02244691
#
# Stress axis : x y z
#
# Youngs Moduli (GPa) = 63.04963 25.83239 63.89721
#
# Poissons Ratio (x) = 0.30167 0.25826
# Poissons Ratio (y) = 0.73629 0.52190
# Poissons Ratio (z) = 0.25483 0.21099
#
# Static dielectric constant tensor:
#      x y z
#    x 3.172710 -0.000010 -0.124270 
#    y -0.000010 2.914090 0.000020 
#    z -0.124270 0.000020 3.198060 
# 
# 
# High freq. dielectric constant tensor:
#      x y z
#    x 1.643180 0.000000 0.000160 
#    y 0.000000 1.626870 0.000000 
#    z 0.000160 0.000000 1.630280 
# 
# From -- ./inp_files/288167.got.cif
#   From: 2010.06.25/outbox.cif.g09.slc.cpg/sg12_145_cif.got.tgz:288167.got - 2010.06.28 00:19:55.
