data_PCOD8082942
_publ_section_title
;
Structure prediction by ZEFSAII (Michael W. Deem and Ramdas Pophale) SiO2 
 PCOD8082942
Probable space group: C 2/M
;
_chemical_formula_sum "Si O2"
_cell_formula_units_Z 64
_cell_length_a 19.647394
_cell_length_b 25.227585
_cell_length_c 11.354023
_cell_angle_alpha 90.000000
_cell_angle_beta 42.994061
_cell_angle_gamma 90.000000
_cell_volume 3837.650787
_symmetry_space_group_name_H-M "C 2/M"
_symmetry_group_IT_number 12
_symmetry_cell_setting 'monoclinic'
loop_
_space_group_symop_operation_xyz
x,y,z
-x,y,-z
-x,-y,-z
x,-y,z
1/2+x,1/2+y,z
1/2-x,1/2+y,-z
1/2-x,1/2-y,-z
1/2+x,1/2-y,z
loop_
_atom_site_type_symbol
_atom_site_label
_atom_site_fract_x
_atom_site_fract_y
_atom_site_fract_z
Si Si1 0.080329 0.439891 0.637650
Si Si2 0.398731 0.147296 0.556471
Si Si3 0.883251 0.240985 0.918365
Si Si4 0.894077 0.256930 0.395204
Si Si5 0.848230 0.440252 0.967836
Si Si6 0.718120 0.163543 0.072001
Si Si7 0.303113 0.220445 0.260952
Si Si8 0.384700 0.106660 0.160702
O O1 0.112848 0.500000 0.584704
O O2 0.122111 0.410773 0.469565
O O3 0.132232 0.417969 0.689890
O O4 0.961551 0.432076 0.783924
O O5 0.500000 0.150849 0.500000
O O6 0.405761 0.184644 0.433520
O O7 0.306994 0.159825 0.758047
O O8 0.862106 0.298512 0.888885
O O9 0.999267 0.227850 0.749323
O O10 0.825302 0.192719 0.927049
O O11 0.850988 0.244798 0.095671
O O12 0.817252 0.226235 0.578434
O O13 0.853124 0.258728 0.315754
O O14 0.810574 0.500000 0.983438
O O15 0.847102 0.435168 0.110883
O O16 0.781305 0.394900 0.988867
O O17 0.320528 0.158758 0.220002
O O18 0.500000 0.122120 0.000000
#
# Coordination Sequence:
#
# PCOD8082942 Si02
#       8
#     8   8   8   8   8   8   8   8
#     4  10  20  31  48  72 100 138 173 208 257 311
#     4  12  20  33  48  69 108 141 167 207 251 304
#     4  11  21  36  53  75 108 138 174 210 254 313
#     4  11  22  35  51  79 104 137 171 215 254 308
#     4  10  19  32  50  74 102 134 176 215 254 307
#     4  11  22  33  50  74 104 142 173 204 253 311
#     4  11  21  33  56  77 102 136 175 210 262 306
#     4  10  18  32  51  73 103 135 169 216 259 303
#
# _framework density 16.676869
#
# number of rings (size 3 to 8) (size 9 to 14) (size 15 to 20)
#    0.000    1.250    6.250    1.500    0.000    2.250 
#    0.000    0.000    0.000    0.000    0.000    2.625 
#    0.000    2.000    0.000    0.000    0.000    0.000 
#
# Total GULP energy -396726.262778 kJ/mol
# GULP energy per Si atom -12397.695712 kJ/mol
# Density = 1.663891 g / cm^3
# Si number density = 16.676869 Si / 1000 Ang^3
#
#
#
# Elastic Constant Matrix: (Units=GPa)
#
#
# Indices 1 2 3 4 5 6 
#
# 1 61.2330 45.9112 33.2007 0.0000 -12.7444 0.0000
# 2 45.9112 102.6885 34.2415 0.0000 9.9930 0.0000
# 3 33.2007 34.2415 79.4508 0.0000 -14.8088 0.0000
# 4 0.0000 0.0000 0.0000 18.0437 0.0000 4.0734
# 5 -12.7444 9.9930 -14.8088 0.0000 1.3443 0.0000
# 6 0.0000 0.0000 0.0000 4.0734 0.0000 25.6256
#
#
#
# Elastic Compliance Matrix: (Units=1/GPa)
#
#
# Indices 1 2 3 4 5 6 
#
# 1 0.014151 0.002256 -0.014235 0.000000 -0.039427 0.000000
# 2 0.002256 0.003966 0.003949 0.000000 0.035417 0.000000
# 3 -0.014235 0.003949 0.013095 0.000000 -0.020053 0.000000
# 4 0.000000 0.000000 0.000000 0.057484 0.000000 -0.009138
# 5 -0.039427 0.035417 -0.020053 0.000000 -0.114090 0.000000
# 6 0.000000 0.000000 0.000000 -0.009138 0.000000 0.040476
#
#
# Mechanical properties :
#
#
# Convention : Reuss Voigt Hill
#
# Bulk Modulus (GPa) = 65.98921 52.23101 59.11011
# Shear Modulus (GPa) = 138.15165 17.67065 77.91115
#
# Velocity S-wave (km/s) = 9.11154 3.25867 6.84248
# Velocity P-wave (km/s) = 12.26168 6.74878 9.89683
#
# Compressibility (1/GPa) = 0.01515399
#
# Stress axis : x y z
#
# Youngs Moduli (GPa) = 70.66433 252.15037 76.36455
#
# Poissons Ratio (x) = -0.56898 1.08704
# Poissons Ratio (y) = -0.15945 -0.30158
# Poissons Ratio (z) = 1.00590 -0.99580
#
# Static dielectric constant tensor:
#      x y z
#    x 3.138440 0.000000 0.204890 
#    y 0.000000 3.086080 0.000000 
#    z 0.204890 0.000000 3.201680 
# 
# 
# High freq. dielectric constant tensor:
#      x y z
#    x 1.637390 0.000000 0.029890 
#    y 0.000000 1.632520 0.000000 
#    z 0.029890 0.000000 1.629160 
# 
# From -- ./inp_files/170163.got.cif
#   From: 2010.06.25/outbox.cif.g09.slc.cpg/sg12_86_cif.got.tgz:170163.got - 2010.06.28 00:19:55.
