data_PCOD8082683
_publ_section_title
;
Structure prediction by ZEFSAII (Michael W. Deem and Ramdas Pophale) SiO2 
 PCOD8082683
Probable space group: C 2/M
;
_chemical_formula_sum "Si O2"
_cell_formula_units_Z 64
_cell_length_a 25.477035
_cell_length_b 9.029659
_cell_length_c 14.862493
_cell_angle_alpha 90.000000
_cell_angle_beta 98.360008
_cell_angle_gamma 90.000000
_cell_volume 3382.769566
_symmetry_space_group_name_H-M "C 2/M"
_symmetry_group_IT_number 12
_symmetry_cell_setting 'monoclinic'
loop_
_space_group_symop_operation_xyz
x,y,z
-x,y,-z
-x,-y,-z
x,-y,z
1/2+x,1/2+y,z
1/2-x,1/2+y,-z
1/2-x,1/2-y,-z
1/2+x,1/2-y,z
loop_
_atom_site_type_symbol
_atom_site_label
_atom_site_fract_x
_atom_site_fract_y
_atom_site_fract_z
Si Si1 0.600671 0.672772 0.123962
Si Si2 0.586009 0.828568 0.935698
Si Si3 0.324103 0.829684 0.172792
Si Si4 0.286809 0.673619 0.784498
Si Si5 0.521914 0.332850 0.595449
Si Si6 0.501313 0.673699 0.787113
Si Si7 0.356642 0.333388 0.350014
Si Si8 0.235270 0.325612 0.588315
O O1 0.605910 0.500000 0.102468
O O2 0.657443 0.742770 0.168491
O O3 0.558005 0.701007 0.191596
O O4 0.580108 0.753095 0.030195
O O5 0.647006 0.807910 0.915952
O O6 0.544127 0.757845 0.857560
O O7 0.571726 0.000000 0.941977
O O8 0.261285 0.786671 0.157761
O O9 0.355746 0.723415 0.247723
O O10 0.329329 0.000000 0.207199
O O11 0.295327 0.500000 0.781046
O O12 0.272130 0.731004 0.680540
O O13 0.500000 0.250255 0.500000
O O14 0.499414 0.500000 0.590705
O O15 0.503556 0.260617 0.685775
O O16 0.584406 0.330231 0.599708
O O17 0.516451 0.500000 0.791810
O O18 0.333304 0.500000 0.348446
O O19 0.324398 0.222339 0.405205
O O20 0.239030 0.500000 0.577531
O O21 0.250000 0.250000 0.500000
#
# Coordination Sequence:
#
# PCOD8082683 Si02
#       8
#     8   8   8   8   8   8   8   8
#     4  10  21  36  56  79 107 144 183 227 275 326
#     4  11  22  35  55  80 108 145 184 225 277 330
#     4   9  18  34  55  76 105 143 179 220 272 328
#     4   8  17  35  55  77 106 140 178 223 275 325
#     4   9  18  32  53  82 110 137 178 231 277 324
#     4  10  20  36  56  79 107 141 183 227 270 324
#     4  10  18  31  54  80 106 139 179 225 275 320
#     4  10  20  35  56  81 110 144 184 225 270 329
#
# _framework density 18.919408000000001
#
# number of rings (size 3 to 8) (size 9 to 14) (size 15 to 20)
#    0.000    2.375    1.250    2.250    0.000    4.000 
#    0.000    6.875    0.000    4.875    0.000    0.000 
#    0.000    0.000    0.000    0.000    0.000    0.000 
#
# Total GULP energy -396643.269253 kJ/mol
# GULP energy per Si atom -12395.102164 kJ/mol
# Density = 1.887635 g / cm^3
# Si number density = 18.919408 Si / 1000 Ang^3
#
#
#
# Elastic Constant Matrix: (Units=GPa)
#
#
# Indices 1 2 3 4 5 6 
#
# 1 105.9399 32.4303 59.8185 0.0000 4.9496 0.0000
# 2 32.4303 57.9246 38.4163 0.0000 -0.5366 0.0000
# 3 59.8185 38.4163 135.2835 0.0000 -2.0127 0.0000
# 4 0.0000 0.0000 0.0000 19.0648 0.0000 -4.2676
# 5 4.9496 -0.5366 -2.0127 0.0000 28.2402 0.0000
# 6 0.0000 0.0000 0.0000 -4.2676 0.0000 24.6151
#
#
#
# Elastic Compliance Matrix: (Units=1/GPa)
#
#
# Indices 1 2 3 4 5 6 
#
# 1 0.013659 -0.004485 -0.004808 0.000000 -0.002822 0.000000
# 2 -0.004485 0.022742 -0.004462 0.000000 0.000900 0.000000
# 3 -0.004808 -0.004462 0.010808 0.000000 0.001528 0.000000
# 4 0.000000 0.000000 0.000000 0.054571 0.000000 0.009461
# 5 -0.002822 0.000900 0.001528 0.000000 0.036031 0.000000
# 6 0.000000 0.000000 0.000000 0.009461 0.000000 0.042266
#
#
# Mechanical properties :
#
#
# Convention : Reuss Voigt Hill
#
# Bulk Modulus (GPa) = 50.76193 62.27535 56.51864
# Shear Modulus (GPa) = 23.34801 25.61621 24.48211
#
# Velocity S-wave (km/s) = 3.51675 3.68362 3.60115
# Velocity P-wave (km/s) = 6.58627 7.14700 6.87236
#
# Compressibility (1/GPa) = 0.01969980
#
# Stress axis : x y z
#
# Youngs Moduli (GPa) = 73.21283 43.97150 92.52771
#
# Poissons Ratio (x) = 0.19719 0.44488
# Poissons Ratio (y) = 0.32833 0.41283
# Poissons Ratio (z) = 0.35201 0.19619
#
# Static dielectric constant tensor:
#      x y z
#    x 3.717760 0.000000 -0.087010 
#    y 0.000000 3.335600 0.000000 
#    z -0.087010 0.000000 3.582760 
# 
# 
# High freq. dielectric constant tensor:
#      x y z
#    x 1.743200 0.000000 -0.009850 
#    y 0.000000 1.710430 0.000000 
#    z -0.009850 0.000000 1.732100 
# 
# From -- ./inp_files/243951.got.cif
#   From: 2010.06.25/outbox.cif.g09.slc.cpg/sg12_122_cif.got.tgz:243951.got - 2010.06.28 00:19:55.
