data_PCOD8082905
_publ_section_title
;
Structure prediction by ZEFSAII (Michael W. Deem and Ramdas Pophale) SiO2 
 PCOD8082905
Probable space group: C 2/M
;
_chemical_formula_sum "Si O2"
_cell_formula_units_Z 36
_cell_length_a 27.254463
_cell_length_b 13.867297
_cell_length_c 5.126001
_cell_angle_alpha 90.000000
_cell_angle_beta 102.946247
_cell_angle_gamma 90.000000
_cell_volume 1888.104076
_symmetry_space_group_name_H-M "C 2/M"
_symmetry_group_IT_number 12
_symmetry_cell_setting 'monoclinic'
loop_
_space_group_symop_operation_xyz
x,y,z
-x,y,-z
-x,-y,-z
x,-y,z
1/2+x,1/2+y,z
1/2-x,1/2+y,-z
1/2-x,1/2-y,-z
1/2+x,1/2-y,z
loop_
_atom_site_type_symbol
_atom_site_label
_atom_site_fract_x
_atom_site_fract_y
_atom_site_fract_z
Si Si1 0.268351 0.000000 0.797928
Si Si2 0.775461 0.795122 0.280626
Si Si3 0.465427 0.000000 0.202284
Si Si4 0.116429 0.708432 0.572397
Si Si5 0.836790 0.500000 0.378715
Si Si6 0.557222 0.202435 0.980214
O O1 0.231922 0.090759 0.723561
O O2 0.312158 0.000000 0.634861
O O3 0.293137 0.000000 0.112126
O O4 0.750000 0.750000 0.500000
O O5 0.834071 0.772241 0.350282
O O6 0.750000 0.750000 0.000000
O O7 0.500000 0.000000 0.500000
O O8 0.500000 0.000000 0.000000
O O9 0.433070 0.095547 0.125983
O O10 0.128150 0.593959 0.613234
O O11 0.092301 0.726228 0.263034
O O12 0.078634 0.755397 0.746771
O O13 0.500000 0.225299 0.000000
#
# Coordination Sequence:
#
# PCOD8082905 Si02
#       6
#     4   8   4   8   4   8
#     4  12  22  41  60  86 122 162 188 247 302 352
#     4  12  23  41  61  89 121 154 202 248 298 361
#     4  10  18  32  50  72 110 154 190 231 276 339
#     4  12  22  36  57  86 115 158 202 241 290 357
#     4  12  22  35  59  86 118 162 203 228 298 357
#     4  11  22  36  53  79 117 157 201 242 292 343
#
# _framework density 19.066746999999999
#
# number of rings (size 3 to 8) (size 9 to 14) (size 15 to 20)
#    0.000    0.444    4.444    7.333    0.000    0.000 
#    0.000    0.000    0.000    0.000    0.000    4.667 
#    0.000    0.000    0.000    0.000    0.000    0.000 
#
# Total GULP energy -223036.294474 kJ/mol
# GULP energy per Si atom -12390.905249 kJ/mol
# Density = 1.902335 g / cm^3
# Si number density = 19.066747 Si / 1000 Ang^3
#
#
#
# Elastic Constant Matrix: (Units=GPa)
#
#
# Indices 1 2 3 4 5 6 
#
# 1 120.3079 21.0198 37.5249 0.0000 -18.8847 0.0000
# 2 21.0198 76.2584 18.5225 0.0000 -3.2882 0.0000
# 3 37.5249 18.5225 156.4959 0.0000 -8.3342 0.0000
# 4 0.0000 0.0000 0.0000 12.0123 0.0000 9.6723
# 5 -18.8847 -3.2882 -8.3342 0.0000 40.4102 0.0000
# 6 0.0000 0.0000 0.0000 9.6723 0.0000 27.5757
#
#
#
# Elastic Compliance Matrix: (Units=1/GPa)
#
#
# Indices 1 2 3 4 5 6 
#
# 1 0.009913 -0.002092 -0.001913 0.000000 0.004068 0.000000
# 2 -0.002092 0.013967 -0.001156 0.000000 -0.000080 0.000000
# 3 -0.001913 -0.001156 0.007010 0.000000 0.000458 0.000000
# 4 0.000000 0.000000 0.000000 0.116014 0.000000 -0.040692
# 5 0.004068 -0.000080 0.000458 0.000000 0.026735 0.000000
# 6 0.000000 0.000000 0.000000 -0.040692 0.000000 0.050537
#
#
# Mechanical properties :
#
#
# Convention : Reuss Voigt Hill
#
# Bulk Modulus (GPa) = 48.61821 56.35515 52.48668
# Shear Modulus (GPa) = 20.71659 34.39931 27.55795
#
# Velocity S-wave (km/s) = 3.29983 4.25214 3.80589
# Velocity P-wave (km/s) = 6.33031 7.32997 6.84841
#
# Compressibility (1/GPa) = 0.02056842
#
# Stress axis : x y z
#
# Youngs Moduli (GPa) = 100.88134 71.59571 142.65917
#
# Poissons Ratio (x) = 0.14980 0.27285
# Poissons Ratio (y) = 0.21108 0.16487
# Poissons Ratio (z) = 0.19295 0.08274
#
# Static dielectric constant tensor:
#      x y z
#    x 3.700230 0.000000 -0.155090 
#    y 0.000000 3.344730 0.000000 
#    z -0.155090 0.000000 3.743130 
# 
# 
# High freq. dielectric constant tensor:
#      x y z
#    x 1.762510 0.000000 -0.017540 
#    y 0.000000 1.687800 0.000000 
#    z -0.017540 0.000000 1.770690 
# 
# From -- ./inp_files/27788.got.cif
#   From: 2010.06.25/outbox.cif.g09.slc.cpg/sg12_14_cif.got.tgz:27788.got - 2010.06.28 00:19:55.
