data_PCOD8082936
_publ_section_title
;
Structure prediction by ZEFSAII (Michael W. Deem and Ramdas Pophale) SiO2 
 PCOD8082936
Probable space group: C 2/M
;
_chemical_formula_sum "Si O2"
_cell_formula_units_Z 64
_cell_length_a 32.785803
_cell_length_b 9.071586
_cell_length_c 14.244248
_cell_angle_alpha 90.000000
_cell_angle_beta 65.298741
_cell_angle_gamma 90.000000
_cell_volume 3848.868070
_symmetry_space_group_name_H-M "C 2/M"
_symmetry_group_IT_number 12
_symmetry_cell_setting 'monoclinic'
loop_
_space_group_symop_operation_xyz
x,y,z
-x,y,-z
-x,-y,-z
x,-y,z
1/2+x,1/2+y,z
1/2-x,1/2+y,-z
1/2-x,1/2-y,-z
1/2+x,1/2-y,z
loop_
_atom_site_type_symbol
_atom_site_label
_atom_site_fract_x
_atom_site_fract_y
_atom_site_fract_z
Si Si1 0.576743 0.664657 0.681469
Si Si2 0.294944 0.328940 0.341633
Si Si3 0.452298 0.327725 0.005184
Si Si4 0.973939 0.163986 0.777984
Si Si5 0.041135 0.326269 0.396441
Si Si6 0.795635 0.170436 0.558370
Si Si7 0.610192 0.330109 0.448804
Si Si8 0.379029 0.826378 0.199189
O O1 0.597392 0.500000 0.680056
O O2 0.525372 0.667587 0.760740
O O3 0.580554 0.704250 0.568886
O O4 0.602404 0.786771 0.716052
O O5 0.296461 0.500000 0.314914
O O6 0.245223 0.270188 0.367726
O O7 0.307702 0.298528 0.438071
O O8 0.329349 0.243587 0.240311
O O9 0.446958 0.500000 0.034744
O O10 0.411279 0.239574 0.089340
O O11 0.500000 0.270367 0.000000
O O12 0.447349 0.297344 0.898634
O O13 0.964005 0.280283 0.706538
O O14 0.961414 0.000000 0.753571
O O15 0.042256 0.500000 0.400561
O O16 0.088986 0.265698 0.386064
O O17 0.000000 0.264334 0.500000
O O18 0.838287 0.213841 0.581081
O O19 0.782388 0.000000 0.583677
O O20 0.606666 0.500000 0.423124
O O21 0.375787 0.000000 0.189459
#
# Coordination Sequence:
#
# PCOD8082936 Si02
#       8
#     8   8   8   8   8   8   8   8
#     4  10  18  32  51  72  99 135 177 214 249 294
#     4  10  19  33  51  72 102 137 171 206 251 306
#     4  10  20  36  55  74  98 132 176 216 253 302
#     4  10  20  35  55  72  95 135 178 216 251 296
#     4  11  23  34  47  73 107 137 170 213 256 298
#     4   9  18  32  50  75 102 130 168 214 258 298
#     4  10  19  33  53  73  99 137 177 211 248 302
#     4  12  23  32  48  75 106 139 172 209 255 305
#
# _framework density 16.628264999999999
#
# number of rings (size 3 to 8) (size 9 to 14) (size 15 to 20)
#    0.000    1.750    3.750    1.875    0.000    3.250 
#    0.000    0.000    0.000    0.000    0.000    0.875 
#    0.000    0.000    0.000    0.000    0.000    0.000 
#
# Total GULP energy -396833.064597 kJ/mol
# GULP energy per Si atom -12401.033269 kJ/mol
# Density = 1.659042 g / cm^3
# Si number density = 16.628265 Si / 1000 Ang^3
#
#
#
# Elastic Constant Matrix: (Units=GPa)
#
#
# Indices 1 2 3 4 5 6 
#
# 1 85.6921 47.4172 40.8358 0.0000 -7.4361 0.0000
# 2 47.4172 90.4584 50.7136 0.0000 -11.6362 0.0000
# 3 40.8358 50.7136 84.7711 0.0000 -16.6926 0.0000
# 4 0.0000 0.0000 0.0000 25.8292 0.0000 -2.2646
# 5 -7.4361 -11.6362 -16.6926 0.0000 24.6145 0.0000
# 6 0.0000 0.0000 0.0000 -2.2646 0.0000 28.2993
#
#
#
# Elastic Compliance Matrix: (Units=1/GPa)
#
#
# Indices 1 2 3 4 5 6 
#
# 1 0.017495 -0.006717 -0.004609 0.000000 -0.001016 0.000000
# 2 -0.006717 0.019248 -0.007948 0.000000 0.001680 0.000000
# 3 -0.004609 -0.007948 0.020495 0.000000 0.008749 0.000000
# 4 0.000000 0.000000 0.000000 0.038989 0.000000 0.003120
# 5 -0.001016 0.001680 0.008749 0.000000 0.047047 0.000000
# 6 0.000000 0.000000 0.000000 0.003120 0.000000 0.035586
#
#
# Mechanical properties :
#
#
# Convention : Reuss Voigt Hill
#
# Bulk Modulus (GPa) = 53.51045 59.87275 56.69160
# Shear Modulus (GPa) = 22.35745 23.87892 23.11818
#
# Velocity S-wave (km/s) = 3.67078 3.79363 3.73271
# Velocity P-wave (km/s) = 7.08636 7.43462 7.26258
#
# Compressibility (1/GPa) = 0.01868794
#
# Stress axis : x y z
#
# Youngs Moduli (GPa) = 57.15935 51.95312 48.79342
#
# Poissons Ratio (x) = 0.34899 0.22489
# Poissons Ratio (y) = 0.38396 0.38783
# Poissons Ratio (z) = 0.26345 0.41295
#
# Static dielectric constant tensor:
#      x y z
#    x 2.986270 0.000000 -0.138800 
#    y 0.000000 3.049420 0.000000 
#    z -0.138800 0.000000 3.016050 
# 
# 
# High freq. dielectric constant tensor:
#      x y z
#    x 1.625380 0.000000 -0.012790 
#    y 0.000000 1.638900 0.000000 
#    z -0.012790 0.000000 1.622760 
# 
# From -- ./inp_files/249037.got.cif
#   From: 2010.06.25/outbox.cif.g09.slc.cpg/sg12_125_cif.got.tgz:249037.got - 2010.06.28 00:19:55.
