data_PCOD8082389
_publ_section_title
;
Structure prediction by ZEFSAII (Michael W. Deem and Ramdas Pophale) SiO2 
 PCOD8082389
Probable space group: C 2/M
;
_chemical_formula_sum "Si O2"
_cell_formula_units_Z 64
_cell_length_a 15.300122
_cell_length_b 9.563552
_cell_length_c 28.040194
_cell_angle_alpha 90.000000
_cell_angle_beta 57.916022
_cell_angle_gamma 90.000000
_cell_volume 3476.299694
_symmetry_space_group_name_H-M "C 2/M"
_symmetry_group_IT_number 12
_symmetry_cell_setting 'monoclinic'
loop_
_space_group_symop_operation_xyz
x,y,z
-x,y,-z
-x,-y,-z
x,-y,z
1/2+x,1/2+y,z
1/2-x,1/2+y,-z
1/2-x,1/2-y,-z
1/2+x,1/2-y,z
loop_
_atom_site_type_symbol
_atom_site_label
_atom_site_fract_x
_atom_site_fract_y
_atom_site_fract_z
Si Si1 0.668649 0.839782 0.739796
Si Si2 0.440793 0.661454 0.387619
Si Si3 0.399728 0.333445 0.504380
Si Si4 0.533506 0.663885 0.205959
Si Si5 0.370534 0.337655 0.725741
Si Si6 0.209268 0.658507 0.620965
Si Si7 0.610293 0.336039 0.993588
Si Si8 0.186585 0.838704 0.076088
O O1 0.571713 0.742128 0.775005
O O2 0.755215 0.780520 0.751017
O O3 0.726675 0.832213 0.672088
O O4 0.636279 0.000000 0.759694
O O5 0.410241 0.500000 0.391981
O O6 0.402168 0.722166 0.449433
O O7 0.562052 0.684571 0.342116
O O8 0.388304 0.746129 0.360677
O O9 0.500000 0.269418 0.500000
O O10 0.404738 0.500000 0.503369
O O11 0.303266 0.278488 0.562646
O O12 0.508452 0.500000 0.217507
O O13 0.578843 0.729671 0.241792
O O14 0.613465 0.696427 0.141218
O O15 0.360494 0.500000 0.739759
O O16 0.187916 0.500000 0.610795
O O17 0.626233 0.500000 0.978253
O O18 0.709368 0.251412 0.945082
O O19 0.500000 0.289657 0.000000
O O20 0.617888 0.305268 0.048486
O O21 0.221448 0.000000 0.065180
#
# Coordination Sequence:
#
# PCOD8082389 Si02
#       8
#     8   8   8   8   8   8   8   8
#     4  10  20  34  52  73  99 134 173 211 256 307
#     4  10  18  31  52  71  92 128 168 202 250 314
#     4   9  17  29  47  71  94 121 163 208 249 302
#     4  10  20  36  54  75 106 137 171 215 257 299
#     4   9  18  33  52  72  97 133 172 208 251 308
#     4  10  19  31  48  71  98 123 158 212 259 298
#     4   9  18  34  55  79 109 142 174 209 251 299
#     4   9  19  34  53  78 107 140 174 211 255 298
#
# _framework density 18.41038
#
# number of rings (size 3 to 8) (size 9 to 14) (size 15 to 20)
#    0.000    2.500    1.250    1.125    0.000    4.750 
#    0.000    1.250    0.000    3.000    0.000    0.000 
#    0.000    0.000    0.000    0.000    0.000    0.000 
#
# Total GULP energy -396499.995779 kJ/mol
# GULP energy per Si atom -12390.624868 kJ/mol
# Density = 1.836848 g / cm^3
# Si number density = 18.410380 Si / 1000 Ang^3
#
#
#
# Elastic Constant Matrix: (Units=GPa)
#
#
# Indices 1 2 3 4 5 6 
#
# 1 136.3609 45.7727 39.3638 0.0001 -19.7209 0.0000
# 2 45.7727 45.1710 37.7514 0.0002 -11.1796 -0.0001
# 3 39.3638 37.7514 100.5551 0.0000 -13.8196 0.0000
# 4 0.0001 0.0002 0.0000 81.2124 0.0000 -37.9336
# 5 -19.7209 -11.1796 -13.8196 0.0000 21.7002 0.0000
# 6 0.0000 -0.0001 0.0000 -37.9336 0.0000 45.7022
#
#
#
# Elastic Compliance Matrix: (Units=1/GPa)
#
#
# Indices 1 2 3 4 5 6 
#
# 1 0.011595 -0.010593 0.000149 0.000000 0.005175 0.000000
# 2 -0.010593 0.043942 -0.011575 0.000000 0.005640 0.000000
# 3 0.000149 -0.011575 0.014719 0.000000 0.003546 0.000000
# 4 0.000000 0.000000 0.000000 0.020110 0.000000 0.016691
# 5 0.005175 0.005640 0.003546 0.000000 0.055949 0.000000
# 6 0.000000 0.000000 0.000000 0.016691 0.000000 0.035735
#
#
# Mechanical properties :
#
#
# Convention : Reuss Voigt Hill
#
# Bulk Modulus (GPa) = 38.14187 58.65142 48.39664
# Shear Modulus (GPa) = 21.29225 40.33623 30.81424
#
# Velocity S-wave (km/s) = 3.40448 4.68584 4.09558
# Velocity P-wave (km/s) = 6.01802 7.82324 6.97924
#
# Compressibility (1/GPa) = 0.02621791
#
# Stress axis : x y z
#
# Youngs Moduli (GPa) = 86.24716 22.75732 67.93743
#
# Poissons Ratio (x) = 0.24107 -0.01014
# Poissons Ratio (y) = 0.91362 0.78639
# Poissons Ratio (z) = -0.01287 0.26342
#
# Static dielectric constant tensor:
#      x y z
#    x 3.596340 0.000000 0.093230 
#    y 0.000000 3.090830 0.000000 
#    z 0.093230 0.000000 3.433700 
# 
# 
# High freq. dielectric constant tensor:
#      x y z
#    x 1.720100 0.000000 0.000870 
#    y 0.000000 1.680240 0.000000 
#    z 0.000870 0.000000 1.717830 
# 
# From -- ./inp_files/375019.got.cif
#   From: 2010.06.25/outbox.cif.g09.slc.cpg/sg12_188_cif.got.tgz:375019.got - 2010.06.28 00:19:55.
