data_PCOD8082061
_publ_section_title
;
Structure prediction by ZEFSAII (Michael W. Deem and Ramdas Pophale) SiO2 
 PCOD8082061
Probable space group: C 2/M
;
_chemical_formula_sum "Si O2"
_cell_formula_units_Z 64
_cell_length_a 16.797475
_cell_length_b 25.919120
_cell_length_c 9.869169
_cell_angle_alpha 90.000000
_cell_angle_beta 85.323159
_cell_angle_gamma 90.000000
_cell_volume 4282.490547
_symmetry_space_group_name_H-M "C 2/M"
_symmetry_group_IT_number 12
_symmetry_cell_setting 'monoclinic'
loop_
_space_group_symop_operation_xyz
x,y,z
-x,y,-z
-x,-y,-z
x,-y,z
1/2+x,1/2+y,z
1/2-x,1/2+y,-z
1/2-x,1/2-y,-z
1/2+x,1/2-y,z
loop_
_atom_site_type_symbol
_atom_site_label
_atom_site_fract_x
_atom_site_fract_y
_atom_site_fract_z
Si Si1 0.574606 0.057472 0.413374
Si Si2 0.104415 0.626901 0.857970
Si Si3 0.697740 0.941902 0.634442
Si Si4 0.092276 0.772763 0.516323
Si Si5 0.318992 0.221705 0.270144
Si Si6 0.224414 0.151162 0.487045
Si Si7 0.686702 0.798251 0.297001
Si Si8 0.578563 0.872407 0.164442
O O1 0.500000 0.085196 0.500000
O O2 0.647104 0.056329 0.505750
O O3 0.600970 0.085544 0.273364
O O4 0.547835 0.000000 0.374155
O O5 0.147390 0.582604 0.764500
O O6 0.149724 0.681977 0.847205
O O7 0.015876 0.637946 0.814595
O O8 0.103069 0.607131 0.012593
O O9 0.772838 0.905750 0.582079
O O10 0.725335 0.000000 0.671081
O O11 0.107278 0.750881 0.666106
O O12 0.133112 0.829533 0.502830
O O13 0.129010 0.734239 0.401666
O O14 0.000000 0.780485 0.500000
O O15 0.274689 0.190851 0.392570
O O16 0.254892 0.262285 0.217565
O O17 0.267347 0.155666 0.628200
O O18 0.629886 0.821295 0.188529
#
# Coordination Sequence:
#
# PCOD8082061 Si02
#       8
#     8   8   8   8   8   8   8   8
#     4  10  19  30  45  63  79 107 149 178 205 253
#     4  10  21  30  39  62  90 114 142 174 212 250
#     4  10  18  31  48  60  79 113 145 175 210 251
#     4   9  15  24  44  67  87 111 137 175 212 244
#     4   8  16  29  41  59  86 113 146 173 195 251
#     4   8  15  27  42  65  85 103 144 180 203 246
#     4   9  16  27  43  60  83 116 146 172 204 239
#     4  11  20  29  42  62  89 114 139 179 215 241
#
# _framework density 14.944575
#
# number of rings (size 3 to 8) (size 9 to 14) (size 15 to 20)
#    0.000    2.625    2.500    2.250    0.000    1.500 
#    0.000    1.250    0.000    0.375    0.000    0.000 
#    0.000    0.000    0.000    4.500    0.000    0.000 
#
# Total GULP energy -396492.632221 kJ/mol
# GULP energy per Si atom -12390.394757 kJ/mol
# Density = 1.491056 g / cm^3
# Si number density = 14.944575 Si / 1000 Ang^3
#
#
#
# Elastic Constant Matrix: (Units=GPa)
#
#
# Indices 1 2 3 4 5 6 
#
# 1 72.9969 39.6451 18.9687 0.0000 0.7667 0.0000
# 2 39.6451 97.4349 36.3452 0.0000 -4.5311 0.0000
# 3 18.9687 36.3452 69.2501 0.0000 -2.9525 0.0000
# 4 0.0000 0.0000 0.0000 0.3138 0.0000 -7.1586
# 5 0.7667 -4.5311 -2.9525 0.0000 16.1112 0.0000
# 6 0.0000 0.0000 0.0000 -7.1586 0.0000 15.1758
#
#
#
# Elastic Compliance Matrix: (Units=1/GPa)
#
#
# Indices 1 2 3 4 5 6 
#
# 1 0.017828 -0.006871 -0.001407 0.000000 -0.003039 0.000000
# 2 -0.006871 0.015501 -0.006101 0.000000 0.003568 0.000000
# 3 -0.001407 -0.006101 0.018099 0.000000 0.001668 0.000000
# 4 0.000000 0.000000 0.000000 -0.326471 0.000000 -0.154000
# 5 -0.003039 0.003568 0.001668 0.000000 0.063523 0.000000
# 6 0.000000 0.000000 0.000000 -0.154000 0.000000 -0.006750
#
#
# Mechanical properties :
#
#
# Convention : Reuss Voigt Hill
#
# Bulk Modulus (GPa) = 44.11066 47.73332 45.92199
# Shear Modulus (GPa) = -27.47920 15.96834 -5.75543
#
# Velocity S-wave (km/s) = -4.29271 3.27234 -1.96457
# Velocity P-wave (km/s) = 2.23841 6.80347 5.06447
#
# Compressibility (1/GPa) = 0.02267026
#
# Stress axis : x y z
#
# Youngs Moduli (GPa) = 56.09092 64.51354 55.25134
#
# Poissons Ratio (x) = 0.44324 0.07774
# Poissons Ratio (y) = 0.38537 0.33710
# Poissons Ratio (z) = 0.07892 0.39361
#
# Static dielectric constant tensor:
#      x y z
#    x 2.860780 0.000000 -0.024650 
#    y 0.000000 3.145770 0.000000 
#    z -0.024650 0.000000 2.747870 
# 
# 
# High freq. dielectric constant tensor:
#      x y z
#    x 1.551590 0.000000 0.003010 
#    y 0.000000 1.561510 0.000000 
#    z 0.003010 0.000000 1.557800 
# 
# From -- ./inp_files/79536.got.cif
#   From: 2010.06.25/outbox.cif.g09.slc.cpg/sg12_40_cif.got.tgz:79536.got - 2010.06.28 00:19:55.
