data_PCOD8082913
_publ_section_title
;
Structure prediction by ZEFSAII (Michael W. Deem and Ramdas Pophale) SiO2 
 PCOD8082913
Probable space group: C 2/M
;
_chemical_formula_sum "Si O2"
_cell_formula_units_Z 40
_cell_length_a 5.284655
_cell_length_b 17.427301
_cell_length_c 24.455051
_cell_angle_alpha 90.000000
_cell_angle_beta 64.792805
_cell_angle_gamma 90.000000
_cell_volume 2037.770424
_symmetry_space_group_name_H-M "C 2/M"
_symmetry_group_IT_number 12
_symmetry_cell_setting 'monoclinic'
loop_
_space_group_symop_operation_xyz
x,y,z
-x,y,-z
-x,-y,-z
x,-y,z
1/2+x,1/2+y,z
1/2-x,1/2+y,-z
1/2-x,1/2-y,-z
1/2+x,1/2-y,z
loop_
_atom_site_type_symbol
_atom_site_label
_atom_site_fract_x
_atom_site_fract_y
_atom_site_fract_z
Si Si1 0.622544 0.297728 0.931083
Si Si2 0.262768 0.840644 0.620736
Si Si3 0.135960 0.410768 0.175812
Si Si4 0.990459 0.089941 0.249451
Si Si5 0.637886 0.671472 0.429673
O O1 0.377298 0.260590 0.917512
O O2 0.736797 0.370851 0.888816
O O3 0.500000 0.326844 0.000000
O O4 0.123028 0.858683 0.691073
O O5 0.286111 0.749486 0.609226
O O6 0.575677 0.876728 0.589110
O O7 0.075539 0.876650 0.588839
O O8 0.166342 0.500000 0.161625
O O9 0.309992 0.386713 0.213313
O O10 0.812795 0.387197 0.211751
O O11 0.957305 0.000000 0.266365
O O12 0.500000 0.692276 0.500000
#
# Coordination Sequence:
#
# PCOD8082913 Si02
#       5
#     8   8   8   8   8
#     4  10  21  39  59  86 119 150 184 234 289 325
#     4  10  18  32  50  75 100 134 174 212 270 330
#     4  10  21  39  58  81 111 154 194 227 273 333
#     4  10  21  37  55  76 111 146 181 228 273 319
#     4  10  19  33  53  74 103 136 169 227 276 317
#
# _framework density 19.629296
#
# number of rings (size 3 to 8) (size 9 to 14) (size 15 to 20)
#    0.000    2.000    0.000    5.400    0.000    0.400 
#   21.600    0.000    0.000   13.800    0.000    0.000 
#    0.000    0.000    0.000    0.000    0.000    0.000 
#
# Total GULP energy -247942.752684 kJ/mol
# GULP energy per Si atom -12397.137634 kJ/mol
# Density = 1.958462 g / cm^3
# Si number density = 19.629296 Si / 1000 Ang^3
#
#
#
# Elastic Constant Matrix: (Units=GPa)
#
#
# Indices 1 2 3 4 5 6 
#
# 1 202.8835 22.9238 70.2133 0.0000 -7.8261 0.0000
# 2 22.9238 38.8110 66.6021 0.0000 -3.4516 0.0000
# 3 70.2133 66.6021 169.1409 0.0000 -5.8692 0.0000
# 4 0.0000 0.0000 0.0000 9.5032 0.0000 1.0169
# 5 -7.8261 -3.4516 -5.8692 0.0000 30.0041 0.0000
# 6 0.0000 0.0000 0.0000 1.0169 0.0000 7.6599
#
#
#
# Elastic Compliance Matrix: (Units=1/GPa)
#
#
# Indices 1 2 3 4 5 6 
#
# 1 0.005854 0.002301 -0.003296 0.000000 0.001147 0.000000
# 2 0.002301 0.080639 -0.032587 0.000000 0.003502 0.000000
# 3 -0.003296 -0.032587 0.020089 0.000000 -0.000679 0.000000
# 4 0.000000 0.000000 0.000000 0.106744 0.000000 -0.014171
# 5 0.001147 0.003502 -0.000679 0.000000 0.033898 0.000000
# 6 0.000000 0.000000 0.000000 -0.014171 0.000000 0.132431
#
#
# Mechanical properties :
#
#
# Convention : Reuss Voigt Hill
#
# Bulk Modulus (GPa) = 25.36919 81.14600 53.25759
# Shear Modulus (GPa) = 10.87053 26.17317 18.52185
#
# Velocity S-wave (km/s) = 2.35583 3.65550 3.07511
# Velocity P-wave (km/s) = 4.51133 7.69713 6.30864
#
# Compressibility (1/GPa) = 0.03941790
#
# Stress axis : x y z
#
# Youngs Moduli (GPa) = 170.82393 12.40088 49.77913
#
# Poissons Ratio (x) = -0.02854 0.16409
# Poissons Ratio (y) = -0.39310 1.62215
# Poissons Ratio (z) = 0.56311 0.40411
#
# Static dielectric constant tensor:
#      x y z
#    x 5.609350 0.000000 -0.014920 
#    y 0.000000 3.057580 0.000000 
#    z -0.014920 0.000000 3.510330 
# 
# 
# High freq. dielectric constant tensor:
#      x y z
#    x 1.807550 0.000000 -0.001540 
#    y 0.000000 1.715130 0.000000 
#    z -0.001540 0.000000 1.769880 
# 
# From -- ./inp_files/252541.got.cif
#   From: 2010.06.25/outbox.cif.g09.slc.cpg/sg12_127_cif.got.tgz:252541.got - 2010.06.28 00:19:55.
