data_PCOD8082933
_publ_section_title
;
Structure prediction by ZEFSAII (Michael W. Deem and Ramdas Pophale) SiO2 
 PCOD8082933
Probable space group: C 2/M
;
_chemical_formula_sum "Si O2"
_cell_formula_units_Z 64
_cell_length_a 25.424165
_cell_length_b 8.931943
_cell_length_c 21.276772
_cell_angle_alpha 90.000000
_cell_angle_beta 52.812135
_cell_angle_gamma 90.000000
_cell_volume 3849.198221
_symmetry_space_group_name_H-M "C 2/M"
_symmetry_group_IT_number 12
_symmetry_cell_setting 'monoclinic'
loop_
_space_group_symop_operation_xyz
x,y,z
-x,y,-z
-x,-y,-z
x,-y,z
1/2+x,1/2+y,z
1/2-x,1/2+y,-z
1/2-x,1/2-y,-z
1/2+x,1/2-y,z
loop_
_atom_site_type_symbol
_atom_site_label
_atom_site_fract_x
_atom_site_fract_y
_atom_site_fract_z
Si Si1 0.363764 0.672411 0.153465
Si Si2 0.397150 0.823367 0.579404
Si Si3 0.749529 0.324161 0.673485
Si Si4 0.558977 0.676893 0.676945
Si Si5 0.699079 0.821600 0.584964
Si Si6 0.517635 0.674689 0.844335
Si Si7 0.062316 0.330224 0.000305
Si Si8 0.503913 0.177513 0.599121
O O1 0.375299 0.500000 0.129633
O O2 0.290777 0.702976 0.233078
O O3 0.415563 0.726548 0.168982
O O4 0.374150 0.759503 0.080400
O O5 0.322913 0.759940 0.632230
O O6 0.434555 0.773977 0.489153
O O7 0.436661 0.770137 0.612835
O O8 0.395062 0.000000 0.583049
O O9 0.748745 0.500000 0.655592
O O10 0.715757 0.230916 0.642865
O O11 0.573238 0.500000 0.663830
O O12 0.626627 0.766269 0.618507
O O13 0.524419 0.722565 0.767177
O O14 0.508349 0.728746 0.659784
O O15 0.750000 0.750000 0.500000
O O16 0.702067 0.000000 0.577862
O O17 0.506363 0.500000 0.859588
O O18 0.453727 0.753136 0.921444
O O19 0.079336 0.500000 0.002329
O O20 0.000000 0.308093 0.000000
O O21 0.504422 0.000000 0.612194
#
# Coordination Sequence:
#
# PCOD8082933 Si02
#       8
#     8   8   8   8   8   8   8   8
#     4   9  16  28  45  65  93 128 160 191 232 285
#     4   8  16  31  52  71  94 125 165 206 242 286
#     4  10  18  32  51  72  97 130 166 200 238 289
#     4  11  21  34  50  72  99 129 163 201 242 289
#     4  12  24  35  48  68  98 133 164 199 240 290
#     4   9  17  30  45  64  93 127 159 191 232 286
#     4   9  17  27  42  65  92 122 157 194 233 279
#     4   9  17  32  51  73  95 126 165 205 247 284
#
# _framework density 16.626839
#
# number of rings (size 3 to 8) (size 9 to 14) (size 15 to 20)
#    0.000    2.375    1.250    3.375    0.000    4.000 
#    0.000    1.875    0.000    0.000    0.000    0.875 
#    0.000    0.000    0.000    0.000    0.000    0.000 
#
# Total GULP energy -396756.808479 kJ/mol
# GULP energy per Si atom -12398.650265 kJ/mol
# Density = 1.658900 g / cm^3
# Si number density = 16.626839 Si / 1000 Ang^3
#
#
#
# Elastic Constant Matrix: (Units=GPa)
#
#
# Indices 1 2 3 4 5 6 
#
# 1 63.5319 18.0230 27.9273 0.0021 8.0888 -0.0020
# 2 18.0230 65.3616 39.6575 0.0045 7.8013 -0.0062
# 3 27.9273 39.6575 105.1491 0.0030 12.6343 -0.0038
# 4 0.0021 0.0045 0.0030 25.2189 -0.0022 5.0980
# 5 8.0888 7.8013 12.6343 -0.0022 18.6298 0.0024
# 6 -0.0020 -0.0062 -0.0038 5.0980 0.0024 18.8866
#
#
#
# Elastic Compliance Matrix: (Units=1/GPa)
#
#
# Indices 1 2 3 4 5 6 
#
# 1 0.018547 -0.002473 -0.003429 -0.000001 -0.004691 0.000001
# 2 -0.002473 0.020384 -0.006678 -0.000004 -0.002933 0.000007
# 3 -0.003429 -0.006678 0.013527 -0.000001 -0.004888 0.000001
# 4 -0.000001 -0.000004 -0.000001 0.041941 0.000009 -0.011321
# 5 -0.004691 -0.002933 -0.004888 0.000009 0.060257 -0.000013
# 6 0.000001 0.000007 0.000001 -0.011321 -0.000013 0.056003
#
#
# Mechanical properties :
#
#
# Convention : Reuss Voigt Hill
#
# Bulk Modulus (GPa) = 36.63681 45.02867 40.83274
# Shear Modulus (GPa) = 20.41479 22.44273 21.42876
#
# Velocity S-wave (km/s) = 3.50783 3.67793 3.59389
# Velocity P-wave (km/s) = 6.20396 6.72138 6.46785
#
# Compressibility (1/GPa) = 0.02729495
#
# Stress axis : x y z
#
# Youngs Moduli (GPa) = 53.91839 49.05894 73.92453
#
# Poissons Ratio (x) = 0.12134 0.25351
# Poissons Ratio (y) = 0.13336 0.49370
# Poissons Ratio (z) = 0.18491 0.32764
#
# Static dielectric constant tensor:
#      x y z
#    x 3.155270 0.000000 -0.124150 
#    y 0.000000 3.014290 0.000000 
#    z -0.124150 0.000000 3.321350 
# 
# 
# High freq. dielectric constant tensor:
#      x y z
#    x 1.604450 0.000000 0.002180 
#    y 0.000000 1.631650 0.000000 
#    z 0.002180 0.000000 1.646990 
# 
# From -- ./inp_files/326878.got.cif
#   From: 2010.06.25/outbox.cif.g09.slc.cpg/sg12_164_cif.got.tgz:326878.got - 2010.06.28 00:19:55.
