data_PCOD8082937
_publ_section_title
;
Structure prediction by ZEFSAII (Michael W. Deem and Ramdas Pophale) SiO2 
 PCOD8082937
Probable space group: C 2/M
;
_chemical_formula_sum "Si O2"
_cell_formula_units_Z 64
_cell_length_a 20.170177
_cell_length_b 9.338706
_cell_length_c 21.887622
_cell_angle_alpha 90.000000
_cell_angle_beta 119.761680
_cell_angle_gamma 90.000000
_cell_volume 3579.015409
_symmetry_space_group_name_H-M "C 2/M"
_symmetry_group_IT_number 12
_symmetry_cell_setting 'monoclinic'
loop_
_space_group_symop_operation_xyz
x,y,z
-x,y,-z
-x,-y,-z
x,-y,z
1/2+x,1/2+y,z
1/2-x,1/2+y,-z
1/2-x,1/2-y,-z
1/2+x,1/2-y,z
loop_
_atom_site_type_symbol
_atom_site_label
_atom_site_fract_x
_atom_site_fract_y
_atom_site_fract_z
Si Si1 0.769117 0.170365 0.762560
Si Si2 0.598855 0.829712 0.709977
Si Si3 0.551906 0.669270 0.934220
Si Si4 0.535219 0.831857 0.808961
Si Si5 0.978941 0.670530 0.557132
Si Si6 0.673927 0.166754 0.449235
Si Si7 0.360931 0.834454 0.706404
Si Si8 0.891839 0.169021 0.913400
O O1 0.683289 0.225267 0.732697
O O2 0.800805 0.238299 0.715169
O O3 0.817697 0.225480 0.843384
O O4 0.773368 0.000000 0.757790
O O5 0.575436 0.774157 0.766074
O O6 0.540290 0.766782 0.633196
O O7 0.594954 0.000000 0.707551
O O8 0.553963 0.500000 0.923037
O O9 0.575815 0.751100 0.883720
O O10 0.467851 0.725172 0.914736
O O11 0.609459 0.714725 0.015687
O O12 0.446034 0.792527 0.765451
O O13 0.548108 0.000000 0.823022
O O14 0.983117 0.500000 0.559760
O O15 0.893886 0.719905 0.537017
O O16 0.000000 0.731535 0.500000
O O17 0.750000 0.250000 0.500000
O O18 0.647813 0.199790 0.368751
O O19 0.690227 0.000000 0.466409
O O20 0.344027 0.000000 0.712597
O O21 0.895809 0.000000 0.912934
#
# Coordination Sequence:
#
# PCOD8082937 Si02
#       8
#     8   8   8   8   8   8   8   8
#     4  10  19  32  54  79  98 126 175 218 242 284
#     4   9  18  32  50  73 101 131 165 208 251 292
#     4   9  16  29  49  71 100 134 167 203 250 299
#     4  10  18  32  51  73 100 132 167 203 250 300
#     4   9  17  31  51  75 101 130 165 203 246 294
#     4  10  21  36  54  77 105 133 164 206 252 297
#     4  10  20  34  51  72 105 137 159 200 260 304
#     4   8  15  28  46  72 103 130 161 209 255 289
#
# _framework density 17.882013000000001
#
# number of rings (size 3 to 8) (size 9 to 14) (size 15 to 20)
#    0.000    2.625    2.500    0.750    1.750    0.500 
#    0.000    3.125    0.000    1.125    0.000    0.000 
#    0.000    0.000    0.000    0.000    0.000    0.000 
#
# Total GULP energy -396721.441027 kJ/mol
# GULP energy per Si atom -12397.545032 kJ/mol
# Density = 1.784131 g / cm^3
# Si number density = 17.882013 Si / 1000 Ang^3
#
#
#
# Elastic Constant Matrix: (Units=GPa)
#
#
# Indices 1 2 3 4 5 6 
#
# 1 137.9806 31.5823 68.9289 0.0000 -11.4170 0.0000
# 2 31.5823 28.0102 31.3289 0.0000 -5.3697 0.0000
# 3 68.9289 31.3289 124.9089 0.0000 -15.4606 0.0000
# 4 0.0000 0.0000 0.0000 25.8152 0.0000 -3.1086
# 5 -11.4170 -5.3697 -15.4606 0.0000 33.9539 0.0000
# 6 0.0000 0.0000 0.0000 -3.1086 0.0000 20.2814
#
#
#
# Elastic Compliance Matrix: (Units=1/GPa)
#
#
# Indices 1 2 3 4 5 6 
#
# 1 0.011148 -0.007860 -0.004102 0.000000 0.000638 0.000000
# 2 -0.007860 0.055335 -0.009310 0.000000 0.001869 0.000000
# 3 -0.004102 -0.009310 0.012983 0.000000 0.003060 0.000000
# 4 0.000000 0.000000 0.000000 0.039465 0.000000 0.006049
# 5 0.000638 0.001869 0.003060 0.000000 0.031355 0.000000
# 6 0.000000 0.000000 0.000000 0.006049 0.000000 0.050233
#
#
# Mechanical properties :
#
#
# Convention : Reuss Voigt Hill
#
# Bulk Modulus (GPa) = 27.08340 61.61998 44.35169
# Shear Modulus (GPa) = 19.57931 26.61407 23.09669
#
# Velocity S-wave (km/s) = 3.31254 3.86205 3.59780
# Velocity P-wave (km/s) = 5.45977 7.37708 6.48962
#
# Compressibility (1/GPa) = 0.03692299
#
# Stress axis : x y z
#
# Youngs Moduli (GPa) = 89.70022 18.07169 77.02317
#
# Poissons Ratio (x) = 0.14205 0.31592
# Poissons Ratio (y) = 0.70505 0.71709
# Poissons Ratio (z) = 0.36791 0.16825
#
# Static dielectric constant tensor:
#      x y z
#    x 3.347660 0.000000 0.024330 
#    y 0.000000 2.858420 0.000000 
#    z 0.024330 0.000000 3.659320 
# 
# 
# High freq. dielectric constant tensor:
#      x y z
#    x 1.686150 0.000000 -0.006000 
#    y 0.000000 1.643790 0.000000 
#    z -0.006000 0.000000 1.708460 
# 
# From -- ./inp_files/319814.got.cif
#   From: 2010.06.25/outbox.cif.g09.slc.cpg/sg12_160_cif.got.tgz:319814.got - 2010.06.28 00:19:55.
