data_PCOD8082070
_publ_section_title
;
Structure prediction by ZEFSAII (Michael W. Deem and Ramdas Pophale) SiO2 
 PCOD8082070
Probable space group: C 2/M
;
_chemical_formula_sum "Si O2"
_cell_formula_units_Z 64
_cell_length_a 29.102035
_cell_length_b 8.903921
_cell_length_c 13.812587
_cell_angle_alpha 90.000000
_cell_angle_beta 93.154998
_cell_angle_gamma 90.000000
_cell_volume 3573.723301
_symmetry_space_group_name_H-M "C 2/M"
_symmetry_group_IT_number 12
_symmetry_cell_setting 'monoclinic'
loop_
_space_group_symop_operation_xyz
x,y,z
-x,y,-z
-x,-y,-z
x,-y,z
1/2+x,1/2+y,z
1/2-x,1/2+y,-z
1/2-x,1/2-y,-z
1/2+x,1/2-y,z
loop_
_atom_site_type_symbol
_atom_site_label
_atom_site_fract_x
_atom_site_fract_y
_atom_site_fract_z
Si Si1 0.947022 0.321940 0.486875
Si Si2 0.702573 0.823172 0.024078
Si Si3 0.596129 0.833344 0.318902
Si Si4 0.618134 0.823321 0.881990
Si Si5 0.058658 0.829542 0.027050
Si Si6 0.147342 0.831808 0.172802
Si Si7 0.993256 0.330554 0.820899
Si Si8 0.427240 0.678034 0.288249
O O1 0.943761 0.500000 0.470595
O O2 0.921032 0.268054 0.580753
O O3 0.922088 0.236656 0.396621
O O4 0.000000 0.271437 0.500000
O O5 0.664300 0.772465 0.941566
O O6 0.708258 0.000000 0.028029
O O7 0.750000 0.750000 0.000000
O O8 0.687301 0.766891 0.128063
O O9 0.636535 0.730770 0.278872
O O10 0.554981 0.841051 0.238368
O O11 0.616248 0.000000 0.336706
O O12 0.616438 0.739083 0.778514
O O13 0.616616 0.000000 0.866461
O O14 0.571914 0.772769 0.935479
O O15 0.101734 0.825922 0.103532
O O16 0.014045 0.762940 0.079399
O O17 0.048388 0.000000 0.992493
O O18 0.166168 0.000000 0.185511
O O19 0.011116 0.500000 0.844746
O O20 0.026687 0.244975 0.752350
O O21 0.428583 0.500000 0.286657
#
# Coordination Sequence:
#
# PCOD8082070 Si02
#       8
#     8   8   8   8   8   8   8   8
#     4  10  19  35  53  71  96 135 181 223 263 305
#     4  10  20  35  58  84 108 133 164 200 247 305
#     4   9  17  30  50  71  97 133 175 218 257 297
#     4  10  21  37  53  71  98 135 170 202 245 307
#     4   9  17  30  47  70  98 128 165 211 254 293
#     4   9  17  29  48  75 107 135 163 203 252 300
#     4  10  18  31  48  67  93 132 176 213 252 303
#     4  12  24  34  47  70  99 132 172 221 264 298
#
# _framework density 17.908491999999999
#
# number of rings (size 3 to 8) (size 9 to 14) (size 15 to 20)
#    0.000    2.125    1.250    3.000    0.000    6.250 
#    0.000    2.500    0.000    0.000    0.000    0.875 
#    0.000    0.000    0.000    0.000    0.000    0.000 
#
# Total GULP energy -396845.344084 kJ/mol
# GULP energy per Si atom -12401.417003 kJ/mol
# Density = 1.786773 g / cm^3
# Si number density = 17.908492 Si / 1000 Ang^3
#
#
#
# Elastic Constant Matrix: (Units=GPa)
#
#
# Indices 1 2 3 4 5 6 
#
# 1 68.8159 27.5651 30.7758 0.0000 -17.4841 0.0000
# 2 27.5651 107.7843 57.1927 0.0000 -7.0366 0.0000
# 3 30.7758 57.1927 129.7057 0.0000 -13.6614 0.0000
# 4 0.0000 0.0000 0.0000 30.6512 0.0000 -4.5168
# 5 -17.4841 -7.0366 -13.6614 0.0000 21.4071 0.0000
# 6 0.0000 0.0000 0.0000 -4.5168 0.0000 22.1582
#
#
#
# Elastic Compliance Matrix: (Units=1/GPa)
#
#
# Indices 1 2 3 4 5 6 
#
# 1 0.020317 -0.003268 -0.001871 0.000000 0.014326 0.000000
# 2 -0.003268 0.012645 -0.004978 0.000000 -0.001690 0.000000
# 3 -0.001871 -0.004978 0.010737 0.000000 0.003688 0.000000
# 4 0.000000 0.000000 0.000000 0.033636 0.000000 0.006856
# 5 0.014326 -0.001690 0.003688 0.000000 0.060212 0.000000
# 6 0.000000 0.000000 0.000000 0.006856 0.000000 0.046528
#
#
# Mechanical properties :
#
#
# Convention : Reuss Voigt Hill
#
# Bulk Modulus (GPa) = 42.61683 59.70812 51.16248
# Shear Modulus (GPa) = 23.57053 27.56147 25.56600
#
# Velocity S-wave (km/s) = 3.63183 3.92729 3.78245
# Velocity P-wave (km/s) = 6.43705 7.34696 6.90701
#
# Compressibility (1/GPa) = 0.02346491
#
# Stress axis : x y z
#
# Youngs Moduli (GPa) = 49.22002 79.08409 93.13437
#
# Poissons Ratio (x) = 0.25845 0.17424
# Poissons Ratio (y) = 0.16085 0.46364
# Poissons Ratio (z) = 0.09208 0.39369
#
# Static dielectric constant tensor:
#      x y z
#    x 3.044590 0.000000 -0.027240 
#    y 0.000000 3.455710 0.000000 
#    z -0.027240 0.000000 3.470430 
# 
# 
# High freq. dielectric constant tensor:
#      x y z
#    x 1.652900 0.000000 -0.004580 
#    y 0.000000 1.704360 0.000000 
#    z -0.004580 0.000000 1.693260 
# 
# From -- ./inp_files/248291.got.cif
#   From: 2010.06.25/outbox.cif.g09.slc.cpg/sg12_125_cif.got.tgz:248291.got - 2010.06.28 00:19:55.
