data_PCOD8083843
_publ_section_title
;
Structure prediction by ZEFSAII (Michael W. Deem and Ramdas Pophale) SiO2 
 PCOD8083843
Probable space group: C 2/M
;
_chemical_formula_sum "Si O2"
_cell_formula_units_Z 48
_cell_length_a 20.679170
_cell_length_b 8.773595
_cell_length_c 14.800788
_cell_angle_alpha 90.000000
_cell_angle_beta 71.513506
_cell_angle_gamma 90.000000
_cell_volume 2546.750198
_symmetry_space_group_name_H-M "C 2/M"
_symmetry_group_IT_number 12
_symmetry_cell_setting 'monoclinic'
loop_
_space_group_symop_operation_xyz
x,y,z
-x,y,-z
-x,-y,-z
x,-y,z
1/2+x,1/2+y,z
1/2-x,1/2+y,-z
1/2-x,1/2-y,-z
1/2+x,1/2-y,z
loop_
_atom_site_type_symbol
_atom_site_label
_atom_site_fract_x
_atom_site_fract_y
_atom_site_fract_z
Si Si1 0.939616 0.821105 0.258931
Si Si2 0.289903 0.321198 0.564835
Si Si3 0.456160 0.679065 0.937315
Si Si4 0.806231 0.180342 0.039055
Si Si5 0.692701 0.178741 0.768777
Si Si6 0.559697 0.680771 0.535853
O O1 0.878301 0.726797 0.243732
O O2 0.951789 0.767153 0.355863
O O3 0.008577 0.782464 0.173720
O O4 0.921479 0.000000 0.260569
O O5 0.289702 0.500000 0.548135
O O6 0.250000 0.250000 0.500000
O O7 0.254179 0.277710 0.674402
O O8 0.367385 0.258596 0.532064
O O9 0.451486 0.500000 0.955608
O O10 0.500000 0.751666 0.000000
O O11 0.379666 0.745236 0.973759
O O12 0.792412 0.229369 0.147349
O O13 0.802834 0.000000 0.033426
O O14 0.750000 0.250000 0.000000
O O15 0.691074 0.000000 0.790520
O O16 0.500000 0.752202 0.500000
O O17 0.556992 0.500000 0.530618
#
# Coordination Sequence:
#
# PCOD8083843 Si02
#       6
#     8   8   8   8   8   8
#     4  10  18  33  59  83 106 144 192 236 280 331
#     4  10  20  34  56  84 112 145 187 234 279 330
#     4   9  17  32  57  85 106 139 189 235 274 325
#     4  11  23  40  60  84 118 150 187 234 285 338
#     4  11  22  35  55  85 117 149 188 233 284 340
#     4   9  18  32  53  82 110 139 182 233 279 325
#
# _framework density 18.847549999999998
#
# number of rings (size 3 to 8) (size 9 to 14) (size 15 to 20)
#    0.000    2.000    3.333    1.000    0.000    2.000 
#    0.000    7.500    0.000    2.000    0.000    0.000 
#    0.000    0.000    0.000    0.000    0.000    0.000 
#
# Total GULP energy -297604.894715 kJ/mol
# GULP energy per Si atom -12400.203946 kJ/mol
# Density = 1.880465 g / cm^3
# Si number density = 18.847550 Si / 1000 Ang^3
#
#
#
# Elastic Constant Matrix: (Units=GPa)
#
#
# Indices 1 2 3 4 5 6 
#
# 1 187.0109 30.3778 97.2459 0.0000 -1.1589 0.0000
# 2 30.3778 34.9709 31.5595 0.0000 -2.9469 0.0000
# 3 97.2459 31.5595 159.3131 0.0000 -9.5008 0.0000
# 4 0.0000 0.0000 0.0000 21.5681 0.0000 3.8213
# 5 -1.1589 -2.9469 -9.5008 0.0000 39.3901 0.0000
# 6 0.0000 0.0000 0.0000 3.8213 0.0000 27.0521
#
#
#
# Elastic Compliance Matrix: (Units=1/GPa)
#
#
# Indices 1 2 3 4 5 6 
#
# 1 0.008150 -0.003193 -0.004406 0.000000 -0.001062 0.000000
# 2 -0.003193 0.036107 -0.005122 0.000000 0.001372 0.000000
# 3 -0.004406 -0.005122 0.010095 0.000000 0.001922 0.000000
# 4 0.000000 0.000000 0.000000 0.047555 0.000000 -0.006717
# 5 -0.001062 0.001372 0.001922 0.000000 0.025922 0.000000
# 6 0.000000 0.000000 0.000000 -0.006717 0.000000 0.037915
#
#
# Mechanical properties :
#
#
# Convention : Reuss Voigt Hill
#
# Bulk Modulus (GPa) = 34.58877 77.74016 56.16447
# Shear Modulus (GPa) = 24.89758 32.40953 28.65355
#
# Velocity S-wave (km/s) = 3.63850 4.15126 3.90331
# Velocity P-wave (km/s) = 6.00360 8.01958 7.08367
#
# Compressibility (1/GPa) = 0.02891112
#
# Stress axis : x y z
#
# Youngs Moduli (GPa) = 122.69226 27.69568 99.05418
#
# Poissons Ratio (x) = 0.08844 0.43641
# Poissons Ratio (y) = 0.39181 0.50731
# Poissons Ratio (z) = 0.54056 0.14184
#
# Static dielectric constant tensor:
#      x y z
#    x 4.119740 0.000000 0.910310 
#    y 0.000000 3.172690 0.000000 
#    z 0.910310 0.000000 6.685100 
# 
# 
# High freq. dielectric constant tensor:
#      x y z
#    x 1.737170 0.000000 -0.007740 
#    y 0.000000 1.697790 0.000000 
#    z -0.007740 0.000000 1.748520 
# 
# From -- ./inp_files/229921.got.cif
#   From: 2010.06.25/outbox.cif.g09.slc.cpg/sg12_115_cif.got.tgz:229921.got - 2010.06.28 00:19:55.
