data_PCOD8083565
_publ_section_title
;
Structure prediction by ZEFSAII (Michael W. Deem and Ramdas Pophale) SiO2 
 PCOD8083565
Probable space group: C 2/M
;
_chemical_formula_sum "Si O2"
_cell_formula_units_Z 64
_cell_length_a 23.105208
_cell_length_b 13.516385
_cell_length_c 11.750900
_cell_angle_alpha 90.000000
_cell_angle_beta 67.296288
_cell_angle_gamma 90.000000
_cell_volume 3385.432055
_symmetry_space_group_name_H-M "C 2/M"
_symmetry_group_IT_number 12
_symmetry_cell_setting 'monoclinic'
loop_
_space_group_symop_operation_xyz
x,y,z
-x,y,-z
-x,-y,-z
x,-y,z
1/2+x,1/2+y,z
1/2-x,1/2+y,-z
1/2-x,1/2-y,-z
1/2+x,1/2-y,z
loop_
_atom_site_type_symbol
_atom_site_label
_atom_site_fract_x
_atom_site_fract_y
_atom_site_fract_z
Si Si1 0.121852 0.389954 0.631385
Si Si2 0.790989 0.885216 0.936563
Si Si3 0.245451 0.314257 0.614470
Si Si4 0.883800 0.193221 0.500356
Si Si5 0.192092 0.734177 0.884856
Si Si6 0.464725 0.613439 0.243213
Si Si7 0.439531 0.792403 0.112457
Si Si8 0.414312 0.615821 0.707528
O O1 0.104894 0.500000 0.598863
O O2 0.192016 0.396468 0.632333
O O3 0.118449 0.309970 0.531257
O O4 0.072979 0.360109 0.767491
O O5 0.726615 0.856334 0.922420
O O6 0.849030 0.852943 0.814031
O O7 0.790911 0.000000 0.962122
O O8 0.797241 0.834178 0.053922
O O9 0.250000 0.250000 0.500000
O O10 0.315513 0.354550 0.582721
O O11 0.222413 0.247735 0.737945
O O12 0.910180 0.129410 0.376713
O O13 0.924626 0.178011 0.583433
O O14 0.118918 0.707032 0.929770
O O15 0.465118 0.500000 0.202880
O O16 0.452271 0.679596 0.141970
O O17 0.530710 0.645569 0.248032
O O18 0.500000 0.834416 0.000000
O O19 0.417196 0.500000 0.675381
#
# Coordination Sequence:
#
# PCOD8083565 Si02
#       8
#     8   8   8   8   8   8   8   8
#     4   9  20  35  53  78 109 144 188 231 273 328
#     4  10  21  36  58  83 111 148 183 226 278 326
#     4   9  18  34  55  79 108 145 182 226 277 325
#     4  10  18  33  53  78 112 145 182 224 278 326
#     4  10  20  37  57  81 114 141 188 231 270 335
#     4  10  21  34  52  84 116 142 179 226 281 342
#     4  10  21  37  57  80 106 147 184 229 284 328
#     4  10  19  33  56  83 109 145 186 222 274 338
#
# _framework density 18.904530000000001
#
# number of rings (size 3 to 8) (size 9 to 14) (size 15 to 20)
#    0.000    2.250    1.250    2.250    0.000    5.000 
#    0.000    2.500    0.000    6.000    0.000    0.000 
#    0.000    0.000    0.000    0.000    0.000    0.000 
#
# Total GULP energy -396737.370096 kJ/mol
# GULP energy per Si atom -12398.042815 kJ/mol
# Density = 1.886150 g / cm^3
# Si number density = 18.904530 Si / 1000 Ang^3
#
#
#
# Elastic Constant Matrix: (Units=GPa)
#
#
# Indices 1 2 3 4 5 6 
#
# 1 109.9964 23.2005 33.3293 0.0000 -13.5190 0.0000
# 2 23.2005 78.2332 24.0015 0.0000 -0.2009 0.0000
# 3 33.3293 24.0015 91.3345 0.0000 -6.1969 0.0000
# 4 0.0000 0.0000 0.0000 18.9445 0.0000 1.7148
# 5 -13.5190 -0.2009 -6.1969 0.0000 32.8415 0.0000
# 6 0.0000 0.0000 0.0000 1.7148 0.0000 21.1123
#
#
#
# Elastic Compliance Matrix: (Units=1/GPa)
#
#
# Indices 1 2 3 4 5 6 
#
# 1 0.011011 -0.002289 -0.003150 0.000000 0.003924 0.000000
# 2 -0.002289 0.014391 -0.003044 0.000000 -0.001428 0.000000
# 3 -0.003150 -0.003044 0.012975 0.000000 0.001133 0.000000
# 4 0.000000 0.000000 0.000000 0.053177 0.000000 -0.004319
# 5 0.003924 -0.001428 0.001133 0.000000 0.032270 0.000000
# 6 0.000000 0.000000 0.000000 -0.004319 0.000000 0.047717
#
#
# Mechanical properties :
#
#
# Convention : Reuss Voigt Hill
#
# Bulk Modulus (GPa) = 46.70325 48.95854 47.83089
# Shear Modulus (GPa) = 25.55685 27.84851 26.70268
#
# Velocity S-wave (km/s) = 3.68079 3.84228 3.76240
# Velocity P-wave (km/s) = 6.54391 6.75560 6.65060
#
# Compressibility (1/GPa) = 0.02141179
#
# Stress axis : x y z
#
# Youngs Moduli (GPa) = 90.81995 69.48738 77.07114
#
# Poissons Ratio (x) = 0.15904 0.24280
# Poissons Ratio (y) = 0.20786 0.23457
# Poissons Ratio (z) = 0.28611 0.21149
#
# Static dielectric constant tensor:
#      x y z
#    x 3.997140 0.000000 -0.200830 
#    y 0.000000 3.154340 0.000000 
#    z -0.200830 0.000000 3.514200 
# 
# 
# High freq. dielectric constant tensor:
#      x y z
#    x 1.744630 0.000000 -0.006170 
#    y 0.000000 1.704610 0.000000 
#    z -0.006170 0.000000 1.739600 
# 
# From -- ./inp_files/175247.got.cif
#   From: 2010.06.25/outbox.cif.g09.slc.cpg/sg12_88_cif.got.tgz:175247.got - 2010.06.28 00:19:55.
