data_PCOD8083531
_publ_section_title
;
Structure prediction by ZEFSAII (Michael W. Deem and Ramdas Pophale) SiO2 
 PCOD8083531
Probable space group: C 2/M
;
_chemical_formula_sum "Si O2"
_cell_formula_units_Z 48
_cell_length_a 17.509369
_cell_length_b 19.001078
_cell_length_c 24.988868
_cell_angle_alpha 90.000000
_cell_angle_beta 160.515407
_cell_angle_gamma 90.000000
_cell_volume 2773.068831
_symmetry_space_group_name_H-M "C 2/M"
_symmetry_group_IT_number 12
_symmetry_cell_setting 'monoclinic'
loop_
_space_group_symop_operation_xyz
x,y,z
-x,y,-z
-x,-y,-z
x,-y,z
1/2+x,1/2+y,z
1/2-x,1/2+y,-z
1/2-x,1/2-y,-z
1/2+x,1/2-y,z
loop_
_atom_site_type_symbol
_atom_site_label
_atom_site_fract_x
_atom_site_fract_y
_atom_site_fract_z
Si Si1 0.172818 0.220210 0.004034
Si Si2 0.771552 0.500000 0.687967
Si Si3 0.588957 0.302566 0.426245
Si Si4 0.070888 0.500000 0.985285
Si Si5 0.782725 0.355834 0.893617
Si Si6 0.309066 0.240129 0.335707
Si Si7 0.112174 0.642918 0.285881
O O1 0.910855 0.191421 0.824577
O O2 0.250000 0.250000 0.000000
O O3 0.188564 0.284203 0.055335
O O4 0.354746 0.159248 0.137159
O O5 0.500000 0.500000 0.500000
O O6 0.888991 0.565394 0.737251
O O7 0.842875 0.500000 0.797598
O O8 0.750000 0.250000 0.500000
O O9 0.451648 0.351973 0.294619
O O10 0.414540 0.259388 0.348275
O O11 0.732705 0.353856 0.559003
O O12 0.219161 0.428143 0.072034
O O13 0.000000 0.500000 0.000000
O O14 0.000000 0.362225 0.000000
O O15 0.500000 0.202165 0.500000
O O16 0.213598 0.307147 0.306000
#
# Coordination Sequence:
#
# PCOD8083531 Si02
#       7
#     8   4   8   4   8   8   8
#     4  10  18  33  52  74 105 145 186 228 272 332
#     4  12  24  38  56  78 117 157 184 227 281 352
#     4  11  20  33  52  84 109 143 186 234 277 332
#     4  10  24  34  52  82 111 152 191 218 282 333
#     4  11  21  34  53  76 116 145 183 231 280 329
#     4   9  18  32  50  76 108 139 179 228 274 326
#     4  10  22  34  55  79 111 146 190 220 276 341
#
# _framework density 17.309342999999998
#
# number of rings (size 3 to 8) (size 9 to 14) (size 15 to 20)
#    0.000    1.667    3.333    3.500    7.000    0.000 
#    0.000    0.000    0.000    0.000    0.000    7.000 
#    0.000    0.167    0.000    0.000    0.000    0.000 
#
# Total GULP energy -297329.041026 kJ/mol
# GULP energy per Si atom -12388.710043 kJ/mol
# Density = 1.726995 g / cm^3
# Si number density = 17.309343 Si / 1000 Ang^3
#
#
#
# Elastic Constant Matrix: (Units=GPa)
#
#
# Indices 1 2 3 4 5 6 
#
# 1 66.5528 25.8423 42.9961 0.0027 -6.8108 0.0143
# 2 25.8423 78.3580 48.2255 0.0636 2.2283 -0.0365
# 3 42.9961 48.2255 173.4085 0.0751 -9.2272 -0.0675
# 4 0.0027 0.0636 0.0751 19.0800 -0.0165 4.3026
# 5 -6.8108 2.2283 -9.2272 -0.0165 31.7127 0.0105
# 6 0.0143 -0.0365 -0.0675 4.3026 0.0105 13.0190
#
#
#
# Elastic Compliance Matrix: (Units=1/GPa)
#
#
# Indices 1 2 3 4 5 6 
#
# 1 0.019258 -0.004373 -0.003375 0.000044 0.003461 -0.000068
# 2 -0.004373 0.016567 -0.003692 -0.000055 -0.003178 0.000053
# 3 -0.003375 -0.003692 0.007725 -0.000025 0.001782 0.000040
# 4 0.000044 -0.000055 -0.000025 0.056632 0.000042 -0.018717
# 5 0.003461 -0.003178 0.001782 0.000042 0.033018 -0.000044
# 6 -0.000068 0.000053 0.000040 -0.018717 -0.000044 0.082997
#
#
# Mechanical properties :
#
#
# Convention : Reuss Voigt Hill
#
# Bulk Modulus (GPa) = 48.37750 61.38301 54.88026
# Shear Modulus (GPa) = 20.32793 26.17938 23.25366
#
# Velocity S-wave (km/s) = 3.43066 3.89323 3.66924
# Velocity P-wave (km/s) = 6.61075 7.46653 7.05163
#
# Compressibility (1/GPa) = 0.02067076
#
# Stress axis : x y z
#
# Youngs Moduli (GPa) = 51.92626 60.36165 129.44740
#
# Poissons Ratio (x) = 0.26395 0.43685
# Poissons Ratio (y) = 0.22706 0.47793
# Poissons Ratio (z) = 0.17524 0.22286
#
# Static dielectric constant tensor:
#      x y z
#    x 3.587290 0.000180 0.255890 
#    y 0.000180 3.177100 -0.000160 
#    z 0.255890 -0.000160 4.558540 
# 
# 
# High freq. dielectric constant tensor:
#      x y z
#    x 1.665460 0.000000 -0.019140 
#    y 0.000000 1.623710 -0.000020 
#    z -0.019140 -0.000020 1.693220 
# 
# From -- ./inp_files/285569.got.cif
#   From: 2010.06.25/outbox.cif.g09.slc.cpg/sg12_143_cif.got.tgz:285569.got - 2010.06.28 00:19:55.
