data_PCOD8083624
_publ_section_title
;
Structure prediction by ZEFSAII (Michael W. Deem and Ramdas Pophale) SiO2 
 PCOD8083624
Probable space group: C 2/M
;
_chemical_formula_sum "Si O2"
_cell_formula_units_Z 56
_cell_length_a 19.261023
_cell_length_b 8.928716
_cell_length_c 28.596655
_cell_angle_alpha 90.000000
_cell_angle_beta 141.233542
_cell_angle_gamma 90.000000
_cell_volume 3079.358283
_symmetry_space_group_name_H-M "C 2/M"
_symmetry_group_IT_number 12
_symmetry_cell_setting 'monoclinic'
loop_
_space_group_symop_operation_xyz
x,y,z
-x,y,-z
-x,-y,-z
x,-y,z
1/2+x,1/2+y,z
1/2-x,1/2+y,-z
1/2-x,1/2-y,-z
1/2+x,1/2-y,z
loop_
_atom_site_type_symbol
_atom_site_label
_atom_site_fract_x
_atom_site_fract_y
_atom_site_fract_z
Si Si1 0.876797 0.828094 0.185362
Si Si2 0.124558 0.174421 0.308590
Si Si3 0.771598 0.824336 0.734726
Si Si4 0.848232 0.677897 0.580456
Si Si5 0.077786 0.175907 0.685125
Si Si6 0.562536 0.322496 0.100638
Si Si7 0.838480 0.823456 0.944399
O O1 0.871529 0.786970 0.237509
O O2 0.782448 0.740976 0.106858
O O3 0.997633 0.784206 0.228901
O O4 0.851674 0.000000 0.163617
O O5 0.202007 0.209297 0.305244
O O6 0.166518 0.274339 0.373372
O O7 0.129490 0.000000 0.326172
O O8 0.660935 0.734658 0.689190
O O9 0.874827 0.764441 0.820200
O O10 0.751878 0.000000 0.733313
O O11 0.844664 0.500000 0.574525
O O12 0.750000 0.750000 0.500000
O O13 0.962255 0.738307 0.618455
O O14 0.056525 0.000000 0.667648
O O15 0.562907 0.500000 0.099411
O O16 0.626475 0.263096 0.088420
O O17 0.433353 0.269101 0.031120
O O18 0.828475 0.000000 0.939574
#
# Coordination Sequence:
#
# PCOD8083624 Si02
#       7
#     8   8   8   8   8   8   8
#     4   9  17  30  46  69 101 137 175 220 269 311
#     4   9  20  36  54  78 110 142 174 216 265 316
#     4  10  18  33  55  77 105 144 184 218 263 319
#     4  11  22  39  63  86 109 137 171 209 253 310
#     4  10  20  34  54  81 111 139 174 219 261 308
#     4   8  15  26  44  71 100 133 175 225 270 307
#     4   9  15  26  45  69  97 131 180 230 265 308
#
# _framework density 18.185607000000001
#
# number of rings (size 3 to 8) (size 9 to 14) (size 15 to 20)
#    0.000    2.571    1.429    3.429    0.000    2.857 
#    0.000    3.571    0.000    4.286    0.000    0.000 
#    0.000    0.000    0.000    0.000    0.000    0.000 
#
# Total GULP energy -347104.322491 kJ/mol
# GULP energy per Si atom -12396.582946 kJ/mol
# Density = 1.814422 g / cm^3
# Si number density = 18.185607 Si / 1000 Ang^3
#
#
#
# Elastic Constant Matrix: (Units=GPa)
#
#
# Indices 1 2 3 4 5 6 
#
# 1 100.1395 45.5156 47.5956 0.0000 9.5437 0.0000
# 2 45.5156 81.5789 58.0750 0.0000 9.2926 0.0000
# 3 47.5956 58.0750 134.2169 0.0000 14.0199 0.0000
# 4 0.0000 0.0000 0.0000 29.7532 0.0000 5.9491
# 5 9.5437 9.2926 14.0199 0.0000 13.6688 0.0000
# 6 0.0000 0.0000 0.0000 5.9491 0.0000 25.1966
#
#
#
# Elastic Compliance Matrix: (Units=1/GPa)
#
#
# Indices 1 2 3 4 5 6 
#
# 1 0.013999 -0.005971 -0.001998 0.000000 -0.003666 0.000000
# 2 -0.005971 0.020533 -0.006434 0.000000 -0.003191 0.000000
# 3 -0.001998 -0.006434 0.011581 0.000000 -0.006110 0.000000
# 4 0.000000 0.000000 0.000000 0.035275 0.000000 -0.008329
# 5 -0.003666 -0.003191 -0.006110 0.000000 0.084155 0.000000
# 6 0.000000 0.000000 0.000000 -0.008329 0.000000 0.041654
#
#
# Mechanical properties :
#
#
# Convention : Reuss Voigt Hill
#
# Bulk Modulus (GPa) = 57.77561 68.70086 63.23823
# Shear Modulus (GPa) = 20.68069 24.70700 22.69385
#
# Velocity S-wave (km/s) = 3.37590 3.68992 3.53640
# Velocity P-wave (km/s) = 6.85817 7.48423 7.17803
#
# Compressibility (1/GPa) = 0.01730834
#
# Stress axis : x y z
#
# Youngs Moduli (GPa) = 71.43496 48.70217 86.34681
#
# Poissons Ratio (x) = 0.29078 0.17251
# Poissons Ratio (y) = 0.42651 0.55555
# Poissons Ratio (z) = 0.14272 0.31334
#
# Static dielectric constant tensor:
#      x y z
#    x 1.645590 0.000000 -0.571590 
#    y 0.000000 3.154930 0.000000 
#    z -0.571590 0.000000 3.191570 
# 
# 
# High freq. dielectric constant tensor:
#      x y z
#    x 1.685890 0.000000 0.015670 
#    y 0.000000 1.687940 0.000000 
#    z 0.015670 0.000000 1.704550 
# 
# From -- ./inp_files/345473.got.cif
#   From: 2010.06.25/outbox.cif.g09.slc.cpg/sg12_173_cif.got.tgz:345473.got - 2010.06.28 00:19:55.
