data_PCOD8083491
_publ_section_title
;
Structure prediction by ZEFSAII (Michael W. Deem and Ramdas Pophale) SiO2 
 PCOD8083491
Probable space group: C 2/M
;
_chemical_formula_sum "Si O2"
_cell_formula_units_Z 40
_cell_length_a 19.387227
_cell_length_b 11.515177
_cell_length_c 17.770183
_cell_angle_alpha 90.000000
_cell_angle_beta 151.717752
_cell_angle_gamma 90.000000
_cell_volume 1879.694947
_symmetry_space_group_name_H-M "C 2/M"
_symmetry_group_IT_number 12
_symmetry_cell_setting 'monoclinic'
loop_
_space_group_symop_operation_xyz
x,y,z
-x,y,-z
-x,-y,-z
x,-y,z
1/2+x,1/2+y,z
1/2-x,1/2+y,-z
1/2-x,1/2-y,-z
1/2+x,1/2-y,z
loop_
_atom_site_type_symbol
_atom_site_label
_atom_site_fract_x
_atom_site_fract_y
_atom_site_fract_z
Si Si1 0.868625 0.717239 0.713103
Si Si2 0.333767 0.367803 0.818985
Si Si3 0.941917 0.500000 0.858834
Si Si4 0.073559 0.863408 0.366414
Si Si5 0.329944 0.500000 0.319650
Si Si6 0.892879 0.230169 0.326303
O O1 0.794557 0.786581 0.710736
O O2 0.981887 0.618080 0.852364
O O3 0.955447 0.809347 0.744368
O O4 0.744151 0.650586 0.547040
O O5 0.306144 0.500000 0.769413
O O6 0.223948 0.335668 0.782541
O O7 0.500000 0.345754 0.000000
O O8 0.763454 0.500000 0.693322
O O9 0.000000 0.500000 0.000000
O O10 0.980705 0.781582 0.333337
O O11 0.028622 0.000000 0.326003
O O12 0.500000 0.500000 0.500000
O O13 0.292871 0.614399 0.236644
O O14 0.000000 0.243119 0.500000
#
# Coordination Sequence:
#
# PCOD8083491 Si02
#       6
#     8   8   4   8   4   8
#     4  11  22  39  61  94 129 171 212 262 328 383
#     4  11  24  42  62  86 125 170 213 261 323 389
#     4  12  22  38  68  96 127 162 222 271 303 375
#     4  11  22  39  63  94 134 169 208 269 329 380
#     4  10  18  32  64  92 122 148 209 267 309 358
#     4  11  20  37  63  94 121 160 218 268 312 376
#
# _framework density 21.280048000000001
#
# number of rings (size 3 to 8) (size 9 to 14) (size 15 to 20)
#    0.000    1.000    6.000    2.400    0.000    0.400 
#    1.800    1.000    0.000    0.000    0.000    0.000 
#    0.000    0.000    0.000    0.000    0.000    0.000 
#
# Total GULP energy -247860.881058 kJ/mol
# GULP energy per Si atom -12393.044053 kJ/mol
# Density = 2.123161 g / cm^3
# Si number density = 21.280048 Si / 1000 Ang^3
#
#
#
# Elastic Constant Matrix: (Units=GPa)
#
#
# Indices 1 2 3 4 5 6 
#
# 1 121.9130 44.1555 26.9058 -0.0002 -5.6278 -0.0002
# 2 44.1555 133.8091 44.8119 -0.0003 -8.6896 -0.0006
# 3 26.9058 44.8119 54.6990 -0.0004 -5.2394 -0.0007
# 4 -0.0002 -0.0003 -0.0004 24.9018 -0.0003 -2.5842
# 5 -5.6278 -8.6896 -5.2394 -0.0003 28.6067 -0.0004
# 6 -0.0002 -0.0006 -0.0007 -2.5842 -0.0004 38.0570
#
#
#
# Elastic Compliance Matrix: (Units=1/GPa)
#
#
# Indices 1 2 3 4 5 6 
#
# 1 0.009663 -0.002168 -0.002908 0.000000 0.000710 0.000000
# 2 -0.002168 0.010859 -0.007689 0.000000 0.001464 0.000000
# 3 -0.002908 -0.007689 0.026193 0.000000 0.001889 0.000000
# 4 0.000000 0.000000 0.000000 0.040443 0.000000 0.002746
# 5 0.000710 0.001464 0.001889 0.000000 0.035887 0.000000
# 6 0.000000 0.000000 0.000000 0.002746 0.000000 0.026463
#
#
# Mechanical properties :
#
#
# Convention : Reuss Voigt Hill
#
# Bulk Modulus (GPa) = 47.20984 60.24083 53.72534
# Shear Modulus (GPa) = 27.45733 31.28295 29.37014
#
# Velocity S-wave (km/s) = 3.59595 3.83830 3.71910
# Velocity P-wave (km/s) = 6.28286 6.92917 6.61391
#
# Compressibility (1/GPa) = 0.02118202
#
# Stress axis : x y z
#
# Youngs Moduli (GPa) = 103.49180 92.08882 38.17812
#
# Poissons Ratio (x) = 0.19969 0.11104
# Poissons Ratio (y) = 0.22442 0.29357
# Poissons Ratio (z) = 0.30100 0.70811
#
# Static dielectric constant tensor:
#      x y z
#    x 3.906460 0.000000 -0.000040 
#    y 0.000000 4.320700 0.000000 
#    z -0.000040 0.000000 3.578900 
# 
# 
# High freq. dielectric constant tensor:
#      x y z
#    x 1.825690 0.000000 0.002420 
#    y 0.000000 1.846050 0.000000 
#    z 0.002420 0.000000 1.802530 
# 
# From -- ./inp_files/283427.got.cif
#   From: 2010.06.25/outbox.cif.g09.slc.cpg/sg12_142_cif.got.tgz:283427.got - 2010.06.28 00:19:55.
