data_PCOD8083320
_publ_section_title
;
Structure prediction by ZEFSAII (Michael W. Deem and Ramdas Pophale) SiO2 
 PCOD8083320
Probable space group: C 2/M
;
_chemical_formula_sum "Si O2"
_cell_formula_units_Z 64
_cell_length_a 28.601395
_cell_length_b 9.112433
_cell_length_c 15.339997
_cell_angle_alpha 90.000000
_cell_angle_beta 56.908381
_cell_angle_gamma 90.000000
_cell_volume 3349.549988
_symmetry_space_group_name_H-M "C 2/M"
_symmetry_group_IT_number 12
_symmetry_cell_setting 'monoclinic'
loop_
_space_group_symop_operation_xyz
x,y,z
-x,y,-z
-x,-y,-z
x,-y,z
1/2+x,1/2+y,z
1/2-x,1/2+y,-z
1/2-x,1/2-y,-z
1/2+x,1/2-y,z
loop_
_atom_site_type_symbol
_atom_site_label
_atom_site_fract_x
_atom_site_fract_y
_atom_site_fract_z
Si Si1 0.369981 0.168591 0.972659
Si Si2 0.132045 0.173156 0.530293
Si Si3 0.861776 0.826911 0.283925
Si Si4 0.936182 0.825659 0.563332
Si Si5 0.137501 0.330586 0.218129
Si Si6 0.747815 0.668615 0.148634
Si Si7 0.750838 0.331415 0.350963
Si Si8 0.562892 0.325843 0.950470
O O1 0.386254 0.187269 0.855250
O O2 0.373515 0.000000 0.999561
O O3 0.307140 0.226281 0.052800
O O4 0.413927 0.261203 0.983485
O O5 0.112578 0.217149 0.647659
O O6 0.089139 0.234847 0.501968
O O7 0.194171 0.233872 0.449719
O O8 0.134407 0.000000 0.516105
O O9 0.800536 0.762179 0.339437
O O10 0.901462 0.764920 0.167601
O O11 0.856297 0.000000 0.281362
O O12 0.903366 0.756794 0.677128
O O13 0.000000 0.773964 0.500000
O O14 0.930672 0.000000 0.577713
O O15 0.139486 0.500000 0.244310
O O16 0.199984 0.267830 0.155475
O O17 0.737449 0.500000 0.131977
O O18 0.746586 0.688340 0.252673
O O19 0.760810 0.500000 0.366582
O O20 0.565901 0.500000 0.953895
O O21 0.500000 0.271319 0.000000
#
# Coordination Sequence:
#
# PCOD8083320 Si02
#       8
#     8   8   8   8   8   8   8   8
#     4  10  22  39  58  83 114 151 188 229 283 340
#     4   9  18  34  54  80 110 139 175 223 274 327
#     4  10  20  34  54  79 110 141 176 225 277 328
#     4  10  21  39  62  83 107 149 196 230 273 334
#     4  11  23  37  57  86 118 147 183 234 288 335
#     4  10  19  35  59  83 112 148 188 229 276 341
#     4  10  18  32  56  80 109 142 176 221 272 332
#     4  10  22  38  56  81 111 145 188 237 281 325
#
# _framework density 19.107043999999998
#
# number of rings (size 3 to 8) (size 9 to 14) (size 15 to 20)
#    0.000    2.000    2.500    1.125    0.000    3.500 
#    0.000    3.125    0.000    0.000    0.000    0.000 
#    0.000    0.000    0.000    0.000    0.000    0.000 
#
# Total GULP energy -396848.100535 kJ/mol
# GULP energy per Si atom -12401.503142 kJ/mol
# Density = 1.906356 g / cm^3
# Si number density = 19.107044 Si / 1000 Ang^3
#
#
#
# Elastic Constant Matrix: (Units=GPa)
#
#
# Indices 1 2 3 4 5 6 
#
# 1 148.1622 37.2600 66.1465 0.0000 -5.8597 0.0000
# 2 37.2600 34.7774 22.2038 0.0000 2.5093 0.0000
# 3 66.1465 22.2038 77.8670 0.0000 10.9463 0.0000
# 4 0.0000 0.0000 0.0000 25.0610 0.0000 0.5229
# 5 -5.8597 2.5093 10.9463 0.0000 27.4900 0.0000
# 6 0.0000 0.0000 0.0000 0.5229 0.0000 27.7177
#
#
#
# Elastic Compliance Matrix: (Units=1/GPa)
#
#
# Indices 1 2 3 4 5 6 
#
# 1 0.013953 -0.008854 -0.010444 0.000000 0.007941 0.000000
# 2 -0.008854 0.040790 -0.003519 0.000000 -0.004209 0.000000
# 3 -0.010444 -0.003519 0.024349 0.000000 -0.011601 0.000000
# 4 0.000000 0.000000 0.000000 0.039918 0.000000 -0.000753
# 5 0.007941 -0.004209 -0.011601 0.000000 0.043073 0.000000
# 6 0.000000 0.000000 0.000000 -0.000753 0.000000 0.036092
#
#
# Mechanical properties :
#
#
# Convention : Reuss Voigt Hill
#
# Bulk Modulus (GPa) = 29.88768 56.89189 43.38978
# Shear Modulus (GPa) = 19.61080 25.06682 22.33881
#
# Velocity S-wave (km/s) = 3.20717 3.62597 3.42298
# Velocity P-wave (km/s) = 5.42133 6.88260 6.19520
#
# Compressibility (1/GPa) = 0.03345861
#
# Stress axis : x y z
#
# Youngs Moduli (GPa) = 71.67034 24.51575 41.06971
#
# Poissons Ratio (x) = 0.21705 0.42895
# Poissons Ratio (y) = 0.63453 0.14451
# Poissons Ratio (z) = 0.74855 0.08626
#
# Static dielectric constant tensor:
#      x y z
#    x 3.626370 0.000000 0.061700 
#    y 0.000000 3.271690 0.000000 
#    z 0.061700 0.000000 3.679580 
# 
# 
# High freq. dielectric constant tensor:
#      x y z
#    x 1.744780 0.000000 0.007010 
#    y 0.000000 1.719480 0.000000 
#    z 0.007010 0.000000 1.755320 
# 
# From -- ./inp_files/249094.got.cif
#   From: 2010.06.25/outbox.cif.g09.slc.cpg/sg12_125_cif.got.tgz:249094.got - 2010.06.28 00:19:55.
