data_PCOD8083483
_publ_section_title
;
Structure prediction by ZEFSAII (Michael W. Deem and Ramdas Pophale) SiO2 
 PCOD8083483
Probable space group: C 2/M
;
_chemical_formula_sum "Si O2"
_cell_formula_units_Z 64
_cell_length_a 18.957365
_cell_length_b 14.186953
_cell_length_c 25.055337
_cell_angle_alpha 90.000000
_cell_angle_beta 151.750982
_cell_angle_gamma 90.000000
_cell_volume 3189.393081
_symmetry_space_group_name_H-M "C 2/M"
_symmetry_group_IT_number 12
_symmetry_cell_setting 'monoclinic'
loop_
_space_group_symop_operation_xyz
x,y,z
-x,y,-z
-x,-y,-z
x,-y,z
1/2+x,1/2+y,z
1/2-x,1/2+y,-z
1/2-x,1/2-y,-z
1/2+x,1/2-y,z
loop_
_atom_site_type_symbol
_atom_site_label
_atom_site_fract_x
_atom_site_fract_y
_atom_site_fract_z
Si Si1 0.860461 0.394357 0.788362
Si Si2 0.472694 0.392354 0.420679
Si Si3 0.119136 0.739928 0.804685
Si Si4 0.066758 0.788632 0.221795
Si Si5 0.101392 0.264546 0.434073
Si Si6 0.207350 0.109248 0.003769
Si Si7 0.861292 0.389075 0.442431
Si Si8 0.329967 0.895019 0.967880
O O1 0.865024 0.500000 0.765626
O O2 0.701279 0.377652 0.710096
O O3 0.887796 0.318466 0.760473
O O4 0.991082 0.385925 0.920022
O O5 0.500000 0.361833 0.500000
O O6 0.522795 0.500000 0.445348
O O7 0.573361 0.330000 0.449145
O O8 0.245420 0.818459 0.875554
O O9 0.997818 0.790662 0.761576
O O10 0.039320 0.710360 0.697057
O O11 0.191904 0.648719 0.880986
O O12 0.211642 0.853243 0.314650
O O13 0.946161 0.831360 0.100084
O O14 0.250000 0.250000 0.500000
O O15 0.122131 0.352527 0.486569
O O16 0.296405 0.125039 0.008164
O O17 0.172260 0.000000 0.991127
O O18 0.854736 0.500000 0.440796
O O19 0.000000 0.352704 0.500000
O O20 0.275289 0.000000 0.915401
#
# Coordination Sequence:
#
# PCOD8083483 Si02
#       8
#     8   8   8   8   8   8   8   8
#     4  10  18  32  61  92 121 156 204 255 303 362
#     4  10  23  42  65  93 125 166 212 259 312 379
#     4  11  21  35  56  87 129 162 197 252 317 376
#     4  11  18  36  62  91 124 159 211 262 307 366
#     4  12  25  42  62  92 130 166 204 257 323 380
#     4  10  19  32  54  88 125 164 208 256 306 360
#     4  11  25  45  67  89 117 165 221 263 306 371
#     4   9  17  32  55  87 122 161 205 248 301 370
#
# _framework density 20.066514000000002
#
# number of rings (size 3 to 8) (size 9 to 14) (size 15 to 20)
#    0.000    1.500    3.750    3.000    0.000    2.000 
#    0.000    0.625    0.000    2.250    0.000    3.500 
#    0.000    0.000    0.000    0.000    0.000    0.000 
#
# Total GULP energy -396852.773922 kJ/mol
# GULP energy per Si atom -12401.649185 kJ/mol
# Density = 2.002084 g / cm^3
# Si number density = 20.066514 Si / 1000 Ang^3
#
#
#
# Elastic Constant Matrix: (Units=GPa)
#
#
# Indices 1 2 3 4 5 6 
#
# 1 74.5195 38.1195 45.2248 -0.0011 12.7126 -0.0007
# 2 38.1195 104.6877 46.0793 -0.0045 9.0702 -0.0022
# 3 45.2248 46.0793 129.5929 -0.0089 5.8752 -0.0046
# 4 -0.0011 -0.0045 -0.0089 31.3446 -0.0011 3.2350
# 5 12.7126 9.0702 5.8752 -0.0011 34.7666 -0.0003
# 6 -0.0007 -0.0022 -0.0046 3.2350 -0.0003 18.5411
#
#
#
# Elastic Compliance Matrix: (Units=1/GPa)
#
#
# Indices 1 2 3 4 5 6 
#
# 1 0.019649 -0.004496 -0.005024 -0.000001 -0.005163 -0.000001
# 2 -0.004496 0.012537 -0.002837 0.000001 -0.001148 0.000000
# 3 -0.005024 -0.002837 0.010442 0.000002 0.000813 0.000002
# 4 -0.000001 0.000001 0.000002 0.032488 0.000001 -0.005668
# 5 -0.005163 -0.001148 0.000813 0.000001 0.030813 0.000000
# 6 -0.000001 0.000000 0.000002 -0.005668 0.000000 0.054923
#
#
# Mechanical properties :
#
#
# Convention : Reuss Voigt Hill
#
# Bulk Modulus (GPa) = 55.82289 63.07190 59.44739
# Shear Modulus (GPa) = 26.10436 28.88889 27.49662
#
# Velocity S-wave (km/s) = 3.61070 3.79840 3.70574
# Velocity P-wave (km/s) = 6.72772 7.12297 6.92817
#
# Compressibility (1/GPa) = 0.01791380
#
# Stress axis : x y z
#
# Youngs Moduli (GPa) = 50.89290 79.76123 95.76940
#
# Poissons Ratio (x) = 0.35860 0.48118
# Poissons Ratio (y) = 0.22881 0.27169
# Poissons Ratio (z) = 0.25571 0.22628
#
# Static dielectric constant tensor:
#      x y z
#    x 3.278660 0.000000 0.227590 
#    y 0.000000 3.704880 -0.000010 
#    z 0.227590 -0.000010 3.944360 
# 
# 
# High freq. dielectric constant tensor:
#      x y z
#    x 1.745510 0.000000 0.019870 
#    y 0.000000 1.791790 0.000000 
#    z 0.019870 0.000000 1.798820 
# 
# From -- ./inp_files/344069.got.cif
#   From: 2010.06.25/outbox.cif.g09.slc.cpg/sg12_173_cif.got.tgz:344069.got - 2010.06.28 00:19:55.
