data_PCOD8083227
_publ_section_title
;
Structure prediction by ZEFSAII (Michael W. Deem and Ramdas Pophale) SiO2 
 PCOD8083227
Probable space group: C 2/M
;
_chemical_formula_sum "Si O2"
_cell_formula_units_Z 40
_cell_length_a 13.743101
_cell_length_b 18.121195
_cell_length_c 12.593931
_cell_angle_alpha 90.000000
_cell_angle_beta 134.979418
_cell_angle_gamma 90.000000
_cell_volume 2218.573578
_symmetry_space_group_name_H-M "C 2/M"
_symmetry_group_IT_number 12
_symmetry_cell_setting 'monoclinic'
loop_
_space_group_symop_operation_xyz
x,y,z
-x,y,-z
-x,-y,-z
x,-y,z
1/2+x,1/2+y,z
1/2-x,1/2+y,-z
1/2-x,1/2-y,-z
1/2+x,1/2-y,z
loop_
_atom_site_type_symbol
_atom_site_label
_atom_site_fract_x
_atom_site_fract_y
_atom_site_fract_z
Si Si1 0.662694 0.167306 0.119297
Si Si2 0.161499 0.165561 0.141423
Si Si3 0.795385 0.914853 0.030995
Si Si4 0.115908 0.084346 0.310013
Si Si5 0.852571 0.913431 0.425704
O O1 0.715065 0.251449 0.168415
O O2 0.704602 0.133738 0.039369
O O3 0.728342 0.123245 0.267024
O O4 0.500000 0.162375 0.000000
O O5 0.194058 0.135900 0.285023
O O6 0.234817 0.113377 0.111400
O O7 0.000000 0.159902 0.000000
O O8 0.952901 0.903107 0.184906
O O9 0.751478 0.000000 0.005820
O O10 0.171074 0.104874 0.468943
O O11 0.149039 0.000000 0.305814
O O12 0.000000 0.882427 0.500000
O O13 0.846970 0.000000 0.398253
#
# Coordination Sequence:
#
# PCOD8083227 Si02
#       5
#     8   8   8   8   8
#     4  11  22  34  51  80 111 141 167 210 265 319
#     4   9  19  33  51  78 109 137 171 216 263 309
#     4  10  18  32  55  78 103 137 178 218 256 303
#     4   9  17  32  56  80 101 132 179 224 257 297
#     4  10  19  34  55  79 104 136 177 218 255 299
#
# _framework density 18.029602000000001
#
# number of rings (size 3 to 8) (size 9 to 14) (size 15 to 20)
#    0.000    2.200    2.000    1.800    0.000    4.800 
#    0.000    0.000    0.000    0.000    0.000    4.200 
#    0.000    0.000    0.000    0.000    0.000    0.000 
#
# Total GULP energy -248022.330835 kJ/mol
# GULP energy per Si atom -12401.116542 kJ/mol
# Density = 1.798857 g / cm^3
# Si number density = 18.029602 Si / 1000 Ang^3
#
#
#
# Elastic Constant Matrix: (Units=GPa)
#
#
# Indices 1 2 3 4 5 6 
#
# 1 88.8294 65.4480 40.6813 0.0000 -31.4753 0.0000
# 2 65.4480 109.9284 39.3604 0.0000 -21.7306 0.0000
# 3 40.6813 39.3604 86.5097 0.0000 -15.1851 0.0000
# 4 0.0000 0.0000 0.0000 11.4464 0.0000 -2.8814
# 5 -31.4753 -21.7306 -15.1851 0.0000 27.4874 0.0000
# 6 0.0000 0.0000 0.0000 -2.8814 0.0000 32.1007
#
#
#
# Elastic Compliance Matrix: (Units=1/GPa)
#
#
# Indices 1 2 3 4 5 6 
#
# 1 0.030108 -0.011732 -0.004869 0.000000 0.022511 0.000000
# 2 -0.011732 0.016595 -0.002313 0.000000 -0.001592 0.000000
# 3 -0.004869 -0.002313 0.015062 0.000000 0.000917 0.000000
# 4 0.000000 0.000000 0.000000 0.089383 0.000000 0.008023
# 5 0.022511 -0.001592 0.000917 0.000000 0.061405 0.000000
# 6 0.000000 0.000000 0.000000 0.008023 0.000000 0.031872
#
#
# Mechanical properties :
#
#
# Convention : Reuss Voigt Hill
#
# Bulk Modulus (GPa) = 41.77560 64.02744 52.90152
# Shear Modulus (GPa) = 17.22758 23.52542 20.37650
#
# Velocity S-wave (km/s) = 3.09450 3.61615 3.36545
# Velocity P-wave (km/s) = 5.99906 7.28182 6.67134
#
# Compressibility (1/GPa) = 0.02393742
#
# Stress axis : x y z
#
# Youngs Moduli (GPa) = 33.21413 60.25895 66.39043
#
# Poissons Ratio (x) = 0.70695 0.32325
# Poissons Ratio (y) = 0.38966 0.15356
# Poissons Ratio (z) = 0.16172 0.13938
#
# Static dielectric constant tensor:
#      x y z
#    x 3.275050 0.000000 -0.308330 
#    y 0.000000 3.448850 0.000000 
#    z -0.308330 0.000000 3.231720 
# 
# 
# High freq. dielectric constant tensor:
#      x y z
#    x 1.687110 0.000000 -0.032220 
#    y 0.000000 1.702600 0.000000 
#    z -0.032220 0.000000 1.684280 
# 
# From -- ./inp_files/46940.got.cif
#   From: 2010.06.25/outbox.cif.g09.slc.cpg/sg12_24_cif.got.tgz:46940.got - 2010.06.28 00:19:55.
