data_PCOD8083711
_publ_section_title
;
Structure prediction by ZEFSAII (Michael W. Deem and Ramdas Pophale) SiO2 
 PCOD8083711
Probable space group: C 2/M
;
_chemical_formula_sum "Si O2"
_cell_formula_units_Z 32
_cell_length_a 13.649807
_cell_length_b 16.115181
_cell_length_c 7.373023
_cell_angle_alpha 90.000000
_cell_angle_beta 45.389580
_cell_angle_gamma 90.000000
_cell_volume 1154.583286
_symmetry_space_group_name_H-M "C 2/M"
_symmetry_group_IT_number 12
_symmetry_cell_setting 'monoclinic'
loop_
_space_group_symop_operation_xyz
x,y,z
-x,y,-z
-x,-y,-z
x,-y,z
1/2+x,1/2+y,z
1/2-x,1/2+y,-z
1/2-x,1/2-y,-z
1/2+x,1/2-y,z
loop_
_atom_site_type_symbol
_atom_site_label
_atom_site_fract_x
_atom_site_fract_y
_atom_site_fract_z
Si Si1 0.492533 0.903735 0.806221
Si Si2 0.752062 0.685779 0.659740
Si Si3 0.206346 0.837724 0.163786
Si Si4 0.958396 0.902684 0.282673
O O1 0.607482 0.865318 0.527727
O O2 0.523649 0.000000 0.771819
O O3 0.500000 0.865284 0.000000
O O4 0.342815 0.884807 0.919646
O O5 0.750000 0.750000 0.500000
O O6 0.759678 0.739639 0.837365
O O7 0.616830 0.626029 0.808610
O O8 0.096242 0.849163 0.143630
O O9 0.150186 0.884466 0.415175
O O10 0.991550 0.000000 0.231594
#
# Coordination Sequence:
#
# PCOD8083711 Si02
#       4
#     8   8   8   8
#     4  11  19  32  56  84 110 146 195 239 279 341
#     4  10  20  33  51  84 117 147 182 239 298 336
#     4  10  20  34  53  82 118 146 183 241 295 333
#     4  10  18  33  56  83 110 147 194 238 280 341
#
# _framework density 27.715626
#
# number of rings (size 3 to 8) (size 9 to 14) (size 15 to 20)
#    0.000    1.750    5.000    3.750    0.000    0.000 
#    0.000   13.750    0.000    0.000    0.000  136.500 
#    0.000    0.000    0.000    0.000    0.000    0.000 
#
# Total GULP energy -198544.193282 kJ/mol
# GULP energy per Si atom -12409.012080 kJ/mol
# Density = 2.765254 g / cm^3
# Si number density = 27.715626 Si / 1000 Ang^3
#
#
#
# Elastic Constant Matrix: (Units=GPa)
#
#
# Indices 1 2 3 4 5 6 
#
# 1 182.5877 68.3389 102.6745 0.0000 -0.6204 0.0000
# 2 68.3389 180.1746 66.4109 0.0000 -13.3228 0.0000
# 3 102.6745 66.4109 142.4891 0.0001 -49.2964 -0.0001
# 4 0.0000 0.0000 0.0001 54.8265 -0.0001 -12.1420
# 5 -0.6204 -13.3228 -49.2964 -0.0001 63.4928 0.0000
# 6 0.0000 0.0000 -0.0001 -12.1420 0.0000 46.1953
#
#
#
# Elastic Compliance Matrix: (Units=1/GPa)
#
#
# Indices 1 2 3 4 5 6 
#
# 1 0.012318 -0.001107 -0.011483 0.000000 -0.009028 0.000000
# 2 -0.001107 0.006892 -0.002623 0.000000 -0.000601 0.000000
# 3 -0.011483 -0.002623 0.022267 0.000000 0.016626 0.000000
# 4 0.000000 0.000000 0.000000 0.019367 0.000000 0.005090
# 5 -0.009028 -0.000601 0.016626 0.000000 0.028444 0.000000
# 6 0.000000 0.000000 0.000000 0.005090 0.000000 0.022985
#
#
# Mechanical properties :
#
#
# Convention : Reuss Voigt Hill
#
# Bulk Modulus (GPa) = 90.48554 108.90002 99.69278
# Shear Modulus (GPa) = 34.15715 50.75806 42.45761
#
# Velocity S-wave (km/s) = 3.51439 4.28411 3.91820
# Velocity P-wave (km/s) = 7.01332 7.99054 7.51782
#
# Compressibility (1/GPa) = 0.01105149
#
# Stress axis : x y z
#
# Youngs Moduli (GPa) = 81.18288 145.09060 44.90963
#
# Poissons Ratio (x) = 0.16061 0.51571
# Poissons Ratio (y) = 0.08987 0.11778
# Poissons Ratio (z) = 0.93225 0.38050
#
# Static dielectric constant tensor:
#      x y z
#    x 6.055040 0.000000 0.153600 
#    y 0.000000 5.137610 0.000000 
#    z 0.153600 0.000000 5.333310 
# 
# 
# High freq. dielectric constant tensor:
#      x y z
#    x 2.151310 0.000000 0.016420 
#    y 0.000000 2.121150 0.000000 
#    z 0.016420 0.000000 2.156940 
# 
# From -- ./inp_files/156445.got.cif
#   From: 2010.06.25/outbox.cif.g09.slc.cpg/sg12_79_cif.got.tgz:156445.got - 2010.06.28 00:19:55.
