data_PCOD8083293
_publ_section_title
;
Structure prediction by ZEFSAII (Michael W. Deem and Ramdas Pophale) SiO2 
 PCOD8083293
Probable space group: C 2/M
;
_chemical_formula_sum "Si O2"
_cell_formula_units_Z 56
_cell_length_a 9.148706
_cell_length_b 19.671812
_cell_length_c 18.413838
_cell_angle_alpha 90.000000
_cell_angle_beta 63.818770
_cell_angle_gamma 90.000000
_cell_volume 2973.964989
_symmetry_space_group_name_H-M "C 2/M"
_symmetry_group_IT_number 12
_symmetry_cell_setting 'monoclinic'
loop_
_space_group_symop_operation_xyz
x,y,z
-x,y,-z
-x,-y,-z
x,-y,z
1/2+x,1/2+y,z
1/2-x,1/2+y,-z
1/2-x,1/2-y,-z
1/2+x,1/2-y,z
loop_
_atom_site_type_symbol
_atom_site_label
_atom_site_fract_x
_atom_site_fract_y
_atom_site_fract_z
Si Si1 0.350279 0.837291 0.832211
Si Si2 0.472387 0.312965 0.339710
Si Si3 0.477054 0.299605 0.174903
Si Si4 0.838671 0.818740 0.995484
Si Si5 0.390456 0.421422 0.591162
Si Si6 0.510540 0.920315 0.673619
Si Si7 0.397521 0.808520 0.594750
O O1 0.477456 0.780244 0.830626
O O2 0.267998 0.866668 0.926183
O O3 0.446129 0.895269 0.766648
O O4 0.209154 0.805721 0.811762
O O5 0.499988 0.327889 0.249542
O O6 0.540805 0.382247 0.355826
O O7 0.566445 0.248086 0.351861
O O8 0.283381 0.300766 0.395683
O O9 0.600277 0.345583 0.096943
O O10 0.750000 0.750000 0.000000
O O11 0.000000 0.794875 0.000000
O O12 0.500000 0.396457 0.500000
O O13 0.417774 0.500000 0.600833
O O14 0.201128 0.404265 0.621531
O O15 0.422096 0.882053 0.626599
O O16 0.472422 0.000000 0.675207
O O17 0.500000 0.797942 0.500000
#
# Coordination Sequence:
#
# PCOD8083293 Si02
#       7
#     8   8   8   8   8   8   8
#     4  10  19  35  54  85 114 142 181 229 279 334
#     4  12  21  36  58  85 114 144 183 232 283 335
#     4  10  18  32  55  85 112 143 178 227 280 331
#     4   8  16  29  51  78 114 138 174 221 273 332
#     4  10  23  42  60  79 108 150 194 234 281 337
#     4  11  23  39  58  79 110 153 194 235 284 337
#     4  12  24  37  56  84 114 147 186 236 286 334
#
# _framework density 18.830081
#
# number of rings (size 3 to 8) (size 9 to 14) (size 15 to 20)
#    0.000    1.571    2.857    2.571    2.000    0.857 
#    0.000    0.000    0.000    4.714    0.000    2.000 
#    0.000    0.000    0.000    0.000    0.000    0.000 
#
# Total GULP energy -346874.385312 kJ/mol
# GULP energy per Si atom -12388.370904 kJ/mol
# Density = 1.878722 g / cm^3
# Si number density = 18.830081 Si / 1000 Ang^3
#
#
#
# Elastic Constant Matrix: (Units=GPa)
#
#
# Indices 1 2 3 4 5 6 
#
# 1 62.3560 36.7736 5.2850 0.0000 -6.2951 0.0000
# 2 36.7736 60.4683 35.8786 0.0000 1.8070 0.0000
# 3 5.2850 35.8786 124.9542 0.0000 -4.2974 0.0000
# 4 0.0000 0.0000 0.0000 14.8324 0.0000 1.0795
# 5 -6.2951 1.8070 -4.2974 0.0000 29.8962 0.0000
# 6 0.0000 0.0000 0.0000 1.0795 0.0000 25.6887
#
#
#
# Elastic Compliance Matrix: (Units=1/GPa)
#
#
# Indices 1 2 3 4 5 6 
#
# 1 0.028529 -0.020532 0.004963 0.000000 0.007961 0.000000
# 2 -0.020532 0.034835 -0.009401 0.000000 -0.007780 0.000000
# 3 0.004963 -0.009401 0.010600 0.000000 0.003137 0.000000
# 4 0.000000 0.000000 0.000000 0.067627 0.000000 -0.002842
# 5 0.007961 -0.007780 0.003137 0.000000 0.036047 0.000000
# 6 0.000000 0.000000 0.000000 -0.002842 0.000000 0.039047
#
#
# Mechanical properties :
#
#
# Convention : Reuss Voigt Hill
#
# Bulk Modulus (GPa) = 41.62824 44.85033 43.23929
# Shear Modulus (GPa) = 18.20611 25.40621 21.80616
#
# Velocity S-wave (km/s) = 3.11282 3.67718 3.40670
# Velocity P-wave (km/s) = 5.92240 6.47294 6.20378
#
# Compressibility (1/GPa) = 0.02402215
#
# Stress axis : x y z
#
# Youngs Moduli (GPa) = 35.05264 28.70692 94.33616
#
# Poissons Ratio (x) = 0.58941 -0.46815
# Poissons Ratio (y) = 0.71970 0.88689
# Poissons Ratio (z) = -0.17395 0.26989
#
# Static dielectric constant tensor:
#      x y z
#    x 3.627390 0.000000 -0.175710 
#    y 0.000000 3.049360 0.000000 
#    z -0.175710 0.000000 4.217210 
# 
# 
# High freq. dielectric constant tensor:
#      x y z
#    x 1.742980 0.000000 -0.009000 
#    y 0.000000 1.683060 0.000000 
#    z -0.009000 0.000000 1.763430 
# 
# From -- ./inp_files/257018.got.cif
#   From: 2010.06.25/outbox.cif.g09.slc.cpg/sg12_129_cif.got.tgz:257018.got - 2010.06.28 00:19:55.
