data_PCOD8083967
_publ_section_title
;
Structure prediction by ZEFSAII (Michael W. Deem and Ramdas Pophale) SiO2 
 PCOD8083967
Probable space group: C 2/M
;
_chemical_formula_sum "Si O2"
_cell_formula_units_Z 64
_cell_length_a 9.102890
_cell_length_b 23.233910
_cell_length_c 17.449308
_cell_angle_alpha 90.000000
_cell_angle_beta 91.083641
_cell_angle_gamma 90.000000
_cell_volume 3689.794053
_symmetry_space_group_name_H-M "C 2/M"
_symmetry_group_IT_number 12
_symmetry_cell_setting 'monoclinic'
loop_
_space_group_symop_operation_xyz
x,y,z
-x,y,-z
-x,-y,-z
x,-y,z
1/2+x,1/2+y,z
1/2-x,1/2+y,-z
1/2-x,1/2-y,-z
1/2+x,1/2-y,z
loop_
_atom_site_type_symbol
_atom_site_label
_atom_site_fract_x
_atom_site_fract_y
_atom_site_fract_z
Si Si1 0.637549 0.434028 0.696839
Si Si2 0.130837 0.767326 0.557236
Si Si3 0.123103 0.641337 0.597561
Si Si4 0.190774 0.066725 0.287784
Si Si5 0.290290 0.123881 0.571269
Si Si6 0.825731 0.568562 0.838400
Si Si7 0.335208 0.568547 0.009684
Si Si8 0.150532 0.433850 0.867438
O O1 0.619540 0.500000 0.717721
O O2 0.473243 0.408606 0.701694
O O3 0.704043 0.428202 0.611484
O O4 0.747793 0.406052 0.760925
O O5 0.250000 0.750000 0.500000
O O6 0.104182 0.710652 0.609234
O O7 0.198898 0.821024 0.604775
O O8 0.000000 0.786542 0.500000
O O9 0.204157 0.610204 0.666664
O O10 0.212872 0.624148 0.521183
O O11 0.958284 0.618356 0.597137
O O12 0.234002 0.072537 0.200017
O O13 0.209462 0.000000 0.315793
O O14 0.834100 0.500000 0.832899
O O15 0.728338 0.588717 0.909470
O O16 0.991314 0.594542 0.847187
O O17 0.339641 0.500000 0.003511
O O18 0.500000 0.593208 0.000000
O O19 0.227685 0.594176 0.942755
O O20 0.118506 0.500000 0.885726
#
# Coordination Sequence:
#
# PCOD8083967 Si02
#       8
#     8   8   8   8   8   8   8   8
#     4  10  21  33  45  66  95 128 161 195 234 276
#     4  10  18  34  54  74  92 111 147 196 244 284
#     4  10  20  35  50  71  92 120 157 191 239 285
#     4  10  21  33  46  65  95 129 160 195 234 277
#     4  10  21  33  52  71  91 121 155 194 238 282
#     4   9  16  27  42  60  86 119 156 192 229 274
#     4   9  15  23  39  61  85 114 152 193 229 270
#     4   9  16  27  42  60  85 120 156 191 231 273
#
# _framework density 17.345141000000002
#
# number of rings (size 3 to 8) (size 9 to 14) (size 15 to 20)
#    0.000    2.375    2.500    1.875    3.500    6.500 
#    0.000    2.500    0.000    0.000    0.000    0.000 
#    0.000    1.000    0.000    3.125    0.000    4.000 
#
# Total GULP energy -396422.924650 kJ/mol
# GULP energy per Si atom -12388.216395 kJ/mol
# Density = 1.730566 g / cm^3
# Si number density = 17.345141 Si / 1000 Ang^3
#
#
#
# Elastic Constant Matrix: (Units=GPa)
#
#
# Indices 1 2 3 4 5 6 
#
# 1 105.7884 12.0306 23.6502 0.0000 0.0741 0.0000
# 2 12.0306 21.3971 13.5090 0.0000 6.6896 0.0000
# 3 23.6502 13.5090 67.2706 0.0000 4.4202 0.0000
# 4 0.0000 0.0000 0.0000 3.2630 0.0000 2.2564
# 5 0.0741 6.6896 4.4202 0.0000 35.8162 0.0000
# 6 0.0000 0.0000 0.0000 2.2564 0.0000 21.4327
#
#
#
# Elastic Compliance Matrix: (Units=1/GPa)
#
#
# Indices 1 2 3 4 5 6 
#
# 1 0.010613 -0.004502 -0.002905 0.000000 0.001177 0.000000
# 2 -0.004502 0.058289 -0.009485 0.000000 -0.009707 0.000000
# 3 -0.002905 -0.009485 0.017819 0.000000 -0.000422 0.000000
# 4 0.000000 0.000000 0.000000 0.330530 0.000000 -0.034797
# 5 0.001177 -0.009707 -0.000422 0.000000 0.029783 0.000000
# 6 0.000000 0.000000 0.000000 -0.034797 0.000000 0.050321
#
#
# Mechanical properties :
#
#
# Convention : Reuss Voigt Hill
#
# Bulk Modulus (GPa) = 18.88958 32.53728 25.71343
# Shear Modulus (GPa) = 9.11105 21.78681 15.44893
#
# Velocity S-wave (km/s) = 2.29438 3.54796 2.98766
# Velocity P-wave (km/s) = 4.23474 5.96519 5.17284
#
# Compressibility (1/GPa) = 0.05293925
#
# Stress axis : x y z
#
# Youngs Moduli (GPa) = 94.22129 17.15578 56.12002
#
# Poissons Ratio (x) = 0.07723 0.16301
# Poissons Ratio (y) = 0.42415 0.53230
# Poissons Ratio (z) = 0.27368 0.16272
#
# Static dielectric constant tensor:
#      x y z
#    x 3.489070 0.000000 0.037530 
#    y 0.000000 3.046430 0.000000 
#    z 0.037530 0.000000 3.131020 
# 
# 
# High freq. dielectric constant tensor:
#      x y z
#    x 1.699890 0.000000 0.000000 
#    y 0.000000 1.601420 0.000000 
#    z 0.000000 0.000000 1.659930 
# 
# From -- ./inp_files/258123.got.cif
#   From: 2010.06.25/outbox.cif.g09.slc.cpg/sg12_130_cif.got.tgz:258123.got - 2010.06.28 00:19:55.
