data_PCOD8083129
_publ_section_title
;
Structure prediction by ZEFSAII (Michael W. Deem and Ramdas Pophale) SiO2 
 PCOD8083129
Probable space group: C 2/M
;
_chemical_formula_sum "Si O2"
_cell_formula_units_Z 56
_cell_length_a 19.002509
_cell_length_b 9.343112
_cell_length_c 19.860530
_cell_angle_alpha 90.000000
_cell_angle_beta 117.206149
_cell_angle_gamma 90.000000
_cell_volume 3135.988773
_symmetry_space_group_name_H-M "C 2/M"
_symmetry_group_IT_number 12
_symmetry_cell_setting 'monoclinic'
loop_
_space_group_symop_operation_xyz
x,y,z
-x,y,-z
-x,-y,-z
x,-y,z
1/2+x,1/2+y,z
1/2-x,1/2+y,-z
1/2-x,1/2-y,-z
1/2+x,1/2-y,z
loop_
_atom_site_type_symbol
_atom_site_label
_atom_site_fract_x
_atom_site_fract_y
_atom_site_fract_z
Si Si1 0.207732 0.163976 0.923720
Si Si2 0.678489 0.170749 0.430964
Si Si3 0.601992 0.157171 0.715452
Si Si4 0.464247 0.667711 0.195496
Si Si5 0.470348 0.157394 0.553211
Si Si6 0.744525 0.336866 0.788613
Si Si7 0.879345 0.335468 0.742047
O O1 0.113324 0.197409 0.884449
O O2 0.247755 0.204097 0.869332
O O3 0.223180 0.000000 0.946615
O O4 0.250000 0.250000 0.000000
O O5 0.750000 0.250000 0.500000
O O6 0.600187 0.229071 0.435193
O O7 0.666590 0.214265 0.346593
O O8 0.690725 0.000000 0.441291
O O9 0.554768 0.266715 0.740978
O O10 0.549755 0.136360 0.628308
O O11 0.683731 0.228304 0.727189
O O12 0.616743 0.000000 0.755581
O O13 0.480718 0.500000 0.209651
O O14 0.543728 0.743469 0.204431
O O15 0.500000 0.245203 0.500000
O O16 0.438681 0.000000 0.517437
O O17 0.713736 0.500000 0.768428
O O18 0.826433 0.317390 0.785506
O O19 0.905634 0.500000 0.742965
#
# Coordination Sequence:
#
# PCOD8083129 Si02
#       7
#     8   8   8   8   8   8   8
#     4   9  19  36  57  82 109 139 171 214 265 318
#     4  10  21  36  52  74 106 142 181 224 274 322
#     4  10  18  32  54  76 100 138 184 220 264 322
#     4  10  20  35  56  81 109 138 176 222 267 312
#     4   9  18  32  49  71 102 134 173 225 269 312
#     4   9  20  36  54  79 111 139 174 223 268 309
#     4  10  20  37  57  77 108 147 185 224 267 322
#
# _framework density 17.857206999999999
#
# number of rings (size 3 to 8) (size 9 to 14) (size 15 to 20)
#    0.000    2.429    1.429    1.714    2.000    4.000 
#    0.000    0.714    0.000    6.429    0.000    0.000 
#    0.000    0.000    0.000    0.000    0.000    0.000 
#
# Total GULP energy -346886.026385 kJ/mol
# GULP energy per Si atom -12388.786657 kJ/mol
# Density = 1.781656 g / cm^3
# Si number density = 17.857207 Si / 1000 Ang^3
#
#
#
# Elastic Constant Matrix: (Units=GPa)
#
#
# Indices 1 2 3 4 5 6 
#
# 1 121.9005 58.5905 63.1694 0.0000 0.4845 0.0000
# 2 58.5905 81.1509 53.2234 0.0000 11.9272 0.0000
# 3 63.1694 53.2234 107.2681 0.0000 6.9211 0.0000
# 4 0.0000 0.0000 0.0000 27.1999 0.0000 6.2931
# 5 0.4845 11.9272 6.9211 0.0000 20.9817 0.0000
# 6 0.0000 0.0000 0.0000 6.2931 0.0000 26.1862
#
#
#
# Elastic Compliance Matrix: (Units=1/GPa)
#
#
# Indices 1 2 3 4 5 6 
#
# 1 0.014715 -0.008253 -0.004957 0.000000 0.005987 0.000000
# 2 -0.008253 0.024149 -0.006384 0.000000 -0.011431 0.000000
# 3 -0.004957 -0.006384 0.015497 0.000000 -0.001368 0.000000
# 4 0.000000 0.000000 0.000000 0.038929 0.000000 -0.009356
# 5 0.005987 -0.011431 -0.001368 0.000000 0.054472 0.000000
# 6 0.000000 0.000000 0.000000 -0.009356 0.000000 0.040436
#
#
# Mechanical properties :
#
#
# Convention : Reuss Voigt Hill
#
# Bulk Modulus (GPa) = 65.90730 73.36511 69.63621
# Shear Modulus (GPa) = 21.51052 23.89597 22.70324
#
# Velocity S-wave (km/s) = 3.47448 3.66207 3.56951
# Velocity P-wave (km/s) = 7.28588 7.68469 7.48794
#
# Compressibility (1/GPa) = 0.01517282
#
# Stress axis : x y z
#
# Youngs Moduli (GPa) = 67.95725 41.41036 64.52680
#
# Poissons Ratio (x) = 0.34176 0.31986
# Poissons Ratio (y) = 0.56086 0.41194
# Poissons Ratio (z) = 0.33686 0.26437
#
# Static dielectric constant tensor:
#      x y z
#    x 3.565740 0.000000 0.070540 
#    y 0.000000 3.446900 0.000000 
#    z 0.070540 0.000000 3.182860 
# 
# 
# High freq. dielectric constant tensor:
#      x y z
#    x 1.695390 0.000000 0.002600 
#    y 0.000000 1.682450 0.000000 
#    z 0.002600 0.000000 1.677360 
# 
# From -- ./inp_files/313743.got.cif
#   From: 2010.06.25/outbox.cif.g09.slc.cpg/sg12_157_cif.got.tgz:313743.got - 2010.06.28 00:19:55.
