data_PCOD8083913
_publ_section_title
;
Structure prediction by ZEFSAII (Michael W. Deem and Ramdas Pophale) SiO2 
 PCOD8083913
Probable space group: C 2/M
;
_chemical_formula_sum "Si O2"
_cell_formula_units_Z 56
_cell_length_a 14.131268
_cell_length_b 13.265608
_cell_length_c 24.429915
_cell_angle_alpha 90.000000
_cell_angle_beta 32.436031
_cell_angle_gamma 90.000000
_cell_volume 2456.318787
_symmetry_space_group_name_H-M "C 2/M"
_symmetry_group_IT_number 12
_symmetry_cell_setting 'monoclinic'
loop_
_space_group_symop_operation_xyz
x,y,z
-x,y,-z
-x,-y,-z
x,-y,z
1/2+x,1/2+y,z
1/2-x,1/2+y,-z
1/2-x,1/2-y,-z
1/2+x,1/2-y,z
loop_
_atom_site_type_symbol
_atom_site_label
_atom_site_fract_x
_atom_site_fract_y
_atom_site_fract_z
Si Si1 0.477206 0.616872 0.755061
Si Si2 0.335420 0.788762 0.613666
Si Si3 0.628967 0.118333 0.981189
Si Si4 0.643133 0.880725 0.093756
Si Si5 0.615257 0.115754 0.685459
Si Si6 0.880055 0.716057 0.719680
Si Si7 0.524342 0.388418 0.924801
O O1 0.463129 0.500000 0.746115
O O2 0.668209 0.637924 0.687950
O O3 0.436963 0.677603 0.718800
O O4 0.332267 0.649592 0.871466
O O5 0.500000 0.834885 0.500000
O O6 0.292436 0.679981 0.607229
O O7 0.393100 0.776366 0.648255
O O8 0.559192 0.145482 0.075901
O O9 0.615487 0.000000 0.979256
O O10 0.500000 0.172819 0.000000
O O11 0.519272 0.839668 0.202595
O O12 0.666035 0.000000 0.092096
O O13 0.841055 0.833920 0.996065
O O14 0.521049 0.132922 0.672921
O O15 0.663999 0.000000 0.670114
O O16 0.683928 0.684344 0.832136
O O17 0.552199 0.500000 0.883673
O O18 0.500000 0.406324 0.000000
#
# Coordination Sequence:
#
# PCOD8083913 Si02
#       7
#     8   8   8   8   8   8   8
#     4  10  24  45  65  95 134 175 224 271 325 395
#     4  11  27  48  67  94 130 171 223 286 344 388
#     4   9  18  33  56  87 128 174 209 245 306 384
#     4   9  17  32  56  90 131 169 211 257 304 382
#     4  10  22  42  68  99 130 168 219 274 334 398
#     4  11  23  41  66 100 131 172 221 279 324 392
#     4  10  18  33  61  98 136 173 211 258 320 387
#
# _framework density 22.798344
#
# number of rings (size 3 to 8) (size 9 to 14) (size 15 to 20)
#    0.000    2.000    1.429    1.286    2.000    6.286 
#    0.000    3.571    0.000    0.000    0.000    0.000 
#    0.000    0.000    0.000    0.000    0.000    0.000 
#
# Total GULP energy -347141.355870 kJ/mol
# GULP energy per Si atom -12397.905567 kJ/mol
# Density = 2.274645 g / cm^3
# Si number density = 22.798344 Si / 1000 Ang^3
#
#
#
# Elastic Constant Matrix: (Units=GPa)
#
#
# Indices 1 2 3 4 5 6 
#
# 1 140.2522 -5.4153 42.6115 -0.0001 4.2260 0.0002
# 2 -5.4153 61.6949 7.8829 0.0006 -4.1039 0.0000
# 3 42.6115 7.8829 88.9445 0.0042 -6.0164 -0.0006
# 4 -0.0001 0.0006 0.0042 22.2902 -0.0016 -5.5150
# 5 4.2260 -4.1039 -6.0164 -0.0016 30.4710 0.0002
# 6 0.0002 0.0000 -0.0006 -5.5150 0.0002 22.7083
#
#
#
# Elastic Compliance Matrix: (Units=1/GPa)
#
#
# Indices 1 2 3 4 5 6 
#
# 1 0.008547 0.001178 -0.004326 0.000001 -0.001881 0.000000
# 2 0.001178 0.016672 -0.001927 0.000000 0.001702 0.000000
# 3 -0.004326 -0.001927 0.013692 -0.000002 0.003044 0.000000
# 4 0.000001 0.000000 -0.000002 0.047731 0.000002 0.011592
# 5 -0.001881 0.001702 0.003044 0.000002 0.033909 0.000000
# 6 0.000000 0.000000 0.000000 0.011592 0.000000 0.046852
#
#
# Mechanical properties :
#
#
# Convention : Reuss Voigt Hill
#
# Bulk Modulus (GPa) = 34.77021 42.33888 38.55454
# Shear Modulus (GPa) = 26.71816 31.48142 29.09979
#
# Velocity S-wave (km/s) = 3.42707 3.72003 3.57655
# Velocity P-wave (km/s) = 5.56273 6.08793 5.83125
#
# Compressibility (1/GPa) = 0.02876026
#
# Stress axis : x y z
#
# Youngs Moduli (GPa) = 117.00681 59.98244 73.03446
#
# Poissons Ratio (x) = -0.07065 0.31595
# Poissons Ratio (y) = -0.13781 0.14072
# Poissons Ratio (z) = 0.50618 0.11557
#
# Static dielectric constant tensor:
#      x y z
#    x 4.256490 0.000000 -0.160390 
#    y 0.000000 4.086890 0.000000 
#    z -0.160390 0.000000 3.889870 
# 
# 
# High freq. dielectric constant tensor:
#      x y z
#    x 1.909590 0.000000 -0.007630 
#    y 0.000000 1.909660 0.000000 
#    z -0.007630 0.000000 1.865910 
# 
# From -- ./inp_files/340325.got.cif
#   From: 2010.06.25/outbox.cif.g09.slc.cpg/sg12_171_cif.got.tgz:340325.got - 2010.06.28 00:19:55.
