data_PCOD8083434
_publ_section_title
;
Structure prediction by ZEFSAII (Michael W. Deem and Ramdas Pophale) SiO2 
 PCOD8083434
Probable space group: C 2/M
;
_chemical_formula_sum "Si O2"
_cell_formula_units_Z 40
_cell_length_a 26.715467
_cell_length_b 14.596984
_cell_length_c 15.562444
_cell_angle_alpha 90.000000
_cell_angle_beta 161.109423
_cell_angle_gamma 90.000000
_cell_volume 1964.849698
_symmetry_space_group_name_H-M "C 2/M"
_symmetry_group_IT_number 12
_symmetry_cell_setting 'monoclinic'
loop_
_space_group_symop_operation_xyz
x,y,z
-x,y,-z
-x,-y,-z
x,-y,z
1/2+x,1/2+y,z
1/2-x,1/2+y,-z
1/2-x,1/2-y,-z
1/2+x,1/2-y,z
loop_
_atom_site_type_symbol
_atom_site_label
_atom_site_fract_x
_atom_site_fract_y
_atom_site_fract_z
Si Si1 0.151832 0.601015 0.630012
Si Si2 0.896026 0.893602 0.752915
Si Si3 0.433071 0.750976 0.304114
Si Si4 0.049860 0.788041 0.853969
Si Si5 0.078710 0.399293 0.319065
O O1 0.174708 0.500000 0.708024
O O2 0.167496 0.593604 0.553428
O O3 0.986551 0.642090 0.390932
O O4 0.277475 0.673707 0.866309
O O5 0.713804 0.875950 0.470558
O O6 0.935852 0.846398 0.727518
O O7 0.935168 0.000000 0.806038
O O8 0.000000 0.852999 0.000000
O O9 0.500000 0.702796 0.500000
O O10 0.506737 0.705705 0.337518
O O11 0.250000 0.750000 0.000000
O O12 0.048341 0.681806 0.885082
O O13 0.003419 0.500000 0.176294
#
# Coordination Sequence:
#
# PCOD8083434 Si02
#       5
#     8   8   8   8   8
#     4  10  20  37  64  94 118 160 213 255 302 379
#     4  10  18  32  57  92 125 160 210 257 299 375
#     4  11  23  42  61  90 123 166 214 266 317 371
#     4  11  20  34  62  91 124 157 212 262 312 360
#     4   9  19  34  55  87 125 161 202 249 307 377
#
# _framework density 20.357792
#
# number of rings (size 3 to 8) (size 9 to 14) (size 15 to 20)
#    0.000    1.800    4.000    1.200    0.000    0.400 
#    0.000    0.000    0.000   16.800    0.000    0.000 
#    0.000    0.000    0.000    0.000    0.000    0.000 
#
# Total GULP energy -247828.769235 kJ/mol
# GULP energy per Si atom -12391.438462 kJ/mol
# Density = 2.031146 g / cm^3
# Si number density = 20.357792 Si / 1000 Ang^3
#
#
#
# Elastic Constant Matrix: (Units=GPa)
#
#
# Indices 1 2 3 4 5 6 
#
# 1 135.4699 50.5425 44.7641 0.0000 -9.3036 0.0000
# 2 50.5425 137.6901 65.9436 0.0000 12.8168 0.0000
# 3 44.7641 65.9436 95.0999 0.0000 9.0927 0.0000
# 4 0.0000 0.0000 0.0000 33.5990 0.0000 2.8076
# 5 -9.3036 12.8168 9.0927 0.0000 26.3190 0.0000
# 6 0.0000 0.0000 0.0000 2.8076 0.0000 24.3511
#
#
#
# Elastic Compliance Matrix: (Units=1/GPa)
#
#
# Indices 1 2 3 4 5 6 
#
# 1 0.009871 -0.002512 -0.003470 0.000000 0.005912 0.000000
# 2 -0.002512 0.011714 -0.006525 0.000000 -0.004338 0.000000
# 3 -0.003470 -0.006525 0.017050 0.000000 -0.003939 0.000000
# 4 0.000000 0.000000 0.000000 0.030052 0.000000 -0.003465
# 5 0.005912 -0.004338 -0.003939 0.000000 0.043558 0.000000
# 6 0.000000 0.000000 0.000000 -0.003465 0.000000 0.041465
#
#
# Mechanical properties :
#
#
# Convention : Reuss Voigt Hill
#
# Bulk Modulus (GPa) = 73.41753 76.75113 75.08433
# Shear Modulus (GPa) = 27.28275 30.65446 28.96860
#
# Velocity S-wave (km/s) = 3.66479 3.88465 3.77632
# Velocity P-wave (km/s) = 7.35184 7.60945 7.48175
#
# Compressibility (1/GPa) = 0.01362072
#
# Stress axis : x y z
#
# Youngs Moduli (GPa) = 101.30182 85.37013 58.65121
#
# Poissons Ratio (x) = 0.21445 0.20352
# Poissons Ratio (y) = 0.25447 0.38272
# Poissons Ratio (z) = 0.35151 0.55706
#
# Static dielectric constant tensor:
#      x y z
#    x 4.063430 0.000000 -0.054880 
#    y 0.000000 3.806430 0.000000 
#    z -0.054880 0.000000 3.383900 
# 
# 
# High freq. dielectric constant tensor:
#      x y z
#    x 1.819610 0.000000 0.009790 
#    y 0.000000 1.783840 0.000000 
#    z 0.009790 0.000000 1.757510 
# 
# From -- ./inp_files/246651.got.cif
#   From: 2010.06.25/outbox.cif.g09.slc.cpg/sg12_124_cif.got.tgz:246651.got - 2010.06.28 00:19:55.
