data_PCOD8083576
_publ_section_title
;
Structure prediction by ZEFSAII (Michael W. Deem and Ramdas Pophale) SiO2 
 PCOD8083576
Probable space group: C 2/M
;
_chemical_formula_sum "Si O2"
_cell_formula_units_Z 56
_cell_length_a 20.923533
_cell_length_b 21.692985
_cell_length_c 7.624595
_cell_angle_alpha 90.000000
_cell_angle_beta 64.796757
_cell_angle_gamma 90.000000
_cell_volume 3131.303207
_symmetry_space_group_name_H-M "C 2/M"
_symmetry_group_IT_number 12
_symmetry_cell_setting 'monoclinic'
loop_
_space_group_symop_operation_xyz
x,y,z
-x,y,-z
-x,-y,-z
x,-y,z
1/2+x,1/2+y,z
1/2-x,1/2+y,-z
1/2-x,1/2-y,-z
1/2+x,1/2-y,z
loop_
_atom_site_type_symbol
_atom_site_label
_atom_site_fract_x
_atom_site_fract_y
_atom_site_fract_z
Si Si1 0.293726 0.760366 0.709150
Si Si2 0.294096 0.371090 0.135251
Si Si3 0.326467 0.188779 0.290974
Si Si4 0.764890 0.569289 0.445397
Si Si5 0.922025 0.184326 0.548131
Si Si6 0.580267 0.704071 0.852845
Si Si7 0.154325 0.931194 0.263496
O O1 0.262715 0.818100 0.854920
O O2 0.305289 0.783848 0.501210
O O3 0.235961 0.705508 0.772679
O O4 0.366199 0.732054 0.703941
O O5 0.266836 0.410473 0.331463
O O6 0.369076 0.338570 0.089285
O O7 0.301561 0.416816 0.963643
O O8 0.329511 0.114352 0.307637
O O9 0.399053 0.223041 0.148501
O O10 0.795273 0.500000 0.423122
O O11 0.703302 0.573749 0.375596
O O12 0.908387 0.182174 0.358177
O O13 0.910663 0.116265 0.640625
O O14 0.000000 0.208500 0.500000
O O15 0.500000 0.693931 0.000000
O O16 0.122852 0.000000 0.283654
#
# Coordination Sequence:
#
# PCOD8083576 Si02
#       7
#     8   8   8   8   8   8   8
#     4   8  15  30  51  73  96 129 161 203 255 290
#     4  10  19  35  55  74 102 129 167 207 245 297
#     4   8  14  30  52  71  99 126 162 208 244 292
#     4  10  18  33  54  74 102 134 164 204 246 289
#     4  11  20  34  50  73 107 132 165 206 250 294
#     4  10  19  34  52  75 101 132 165 205 256 296
#     4  11  22  34  50  75 103 132 171 206 239 293
#
# _framework density 17.883927
#
# number of rings (size 3 to 8) (size 9 to 14) (size 15 to 20)
#    0.000    2.286    2.857    3.000    0.000    0.857 
#    2.571    0.000    0.000    2.571    0.000    0.000 
#    0.000    7.429    0.000    0.000    0.000    0.000 
#
# Total GULP energy -346963.131347 kJ/mol
# GULP energy per Si atom -12391.540405 kJ/mol
# Density = 1.784322 g / cm^3
# Si number density = 17.883927 Si / 1000 Ang^3
#
#
#
# Elastic Constant Matrix: (Units=GPa)
#
#
# Indices 1 2 3 4 5 6 
#
# 1 66.0492 38.8770 17.9661 0.0000 -8.3743 0.0000
# 2 38.8770 123.6667 28.9233 0.0000 0.9535 0.0000
# 3 17.9661 28.9233 58.4818 0.0000 3.6288 0.0000
# 4 0.0000 0.0000 0.0000 24.3850 0.0000 -1.3688
# 5 -8.3743 0.9535 3.6288 0.0000 15.8126 0.0000
# 6 0.0000 0.0000 0.0000 -1.3688 0.0000 13.5263
#
#
#
# Elastic Compliance Matrix: (Units=1/GPa)
#
#
# Indices 1 2 3 4 5 6 
#
# 1 0.021366 -0.005762 -0.004502 0.000000 0.012696 0.000000
# 2 -0.005762 0.010702 -0.003341 0.000000 -0.002930 0.000000
# 3 -0.004502 -0.003341 0.020563 0.000000 -0.006902 0.000000
# 4 0.000000 0.000000 0.000000 0.041243 0.000000 0.004174
# 5 0.012696 -0.002930 -0.006902 0.000000 0.071725 0.000000
# 6 0.000000 0.000000 0.000000 0.004174 0.000000 0.074352
#
#
# Mechanical properties :
#
#
# Convention : Reuss Voigt Hill
#
# Bulk Modulus (GPa) = 39.33710 46.63672 42.98691
# Shear Modulus (GPa) = 18.14003 21.57353 19.85678
#
# Velocity S-wave (km/s) = 3.18829 3.47696 3.33575
# Velocity P-wave (km/s) = 5.96634 6.50024 6.23900
#
# Compressibility (1/GPa) = 0.02542130
#
# Stress axis : x y z
#
# Youngs Moduli (GPa) = 46.80351 93.44477 48.63129
#
# Poissons Ratio (x) = 0.53841 0.21894
# Poissons Ratio (y) = 0.26967 0.16247
# Poissons Ratio (z) = 0.21071 0.31218
#
# Static dielectric constant tensor:
#      x y z
#    x 3.197090 0.000000 -0.028670 
#    y 0.000000 3.606860 0.000000 
#    z -0.028670 0.000000 3.371750 
# 
# 
# High freq. dielectric constant tensor:
#      x y z
#    x 1.663820 0.000000 0.018110 
#    y 0.000000 1.687810 0.000000 
#    z 0.018110 0.000000 1.692060 
# 
# From -- ./inp_files/89092.got.cif
#   From: 2010.06.25/outbox.cif.g09.slc.cpg/sg12_45_cif.got.tgz:89092.got - 2010.06.28 00:19:55.
