data_PCOD8083603
_publ_section_title
;
Structure prediction by ZEFSAII (Michael W. Deem and Ramdas Pophale) SiO2 
 PCOD8083603
Probable space group: C 2/M
;
_chemical_formula_sum "Si O2"
_cell_formula_units_Z 64
_cell_length_a 19.128191
_cell_length_b 16.412752
_cell_length_c 14.244137
_cell_angle_alpha 90.000000
_cell_angle_beta 130.206862
_cell_angle_gamma 90.000000
_cell_volume 3415.268757
_symmetry_space_group_name_H-M "C 2/M"
_symmetry_group_IT_number 12
_symmetry_cell_setting 'monoclinic'
loop_
_space_group_symop_operation_xyz
x,y,z
-x,y,-z
-x,-y,-z
x,-y,z
1/2+x,1/2+y,z
1/2-x,1/2+y,-z
1/2-x,1/2-y,-z
1/2+x,1/2-y,z
loop_
_atom_site_type_symbol
_atom_site_label
_atom_site_fract_x
_atom_site_fract_y
_atom_site_fract_z
Si Si1 0.763735 0.231514 0.737495
Si Si2 0.369012 0.173030 0.667456
Si Si3 0.973008 0.405085 0.084178
Si Si4 0.097132 0.835355 0.573173
Si Si5 0.294478 0.801375 0.954582
Si Si6 0.877471 0.090365 0.221410
Si Si7 0.066014 0.158691 0.341389
Si Si8 0.764450 0.093821 0.603048
O O1 0.812307 0.287775 0.702670
O O2 0.663046 0.265013 0.664786
O O3 0.811157 0.240210 0.880470
O O4 0.752320 0.138804 0.692683
O O5 0.439357 0.108072 0.772269
O O6 0.424203 0.244522 0.663302
O O7 0.300110 0.131713 0.533674
O O8 0.943846 0.500000 0.064828
O O9 0.891786 0.346967 0.053737
O O10 0.000000 0.382543 0.000000
O O11 0.101522 0.911560 0.648781
O O12 0.109685 0.867520 0.478961
O O13 0.000000 0.791051 0.500000
O O14 0.222368 0.872607 0.875554
O O15 0.250000 0.750000 0.000000
O O16 0.958486 0.138440 0.236790
O O17 0.876042 0.000000 0.179195
O O18 0.127673 0.106101 0.324171
O O19 0.739562 0.000000 0.594994
#
# Coordination Sequence:
#
# PCOD8083603 Si02
#       8
#     8   8   8   8   8   8   8   8
#     4  10  19  38  56  83 115 147 196 240 289 354
#     4  11  19  36  60  83 118 160 193 232 292 362
#     4  11  23  39  61  92 122 152 200 259 307 346
#     4   9  17  30  51  77 107 150 177 221 283 348
#     4  11  23  42  63  84 109 163 205 243 295 361
#     4  10  21  34  53  84 115 141 184 244 299 340
#     4  10  18  33  54  82 117 152 184 224 281 362
#     4  11  21  33  57  88 119 153 190 236 293 354
#
# _framework density 18.739374000000002
#
# number of rings (size 3 to 8) (size 9 to 14) (size 15 to 20)
#    0.000    1.625    3.750    2.625    0.000    2.750 
#    0.000    1.250    0.000    0.375    0.000    4.375 
#    0.000    0.000    0.000    0.000    0.000    0.000 
#
# Total GULP energy -396502.481581 kJ/mol
# GULP energy per Si atom -12390.702549 kJ/mol
# Density = 1.869672 g / cm^3
# Si number density = 18.739374 Si / 1000 Ang^3
#
#
#
# Elastic Constant Matrix: (Units=GPa)
#
#
# Indices 1 2 3 4 5 6 
#
# 1 77.7571 43.1134 27.1268 0.0000 4.1083 0.0000
# 2 43.1134 114.7043 26.9105 0.0000 -5.4944 0.0000
# 3 27.1268 26.9105 67.3263 0.0000 0.6263 0.0000
# 4 0.0000 0.0000 0.0000 22.2964 0.0000 2.4512
# 5 4.1083 -5.4944 0.6263 0.0000 30.4348 0.0000
# 6 0.0000 0.0000 0.0000 2.4512 0.0000 26.1162
#
#
#
# Elastic Compliance Matrix: (Units=1/GPa)
#
#
# Indices 1 2 3 4 5 6 
#
# 1 0.017936 -0.005754 -0.004896 0.000000 -0.003359 0.000000
# 2 -0.005754 0.011568 -0.002332 0.000000 0.002913 0.000000
# 3 -0.004896 -0.002332 0.017759 0.000000 -0.000126 0.000000
# 4 0.000000 0.000000 0.000000 0.045318 0.000000 -0.004253
# 5 -0.003359 0.002913 -0.000126 0.000000 0.033839 0.000000
# 6 0.000000 0.000000 0.000000 -0.004253 0.000000 0.038690
#
#
# Mechanical properties :
#
#
# Convention : Reuss Voigt Hill
#
# Bulk Modulus (GPa) = 46.95082 50.45434 48.70258
# Shear Modulus (GPa) = 25.23048 26.61195 25.92121
#
# Velocity S-wave (km/s) = 3.67330 3.77252 3.72324
# Velocity P-wave (km/s) = 6.56505 6.77928 6.67302
#
# Compressibility (1/GPa) = 0.02129888
#
# Stress axis : x y z
#
# Youngs Moduli (GPa) = 55.75264 86.44901 56.30959
#
# Poissons Ratio (x) = 0.49743 0.27567
# Poissons Ratio (y) = 0.32080 0.13133
# Poissons Ratio (z) = 0.27295 0.20162
#
# Static dielectric constant tensor:
#      x y z
#    x 3.611640 0.000000 0.000980 
#    y 0.000000 3.278960 0.000000 
#    z 0.000980 0.000000 3.599600 
# 
# 
# High freq. dielectric constant tensor:
#      x y z
#    x 1.734430 0.000000 0.012920 
#    y 0.000000 1.709170 0.000000 
#    z 0.012920 0.000000 1.722620 
# 
# From -- ./inp_files/225756.got.cif
#   From: 2010.06.25/outbox.cif.g09.slc.cpg/sg12_113_cif.got.tgz:225756.got - 2010.06.28 00:19:55.
