data_PCOD8083035
_publ_section_title
;
Structure prediction by ZEFSAII (Michael W. Deem and Ramdas Pophale) SiO2 
 PCOD8083035
Probable space group: C 2/M
;
_chemical_formula_sum "Si O2"
_cell_formula_units_Z 56
_cell_length_a 20.643363
_cell_length_b 8.917642
_cell_length_c 23.269377
_cell_angle_alpha 90.000000
_cell_angle_beta 132.789169
_cell_angle_gamma 90.000000
_cell_volume 3143.601185
_symmetry_space_group_name_H-M "C 2/M"
_symmetry_group_IT_number 12
_symmetry_cell_setting 'monoclinic'
loop_
_space_group_symop_operation_xyz
x,y,z
-x,y,-z
-x,-y,-z
x,-y,z
1/2+x,1/2+y,z
1/2-x,1/2+y,-z
1/2-x,1/2-y,-z
1/2+x,1/2-y,z
loop_
_atom_site_type_symbol
_atom_site_label
_atom_site_fract_x
_atom_site_fract_y
_atom_site_fract_z
Si Si1 0.574879 0.822190 0.503527
Si Si2 0.121033 0.822503 0.817325
Si Si3 0.801254 0.677643 0.328951
Si Si4 0.808883 0.176805 0.916044
Si Si5 0.544186 0.176680 0.665376
Si Si6 0.125540 0.822396 0.168348
Si Si7 0.562678 0.321631 0.906874
O O1 0.500000 0.756429 0.500000
O O2 0.668231 0.767446 0.588044
O O3 0.548533 0.774888 0.422424
O O4 0.571727 0.000000 0.504452
O O5 0.215791 0.757988 0.858979
O O6 0.049120 0.765704 0.727979
O O7 0.090876 0.762820 0.861409
O O8 0.125034 0.000000 0.818687
O O9 0.793676 0.500000 0.323740
O O10 0.873365 0.724742 0.324844
O O11 0.706070 0.746601 0.254899
O O12 0.861917 0.220619 0.890620
O O13 0.791237 0.000000 0.908491
O O14 0.865623 0.236219 0.004007
O O15 0.546245 0.000000 0.679363
O O16 0.033359 0.753978 0.135222
O O17 0.123899 0.000000 0.174266
O O18 0.558857 0.500000 0.907013
#
# Coordination Sequence:
#
# PCOD8083035 Si02
#       7
#     8   8   8   8   8   8   8
#     4   7  11  19  37  66  96 112 133 187 238 261
#     4  11  21  31  44  66  98 128 150 180 227 278
#     4   8  12  21  42  73  94 108 141 193 237 258
#     4  10  18  32  53  71  86 113 157 200 231 261
#     4   9  15  27  46  69  91 117 153 189 224 262
#     4   9  15  26  48  74  93 111 148 197 234 263
#     4   9  19  31  44  67  96 122 149 187 233 274
#
# _framework density 17.813963999999999
#
# number of rings (size 3 to 8) (size 9 to 14) (size 15 to 20)
#    0.000    3.000    1.429    3.000    0.000    1.714 
#    0.000    0.714    0.000    8.143    0.000    0.000 
#    0.000    0.000    0.000    0.000    0.000    0.143 
#
# Total GULP energy -346872.516368 kJ/mol
# GULP energy per Si atom -12388.304156 kJ/mol
# Density = 1.777342 g / cm^3
# Si number density = 17.813964 Si / 1000 Ang^3
#
#
#
# Elastic Constant Matrix: (Units=GPa)
#
#
# Indices 1 2 3 4 5 6 
#
# 1 63.4216 18.0151 35.7720 0.0000 -11.8288 0.0000
# 2 18.0151 20.8577 21.7376 0.0000 -3.5338 0.0000
# 3 35.7720 21.7376 170.1308 0.0000 -15.6877 0.0000
# 4 0.0000 0.0000 0.0000 17.7796 0.0000 -5.1725
# 5 -11.8288 -3.5338 -15.6877 0.0000 14.0592 0.0000
# 6 0.0000 0.0000 0.0000 -5.1725 0.0000 11.7743
#
#
#
# Elastic Compliance Matrix: (Units=1/GPa)
#
#
# Indices 1 2 3 4 5 6 
#
# 1 0.024082 -0.016701 -0.001615 0.000000 0.014262 0.000000
# 2 -0.016701 0.067464 -0.005396 0.000000 -0.003115 0.000000
# 3 -0.001615 -0.005396 0.007420 0.000000 0.005565 0.000000
# 4 0.000000 0.000000 0.000000 0.064486 0.000000 0.028329
# 5 0.014262 -0.003115 0.005565 0.000000 0.088554 0.000000
# 6 0.000000 0.000000 0.000000 0.028329 0.000000 0.097376
#
#
# Mechanical properties :
#
#
# Convention : Reuss Voigt Hill
#
# Bulk Modulus (GPa) = 19.40091 45.05105 32.22598
# Shear Modulus (GPa) = 12.07770 20.64830 16.36300
#
# Velocity S-wave (km/s) = 2.60665 3.40826 3.03405
# Velocity P-wave (km/s) = 4.46923 6.39007 5.51393
#
# Compressibility (1/GPa) = 0.05154397
#
# Stress axis : x y z
#
# Youngs Moduli (GPa) = 41.52436 14.82264 134.77435
#
# Poissons Ratio (x) = 0.24756 0.21760
# Poissons Ratio (y) = 0.69351 0.72718
# Poissons Ratio (z) = 0.06704 0.07998
#
# Static dielectric constant tensor:
#      x y z
#    x 3.161420 0.000000 0.043840 
#    y 0.000000 2.717800 0.000000 
#    z 0.043840 0.000000 4.041910 
# 
# 
# High freq. dielectric constant tensor:
#      x y z
#    x 1.653130 0.000000 -0.002200 
#    y 0.000000 1.626340 0.000000 
#    z -0.002200 0.000000 1.721850 
# 
# From -- ./inp_files/280145.got.cif
#   From: 2010.06.25/outbox.cif.g09.slc.cpg/sg12_141_cif.got.tgz:280145.got - 2010.06.28 00:19:55.
