data_PCOD8083952
_publ_section_title
;
Structure prediction by ZEFSAII (Michael W. Deem and Ramdas Pophale) SiO2 
 PCOD8083952
Probable space group: C 2/M
;
_chemical_formula_sum "Si O2"
_cell_formula_units_Z 40
_cell_length_a 7.799307
_cell_length_b 21.567073
_cell_length_c 14.779835
_cell_angle_alpha 90.000000
_cell_angle_beta 55.096588
_cell_angle_gamma 90.000000
_cell_volume 2038.886494
_symmetry_space_group_name_H-M "C 2/M"
_symmetry_group_IT_number 12
_symmetry_cell_setting 'monoclinic'
loop_
_space_group_symop_operation_xyz
x,y,z
-x,y,-z
-x,-y,-z
x,-y,z
1/2+x,1/2+y,z
1/2-x,1/2+y,-z
1/2-x,1/2-y,-z
1/2+x,1/2-y,z
loop_
_atom_site_type_symbol
_atom_site_label
_atom_site_fract_x
_atom_site_fract_y
_atom_site_fract_z
Si Si1 0.531230 0.749311 0.756256
Si Si2 0.948729 0.684366 0.618090
Si Si3 0.680046 0.626530 0.144801
Si Si4 0.760673 0.428804 0.750980
Si Si5 0.096582 0.370725 0.108783
O O1 0.739712 0.714574 0.725425
O O2 0.609601 0.782647 0.638087
O O3 0.361751 0.694146 0.798945
O O4 0.442456 0.799862 0.851489
O O5 0.923796 0.610515 0.639758
O O6 0.000000 0.700360 0.500000
O O7 0.476933 0.582522 0.210805
O O8 0.874816 0.598745 0.143853
O O9 0.740025 0.632039 0.021866
O O10 0.816892 0.500000 0.718679
O O11 0.797918 0.411161 0.844355
#
# Coordination Sequence:
#
# PCOD8083952 Si02
#       5
#     8   8   8   8   8
#     4  10  18  34  52  82 116 134 174 224 272 334
#     4  10  20  34  57  80 103 142 180 228 282 321
#     4  10  20  34  55  82 113 148 178 215 270 329
#     4  10  23  39  54  77 111 147 191 233 262 311
#     4  10  20  34  55  82 113 148 178 215 270 329
#
# _framework density 19.618552999999999
#
# number of rings (size 3 to 8) (size 9 to 14) (size 15 to 20)
#    0.000    2.000    2.000    1.800    0.000    2.800 
#    0.000    2.000    0.000    0.000    0.000    5.600 
#    0.000    0.000    0.000    0.000    0.000    0.000 
#
# Total GULP energy -247820.733780 kJ/mol
# GULP energy per Si atom -12391.036689 kJ/mol
# Density = 1.957390 g / cm^3
# Si number density = 19.618553 Si / 1000 Ang^3
#
#
#
# Elastic Constant Matrix: (Units=GPa)
#
#
# Indices 1 2 3 4 5 6 
#
# 1 67.6469 20.5944 1.8663 0.0000 3.2293 0.0000
# 2 20.5944 96.9284 0.5381 0.0000 -1.5352 0.0000
# 3 1.8663 0.5381 50.9714 0.0000 12.5963 0.0000
# 4 0.0000 0.0000 0.0000 12.8856 0.0000 -0.0643
# 5 3.2293 -1.5352 12.5963 0.0000 23.0671 0.0000
# 6 0.0000 0.0000 0.0000 -0.0643 0.0000 21.4575
#
#
#
# Elastic Compliance Matrix: (Units=1/GPa)
#
#
# Indices 1 2 3 4 5 6 
#
# 1 0.015943 -0.003427 0.000070 0.000000 -0.002498 0.000000
# 2 -0.003427 0.011069 -0.000338 0.000000 0.001401 0.000000
# 3 0.000070 -0.000338 0.022690 0.000000 -0.012422 0.000000
# 4 0.000000 0.000000 0.000000 0.077607 0.000000 0.000233
# 5 -0.002498 0.001401 -0.012422 0.000000 0.050578 0.000000
# 6 0.000000 0.000000 0.000000 0.000233 0.000000 0.046604
#
#
# Mechanical properties :
#
#
# Convention : Reuss Voigt Hill
#
# Bulk Modulus (GPa) = 23.63401 29.06049 26.34725
# Shear Modulus (GPa) = 20.32631 24.31856 22.32244
#
# Velocity S-wave (km/s) = 3.22231 3.52457 3.37682
# Velocity P-wave (km/s) = 5.09090 5.60432 5.35377
#
# Compressibility (1/GPa) = 0.04231191
#
# Stress axis : x y z
#
# Youngs Moduli (GPa) = 62.72171 90.34083 44.07276
#
# Poissons Ratio (x) = 0.30964 -0.00308
# Poissons Ratio (y) = 0.21498 0.01488
# Poissons Ratio (z) = -0.00438 0.03049
#
# Static dielectric constant tensor:
#      x y z
#    x 3.724530 0.000000 0.041280 
#    y 0.000000 3.438600 0.000000 
#    z 0.041280 0.000000 3.223770 
# 
# 
# High freq. dielectric constant tensor:
#      x y z
#    x 1.778060 0.000000 0.007100 
#    y 0.000000 1.748200 0.000000 
#    z 0.007100 0.000000 1.744720 
# 
# From -- ./inp_files/119054.got.cif
#   From: 2010.06.25/outbox.cif.g09.slc.cpg/sg12_60_cif.got.tgz:119054.got - 2010.06.28 00:19:55.
