data_PCOD8083621
_publ_section_title
;
Structure prediction by ZEFSAII (Michael W. Deem and Ramdas Pophale) SiO2 
 PCOD8083621
Probable space group: C 2/M
;
_chemical_formula_sum "Si O2"
_cell_formula_units_Z 64
_cell_length_a 20.088672
_cell_length_b 9.223800
_cell_length_c 21.110060
_cell_angle_alpha 90.000000
_cell_angle_beta 116.176920
_cell_angle_gamma 90.000000
_cell_volume 3510.379990
_symmetry_space_group_name_H-M "C 2/M"
_symmetry_group_IT_number 12
_symmetry_cell_setting 'monoclinic'
loop_
_space_group_symop_operation_xyz
x,y,z
-x,y,-z
-x,-y,-z
x,-y,z
1/2+x,1/2+y,z
1/2-x,1/2+y,-z
1/2-x,1/2-y,-z
1/2+x,1/2-y,z
loop_
_atom_site_type_symbol
_atom_site_label
_atom_site_fract_x
_atom_site_fract_y
_atom_site_fract_z
Si Si1 0.135425 0.671767 0.288273
Si Si2 0.323080 0.827712 0.554682
Si Si3 0.780814 0.667500 0.921986
Si Si4 0.972091 0.669581 0.189164
Si Si5 0.097388 0.669073 0.706204
Si Si6 0.025208 0.327945 0.442845
Si Si7 0.747700 0.670976 0.766448
Si Si8 0.364537 0.331565 0.058791
O O1 0.130530 0.500000 0.288451
O O2 0.160202 0.728379 0.367380
O O3 0.054304 0.731473 0.236232
O O4 0.193341 0.726241 0.260237
O O5 0.250000 0.750000 0.500000
O O6 0.391406 0.778027 0.538751
O O7 0.311474 0.000000 0.547903
O O8 0.803103 0.500000 0.938700
O O9 0.777852 0.716614 0.847932
O O10 0.700997 0.698140 0.919005
O O11 0.843582 0.762979 0.982315
O O12 0.973211 0.500000 0.172890
O O13 0.922288 0.700837 0.229583
O O14 0.938471 0.755512 0.115717
O O15 0.111019 0.500000 0.699962
O O16 0.170875 0.753266 0.717636
O O17 0.030904 0.728531 0.634485
O O18 0.022671 0.500000 0.442986
O O19 0.000000 0.263194 0.500000
O O20 0.734706 0.500000 0.757687
O O21 0.380542 0.500000 0.055723
#
# Coordination Sequence:
#
# PCOD8083621 Si02
#       8
#     8   8   8   8   8   8   8   8
#     4   9  19  36  56  75 103 142 177 210 254 312
#     4  10  20  36  55  77 106 140 177 213 257 310
#     4   9  18  32  49  74 104 135 172 209 253 312
#     4  10  18  33  55  77 100 136 180 214 251 306
#     4  10  19  32  54  79 103 134 177 221 257 300
#     4   9  18  33  53  77 106 139 175 215 255 304
#     4  10  20  35  54  77 106 137 171 216 263 305
#     4  10  19  31  51  78 106 134 167 214 266 304
#
# _framework density 18.231645
#
# number of rings (size 3 to 8) (size 9 to 14) (size 15 to 20)
#    0.000    2.375    2.500    0.375    1.750    1.000 
#    0.000    2.500    0.000    4.500    0.000    0.000 
#    0.000    0.000    0.000    0.000    0.000    0.000 
#
# Total GULP energy -396843.209354 kJ/mol
# GULP energy per Si atom -12401.350292 kJ/mol
# Density = 1.819015 g / cm^3
# Si number density = 18.231645 Si / 1000 Ang^3
#
#
#
# Elastic Constant Matrix: (Units=GPa)
#
#
# Indices 1 2 3 4 5 6 
#
# 1 128.3643 37.0718 73.3348 0.0000 8.6470 0.0000
# 2 37.0718 42.9494 45.2659 0.0000 10.8091 0.0000
# 3 73.3348 45.2659 144.0300 0.0000 18.8221 0.0000
# 4 0.0000 0.0000 0.0000 24.8885 0.0000 8.1500
# 5 8.6470 10.8091 18.8221 0.0000 35.8090 0.0000
# 6 0.0000 0.0000 0.0000 8.1500 0.0000 22.1299
#
#
#
# Elastic Compliance Matrix: (Units=1/GPa)
#
#
# Indices 1 2 3 4 5 6 
#
# 1 0.011928 -0.006032 -0.004337 0.000000 0.001220 0.000000
# 2 -0.006032 0.038758 -0.008344 0.000000 -0.005857 0.000000
# 3 -0.004337 -0.008344 0.012142 0.000000 -0.002816 0.000000
# 4 0.000000 0.000000 0.000000 0.045689 0.000000 -0.016827
# 5 0.001220 -0.005857 -0.002816 0.000000 0.030879 0.000000
# 6 0.000000 0.000000 0.000000 -0.016827 0.000000 0.051385
#
#
# Mechanical properties :
#
#
# Convention : Reuss Voigt Hill
#
# Bulk Modulus (GPa) = 39.36812 69.63206 54.50009
# Shear Modulus (GPa) = 21.12614 27.21023 24.16819
#
# Velocity S-wave (km/s) = 3.40775 3.86744 3.64485
# Velocity P-wave (km/s) = 6.09294 7.63012 6.90444
#
# Compressibility (1/GPa) = 0.02540126
#
# Stress axis : x y z
#
# Youngs Moduli (GPa) = 83.83757 25.80131 82.36064
#
# Poissons Ratio (x) = 0.15562 0.35720
# Poissons Ratio (y) = 0.50567 0.68725
# Poissons Ratio (z) = 0.36361 0.21530
#
# Static dielectric constant tensor:
#      x y z
#    x 3.386950 0.000000 -0.052840 
#    y 0.000000 3.030980 0.000000 
#    z -0.052840 0.000000 3.508910 
# 
# 
# High freq. dielectric constant tensor:
#      x y z
#    x 1.700400 0.000000 0.004580 
#    y 0.000000 1.673790 0.000000 
#    z 0.004580 0.000000 1.720140 
# 
# From -- ./inp_files/320054.got.cif
#   From: 2010.06.25/outbox.cif.g09.slc.cpg/sg12_161_cif.got.tgz:320054.got - 2010.06.28 00:19:55.
