data_PCOD8083036
_publ_section_title
;
Structure prediction by ZEFSAII (Michael W. Deem and Ramdas Pophale) SiO2 
 PCOD8083036
Probable space group: C 2/M
;
_chemical_formula_sum "Si O2"
_cell_formula_units_Z 64
_cell_length_a 20.577386
_cell_length_b 9.182726
_cell_length_c 19.207924
_cell_angle_alpha 90.000000
_cell_angle_beta 90.047301
_cell_angle_gamma 90.000000
_cell_volume 3629.460805
_symmetry_space_group_name_H-M "C 2/M"
_symmetry_group_IT_number 12
_symmetry_cell_setting 'monoclinic'
loop_
_space_group_symop_operation_xyz
x,y,z
-x,y,-z
-x,-y,-z
x,-y,z
1/2+x,1/2+y,z
1/2-x,1/2+y,-z
1/2-x,1/2-y,-z
1/2+x,1/2-y,z
loop_
_atom_site_type_symbol
_atom_site_label
_atom_site_fract_x
_atom_site_fract_y
_atom_site_fract_z
Si Si1 0.700686 0.672987 0.051378
Si Si2 0.550670 0.671467 0.209446
Si Si3 0.006538 0.328113 0.338381
Si Si4 0.118232 0.327434 0.580603
Si Si5 0.304188 0.671505 0.794474
Si Si6 0.633490 0.172222 0.423749
Si Si7 0.446865 0.327970 0.947367
Si Si8 0.750244 0.672398 0.348871
O O1 0.707257 0.500000 0.042865
O O2 0.719753 0.725982 0.129812
O O3 0.626575 0.725552 0.035914
O O4 0.750000 0.750000 0.000000
O O5 0.544004 0.500000 0.222306
O O6 0.503584 0.754765 0.262505
O O7 0.623808 0.729629 0.223146
O O8 0.531374 0.714378 0.130670
O O9 0.001525 0.500000 0.328580
O O10 0.071674 0.281666 0.378302
O O11 0.946275 0.266123 0.382778
O O12 0.115069 0.500000 0.579127
O O13 0.122049 0.269462 0.501900
O O14 0.180055 0.273315 0.624757
O O15 0.310719 0.500000 0.800378
O O16 0.255921 0.719475 0.732442
O O17 0.696649 0.250443 0.395139
O O18 0.645001 0.000000 0.422187
O O19 0.446470 0.500000 0.955108
O O20 0.500000 0.258006 0.000000
O O21 0.741176 0.500000 0.357260
#
# Coordination Sequence:
#
# PCOD8083036 Si02
#       8
#     8   8   8   8   8   8   8   8
#     4   9  17  31  50  72  97 125 157 193 231 277
#     4   9  16  30  52  73  93 122 162 200 229 272
#     4  10  19  32  49  70  97 127 159 194 235 285
#     4   9  19  33  48  69  96 129 160 189 236 290
#     4   8  15  29  49  69  91 123 159 189 225 276
#     4  10  19  32  51  71  94 124 159 199 238 279
#     4   8  15  30  52  73  94 125 162 193 229 281
#     4  10  18  32  53  71  92 124 163 198 229 281
#
# _framework density 17.633474
#
# number of rings (size 3 to 8) (size 9 to 14) (size 15 to 20)
#    0.000    2.875    1.250    2.250    0.000    1.500 
#    2.250    4.375    0.000    2.250    0.000    0.000 
#    0.000    0.000    0.000    0.000    0.000    0.000 
#
# Total GULP energy -396655.529426 kJ/mol
# GULP energy per Si atom -12395.485295 kJ/mol
# Density = 1.759334 g / cm^3
# Si number density = 17.633474 Si / 1000 Ang^3
#
#
#
# Elastic Constant Matrix: (Units=GPa)
#
#
# Indices 1 2 3 4 5 6 
#
# 1 98.8756 22.7300 71.0545 0.0000 -4.3445 0.0000
# 2 22.7300 20.3666 28.3794 0.0000 -3.1085 0.0000
# 3 71.0545 28.3794 155.9993 0.0000 -5.9120 0.0000
# 4 0.0000 0.0000 0.0000 25.6731 0.0000 -8.3691
# 5 -4.3445 -3.1085 -5.9120 0.0000 34.8177 0.0000
# 6 0.0000 0.0000 0.0000 -8.3691 0.0000 21.0453
#
#
#
# Elastic Compliance Matrix: (Units=1/GPa)
#
#
# Indices 1 2 3 4 5 6 
#
# 1 0.016615 -0.010692 -0.005617 0.000000 0.000165 0.000000
# 2 -0.010692 0.073174 -0.008298 0.000000 0.003790 0.000000
# 3 -0.005617 -0.008298 0.010491 0.000000 0.000340 0.000000
# 4 0.000000 0.000000 0.000000 0.044753 0.000000 0.017797
# 5 0.000165 0.003790 0.000340 0.000000 0.029138 0.000000
# 6 0.000000 0.000000 0.000000 0.017797 0.000000 0.054594
#
#
# Mechanical properties :
#
#
# Convention : Reuss Voigt Hill
#
# Bulk Modulus (GPa) = 19.58214 57.72993 38.65603
# Shear Modulus (GPa) = 16.94916 26.51239 21.73078
#
# Velocity S-wave (km/s) = 3.10367 3.88174 3.51431
# Velocity P-wave (km/s) = 4.89622 7.27327 6.19973
#
# Compressibility (1/GPa) = 0.05106695
#
# Stress axis : x y z
#
# Youngs Moduli (GPa) = 60.18663 13.66604 95.31978
#
# Poissons Ratio (x) = 0.14611 0.53536
# Poissons Ratio (y) = 0.64350 0.79100
# Poissons Ratio (z) = 0.33804 0.11341
#
# Static dielectric constant tensor:
#      x y z
#    x 3.395310 0.000000 0.169400 
#    y 0.000000 2.820680 0.000000 
#    z 0.169400 0.000000 3.639720 
# 
# 
# High freq. dielectric constant tensor:
#      x y z
#    x 1.676630 0.000000 0.001640 
#    y 0.000000 1.636910 0.000000 
#    z 0.001640 0.000000 1.698180 
# 
# From -- ./inp_files/281253.got.cif
#   From: 2010.06.25/outbox.cif.g09.slc.cpg/sg12_141_cif.got.tgz:281253.got - 2010.06.28 00:19:55.
