data_PCOD8083422
_publ_section_title
;
Structure prediction by ZEFSAII (Michael W. Deem and Ramdas Pophale) SiO2 
 PCOD8083422
Probable space group: C 2/M
;
_chemical_formula_sum "Si O2"
_cell_formula_units_Z 64
_cell_length_a 12.003853
_cell_length_b 13.670932
_cell_length_c 30.877225
_cell_angle_alpha 90.000000
_cell_angle_beta 139.814205
_cell_angle_gamma 90.000000
_cell_volume 3269.620797
_symmetry_space_group_name_H-M "C 2/M"
_symmetry_group_IT_number 12
_symmetry_cell_setting 'monoclinic'
loop_
_space_group_symop_operation_xyz
x,y,z
-x,y,-z
-x,-y,-z
x,-y,z
1/2+x,1/2+y,z
1/2-x,1/2+y,-z
1/2-x,1/2-y,-z
1/2+x,1/2-y,z
loop_
_atom_site_type_symbol
_atom_site_label
_atom_site_fract_x
_atom_site_fract_y
_atom_site_fract_z
Si Si1 0.271836 0.761681 0.282113
Si Si2 0.172948 0.206755 0.158399
Si Si3 0.535950 0.108876 0.899144
Si Si4 0.157725 0.780679 0.404541
Si Si5 0.416178 0.614671 0.019046
Si Si6 0.264192 0.890528 0.516763
Si Si7 0.494629 0.889520 0.211010
Si Si8 0.336757 0.890231 0.381567
O O1 0.177517 0.805497 0.211711
O O2 0.467711 0.733627 0.328562
O O3 0.179453 0.662755 0.271402
O O4 0.262437 0.844653 0.315622
O O5 0.358640 0.179819 0.194827
O O6 0.117910 0.319144 0.131183
O O7 0.029941 0.136191 0.095199
O O8 0.556621 0.103672 0.853881
O O9 0.494694 0.000000 0.905166
O O10 0.720543 0.151353 0.970135
O O11 0.141469 0.847302 0.442857
O O12 0.244194 0.676369 0.442784
O O13 0.277857 0.829044 0.405003
O O14 0.404784 0.500000 0.008291
O O15 0.500000 0.661750 0.000000
O O16 0.457783 0.889302 0.556018
O O17 0.204541 0.000000 0.511201
O O18 0.500702 0.000000 0.232651
O O19 0.263829 0.000000 0.363388
#
# Coordination Sequence:
#
# PCOD8083422 Si02
#       8
#     8   8   8   8   8   8   8   8
#     4  10  23  37  51  81 114 148 190 232 275 327
#     4  11  20  34  58  81 109 148 188 232 283 329
#     4   9  19  35  55  82 110 138 179 230 283 341
#     4  10  19  35  59  82 114 148 186 231 278 332
#     4  10  18  32  57  87 110 138 185 235 286 340
#     4   9  19  35  59  88 111 141 187 234 279 330
#     4  10  20  36  55  77 107 144 187 231 277 333
#     4  10  20  36  57  81 113 150 187 226 275 339
#
# _framework density 19.574134999999998
#
# number of rings (size 3 to 8) (size 9 to 14) (size 15 to 20)
#    0.000    2.125    1.250    2.250    0.000    3.000 
#    0.000    6.250    0.000   12.375    0.000    0.000 
#    0.000    0.000    0.000    0.000    0.000    0.000 
#
# Total GULP energy -396741.333837 kJ/mol
# GULP energy per Si atom -12398.166682 kJ/mol
# Density = 1.952958 g / cm^3
# Si number density = 19.574135 Si / 1000 Ang^3
#
#
#
# Elastic Constant Matrix: (Units=GPa)
#
#
# Indices 1 2 3 4 5 6 
#
# 1 47.4241 34.7005 11.4138 0.0000 -7.0403 0.0000
# 2 34.7005 107.6372 22.4472 0.0000 -5.2342 0.0000
# 3 11.4138 22.4472 91.6540 0.0000 -9.8002 0.0000
# 4 0.0000 0.0000 0.0000 25.8323 0.0000 1.2479
# 5 -7.0403 -5.2342 -9.8002 0.0000 12.6251 0.0000
# 6 0.0000 0.0000 0.0000 1.2479 0.0000 33.4705
#
#
#
# Elastic Compliance Matrix: (Units=1/GPa)
#
#
# Indices 1 2 3 4 5 6 
#
# 1 0.029482 -0.008858 -0.000149 0.000000 0.012652 0.000000
# 2 -0.008858 0.012519 -0.002111 0.000000 -0.001388 0.000000
# 3 -0.000149 -0.002111 0.012371 0.000000 0.008644 0.000000
# 4 0.000000 0.000000 0.000000 0.038781 0.000000 -0.001446
# 5 0.012652 -0.001388 0.008644 0.000000 0.092397 0.000000
# 6 0.000000 0.000000 0.000000 -0.001446 0.000000 0.029931
#
#
# Mechanical properties :
#
#
# Convention : Reuss Voigt Hill
#
# Bulk Modulus (GPa) = 31.11946 42.64870 36.88408
# Shear Modulus (GPa) = 20.12644 26.26250 23.19447
#
# Velocity S-wave (km/s) = 3.21006 3.66689 3.44605
# Velocity P-wave (km/s) = 5.44721 6.30584 5.89219
#
# Compressibility (1/GPa) = 0.03213423
#
# Stress axis : x y z
#
# Youngs Moduli (GPa) = 33.91887 79.87848 80.83718
#
# Poissons Ratio (x) = 0.70758 0.01205
# Poissons Ratio (y) = 0.30046 0.17068
# Poissons Ratio (z) = 0.00506 0.16865
#
# Static dielectric constant tensor:
#      x y z
#    x 3.333740 0.000000 0.060210 
#    y 0.000000 3.824620 0.000000 
#    z 0.060210 0.000000 3.647200 
# 
# 
# High freq. dielectric constant tensor:
#      x y z
#    x 1.737660 0.000000 0.003050 
#    y 0.000000 1.764480 0.000000 
#    z 0.003050 0.000000 1.770630 
# 
# From -- ./inp_files/374123.got.cif
#   From: 2010.06.25/outbox.cif.g09.slc.cpg/sg12_188_cif.got.tgz:374123.got - 2010.06.28 00:19:55.
