data_PCOD8083356
_publ_section_title
;
Structure prediction by ZEFSAII (Michael W. Deem and Ramdas Pophale) SiO2 
 PCOD8083356
Probable space group: C 2/M
;
_chemical_formula_sum "Si O2"
_cell_formula_units_Z 56
_cell_length_a 12.566203
_cell_length_b 26.899365
_cell_length_c 9.335516
_cell_angle_alpha 90.000000
_cell_angle_beta 65.193250
_cell_angle_gamma 90.000000
_cell_volume 2864.443009
_symmetry_space_group_name_H-M "C 2/M"
_symmetry_group_IT_number 12
_symmetry_cell_setting 'monoclinic'
loop_
_space_group_symop_operation_xyz
x,y,z
-x,y,-z
-x,-y,-z
x,-y,z
1/2+x,1/2+y,z
1/2-x,1/2+y,-z
1/2-x,1/2-y,-z
1/2+x,1/2-y,z
loop_
_atom_site_type_symbol
_atom_site_label
_atom_site_fract_x
_atom_site_fract_y
_atom_site_fract_z
Si Si1 0.258565 0.445382 0.401521
Si Si2 0.890032 0.692605 0.169004
Si Si3 0.367856 0.301087 0.126749
Si Si4 0.140993 0.555796 0.160887
Si Si5 0.532963 0.608684 0.816176
Si Si6 0.939108 0.379231 0.382619
Si Si7 0.718007 0.637262 0.075785
O O1 0.246374 0.500000 0.479580
O O2 0.203900 0.446616 0.276196
O O3 0.398049 0.434253 0.307334
O O4 0.188411 0.404583 0.532617
O O5 0.832730 0.747917 0.213008
O O6 0.928564 0.672933 0.303366
O O7 0.786881 0.657140 0.173096
O O8 0.000000 0.691189 0.000000
O O9 0.372786 0.345396 0.240518
O O10 0.500000 0.295678 0.000000
O O11 0.282168 0.319214 0.046448
O O12 0.122305 0.500000 0.110804
O O13 0.015928 0.582447 0.246813
O O14 0.221602 0.586608 0.008137
O O15 0.413971 0.623253 0.801242
O O16 0.500000 0.594378 0.000000
O O17 0.000000 0.367028 0.500000
#
# Coordination Sequence:
#
# PCOD8083356 Si02
#       7
#     8   8   8   8   8   8   8
#     4  10  19  34  58  79 109 157 193 227 288 344
#     4  11  20  35  60  84 109 157 195 227 292 340
#     4   8  17  32  55  86 112 145 185 237 284 331
#     4  10  18  32  56  84 114 147 185 236 288 329
#     4   9  17  33  54  83 115 138 184 248 276 324
#     4  10  22  38  54  83 119 148 191 239 279 342
#     4  10  18  33  54  89 117 139 185 247 277 332
#
# _framework density 19.550048
#
# number of rings (size 3 to 8) (size 9 to 14) (size 15 to 20)
#    0.000    2.571    4.286    0.857    0.000    2.571 
#    0.000    3.571    0.000    0.857    0.000    0.000 
#    0.000    0.000    0.000    0.000    0.000    0.000 
#
# Total GULP energy -346990.235476 kJ/mol
# GULP energy per Si atom -12392.508410 kJ/mol
# Density = 1.950555 g / cm^3
# Si number density = 19.550048 Si / 1000 Ang^3
#
#
#
# Elastic Constant Matrix: (Units=GPa)
#
#
# Indices 1 2 3 4 5 6 
#
# 1 79.2121 20.9288 19.9719 0.0000 -6.3542 0.0000
# 2 20.9288 119.4679 39.0255 0.0000 3.6827 0.0000
# 3 19.9719 39.0255 44.1876 0.0000 -4.2954 0.0000
# 4 0.0000 0.0000 0.0000 13.4157 0.0000 -2.1714
# 5 -6.3542 3.6827 -4.2954 0.0000 24.8543 0.0000
# 6 0.0000 0.0000 0.0000 -2.1714 0.0000 25.8127
#
#
#
# Elastic Compliance Matrix: (Units=1/GPa)
#
#
# Indices 1 2 3 4 5 6 
#
# 1 0.014466 -0.000812 -0.005544 0.000000 0.002861 0.000000
# 2 -0.000812 0.012135 -0.010726 0.000000 -0.003859 0.000000
# 3 -0.005544 -0.010726 0.035218 0.000000 0.006259 0.000000
# 4 0.000000 0.000000 0.000000 0.075569 0.000000 0.006357
# 5 0.002861 -0.003859 0.006259 0.000000 0.042619 0.000000
# 6 0.000000 0.000000 0.000000 0.006357 0.000000 0.039275
#
#
# Mechanical properties :
#
#
# Convention : Reuss Voigt Hill
#
# Bulk Modulus (GPa) = 36.15741 44.74665 40.45203
# Shear Modulus (GPa) = 19.03578 23.67930 21.35754
#
# Velocity S-wave (km/s) = 3.12379 3.48403 3.30882
# Velocity P-wave (km/s) = 5.61656 6.25480 5.94425
#
# Compressibility (1/GPa) = 0.02765685
#
# Stress axis : x y z
#
# Youngs Moduli (GPa) = 69.12802 82.40381 28.39476
#
# Poissons Ratio (x) = 0.06687 0.15741
# Poissons Ratio (y) = 0.05610 0.30456
# Poissons Ratio (z) = 0.38321 0.88387
#
# Static dielectric constant tensor:
#      x y z
#    x 3.261750 0.000000 0.079760 
#    y 0.000000 4.243460 0.000000 
#    z 0.079760 0.000000 2.883640 
# 
# 
# High freq. dielectric constant tensor:
#      x y z
#    x 1.758020 0.000000 -0.017280 
#    y 0.000000 1.768190 0.000000 
#    z -0.017280 0.000000 1.709640 
# 
# From -- ./inp_files/54137.got.cif
#   From: 2010.06.25/outbox.cif.g09.slc.cpg/sg12_28_cif.got.tgz:54137.got - 2010.06.28 00:19:55.
