data_PCOD8083383
_publ_section_title
;
Structure prediction by ZEFSAII (Michael W. Deem and Ramdas Pophale) SiO2 
 PCOD8083383
Probable space group: C 2/M
;
_chemical_formula_sum "Si O2"
_cell_formula_units_Z 64
_cell_length_a 15.443482
_cell_length_b 8.879206
_cell_length_c 25.333905
_cell_angle_alpha 90.000000
_cell_angle_beta 108.538853
_cell_angle_gamma 90.000000
_cell_volume 3293.665039
_symmetry_space_group_name_H-M "C 2/M"
_symmetry_group_IT_number 12
_symmetry_cell_setting 'monoclinic'
loop_
_space_group_symop_operation_xyz
x,y,z
-x,y,-z
-x,-y,-z
x,-y,z
1/2+x,1/2+y,z
1/2-x,1/2+y,-z
1/2-x,1/2-y,-z
1/2+x,1/2-y,z
loop_
_atom_site_type_symbol
_atom_site_label
_atom_site_fract_x
_atom_site_fract_y
_atom_site_fract_z
Si Si1 0.400432 0.673216 0.623552
Si Si2 0.718341 0.823930 0.754213
Si Si3 0.782644 0.678409 0.362961
Si Si4 0.452879 0.322731 0.935961
Si Si5 0.427432 0.673447 0.135919
Si Si6 0.229864 0.678686 0.131527
Si Si7 0.976556 0.678498 0.437601
Si Si8 0.963926 0.171074 0.258398
O O1 0.407540 0.500000 0.607220
O O2 0.295506 0.725367 0.610483
O O3 0.444456 0.774434 0.587193
O O4 0.446544 0.697196 0.689598
O O5 0.745949 0.766819 0.701102
O O6 0.776207 0.733961 0.809007
O O7 0.610843 0.791121 0.738154
O O8 0.737223 0.000000 0.765940
O O9 0.792494 0.500000 0.362714
O O10 0.879388 0.748371 0.400317
O O11 0.437728 0.500000 0.925383
O O12 0.516821 0.252699 0.901791
O O13 0.354366 0.244330 0.917450
O O14 0.500000 0.283187 0.000000
O O15 0.415310 0.500000 0.119222
O O16 0.324841 0.739991 0.124003
O O17 0.486485 0.696950 0.200878
O O18 0.226545 0.500000 0.130252
O O19 0.971829 0.500000 0.437940
O O20 0.000000 0.742598 0.500000
O O21 0.925806 0.000000 0.258050
#
# Coordination Sequence:
#
# PCOD8083383 Si02
#       8
#     8   8   8   8   8   8   8   8
#     4  10  20  34  55  81 108 141 183 224 268 330
#     4  10  18  32  57  81 109 143 180 223 270 327
#     4   9  19  34  54  81 109 144 181 218 276 336
#     4  10  21  37  58  83 109 144 192 233 267 323
#     4   8  17  34  54  76 109 146 177 216 275 334
#     4  10  21  37  55  79 111 147 182 222 278 332
#     4  10  21  39  58  77 110 151 187 228 275 321
#     4   9  17  31  53  78 108 142 174 216 274 329
#
# _framework density 19.431241
#
# number of rings (size 3 to 8) (size 9 to 14) (size 15 to 20)
#    0.000    2.500    1.250    1.500    1.750    1.500 
#    0.000    5.000    0.000    0.000    0.000    0.000 
#    0.000    0.000    0.000    0.000    0.000    0.000 
#
# Total GULP energy -396702.472068 kJ/mol
# GULP energy per Si atom -12396.952252 kJ/mol
# Density = 1.938702 g / cm^3
# Si number density = 19.431241 Si / 1000 Ang^3
#
#
#
# Elastic Constant Matrix: (Units=GPa)
#
#
# Indices 1 2 3 4 5 6 
#
# 1 98.1403 13.2383 50.8409 0.0000 -11.0647 0.0000
# 2 13.2383 29.1914 25.1770 0.0000 2.3557 0.0000
# 3 50.8409 25.1770 113.3488 0.0000 -12.3084 0.0000
# 4 0.0000 0.0000 0.0000 21.4508 0.0000 1.2554
# 5 -11.0647 2.3557 -12.3084 0.0000 27.8386 0.0000
# 6 0.0000 0.0000 0.0000 1.2554 0.0000 25.0887
#
#
#
# Elastic Compliance Matrix: (Units=1/GPa)
#
#
# Indices 1 2 3 4 5 6 
#
# 1 0.013555 -0.001804 -0.005334 0.000000 0.003182 0.000000
# 2 -0.001804 0.044445 -0.010031 0.000000 -0.008913 0.000000
# 3 -0.005334 -0.010031 0.013976 0.000000 0.004908 0.000000
# 4 0.000000 0.000000 0.000000 0.046755 0.000000 -0.002340
# 5 0.003182 -0.008913 0.004908 0.000000 0.040110 0.000000
# 6 0.000000 0.000000 0.000000 -0.002340 0.000000 0.039976
#
#
# Mechanical properties :
#
#
# Convention : Reuss Voigt Hill
#
# Bulk Modulus (GPa) = 26.56808 46.57698 36.57253
# Shear Modulus (GPa) = 20.35005 24.97056 22.66030
#
# Velocity S-wave (km/s) = 3.23969 3.58868 3.41864
# Velocity P-wave (km/s) = 5.26276 6.41823 5.86900
#
# Compressibility (1/GPa) = 0.03763916
#
# Stress axis : x y z
#
# Youngs Moduli (GPa) = 73.77599 22.49950 71.55304
#
# Poissons Ratio (x) = 0.04058 0.38163
# Poissons Ratio (y) = 0.13307 0.71775
# Poissons Ratio (z) = 0.39349 0.22569
#
# Static dielectric constant tensor:
#      x y z
#    x 3.638090 0.000000 -0.008810 
#    y 0.000000 3.218730 0.000000 
#    z -0.008810 0.000000 3.680730 
# 
# 
# High freq. dielectric constant tensor:
#      x y z
#    x 1.757520 0.000000 0.000000 
#    y 0.000000 1.721580 0.000000 
#    z 0.000000 0.000000 1.759540 
# 
# From -- ./inp_files/359747.got.cif
#   From: 2010.06.25/outbox.cif.g09.slc.cpg/sg12_180_cif.got.tgz:359747.got - 2010.06.28 00:19:55.
