data_PCOD8083553
_publ_section_title
;
Structure prediction by ZEFSAII (Michael W. Deem and Ramdas Pophale) SiO2 
 PCOD8083553
Probable space group: C 2/M
;
_chemical_formula_sum "Si O2"
_cell_formula_units_Z 56
_cell_length_a 12.567332
_cell_length_b 23.357910
_cell_length_c 11.150929
_cell_angle_alpha 90.000000
_cell_angle_beta 90.477589
_cell_angle_gamma 90.000000
_cell_volume 3273.203689
_symmetry_space_group_name_H-M "C 2/M"
_symmetry_group_IT_number 12
_symmetry_cell_setting 'monoclinic'
loop_
_space_group_symop_operation_xyz
x,y,z
-x,y,-z
-x,-y,-z
x,-y,z
1/2+x,1/2+y,z
1/2-x,1/2+y,-z
1/2-x,1/2-y,-z
1/2+x,1/2-y,z
loop_
_atom_site_type_symbol
_atom_site_label
_atom_site_fract_x
_atom_site_fract_y
_atom_site_fract_z
Si Si1 0.863618 0.672521 0.618658
Si Si2 0.375033 0.319609 0.989983
Si Si3 0.742976 0.747203 0.807135
Si Si4 0.110658 0.328606 0.647957
Si Si5 0.857778 0.563646 0.764521
Si Si6 0.597854 0.064149 0.793853
Si Si7 0.734681 0.564897 0.002261
O O1 0.797501 0.716133 0.696955
O O2 0.831232 0.680318 0.479196
O O3 0.836610 0.607652 0.656969
O O4 0.987107 0.685928 0.636442
O O5 0.313939 0.298790 0.108193
O O6 0.355334 0.387692 0.971204
O O7 0.500000 0.308124 0.000000
O O8 0.331735 0.283817 0.877144
O O9 0.654394 0.788662 0.752941
O O10 0.130974 0.394228 0.686094
O O11 0.849319 0.500000 0.709196
O O12 0.770548 0.572401 0.866031
O O13 0.973846 0.573218 0.824994
O O14 0.620420 0.000000 0.748109
O O15 0.663801 0.077712 0.913812
O O16 0.690871 0.500000 0.023924
#
# Coordination Sequence:
#
# PCOD8083553 Si02
#       7
#     8   8   8   8   8   8   8
#     4  10  20  33  52  77 103 135 172 205 243 297
#     4  11  23  36  54  78  99 129 172 214 258 305
#     4  11  21  38  52  72 105 139 162 208 256 305
#     4  10  20  33  52  77 103 135 172 205 243 297
#     4   9  17  30  50  77 106 133 164 205 254 306
#     4   9  17  30  50  77 106 133 164 205 254 306
#     4  10  18  33  53  75 101 132 167 210 262 304
#
# _framework density 17.108619999999998
#
# number of rings (size 3 to 8) (size 9 to 14) (size 15 to 20)
#    0.000    2.000    2.857    1.714    0.000    2.571 
#    0.000    2.857    0.000    0.000    0.000    0.000 
#    0.000    4.571    0.000    0.000    0.000    0.000 
#
# Total GULP energy -347169.529189 kJ/mol
# GULP energy per Si atom -12398.911757 kJ/mol
# Density = 1.706968 g / cm^3
# Si number density = 17.108620 Si / 1000 Ang^3
#
#
#
# Elastic Constant Matrix: (Units=GPa)
#
#
# Indices 1 2 3 4 5 6 
#
# 1 46.7206 31.0839 11.3694 0.0000 -0.2964 0.0000
# 2 31.0839 97.4317 22.6535 0.0000 -1.4134 0.0000
# 3 11.3694 22.6535 55.3403 0.0000 -4.3505 0.0000
# 4 0.0000 0.0000 0.0000 25.0335 0.0000 -1.7054
# 5 -0.2964 -1.4134 -4.3505 0.0000 24.4099 0.0000
# 6 0.0000 0.0000 0.0000 -1.7054 0.0000 18.7040
#
#
#
# Elastic Compliance Matrix: (Units=1/GPa)
#
#
# Indices 1 2 3 4 5 6 
#
# 1 0.027434 -0.008222 -0.002314 0.000000 -0.000555 0.000000
# 2 -0.008222 0.013808 -0.003964 0.000000 -0.000007 0.000000
# 3 -0.002314 -0.003964 0.020434 0.000000 0.003384 0.000000
# 4 0.000000 0.000000 0.000000 0.040196 0.000000 0.003665
# 5 -0.000555 -0.000007 0.003384 0.000000 0.041563 0.000000
# 6 0.000000 0.000000 0.000000 0.003665 0.000000 0.053799
#
#
# Mechanical properties :
#
#
# Convention : Reuss Voigt Hill
#
# Bulk Modulus (GPa) = 30.60344 36.63403 33.61873
# Shear Modulus (GPa) = 21.08584 22.58855 21.83719
#
# Velocity S-wave (km/s) = 3.51446 3.63754 3.57653
# Velocity P-wave (km/s) = 5.86474 6.25311 6.06203
#
# Compressibility (1/GPa) = 0.03267607
#
# Stress axis : x y z
#
# Youngs Moduli (GPa) = 36.45132 72.42028 48.93808
#
# Poissons Ratio (x) = 0.59546 0.11324
# Poissons Ratio (y) = 0.29972 0.19398
# Poissons Ratio (z) = 0.08435 0.28705
#
# Static dielectric constant tensor:
#      x y z
#    x 2.938780 0.000000 0.025450 
#    y 0.000000 3.383150 0.000000 
#    z 0.025450 0.000000 3.176000 
# 
# 
# High freq. dielectric constant tensor:
#      x y z
#    x 1.634180 0.000000 0.001490 
#    y 0.000000 1.674650 0.000000 
#    z 0.001490 0.000000 1.656580 
# 
# From -- ./inp_files/133220.got.cif
#   From: 2010.06.25/outbox.cif.g09.slc.cpg/sg12_67_cif.got.tgz:133220.got - 2010.06.28 00:19:55.
