data_PCOD8083354
_publ_section_title
;
Structure prediction by ZEFSAII (Michael W. Deem and Ramdas Pophale) SiO2 
 PCOD8083354
Probable space group: C 2/M
;
_chemical_formula_sum "Si O2"
_cell_formula_units_Z 64
_cell_length_a 24.680833
_cell_length_b 13.969151
_cell_length_c 17.510287
_cell_angle_alpha 90.000000
_cell_angle_beta 33.547027
_cell_angle_gamma 90.000000
_cell_volume 3336.189084
_symmetry_space_group_name_H-M "C 2/M"
_symmetry_group_IT_number 12
_symmetry_cell_setting 'monoclinic'
loop_
_space_group_symop_operation_xyz
x,y,z
-x,y,-z
-x,-y,-z
x,-y,z
1/2+x,1/2+y,z
1/2-x,1/2+y,-z
1/2-x,1/2-y,-z
1/2+x,1/2-y,z
loop_
_atom_site_type_symbol
_atom_site_label
_atom_site_fract_x
_atom_site_fract_y
_atom_site_fract_z
Si Si1 0.923754 0.392880 0.281482
Si Si2 0.235850 0.392009 0.962962
Si Si3 0.605377 0.108663 0.974982
Si Si4 0.767904 0.287499 0.395438
Si Si5 0.288318 0.112012 0.736497
Si Si6 0.612128 0.290745 0.870287
Si Si7 0.906539 0.296055 0.464398
Si Si8 0.629822 0.782104 0.212841
O O1 0.954030 0.500000 0.262168
O O2 0.826880 0.386255 0.340829
O O3 0.908474 0.346881 0.381150
O O4 0.013952 0.346482 0.129229
O O5 0.266974 0.500000 0.950012
O O6 0.199569 0.391119 0.918790
O O7 0.328457 0.321578 0.859913
O O8 0.149165 0.356467 0.121280
O O9 0.622404 0.179783 0.884716
O O10 0.585517 0.000000 0.968387
O O11 0.750000 0.250000 0.500000
O O12 0.840380 0.209935 0.269718
O O13 0.667827 0.295068 0.461991
O O14 0.175577 0.138726 0.849578
O O15 0.361668 0.133589 0.580476
O O16 0.320056 0.176104 0.770718
O O17 0.295038 0.000000 0.748984
O O18 0.500000 0.327306 0.000000
O O19 0.014551 0.264961 0.362874
#
# Coordination Sequence:
#
# PCOD8083354 Si02
#       8
#     8   8   8   8   8   8   8   8
#     4  10  18  32  56  84 112 144 184 232 287 341
#     4  10  21  37  59  87 117 149 185 234 295 353
#     4  10  19  33  58  90 117 143 184 234 290 348
#     4   9  20  36  53  78 112 150 185 230 278 345
#     4  11  24  38  55  84 114 148 199 246 289 346
#     4  11  21  37  58  83 118 152 190 234 295 346
#     4  10  21  36  56  80 111 153 192 238 294 343
#     4  11  21  37  61  84 114 151 192 241 291 342
#
# _framework density 19.183565000000002
#
# number of rings (size 3 to 8) (size 9 to 14) (size 15 to 20)
#    0.000    1.750    3.750    1.125    0.000    3.000 
#    0.000    0.625    0.000    2.250    0.000    0.000 
#    0.000    0.000    0.000    0.000    0.000    0.000 
#
# Total GULP energy -396538.656794 kJ/mol
# GULP energy per Si atom -12391.833025 kJ/mol
# Density = 1.913990 g / cm^3
# Si number density = 19.183565 Si / 1000 Ang^3
#
#
#
# Elastic Constant Matrix: (Units=GPa)
#
#
# Indices 1 2 3 4 5 6 
#
# 1 77.6433 19.6912 36.1798 0.0000 -12.9071 0.0000
# 2 19.6912 83.6865 27.0261 0.0000 -5.6850 0.0000
# 3 36.1798 27.0261 105.1697 0.0000 -16.2351 0.0000
# 4 0.0000 0.0000 0.0000 18.8368 0.0000 -1.8394
# 5 -12.9071 -5.6850 -16.2351 0.0000 39.8840 0.0000
# 6 0.0000 0.0000 0.0000 -1.8394 0.0000 22.4535
#
#
#
# Elastic Compliance Matrix: (Units=1/GPa)
#
#
# Indices 1 2 3 4 5 6 
#
# 1 0.016017 -0.002109 -0.004497 0.000000 0.003052 0.000000
# 2 -0.002109 0.013319 -0.002678 0.000000 0.000126 0.000000
# 3 -0.004497 -0.002678 0.012228 0.000000 0.003141 0.000000
# 4 0.000000 0.000000 0.000000 0.053516 0.000000 0.004384
# 5 0.003052 0.000126 0.003141 0.000000 0.027357 0.000000
# 6 0.000000 0.000000 0.000000 0.004384 0.000000 0.044896
#
#
# Mechanical properties :
#
#
# Convention : Reuss Voigt Hill
#
# Bulk Modulus (GPa) = 43.48396 48.03264 45.75830
# Shear Modulus (GPa) = 25.83099 28.47501 27.15300
#
# Velocity S-wave (km/s) = 3.67347 3.85690 3.76630
# Velocity P-wave (km/s) = 6.38036 6.70276 6.54355
#
# Compressibility (1/GPa) = 0.02299698
#
# Stress axis : x y z
#
# Youngs Moduli (GPa) = 62.43302 75.08118 81.77710
#
# Poissons Ratio (x) = 0.15836 0.36775
# Poissons Ratio (y) = 0.13168 0.21897
# Poissons Ratio (z) = 0.28076 0.20104
#
# Static dielectric constant tensor:
#      x y z
#    x 3.715890 0.000000 -0.097560 
#    y 0.000000 3.445720 0.000000 
#    z -0.097560 0.000000 3.891600 
# 
# 
# High freq. dielectric constant tensor:
#      x y z
#    x 1.756420 0.000000 0.005250 
#    y 0.000000 1.714370 0.000000 
#    z 0.005250 0.000000 1.756100 
# 
# From -- ./inp_files/290083.got.cif
#   From: 2010.06.25/outbox.cif.g09.slc.cpg/sg12_146_cif.got.tgz:290083.got - 2010.06.28 00:19:55.
