data_PCOD8083376
_publ_section_title
;
Structure prediction by ZEFSAII (Michael W. Deem and Ramdas Pophale) SiO2 
 PCOD8083376
Probable space group: C 2/M
;
_chemical_formula_sum "Si O2"
_cell_formula_units_Z 44
_cell_length_a 24.830262
_cell_length_b 9.400596
_cell_length_c 28.533179
_cell_angle_alpha 90.000000
_cell_angle_beta 160.152845
_cell_angle_gamma 90.000000
_cell_volume 2261.216705
_symmetry_space_group_name_H-M "C 2/M"
_symmetry_group_IT_number 12
_symmetry_cell_setting 'monoclinic'
loop_
_space_group_symop_operation_xyz
x,y,z
-x,y,-z
-x,-y,-z
x,-y,z
1/2+x,1/2+y,z
1/2-x,1/2+y,-z
1/2-x,1/2-y,-z
1/2+x,1/2-y,z
loop_
_atom_site_type_symbol
_atom_site_label
_atom_site_fract_x
_atom_site_fract_y
_atom_site_fract_z
Si Si1 0.214024 0.664234 0.838877
Si Si2 0.850558 0.333187 0.544360
Si Si3 0.000884 0.665775 0.098236
Si Si4 0.500000 0.749982 0.500000
Si Si5 0.216591 0.841850 0.209923
Si Si6 0.727076 0.342675 0.608752
O O1 0.256737 0.500000 0.882086
O O2 0.235052 0.708895 0.802074
O O3 0.033979 0.695493 0.706394
O O4 0.329673 0.760691 0.965385
O O5 0.810705 0.500000 0.512965
O O6 0.750000 0.250000 0.500000
O O7 0.807814 0.276935 0.457892
O O8 0.978878 0.500000 0.069986
O O9 0.085055 0.734941 0.121876
O O10 0.103567 0.692925 0.228956
O O11 0.373939 0.848555 0.370345
O O12 0.408401 0.651921 0.462363
O O13 0.142566 0.000000 0.148740
O O14 0.732511 0.500000 0.590029
#
# Coordination Sequence:
#
# PCOD8083376 Si02
#       6
#     8   8   8   4   8   8
#     4  10  21  38  57  83 116 153 197 243 291 350
#     4  11  24  43  65  90 116 152 203 250 298 350
#     4  10  22  36  54  86 122 157 195 236 291 355
#     4  10  18  32  56  90 122 156 196 242 292 352
#     4  10  19  32  53  82 119 159 197 238 289 351
#     4  10  21  38  59  87 123 157 195 244 295 350
#
# _framework density 19.458552000000001
#
# number of rings (size 3 to 8) (size 9 to 14) (size 15 to 20)
#    0.000    1.818    1.818    2.182    0.000    8.727 
#    0.000    0.909    0.000    0.000    0.000    0.000 
#    0.000    0.000    0.000    0.000    0.000    0.000 
#
# Total GULP energy -272828.953813 kJ/mol
# GULP energy per Si atom -12401.316082 kJ/mol
# Density = 1.941426 g / cm^3
# Si number density = 19.458552 Si / 1000 Ang^3
#
#
#
# Elastic Constant Matrix: (Units=GPa)
#
#
# Indices 1 2 3 4 5 6 
#
# 1 75.4049 48.6232 49.8614 0.0102 5.5808 0.0057
# 2 48.6232 129.6728 77.2388 0.0352 5.4119 0.0077
# 3 49.8614 77.2388 137.6966 0.1634 6.3156 0.0197
# 4 0.0102 0.0352 0.1634 31.3390 -0.0259 -0.9624
# 5 5.5808 5.4119 6.3156 -0.0259 19.1529 -0.0101
# 6 0.0057 0.0077 0.0197 -0.9624 -0.0101 28.8033
#
#
#
# Elastic Compliance Matrix: (Units=1/GPa)
#
#
# Indices 1 2 3 4 5 6 
#
# 1 0.019239 -0.004539 -0.004287 0.000019 -0.002910 0.000000
# 2 -0.004539 0.012677 -0.005446 0.000015 -0.000464 0.000002
# 3 -0.004287 -0.005446 0.011922 -0.000056 -0.001143 -0.000008
# 4 0.000019 0.000015 -0.000056 0.031942 0.000052 0.001067
# 5 -0.002910 -0.000464 -0.001143 0.000052 0.053567 0.000022
# 6 0.000000 0.000002 -0.000008 0.001067 0.000022 0.034754
#
#
# Mechanical properties :
#
#
# Convention : Reuss Voigt Hill
#
# Bulk Modulus (GPa) = 65.38669 77.13568 71.26118
# Shear Modulus (GPa) = 25.28531 26.99577 26.14054
#
# Velocity S-wave (km/s) = 3.60869 3.72875 3.66921
# Velocity P-wave (km/s) = 7.14420 7.63316 7.39272
#
# Compressibility (1/GPa) = 0.01529363
#
# Stress axis : x y z
#
# Youngs Moduli (GPa) = 51.97844 78.88331 83.87739
#
# Poissons Ratio (x) = 0.35804 0.35959
# Poissons Ratio (y) = 0.23593 0.45680
# Poissons Ratio (z) = 0.22284 0.42961
#
# Static dielectric constant tensor:
#      x y z
#    x 3.334900 0.000040 -0.076660 
#    y 0.000040 3.497420 -0.000110 
#    z -0.076660 -0.000110 3.803330 
# 
# 
# High freq. dielectric constant tensor:
#      x y z
#    x 1.728940 0.000000 -0.006580 
#    y 0.000000 1.761460 -0.000010 
#    z -0.006580 -0.000010 1.771570 
# 
# From -- ./inp_files/382603.got.cif
#   From: 2010.06.25/outbox.cif.g09.slc.cpg/sg12_192_cif.got.tgz:382603.got - 2010.06.28 00:19:55.
