data_PCOD8083860
_publ_section_title
;
Structure prediction by ZEFSAII (Michael W. Deem and Ramdas Pophale) SiO2 
 PCOD8083860
Probable space group: C 2/M
;
_chemical_formula_sum "Si O2"
_cell_formula_units_Z 60
_cell_length_a 12.830439
_cell_length_b 18.268125
_cell_length_c 14.101532
_cell_angle_alpha 90.000000
_cell_angle_beta 109.952243
_cell_angle_gamma 90.000000
_cell_volume 3106.842146
_symmetry_space_group_name_H-M "C 2/M"
_symmetry_group_IT_number 12
_symmetry_cell_setting 'monoclinic'
loop_
_space_group_symop_operation_xyz
x,y,z
-x,y,-z
-x,-y,-z
x,-y,z
1/2+x,1/2+y,z
1/2-x,1/2+y,-z
1/2-x,1/2-y,-z
1/2+x,1/2-y,z
loop_
_atom_site_type_symbol
_atom_site_label
_atom_site_fract_x
_atom_site_fract_y
_atom_site_fract_z
Si Si1 0.135355 0.581154 0.638778
Si Si2 0.846564 0.270054 0.602050
Si Si3 0.844792 0.158116 0.773727
Si Si4 0.449676 0.581276 0.088237
Si Si5 0.740345 0.326526 0.046784
Si Si6 0.043600 0.583803 0.912770
Si Si7 0.582349 0.919367 0.306901
Si Si8 0.000000 0.694327 0.500000
O O1 0.136771 0.500000 0.593125
O O2 0.255774 0.595950 0.719785
O O3 0.041151 0.586461 0.688860
O O4 0.107010 0.641909 0.550757
O O5 0.750000 0.250000 0.500000
O O6 0.845553 0.222030 0.696094
O O7 0.837281 0.355574 0.629807
O O8 0.962916 0.257584 0.579603
O O9 0.813605 0.189069 0.867283
O O10 0.966472 0.122332 0.814396
O O11 0.427438 0.500000 0.121749
O O12 0.500000 0.575907 0.000000
O O13 0.334284 0.623770 0.045546
O O14 0.858946 0.364546 0.094966
O O15 0.750000 0.250000 0.000000
O O16 0.086812 0.500000 0.930915
O O17 0.937129 0.590542 0.811125
O O18 0.000000 0.612032 0.000000
O O19 0.634165 0.000000 0.345033
#
# Coordination Sequence:
#
# PCOD8083860 Si02
#       8
#     8   8   8   8   8   8   8   4
#     4  10  18  33  59  87 113 141 189 247 299 348
#     4  11  23  40  59  88 122 154 195 245 306 356
#     4  11  22  37  59  89 117 157 197 237 295 353
#     4   9  20  38  58  83 119 155 191 238 289 349
#     4  11  24  36  58  87 121 159 197 241 290 346
#     4  10  21  37  59  87 119 158 197 242 299 354
#     4   9  20  37  60  85 117 154 195 247 296 350
#     4  10  21  38  56  86 119 150 188 240 311 344
#
# _framework density 19.312214000000001
#
# number of rings (size 3 to 8) (size 9 to 14) (size 15 to 20)
#    0.000    1.867    2.667    1.000    3.733    2.133 
#    0.000    0.000    0.000    0.000    0.000    2.333 
#    0.000    0.000    0.000    0.000    0.000    0.000 
#
# Total GULP energy -371889.727854 kJ/mol
# GULP energy per Si atom -12396.324262 kJ/mol
# Density = 1.926826 g / cm^3
# Si number density = 19.312214 Si / 1000 Ang^3
#
#
#
# Elastic Constant Matrix: (Units=GPa)
#
#
# Indices 1 2 3 4 5 6 
#
# 1 56.2472 50.2397 37.4664 0.0000 -0.3950 0.0000
# 2 50.2397 142.0670 62.0070 0.0000 3.9445 0.0000
# 3 37.4664 62.0070 111.1129 0.0000 4.2761 0.0000
# 4 0.0000 0.0000 0.0000 32.8354 0.0000 3.7625
# 5 -0.3950 3.9445 4.2761 0.0000 37.3524 0.0000
# 6 0.0000 0.0000 0.0000 3.7625 0.0000 19.5251
#
#
#
# Elastic Compliance Matrix: (Units=1/GPa)
#
#
# Indices 1 2 3 4 5 6 
#
# 1 0.028193 -0.007720 -0.005264 0.000000 0.001716 0.000000
# 2 -0.007720 0.011425 -0.003740 0.000000 -0.000860 0.000000
# 3 -0.005264 -0.003740 0.012906 0.000000 -0.001138 0.000000
# 4 0.000000 0.000000 0.000000 0.031143 0.000000 -0.006001
# 5 0.001716 -0.000860 -0.001138 0.000000 0.027011 0.000000
# 6 0.000000 0.000000 0.000000 -0.006001 0.000000 0.052373
#
#
# Mechanical properties :
#
#
# Convention : Reuss Voigt Hill
#
# Bulk Modulus (GPa) = 52.42245 67.65034 60.03640
# Shear Modulus (GPa) = 24.64806 28.59017 26.61912
#
# Velocity S-wave (km/s) = 3.57640 3.85180 3.71665
# Velocity P-wave (km/s) = 6.65266 7.40862 7.04079
#
# Compressibility (1/GPa) = 0.01907580
#
# Stress axis : x y z
#
# Youngs Moduli (GPa) = 35.47036 87.52738 77.48558
#
# Poissons Ratio (x) = 0.67570 0.40790
# Poissons Ratio (y) = 0.27382 0.28977
# Poissons Ratio (z) = 0.18673 0.32732
#
# Static dielectric constant tensor:
#      x y z
#    x 3.399700 0.000000 0.008690 
#    y 0.000000 3.668150 0.000000 
#    z 0.008690 0.000000 3.726210 
# 
# 
# High freq. dielectric constant tensor:
#      x y z
#    x 1.723230 0.000000 0.001640 
#    y 0.000000 1.752270 0.000000 
#    z 0.001640 0.000000 1.759960 
# 
# From -- ./inp_files/206732.got.cif
#   From: 2010.06.25/outbox.cif.g09.slc.cpg/sg12_104_cif.got.tgz:206732.got - 2010.06.28 00:19:55.
