data_PCOD8083014
_publ_section_title
;
Structure prediction by ZEFSAII (Michael W. Deem and Ramdas Pophale) SiO2 
 PCOD8083014
Probable space group: C 2/M
;
_chemical_formula_sum "Si O2"
_cell_formula_units_Z 64
_cell_length_a 25.377232
_cell_length_b 8.447241
_cell_length_c 15.327218
_cell_angle_alpha 90.000000
_cell_angle_beta 105.320112
_cell_angle_gamma 90.000000
_cell_volume 3168.902094
_symmetry_space_group_name_H-M "C 2/M"
_symmetry_group_IT_number 12
_symmetry_cell_setting 'monoclinic'
loop_
_space_group_symop_operation_xyz
x,y,z
-x,y,-z
-x,-y,-z
x,-y,z
1/2+x,1/2+y,z
1/2-x,1/2+y,-z
1/2-x,1/2-y,-z
1/2+x,1/2-y,z
loop_
_atom_site_type_symbol
_atom_site_label
_atom_site_fract_x
_atom_site_fract_y
_atom_site_fract_z
Si Si1 0.445493 0.315248 0.300391
Si Si2 0.344532 0.812666 0.920336
Si Si3 0.734147 0.816134 0.678049
Si Si4 0.883597 0.317320 0.115765
Si Si5 0.127594 0.813255 0.573240
Si Si6 0.567713 0.313356 0.370091
Si Si7 0.347974 0.813830 0.727271
Si Si8 0.776445 0.183514 0.140359
O O1 0.448891 0.500000 0.318160
O O2 0.424726 0.281694 0.193498
O O3 0.404101 0.245893 0.354934
O O4 0.506119 0.245502 0.339264
O O5 0.360699 0.749099 0.831399
O O6 0.282966 0.758603 0.918970
O O7 0.344423 0.000000 0.917488
O O8 0.386221 0.757259 0.015398
O O9 0.685904 0.774924 0.588645
O O10 0.793764 0.771968 0.665521
O O11 0.722154 0.704738 0.755141
O O12 0.732782 0.000000 0.702355
O O13 0.900177 0.500000 0.131075
O O14 0.821202 0.296415 0.117652
O O15 0.091763 0.767369 0.474138
O O16 0.137298 0.000000 0.583042
O O17 0.570142 0.500000 0.354101
O O18 0.600572 0.226336 0.308794
O O19 0.337045 0.000000 0.723631
O O20 0.789278 0.000000 0.124962
#
# Coordination Sequence:
#
# PCOD8083014 Si02
#       8
#     8   8   8   8   8   8   8   8
#     4  10  21  38  59  83 115 150 186 230 284 341
#     4   8  18  34  53  78 110 148 189 227 274 332
#     4  11  21  34  56  87 119 149 183 231 280 332
#     4  11  20  32  53  83 114 145 185 233 278 330
#     4  10  20  37  61  85 114 148 184 229 286 345
#     4  10  22  40  61  84 108 146 195 238 281 333
#     4  10  21  40  61  81 112 153 192 233 280 332
#     4  10  18  32  52  78 115 153 185 222 276 338
#
# _framework density 20.196269999999998
#
# number of rings (size 3 to 8) (size 9 to 14) (size 15 to 20)
#    0.000    2.000    1.250    3.750    0.000    3.000 
#    0.000    7.500    0.000    6.000    0.000    0.000 
#    0.000    0.000    0.000    0.000    0.000    0.000 
#
# Total GULP energy -396735.819116 kJ/mol
# GULP energy per Si atom -12397.994347 kJ/mol
# Density = 2.015030 g / cm^3
# Si number density = 20.196270 Si / 1000 Ang^3
#
#
#
# Elastic Constant Matrix: (Units=GPa)
#
#
# Indices 1 2 3 4 5 6 
#
# 1 79.6202 7.9714 50.1518 0.0000 -4.6224 0.0000
# 2 7.9714 31.9987 15.3530 0.0000 -3.0347 0.0000
# 3 50.1518 15.3530 123.3329 0.0000 17.3951 0.0000
# 4 0.0000 0.0000 0.0000 25.0356 0.0000 0.4371
# 5 -4.6224 -3.0347 17.3951 0.0000 18.2687 0.0000
# 6 0.0000 0.0000 0.0000 0.4371 0.0000 27.1087
#
#
#
# Elastic Compliance Matrix: (Units=1/GPa)
#
#
# Indices 1 2 3 4 5 6 
#
# 1 0.019834 0.001480 -0.010387 0.000000 0.015154 0.000000
# 2 0.001480 0.035349 -0.006796 0.000000 0.012717 0.000000
# 3 -0.010387 -0.006796 0.015834 0.000000 -0.018834 0.000000
# 4 0.000000 0.000000 0.000000 0.039954 0.000000 -0.000644
# 5 0.015154 0.012717 -0.018834 0.000000 0.078619 0.000000
# 6 0.000000 0.000000 0.000000 -0.000644 0.000000 0.036899
#
#
# Mechanical properties :
#
#
# Convention : Reuss Voigt Hill
#
# Bulk Modulus (GPa) = 25.24505 42.43381 33.83943
# Shear Modulus (GPa) = 18.44345 24.84763 21.64554
#
# Velocity S-wave (km/s) = 3.02522 3.51138 3.27733
# Velocity P-wave (km/s) = 4.97288 6.12340 5.57789
#
# Compressibility (1/GPa) = 0.03961172
#
# Stress axis : x y z
#
# Youngs Moduli (GPa) = 50.41902 28.28899 63.15459
#
# Poissons Ratio (x) = -0.04186 0.65597
# Poissons Ratio (y) = -0.07461 0.42919
# Poissons Ratio (z) = 0.52369 0.19225
#
# Static dielectric constant tensor:
#      x y z
#    x 3.657550 0.000000 0.085970 
#    y 0.000000 3.355240 0.000000 
#    z 0.085970 0.000000 3.895830 
# 
# 
# High freq. dielectric constant tensor:
#      x y z
#    x 1.772170 0.000000 0.009040 
#    y 0.000000 1.769620 0.000000 
#    z 0.009040 0.000000 1.795690 
# 
# From -- ./inp_files/244260.got.cif
#   From: 2010.06.25/outbox.cif.g09.slc.cpg/sg12_123_cif.got.tgz:244260.got - 2010.06.28 00:19:55.
