data_PCOD8083869
_publ_section_title
;
Structure prediction by ZEFSAII (Michael W. Deem and Ramdas Pophale) SiO2 
 PCOD8083869
Probable space group: C 2/M
;
_chemical_formula_sum "Si O2"
_cell_formula_units_Z 64
_cell_length_a 30.731093
_cell_length_b 8.569279
_cell_length_c 19.673446
_cell_angle_alpha 90.000000
_cell_angle_beta 142.826350
_cell_angle_gamma 90.000000
_cell_volume 3130.451465
_symmetry_space_group_name_H-M "C 2/M"
_symmetry_group_IT_number 12
_symmetry_cell_setting 'monoclinic'
loop_
_space_group_symop_operation_xyz
x,y,z
-x,y,-z
-x,-y,-z
x,-y,z
1/2+x,1/2+y,z
1/2-x,1/2+y,-z
1/2-x,1/2-y,-z
1/2+x,1/2-y,z
loop_
_atom_site_type_symbol
_atom_site_label
_atom_site_fract_x
_atom_site_fract_y
_atom_site_fract_z
Si Si1 0.949683 0.682717 0.647387
Si Si2 0.668463 0.314536 0.234514
Si Si3 0.179244 0.319163 0.000797
Si Si4 0.097027 0.818705 0.780471
Si Si5 0.174728 0.315243 0.605918
Si Si6 0.324221 0.182533 0.238629
Si Si7 0.926402 0.820195 0.761494
Si Si8 0.413428 0.679669 0.999932
O O1 0.963028 0.500000 0.653449
O O2 0.889202 0.748984 0.520812
O O3 0.923735 0.714539 0.691414
O O4 0.022964 0.773333 0.724211
O O5 0.668203 0.500000 0.233609
O O6 0.748929 0.246486 0.325151
O O7 0.635920 0.256979 0.265722
O O8 0.618625 0.255905 0.110522
O O9 0.177222 0.500000 0.979002
O O10 0.163558 0.222297 0.912790
O O11 0.256090 0.275731 0.126366
O O12 0.117020 0.283988 0.977405
O O13 0.106810 0.725563 0.721720
O O14 0.097672 0.000000 0.764805
O O15 0.177839 0.500000 0.604204
O O16 0.159830 0.262813 0.664687
O O17 0.307251 0.000000 0.214959
O O18 0.914112 0.000000 0.725123
O O19 0.000898 0.802734 0.895115
O O20 0.390096 0.500000 0.983556
#
# Coordination Sequence:
#
# PCOD8083869 Si02
#       8
#     8   8   8   8   8   8   8   8
#     4  11  23  40  60  85 118 158 204 251 298 347
#     4   9  17  34  60  90 119 156 201 242 290 358
#     4  12  23  37  60  92 125 157 191 238 297 355
#     4  12  25  42  62  88 120 156 197 243 299 358
#     4   9  20  38  62  87 116 158 205 247 290 352
#     4  11  22  41  66  91 119 155 198 242 292 354
#     4  10  20  34  59  91 121 156 200 245 295 353
#     4  10  18  33  59  88 120 157 198 242 294 355
#
# _framework density 20.444337000000001
#
# number of rings (size 3 to 8) (size 9 to 14) (size 15 to 20)
#    0.000    1.500    2.500    3.750    0.000    2.500 
#    0.000    5.625    0.000    1.500    0.000    0.000 
#    0.000    0.000    0.000    0.000    0.000    0.000 
#
# Total GULP energy -396922.267426 kJ/mol
# GULP energy per Si atom -12403.820857 kJ/mol
# Density = 2.039780 g / cm^3
# Si number density = 20.444337 Si / 1000 Ang^3
#
#
#
# Elastic Constant Matrix: (Units=GPa)
#
#
# Indices 1 2 3 4 5 6 
#
# 1 116.7568 18.2966 34.2421 0.0000 -19.4489 0.0000
# 2 18.2966 50.5828 17.6251 0.0000 0.2585 0.0000
# 3 34.2421 17.6251 123.3731 0.0000 -12.6060 0.0000
# 4 0.0000 0.0000 0.0000 20.7415 0.0000 -3.2653
# 5 -19.4489 0.2585 -12.6060 0.0000 20.0493 0.0000
# 6 0.0000 0.0000 0.0000 -3.2653 0.0000 30.1234
#
#
#
# Elastic Compliance Matrix: (Units=1/GPa)
#
#
# Indices 1 2 3 4 5 6 
#
# 1 0.011250 -0.003564 -0.001596 0.000000 0.009955 0.000000
# 2 -0.003564 0.022033 -0.002715 0.000000 -0.005448 0.000000
# 3 -0.001596 -0.002715 0.009385 0.000000 0.004387 0.000000
# 4 0.000000 0.000000 0.000000 0.049050 0.000000 0.005317
# 5 0.009955 -0.005448 0.004387 0.000000 0.062363 0.000000
# 6 0.000000 0.000000 0.000000 0.005317 0.000000 0.033773
#
#
# Mechanical properties :
#
#
# Convention : Reuss Voigt Hill
#
# Bulk Modulus (GPa) = 37.15151 47.89336 42.52244
# Shear Modulus (GPa) = 23.52109 28.88610 26.20359
#
# Velocity S-wave (km/s) = 3.39557 3.76295 3.58397
# Velocity P-wave (km/s) = 5.79523 6.50821 6.16204
#
# Compressibility (1/GPa) = 0.02691681
#
# Stress axis : x y z
#
# Youngs Moduli (GPa) = 88.89134 45.38722 106.55714
#
# Poissons Ratio (x) = 0.16176 0.17006
# Poissons Ratio (y) = 0.31681 0.28932
# Poissons Ratio (z) = 0.14187 0.12323
#
# Static dielectric constant tensor:
#      x y z
#    x 3.952760 0.000000 -0.021930 
#    y 0.000000 3.421810 0.000000 
#    z -0.021930 0.000000 3.808870 
# 
# 
# High freq. dielectric constant tensor:
#      x y z
#    x 1.813870 0.000000 -0.003940 
#    y 0.000000 1.770650 0.000000 
#    z -0.003940 0.000000 1.796830 
# 
# From -- ./inp_files/295813.got.cif
#   From: 2010.06.25/outbox.cif.g09.slc.cpg/sg12_148_cif.got.tgz:295813.got - 2010.06.28 00:19:55.
