data_PCOD8083063
_publ_section_title
;
Structure prediction by ZEFSAII (Michael W. Deem and Ramdas Pophale) SiO2 
 PCOD8083063
Probable space group: C 2/M
;
_chemical_formula_sum "Si O2"
_cell_formula_units_Z 56
_cell_length_a 25.024992
_cell_length_b 9.115713
_cell_length_c 14.974313
_cell_angle_alpha 90.000000
_cell_angle_beta 105.642899
_cell_angle_gamma 90.000000
_cell_volume 3289.426394
_symmetry_space_group_name_H-M "C 2/M"
_symmetry_group_IT_number 12
_symmetry_cell_setting 'monoclinic'
loop_
_space_group_symop_operation_xyz
x,y,z
-x,y,-z
-x,-y,-z
x,-y,z
1/2+x,1/2+y,z
1/2-x,1/2+y,-z
1/2-x,1/2-y,-z
1/2+x,1/2-y,z
loop_
_atom_site_type_symbol
_atom_site_label
_atom_site_fract_x
_atom_site_fract_y
_atom_site_fract_z
Si Si1 0.679550 0.673725 0.605303
Si Si2 0.103931 0.329069 0.713255
Si Si3 0.824673 0.330152 0.088532
Si Si4 0.199919 0.670583 0.273222
Si Si5 0.866801 0.327591 0.582882
Si Si6 0.512298 0.827935 0.408108
Si Si7 0.202352 0.828683 0.094839
O O1 0.674188 0.500000 0.595822
O O2 0.633397 0.733847 0.651382
O O3 0.739804 0.722624 0.666744
O O4 0.671550 0.742838 0.504449
O O5 0.115276 0.500000 0.696695
O O6 0.126097 0.288550 0.821368
O O7 0.038426 0.291696 0.681610
O O8 0.825611 0.500000 0.062120
O O9 0.766921 0.288870 0.110266
O O10 0.833364 0.236659 0.002955
O O11 0.200740 0.500000 0.249166
O O12 0.154724 0.707480 0.328023
O O13 0.181707 0.758700 0.177454
O O14 0.862297 0.500000 0.559764
O O15 0.929959 0.266854 0.605228
O O16 0.500000 0.757864 0.500000
O O17 0.519422 0.000000 0.423231
O O18 0.191400 0.000000 0.093700
#
# Coordination Sequence:
#
# PCOD8083063 Si02
#       7
#     8   8   8   8   8   8   8
#     4  11  21  31  46  73 104 134 163 199 244 294
#     4  10  18  32  53  75  99 130 165 202 246 292
#     4   9  18  31  49  74 101 128 159 200 248 295
#     4  10  21  34  49  71 102 135 166 202 244 293
#     4  10  20  35  52  70  97 135 172 205 243 287
#     4   9  16  29  53  76  94 124 169 213 242 277
#     4  10  19  31  51  75 100 129 161 200 248 299
#
# _framework density 17.024245000000001
#
# number of rings (size 3 to 8) (size 9 to 14) (size 15 to 20)
#    0.000    2.143    2.857    1.286    0.000    2.286 
#    0.000    1.429    0.000    0.857    0.000    6.000 
#    0.000    0.000    0.000    0.000    0.000    0.000 
#
# Total GULP energy -347241.896366 kJ/mol
# GULP energy per Si atom -12401.496299 kJ/mol
# Density = 1.698550 g / cm^3
# Si number density = 17.024245 Si / 1000 Ang^3
#
#
#
# Elastic Constant Matrix: (Units=GPa)
#
#
# Indices 1 2 3 4 5 6 
#
# 1 76.2976 22.7111 48.8799 0.0000 -8.8418 0.0000
# 2 22.7111 50.7240 48.7918 0.0000 -8.9413 0.0000
# 3 48.8799 48.7918 143.1662 0.0000 -4.6836 0.0000
# 4 0.0000 0.0000 0.0000 30.9998 0.0000 -2.3928
# 5 -8.8418 -8.9413 -4.6836 0.0000 24.4015 0.0000
# 6 0.0000 0.0000 0.0000 -2.3928 0.0000 16.0688
#
#
#
# Elastic Compliance Matrix: (Units=1/GPa)
#
#
# Indices 1 2 3 4 5 6 
#
# 1 0.017550 -0.002125 -0.005117 0.000000 0.004599 0.000000
# 2 -0.002125 0.031634 -0.009763 0.000000 0.008948 0.000000
# 3 -0.005117 -0.009763 0.011957 0.000000 -0.003137 0.000000
# 4 0.000000 0.000000 0.000000 0.032633 0.000000 0.004859
# 5 0.004599 0.008948 -0.003137 0.000000 0.045324 0.000000
# 6 0.000000 0.000000 0.000000 0.004859 0.000000 0.062956
#
#
# Mechanical properties :
#
#
# Convention : Reuss Voigt Hill
#
# Bulk Modulus (GPa) = 36.85844 56.77261 46.81552
# Shear Modulus (GPa) = 20.39911 24.28101 22.34006
#
# Velocity S-wave (km/s) = 3.46531 3.78068 3.62643
# Velocity P-wave (km/s) = 6.14075 7.24421 6.71518
#
# Compressibility (1/GPa) = 0.02713083
#
# Stress axis : x y z
#
# Youngs Moduli (GPa) = 56.97844 31.61145 83.63486
#
# Poissons Ratio (x) = 0.06717 0.42800
# Poissons Ratio (y) = 0.12107 0.81652
# Poissons Ratio (z) = 0.29159 0.30862
#
# Static dielectric constant tensor:
#      x y z
#    x 3.177450 0.000000 0.076230 
#    y 0.000000 3.038230 0.000000 
#    z 0.076230 0.000000 3.235630 
# 
# 
# High freq. dielectric constant tensor:
#      x y z
#    x 1.637300 0.000000 0.002860 
#    y 0.000000 1.643370 0.000000 
#    z 0.002860 0.000000 1.660630 
# 
# From -- ./inp_files/237826.got.cif
#   From: 2010.06.25/outbox.cif.g09.slc.cpg/sg12_119_cif.got.tgz:237826.got - 2010.06.28 00:19:55.
