data_PCOD8083280
_publ_section_title
;
Structure prediction by ZEFSAII (Michael W. Deem and Ramdas Pophale) SiO2 
 PCOD8083280
Probable space group: C 2/M
;
_chemical_formula_sum "Si O2"
_cell_formula_units_Z 56
_cell_length_a 25.424421
_cell_length_b 8.762242
_cell_length_c 14.758696
_cell_angle_alpha 90.000000
_cell_angle_beta 60.100508
_cell_angle_gamma 90.000000
_cell_volume 2850.256144
_symmetry_space_group_name_H-M "C 2/M"
_symmetry_group_IT_number 12
_symmetry_cell_setting 'monoclinic'
loop_
_space_group_symop_operation_xyz
x,y,z
-x,y,-z
-x,-y,-z
x,-y,z
1/2+x,1/2+y,z
1/2-x,1/2+y,-z
1/2-x,1/2-y,-z
1/2+x,1/2-y,z
loop_
_atom_site_type_symbol
_atom_site_label
_atom_site_fract_x
_atom_site_fract_y
_atom_site_fract_z
Si Si1 0.575929 0.180192 0.686853
Si Si2 0.735690 0.319454 0.785571
Si Si3 0.516203 0.181264 0.083228
Si Si4 0.516225 0.818983 0.387950
Si Si5 0.795616 0.819612 0.388993
Si Si6 0.849881 0.319491 0.989514
Si Si7 0.853745 0.319172 0.784356
O O1 0.535335 0.238209 0.804736
O O2 0.539538 0.226676 0.628182
O O3 0.637851 0.272027 0.637174
O O4 0.589503 0.000000 0.678983
O O5 0.730669 0.500000 0.791537
O O6 0.719296 0.256657 0.699537
O O7 0.690549 0.256861 0.899566
O O8 0.803907 0.266333 0.753380
O O9 0.516753 0.000000 0.081238
O O10 0.500000 0.251190 0.000000
O O11 0.581675 0.240361 0.056957
O O12 0.500000 0.751217 0.500000
O O13 0.580435 0.749225 0.298200
O O14 0.522986 0.000000 0.385761
O O15 0.750000 0.750000 0.500000
O O16 0.788772 0.000000 0.396531
O O17 0.844679 0.500000 0.006498
O O18 0.831604 0.266363 0.903575
O O19 0.860145 0.500000 0.780783
#
# Coordination Sequence:
#
# PCOD8083280 Si02
#       7
#     8   8   8   8   8   8   8
#     4  10  19  35  59  86 111 140 184 233 280 328
#     4  10  22  37  55  80 113 149 185 228 280 333
#     4   9  16  27  48  78 109 140 175 218 264 316
#     4   9  17  29  54  87 112 140 185 233 277 328
#     4  11  25  42  59  81 110 148 191 233 280 334
#     4  10  18  32  55  83 113 144 184 230 275 327
#     4   9  17  32  53  82 114 143 183 232 274 327
#
# _framework density 19.647355999999998
#
# number of rings (size 3 to 8) (size 9 to 14) (size 15 to 20)
#    0.000    2.286    1.429    1.714    2.000    2.286 
#    0.000    0.714    0.000    3.857    0.000    0.000 
#    0.000    0.000    0.000    0.000    0.000    0.000 
#
# Total GULP energy -347129.866403 kJ/mol
# GULP energy per Si atom -12397.495229 kJ/mol
# Density = 1.960264 g / cm^3
# Si number density = 19.647356 Si / 1000 Ang^3
#
#
#
# Elastic Constant Matrix: (Units=GPa)
#
#
# Indices 1 2 3 4 5 6 
#
# 1 160.2824 26.1526 93.6610 0.0000 1.4748 0.0000
# 2 26.1526 21.4195 23.8309 0.0000 -1.1980 0.0000
# 3 93.6610 23.8309 181.5826 0.0000 8.9900 0.0000
# 4 0.0000 0.0000 0.0000 21.5407 0.0000 -2.9131
# 5 1.4748 -1.1980 8.9900 0.0000 37.0941 0.0000
# 6 0.0000 0.0000 0.0000 -2.9131 0.0000 22.4303
#
#
#
# Elastic Compliance Matrix: (Units=1/GPa)
#
#
# Indices 1 2 3 4 5 6 
#
# 1 0.009860 -0.007424 -0.004130 0.000000 0.000369 0.000000
# 2 -0.007424 0.060723 -0.004304 0.000000 0.003299 0.000000
# 3 -0.004130 -0.004304 0.008301 0.000000 -0.001986 0.000000
# 4 0.000000 0.000000 0.000000 0.047254 0.000000 0.006137
# 5 0.000369 0.003299 -0.001986 0.000000 0.027532 0.000000
# 6 0.000000 0.000000 0.000000 0.006137 0.000000 0.045380
#
#
# Mechanical properties :
#
#
# Convention : Reuss Voigt Hill
#
# Bulk Modulus (GPa) = 21.20008 72.28593 46.74301
# Shear Modulus (GPa) = 20.28516 30.85570 25.57043
#
# Velocity S-wave (km/s) = 3.21668 3.96722 3.61150
# Velocity P-wave (km/s) = 4.96082 7.60636 6.42131
#
# Compressibility (1/GPa) = 0.04716963
#
# Stress axis : x y z
#
# Youngs Moduli (GPa) = 101.41799 16.46826 120.47452
#
# Poissons Ratio (x) = 0.12225 0.49755
# Poissons Ratio (y) = 0.75288 0.51846
# Poissons Ratio (z) = 0.41885 0.07087
#
# Static dielectric constant tensor:
#      x y z
#    x 3.982680 0.000000 0.102370 
#    y 0.000000 3.053190 0.000000 
#    z 0.102370 0.000000 3.860070 
# 
# 
# High freq. dielectric constant tensor:
#      x y z
#    x 1.784980 0.000000 0.002870 
#    y 0.000000 1.707560 0.000000 
#    z 0.002870 0.000000 1.781280 
# 
# From -- ./inp_files/238416.got.cif
#   From: 2010.06.25/outbox.cif.g09.slc.cpg/sg12_120_cif.got.tgz:238416.got - 2010.06.28 00:19:55.
