data_PCOD8083189
_publ_section_title
;
Structure prediction by ZEFSAII (Michael W. Deem and Ramdas Pophale) SiO2 
 PCOD8083189
Probable space group: C 2/M
;
_chemical_formula_sum "Si O2"
_cell_formula_units_Z 56
_cell_length_a 25.141796
_cell_length_b 9.408567
_cell_length_c 12.232554
_cell_angle_alpha 90.000000
_cell_angle_beta 106.298420
_cell_angle_gamma 90.000000
_cell_volume 2777.304922
_symmetry_space_group_name_H-M "C 2/M"
_symmetry_group_IT_number 12
_symmetry_cell_setting 'monoclinic'
loop_
_space_group_symop_operation_xyz
x,y,z
-x,y,-z
-x,-y,-z
x,-y,z
1/2+x,1/2+y,z
1/2-x,1/2+y,-z
1/2-x,1/2-y,-z
1/2+x,1/2-y,z
loop_
_atom_site_type_symbol
_atom_site_label
_atom_site_fract_x
_atom_site_fract_y
_atom_site_fract_z
Si Si1 0.700081 0.666088 0.716821
Si Si2 0.513849 0.335084 0.784337
Si Si3 0.363023 0.663955 0.104612
Si Si4 0.595349 0.833038 0.253552
Si Si5 0.047191 0.651953 0.610383
Si Si6 0.182278 0.665001 0.117581
Si Si7 0.146505 0.664900 0.511945
O O1 0.697245 0.500000 0.689139
O O2 0.653283 0.709912 0.780520
O O3 0.759255 0.710918 0.799144
O O4 0.696093 0.745388 0.596367
O O5 0.497406 0.500000 0.772652
O O6 0.571586 0.310019 0.882786
O O7 0.462493 0.247229 0.803644
O O8 0.526610 0.282068 0.670668
O O9 0.347169 0.500000 0.079848
O O10 0.326596 0.751896 0.999424
O O11 0.634382 0.795946 0.175328
O O12 0.626336 0.779496 0.381791
O O13 0.582185 0.000000 0.257081
O O14 0.058288 0.500000 0.680463
O O15 0.099719 0.698929 0.572502
O O16 0.000000 0.614976 0.500000
O O17 0.181416 0.500000 0.088073
O O18 0.163364 0.500000 0.513401
#
# Coordination Sequence:
#
# PCOD8083189 Si02
#       7
#     8   8   8   8   8   8   8
#     4  10  21  39  60  87 117 146 186 241 292 332
#     4  11  22  35  56  87 117 150 186 231 290 343
#     4  10  22  39  59  84 117 146 183 242 295 336
#     4  10  22  41  58  82 119 155 191 232 277 337
#     4  10  18  32  54  82 115 152 187 230 282 335
#     4  10  23  41  62  82 109 153 200 238 278 334
#     4  10  20  34  57  86 116 151 188 228 281 340
#
# _framework density 20.163432
#
# number of rings (size 3 to 8) (size 9 to 14) (size 15 to 20)
#    0.000    1.857    2.857    0.857    0.000    4.857 
#    0.000    2.857    0.000    0.000    0.000    0.000 
#    0.000    0.000    0.000    0.000    0.000    0.000 
#
# Total GULP energy -347039.382805 kJ/mol
# GULP energy per Si atom -12394.263672 kJ/mol
# Density = 2.011754 g / cm^3
# Si number density = 20.163432 Si / 1000 Ang^3
#
#
#
# Elastic Constant Matrix: (Units=GPa)
#
#
# Indices 1 2 3 4 5 6 
#
# 1 60.0765 20.3268 5.2273 0.0000 6.8949 0.0000
# 2 20.3268 51.2908 21.8413 0.0000 6.4311 0.0000
# 3 5.2273 21.8413 41.2765 0.0000 12.2322 0.0000
# 4 0.0000 0.0000 0.0000 31.2994 0.0000 7.8148
# 5 6.8949 6.4311 12.2322 0.0000 23.9093 0.0000
# 6 0.0000 0.0000 0.0000 7.8148 0.0000 27.8039
#
#
#
# Elastic Compliance Matrix: (Units=1/GPa)
#
#
# Indices 1 2 3 4 5 6 
#
# 1 0.019907 -0.008804 0.003697 0.000000 -0.005264 0.000000
# 2 -0.008804 0.029061 -0.014968 0.000000 0.002380 0.000000
# 3 0.003697 -0.014968 0.036306 0.000000 -0.015615 0.000000
# 4 0.000000 0.000000 0.000000 0.034361 0.000000 -0.009658
# 5 -0.005264 0.002380 -0.015615 0.000000 0.050691 0.000000
# 6 0.000000 0.000000 0.000000 -0.009658 0.000000 0.038681
#
#
# Mechanical properties :
#
#
# Convention : Reuss Voigt Hill
#
# Bulk Modulus (GPa) = 22.16019 27.49273 24.82646
# Shear Modulus (GPa) = 18.92532 23.61910 21.27221
#
# Velocity S-wave (km/s) = 3.06698 3.42626 3.25158
# Velocity P-wave (km/s) = 4.85344 5.41451 5.14163
#
# Compressibility (1/GPa) = 0.04512597
#
# Stress axis : x y z
#
# Youngs Moduli (GPa) = 50.23469 34.41043 27.54348
#
# Poissons Ratio (x) = 0.30293 -0.10184
# Poissons Ratio (y) = 0.44224 0.41227
# Poissons Ratio (z) = -0.18574 0.51505
#
# Static dielectric constant tensor:
#      x y z
#    x 3.766900 0.000000 0.131820 
#    y 0.000000 3.634430 0.000000 
#    z 0.131820 0.000000 3.529990 
# 
# 
# High freq. dielectric constant tensor:
#      x y z
#    x 1.791780 0.000000 0.010250 
#    y 0.000000 1.780880 0.000000 
#    z 0.010250 0.000000 1.779540 
# 
# From -- ./inp_files/181007.got.cif
#   From: 2010.06.25/outbox.cif.g09.slc.cpg/sg12_91_cif.got.tgz:181007.got - 2010.06.28 00:19:55.
