data_PCOD8083825
_publ_section_title
;
Structure prediction by ZEFSAII (Michael W. Deem and Ramdas Pophale) SiO2 
 PCOD8083825
Probable space group: C 2/M
;
_chemical_formula_sum "Si O2"
_cell_formula_units_Z 60
_cell_length_a 12.179650
_cell_length_b 28.957128
_cell_length_c 11.893246
_cell_angle_alpha 90.000000
_cell_angle_beta 48.283383
_cell_angle_gamma 90.000000
_cell_volume 3131.040155
_symmetry_space_group_name_H-M "C 2/M"
_symmetry_group_IT_number 12
_symmetry_cell_setting 'monoclinic'
loop_
_space_group_symop_operation_xyz
x,y,z
-x,y,-z
-x,-y,-z
x,-y,z
1/2+x,1/2+y,z
1/2-x,1/2+y,-z
1/2-x,1/2-y,-z
1/2+x,1/2-y,z
loop_
_atom_site_type_symbol
_atom_site_label
_atom_site_fract_x
_atom_site_fract_y
_atom_site_fract_z
Si Si1 0.190159 0.947652 0.639604
Si Si2 0.285080 0.312046 0.977771
Si Si3 0.455901 0.180498 0.151269
Si Si4 0.081108 0.906595 0.057074
Si Si5 0.891220 0.379546 0.390881
Si Si6 0.651709 0.948997 0.236038
Si Si7 0.259625 0.751552 0.797704
Si Si8 0.500000 0.809428 0.500000
O O1 0.249700 0.911996 0.506267
O O2 0.304512 0.943974 0.664022
O O3 0.027143 0.932883 0.785326
O O4 0.185416 0.000000 0.596136
O O5 0.349356 0.363099 0.926823
O O6 0.335550 0.286248 0.829301
O O7 0.335012 0.286613 0.058807
O O8 0.107567 0.309332 0.112414
O O9 0.364482 0.144135 0.288220
O O10 0.357501 0.226575 0.204297
O O11 0.500000 0.158999 0.000000
O O12 0.205927 0.943166 0.939201
O O13 0.000000 0.888997 0.000000
O O14 0.909283 0.341025 0.475036
O O15 0.036635 0.410182 0.283564
O O16 0.585634 0.000000 0.259533
O O17 0.382510 0.776974 0.641359
#
# Coordination Sequence:
#
# PCOD8083825 Si02
#       8
#     8   8   8   8   8   8   8   4
#     4  10  21  35  54  90 126 151 186 238 305 358
#     4  10  20  41  58  82 116 158 201 236 285 348
#     4  10  22  41  61  84 112 159 204 246 283 342
#     4  10  20  33  57  88 122 155 193 239 292 356
#     4  12  21  37  59  87 121 155 190 242 295 356
#     4  10  18  33  58  86 118 156 192 235 294 358
#     4  10  23  37  57  84 117 156 197 247 286 335
#     4  12  22  38  57  88 122 150 199 238 296 354
#
# _framework density 19.162960999999999
#
# number of rings (size 3 to 8) (size 9 to 14) (size 15 to 20)
#    0.000    1.600    4.000    0.800    1.867    6.933 
#    0.000    0.000    0.000    1.600    0.000    3.733 
#    0.000    0.000    0.000    0.000    0.000    0.000 
#
# Total GULP energy -371950.925857 kJ/mol
# GULP energy per Si atom -12398.364195 kJ/mol
# Density = 1.911935 g / cm^3
# Si number density = 19.162961 Si / 1000 Ang^3
#
#
#
# Elastic Constant Matrix: (Units=GPa)
#
#
# Indices 1 2 3 4 5 6 
#
# 1 46.0711 38.9889 28.0506 0.0000 -2.7849 0.0000
# 2 38.9889 131.9254 62.0859 0.0000 4.7771 0.0000
# 3 28.0506 62.0859 119.8962 0.0000 -1.7608 0.0000
# 4 0.0000 0.0000 0.0000 32.7438 0.0000 -4.0952
# 5 -2.7849 4.7771 -1.7608 0.0000 24.7573 0.0000
# 6 0.0000 0.0000 0.0000 -4.0952 0.0000 29.0968
#
#
#
# Elastic Compliance Matrix: (Units=1/GPa)
#
#
# Indices 1 2 3 4 5 6 
#
# 1 0.030369 -0.007713 -0.003042 0.000000 0.004688 0.000000
# 2 -0.007713 0.012115 -0.004521 0.000000 -0.003527 0.000000
# 3 -0.003042 -0.004521 0.011413 0.000000 0.001342 0.000000
# 4 0.000000 0.000000 0.000000 0.031087 0.000000 0.004375
# 5 0.004688 -0.003527 0.001342 0.000000 0.041695 0.000000
# 6 0.000000 0.000000 0.000000 0.004375 0.000000 0.034984
#
#
# Mechanical properties :
#
#
# Convention : Reuss Voigt Hill
#
# Bulk Modulus (GPa) = 42.83645 61.79372 52.31509
# Shear Modulus (GPa) = 25.00051 28.57075 26.78563
#
# Velocity S-wave (km/s) = 3.61588 3.86545 3.74275
# Velocity P-wave (km/s) = 6.31150 7.22764 6.78505
#
# Compressibility (1/GPa) = 0.02334460
#
# Stress axis : x y z
#
# Youngs Moduli (GPa) = 32.92872 82.54401 87.62053
#
# Poissons Ratio (x) = 0.63668 0.26654
# Poissons Ratio (y) = 0.25399 0.39610
# Poissons Ratio (z) = 0.10017 0.37315
#
# Static dielectric constant tensor:
#      x y z
#    x 3.287330 0.000000 -0.003140 
#    y 0.000000 3.634930 0.000000 
#    z -0.003140 0.000000 3.556630 
# 
# 
# High freq. dielectric constant tensor:
#      x y z
#    x 1.709100 0.000000 -0.009610 
#    y 0.000000 1.755340 0.000000 
#    z -0.009610 0.000000 1.747430 
# 
# From -- ./inp_files/137606.got.cif
#   From: 2010.06.25/outbox.cif.g09.slc.cpg/sg12_69_cif.got.tgz:137606.got - 2010.06.28 00:19:55.
