data_PCOD8083328
_publ_section_title
;
Structure prediction by ZEFSAII (Michael W. Deem and Ramdas Pophale) SiO2 
 PCOD8083328
Probable space group: C 2/M
;
_chemical_formula_sum "Si O2"
_cell_formula_units_Z 48
_cell_length_a 20.560388
_cell_length_b 9.004817
_cell_length_c 17.395336
_cell_angle_alpha 90.000000
_cell_angle_beta 126.020577
_cell_angle_gamma 90.000000
_cell_volume 2604.853490
_symmetry_space_group_name_H-M "C 2/M"
_symmetry_group_IT_number 12
_symmetry_cell_setting 'monoclinic'
loop_
_space_group_symop_operation_xyz
x,y,z
-x,y,-z
-x,-y,-z
x,-y,z
1/2+x,1/2+y,z
1/2-x,1/2+y,-z
1/2-x,1/2-y,-z
1/2+x,1/2-y,z
loop_
_atom_site_type_symbol
_atom_site_label
_atom_site_fract_x
_atom_site_fract_y
_atom_site_fract_z
Si Si1 0.466694 0.671716 0.554193
Si Si2 0.210509 0.823409 0.545812
Si Si3 0.880621 0.171855 0.240227
Si Si4 0.164332 0.324803 0.940812
Si Si5 0.737153 0.176153 0.250742
Si Si6 0.589176 0.823758 0.048365
O O1 0.500000 0.749590 0.500000
O O2 0.451038 0.500000 0.524204
O O3 0.380723 0.738728 0.517393
O O4 0.530549 0.694343 0.665496
O O5 0.250000 0.750000 0.500000
O O6 0.253747 0.769207 0.654896
O O7 0.215537 0.000000 0.540939
O O8 0.883967 0.270338 0.166545
O O9 0.812714 0.231948 0.251997
O O10 0.863214 0.000000 0.208003
O O11 0.175296 0.500000 0.947027
O O12 0.250000 0.250000 0.000000
O O13 0.116781 0.272781 0.983343
O O14 0.653390 0.236846 0.156249
O O15 0.738734 0.000000 0.250233
O O16 0.586147 0.000000 0.052465
O O17 0.500000 0.756602 0.000000
#
# Coordination Sequence:
#
# PCOD8083328 Si02
#       6
#     8   8   8   8   8   8
#     4   9  16  30  55  80  99 132 185 228 256 308
#     4  10  20  34  54  79 107 139 177 221 269 319
#     4  10  18  32  56  82 105 134 181 229 267 312
#     4  11  21  34  55  82 109 139 178 222 267 315
#     4   9  16  30  53  75  98 138 181 214 257 316
#     4   9  18  32  51  76 104 136 177 217 254 310
#
# _framework density 18.427140000000001
#
# number of rings (size 3 to 8) (size 9 to 14) (size 15 to 20)
#    0.000    2.333    3.333    0.500    0.000    1.333 
#    0.000    3.333    0.000    3.000    0.000    0.000 
#    0.000    0.000    0.000    0.000    0.000    0.000 
#
# Total GULP energy -297514.157903 kJ/mol
# GULP energy per Si atom -12396.423246 kJ/mol
# Density = 1.838520 g / cm^3
# Si number density = 18.427140 Si / 1000 Ang^3
#
#
#
# Elastic Constant Matrix: (Units=GPa)
#
#
# Indices 1 2 3 4 5 6 
#
# 1 178.7220 31.0750 99.5119 0.0000 -0.8311 0.0000
# 2 31.0750 28.0923 30.5046 0.0000 -5.3267 0.0000
# 3 99.5119 30.5046 145.9125 0.0000 -7.2299 0.0000
# 4 0.0000 0.0000 0.0000 22.6485 0.0000 -7.6400
# 5 -0.8311 -5.3267 -7.2299 0.0000 38.7748 0.0000
# 6 0.0000 0.0000 0.0000 -7.6400 0.0000 22.5312
#
#
#
# Elastic Compliance Matrix: (Units=1/GPa)
#
#
# Indices 1 2 3 4 5 6 
#
# 1 0.009517 -0.004763 -0.005569 0.000000 -0.001489 0.000000
# 2 -0.004763 0.049253 -0.006781 0.000000 0.005400 0.000000
# 3 -0.005569 -0.006781 0.012129 0.000000 0.001211 0.000000
# 4 0.000000 0.000000 0.000000 0.049856 0.000000 0.016905
# 5 -0.001489 0.005400 0.001211 0.000000 0.026726 0.000000
# 6 0.000000 0.000000 0.000000 0.016905 0.000000 0.050115
#
#
# Mechanical properties :
#
#
# Convention : Reuss Voigt Hill
#
# Bulk Modulus (GPa) = 27.26767 74.98997 51.12882
# Shear Modulus (GPa) = 20.48806 29.56660 25.02733
#
# Velocity S-wave (km/s) = 3.33805 4.00998 3.68934
# Velocity P-wave (km/s) = 5.44852 7.88820 6.77902
#
# Compressibility (1/GPa) = 0.03667346
#
# Stress axis : x y z
#
# Youngs Moduli (GPa) = 105.07365 20.30350 82.44816
#
# Poissons Ratio (x) = 0.09671 0.45913
# Poissons Ratio (y) = 0.50047 0.55907
# Poissons Ratio (z) = 0.58512 0.13768
#
# Static dielectric constant tensor:
#      x y z
#    x 3.413750 0.000000 0.189870 
#    y 0.000000 2.929560 0.000000 
#    z 0.189870 0.000000 3.742140 
# 
# 
# High freq. dielectric constant tensor:
#      x y z
#    x 1.719760 0.000000 0.001650 
#    y 0.000000 1.656480 0.000000 
#    z 0.001650 0.000000 1.733790 
# 
# From -- ./inp_files/280799.got.cif
#   From: 2010.06.25/outbox.cif.g09.slc.cpg/sg12_141_cif.got.tgz:280799.got - 2010.06.28 00:19:55.
