data_PCOD8083896
_publ_section_title
;
Structure prediction by ZEFSAII (Michael W. Deem and Ramdas Pophale) SiO2 
 PCOD8083896
Probable space group: C 2/M
;
_chemical_formula_sum "Si O2"
_cell_formula_units_Z 64
_cell_length_a 21.580180
_cell_length_b 13.521688
_cell_length_c 21.350302
_cell_angle_alpha 90.000000
_cell_angle_beta 147.957403
_cell_angle_gamma 90.000000
_cell_volume 3305.338881
_symmetry_space_group_name_H-M "C 2/M"
_symmetry_group_IT_number 12
_symmetry_cell_setting 'monoclinic'
loop_
_space_group_symop_operation_xyz
x,y,z
-x,y,-z
-x,-y,-z
x,-y,z
1/2+x,1/2+y,z
1/2-x,1/2+y,-z
1/2-x,1/2-y,-z
1/2+x,1/2-y,z
loop_
_atom_site_type_symbol
_atom_site_label
_atom_site_fract_x
_atom_site_fract_y
_atom_site_fract_z
Si Si1 0.640442 0.227845 0.861834
Si Si2 0.454017 0.114311 0.783612
Si Si3 0.874479 0.208509 0.366194
Si Si4 0.310909 0.391960 0.933527
Si Si5 0.048320 0.882530 0.690186
Si Si6 0.766690 0.108390 0.753627
Si Si7 0.304481 0.612519 0.425205
Si Si8 0.978063 0.235145 0.907496
O O1 0.534944 0.172111 0.804805
O O2 0.590388 0.329401 0.789745
O O3 0.750000 0.250000 0.000000
O O4 0.687776 0.155427 0.848154
O O5 0.318860 0.124499 0.644223
O O6 0.465147 0.159149 0.862928
O O7 0.492032 0.000000 0.819562
O O8 0.864308 0.153906 0.290480
O O9 0.850435 0.325909 0.341532
O O10 0.786370 0.164133 0.342062
O O11 0.000000 0.186240 0.500000
O O12 0.326442 0.500000 0.979172
O O13 0.417750 0.319350 0.041019
O O14 0.316965 0.408059 0.865096
O O15 0.914566 0.847628 0.560475
O O16 0.059612 0.000000 0.709381
O O17 0.864913 0.166488 0.798494
O O18 0.739818 0.000000 0.700474
O O19 0.333838 0.500000 0.435077
O O20 0.000000 0.254388 0.000000
#
# Coordination Sequence:
#
# PCOD8083896 Si02
#       8
#     8   8   8   8   8   8   8   8
#     4  12  24  40  57  85 119 158 198 243 290 348
#     4  11  23  39  60  86 118 156 199 244 294 355
#     4  10  18  33  60  90 120 149 184 242 300 357
#     4  10  20  37  57  77 111 156 196 236 284 343
#     4  10  22  40  63  90 118 154 201 245 294 354
#     4  10  19  33  56  83 112 150 192 234 286 349
#     4   9  19  38  64  91 118 152 192 245 305 353
#     4  10  20  37  57  84 116 150 196 242 299 354
#
# _framework density 19.362614000000001
#
# number of rings (size 3 to 8) (size 9 to 14) (size 15 to 20)
#    0.000    1.750    3.750    1.125    0.000    5.000 
#    0.000    0.000    0.000    0.000    0.000    0.000 
#    0.000    0.000    0.000    0.000    0.000    0.000 
#
# Total GULP energy -396600.930893 kJ/mol
# GULP energy per Si atom -12393.779090 kJ/mol
# Density = 1.931854 g / cm^3
# Si number density = 19.362614 Si / 1000 Ang^3
#
#
#
# Elastic Constant Matrix: (Units=GPa)
#
#
# Indices 1 2 3 4 5 6 
#
# 1 96.9559 58.2419 41.1098 -0.0001 16.2383 0.0000
# 2 58.2419 142.2760 48.1720 -0.0001 -0.3172 0.0000
# 3 41.1098 48.1720 73.2178 -0.0001 2.8095 -0.0001
# 4 -0.0001 -0.0001 -0.0001 30.4261 -0.0001 1.9790
# 5 16.2383 -0.3172 2.8095 -0.0001 26.2699 0.0000
# 6 0.0000 0.0000 -0.0001 1.9790 0.0000 31.0852
#
#
#
# Elastic Compliance Matrix: (Units=1/GPa)
#
#
# Indices 1 2 3 4 5 6 
#
# 1 0.017811 -0.005228 -0.006161 0.000000 -0.010414 0.000000
# 2 -0.005228 0.010592 -0.004180 0.000000 0.003807 0.000000
# 3 -0.006161 -0.004180 0.019804 0.000000 0.001640 0.000000
# 4 0.000000 0.000000 0.000000 0.033003 0.000000 -0.002101
# 5 -0.010414 0.003807 0.001640 0.000000 0.044374 0.000000
# 6 0.000000 0.000000 0.000000 -0.002101 0.000000 0.032303
#
#
# Mechanical properties :
#
#
# Convention : Reuss Voigt Hill
#
# Bulk Modulus (GPa) = 58.58297 67.49968 63.04132
# Shear Modulus (GPa) = 25.67842 28.55131 27.11487
#
# Velocity S-wave (km/s) = 3.64563 3.84416 3.74621
# Velocity P-wave (km/s) = 6.93125 7.39189 7.16527
#
# Compressibility (1/GPa) = 0.01706981
#
# Stress axis : x y z
#
# Youngs Moduli (GPa) = 56.14489 94.40665 50.49475
#
# Poissons Ratio (x) = 0.49359 0.31110
# Poissons Ratio (y) = 0.29354 0.21105
# Poissons Ratio (z) = 0.34591 0.39458
#
# Static dielectric constant tensor:
#      x y z
#    x 3.609330 0.000000 0.226990 
#    y 0.000000 3.741460 0.000000 
#    z 0.226990 0.000000 3.443440 
# 
# 
# High freq. dielectric constant tensor:
#      x y z
#    x 1.748090 0.000000 0.020510 
#    y 0.000000 1.761000 0.000000 
#    z 0.020510 0.000000 1.737560 
# 
# From -- ./inp_files/349380.got.cif
#   From: 2010.06.25/outbox.cif.g09.slc.cpg/sg12_175_cif.got.tgz:349380.got - 2010.06.28 00:19:55.
