data_PCOD8083646
_publ_section_title
;
Structure prediction by ZEFSAII (Michael W. Deem and Ramdas Pophale) SiO2 
 PCOD8083646
Probable space group: C 2/M
;
_chemical_formula_sum "Si O2"
_cell_formula_units_Z 40
_cell_length_a 20.006820
_cell_length_b 14.151536
_cell_length_c 8.933456
_cell_angle_alpha 90.000000
_cell_angle_beta 53.690262
_cell_angle_gamma 90.000000
_cell_volume 2038.183653
_symmetry_space_group_name_H-M "C 2/M"
_symmetry_group_IT_number 12
_symmetry_cell_setting 'monoclinic'
loop_
_space_group_symop_operation_xyz
x,y,z
-x,y,-z
-x,-y,-z
x,-y,z
1/2+x,1/2+y,z
1/2-x,1/2+y,-z
1/2-x,1/2-y,-z
1/2+x,1/2-y,z
loop_
_atom_site_type_symbol
_atom_site_label
_atom_site_fract_x
_atom_site_fract_y
_atom_site_fract_z
Si Si1 0.908966 0.101419 0.051402
Si Si2 0.973874 0.718289 0.866111
Si Si3 0.853805 0.722226 0.515263
Si Si4 0.088410 0.396114 0.304281
Si Si5 0.725775 0.392012 0.512217
O O1 0.841190 0.117392 0.268082
O O2 0.892526 0.000000 0.991735
O O3 0.910531 0.191850 0.940733
O O4 0.000000 0.100103 0.000000
O O5 0.923474 0.634121 0.853062
O O6 0.054152 0.744457 0.663065
O O7 0.000000 0.689331 0.000000
O O8 0.854209 0.678439 0.681874
O O9 0.813816 0.644174 0.457332
O O10 0.802571 0.821071 0.583615
O O11 0.130449 0.500000 0.250312
O O12 0.000000 0.401893 0.500000
O O13 0.733472 0.500000 0.443578
#
# Coordination Sequence:
#
# PCOD8083646 Si02
#       5
#     8   8   8   8   8
#     4   9  16  30  52  77 103 134 172 211 255 304
#     4  10  18  33  55  81 103 132 175 219 258 302
#     4  10  19  33  54  78 105 138 173 214 256 307
#     4   9  19  34  51  73 106 142 172 209 259 312
#     4  10  19  32  55  79 104 141 177 208 251 311
#
# _framework density 19.625316999999999
#
# number of rings (size 3 to 8) (size 9 to 14) (size 15 to 20)
#    0.000    2.400    4.000    0.600    0.000    1.200 
#    0.000    2.000    0.000    3.600    0.000    0.000 
#    0.000    0.000    0.000    0.000    0.000    0.000 
#
# Total GULP energy -247793.649379 kJ/mol
# GULP energy per Si atom -12389.682469 kJ/mol
# Density = 1.958065 g / cm^3
# Si number density = 19.625317 Si / 1000 Ang^3
#
#
#
# Elastic Constant Matrix: (Units=GPa)
#
#
# Indices 1 2 3 4 5 6 
#
# 1 74.0793 56.0799 13.1151 0.0000 25.1461 0.0000
# 2 56.0799 182.4758 31.2377 0.0000 26.3054 0.0000
# 3 13.1151 31.2377 36.4832 0.0000 11.4972 0.0000
# 4 0.0000 0.0000 0.0000 28.3980 0.0000 2.4283
# 5 25.1461 26.3054 11.4972 0.0000 34.6769 0.0000
# 6 0.0000 0.0000 0.0000 2.4283 0.0000 28.0769
#
#
#
# Elastic Compliance Matrix: (Units=1/GPa)
#
#
# Indices 1 2 3 4 5 6 
#
# 1 0.021090 -0.004837 0.000249 0.000000 -0.011707 0.000000
# 2 -0.004837 0.007912 -0.004745 0.000000 -0.000921 0.000000
# 3 0.000249 -0.004745 0.033842 0.000000 -0.007801 0.000000
# 4 0.000000 0.000000 0.000000 0.035476 0.000000 -0.003068
# 5 -0.011707 -0.000921 -0.007801 0.000000 0.040613 0.000000
# 6 0.000000 0.000000 0.000000 -0.003068 0.000000 0.035882
#
#
# Mechanical properties :
#
#
# Convention : Reuss Voigt Hill
#
# Bulk Modulus (GPa) = 22.63557 54.87820 38.75688
# Shear Modulus (GPa) = 24.01463 31.07071 27.54267
#
# Velocity S-wave (km/s) = 3.50187 3.98326 3.75030
# Velocity P-wave (km/s) = 5.28297 7.01276 6.20840
#
# Compressibility (1/GPa) = 0.04417826
#
# Stress axis : x y z
#
# Youngs Moduli (GPa) = 47.41474 126.39483 29.54929
#
# Poissons Ratio (x) = 0.61132 -0.00736
# Poissons Ratio (y) = 0.22933 0.14022
# Poissons Ratio (z) = -0.01180 0.59977
#
# Static dielectric constant tensor:
#      x y z
#    x 3.572130 0.000000 -0.115960 
#    y 0.000000 4.437190 0.000000 
#    z -0.115960 0.000000 3.317860 
# 
# 
# High freq. dielectric constant tensor:
#      x y z
#    x 1.744190 0.000000 -0.017510 
#    y 0.000000 1.781200 0.000000 
#    z -0.017510 0.000000 1.726120 
# 
# From -- ./inp_files/84944.got.cif
#   From: 2010.06.25/outbox.cif.g09.slc.cpg/sg12_43_cif.got.tgz:84944.got - 2010.06.28 00:19:55.
