data_PCOD8083675
_publ_section_title
;
Structure prediction by ZEFSAII (Michael W. Deem and Ramdas Pophale) SiO2 
 PCOD8083675
Probable space group: C 2/M
;
_chemical_formula_sum "Si O2"
_cell_formula_units_Z 56
_cell_length_a 16.780602
_cell_length_b 12.443912
_cell_length_c 15.455713
_cell_angle_alpha 90.000000
_cell_angle_beta 69.699150
_cell_angle_gamma 90.000000
_cell_volume 3026.931142
_symmetry_space_group_name_H-M "C 2/M"
_symmetry_group_IT_number 12
_symmetry_cell_setting 'monoclinic'
loop_
_space_group_symop_operation_xyz
x,y,z
-x,y,-z
-x,-y,-z
x,-y,z
1/2+x,1/2+y,z
1/2-x,1/2+y,-z
1/2-x,1/2-y,-z
1/2+x,1/2-y,z
loop_
_atom_site_type_symbol
_atom_site_label
_atom_site_fract_x
_atom_site_fract_y
_atom_site_fract_z
Si Si1 0.724579 0.618992 0.766176
Si Si2 0.110122 0.309746 0.380950
Si Si3 0.255017 0.788841 0.096223
Si Si4 0.424885 0.124050 0.421037
Si Si5 0.404073 0.626685 0.744301
Si Si6 0.575800 0.737394 0.739393
Si Si7 0.572983 0.877335 0.908422
O O1 0.702496 0.500000 0.804593
O O2 0.812302 0.620300 0.681741
O O3 0.729995 0.684423 0.852096
O O4 0.652431 0.657046 0.727610
O O5 0.111774 0.307243 0.484522
O O6 0.114859 0.189004 0.339005
O O7 0.026780 0.372844 0.381333
O O8 0.169337 0.850007 0.157598
O O9 0.335328 0.866429 0.080583
O O10 0.250000 0.750000 0.000000
O O11 0.391846 0.182636 0.347817
O O12 0.394368 0.000000 0.435700
O O13 0.408464 0.500000 0.722771
O O14 0.493070 0.668270 0.747862
O O15 0.558366 0.807675 0.829574
O O16 0.559529 0.000000 0.886303
O O17 0.500000 0.837601 0.000000
#
# Coordination Sequence:
#
# PCOD8083675 Si02
#       7
#     8   8   8   8   8   8   8
#     4  10  20  35  53  74 105 137 167 210 261 308
#     4   9  19  34  53  78 102 132 177 217 254 306
#     4  10  21  36  55  79 103 131 175 217 253 309
#     4  10  18  33  56  78 104 136 174 219 262 301
#     4  10  20  36  55  75 106 141 173 212 259 309
#     4  10  21  34  51  78 107 137 176 211 253 313
#     4  10  20  35  54  76 105 136 168 213 263 305
#
# _framework density 18.500585000000001
#
# number of rings (size 3 to 8) (size 9 to 14) (size 15 to 20)
#    0.000    2.143    0.000    3.857    0.000    1.714 
#    0.000   10.714    0.000    4.714    0.000    0.000 
#    0.000    0.000    0.000    0.000    0.000    0.000 
#
# Total GULP energy -347204.648055 kJ/mol
# GULP energy per Si atom -12400.166002 kJ/mol
# Density = 1.845848 g / cm^3
# Si number density = 18.500585 Si / 1000 Ang^3
#
#
#
# Elastic Constant Matrix: (Units=GPa)
#
#
# Indices 1 2 3 4 5 6 
#
# 1 75.6385 34.5386 46.6120 0.0000 2.1703 0.0000
# 2 34.5386 119.2648 52.9404 0.0000 12.2084 0.0000
# 3 46.6120 52.9404 114.0988 0.0000 1.4766 0.0000
# 4 0.0000 0.0000 0.0000 16.9482 0.0000 -1.1358
# 5 2.1703 12.2084 1.4766 0.0000 25.3996 0.0000
# 6 0.0000 0.0000 0.0000 -1.1358 0.0000 21.9805
#
#
#
# Elastic Compliance Matrix: (Units=1/GPa)
#
#
# Indices 1 2 3 4 5 6 
#
# 1 0.018236 -0.002487 -0.006296 0.000000 0.000003 0.000000
# 2 -0.002487 0.011516 -0.004262 0.000000 -0.005075 0.000000
# 3 -0.006296 -0.004262 0.013290 0.000000 0.001814 0.000000
# 4 0.000000 0.000000 0.000000 0.059208 0.000000 0.003060
# 5 0.000003 -0.005075 0.001814 0.000000 0.041704 0.000000
# 6 0.000000 0.000000 0.000000 0.003060 0.000000 0.045653
#
#
# Mechanical properties :
#
#
# Convention : Reuss Voigt Hill
#
# Bulk Modulus (GPa) = 58.98496 64.13155 61.55825
# Shear Modulus (GPa) = 22.58881 24.52640 23.55760
#
# Velocity S-wave (km/s) = 3.49804 3.64498 3.57227
# Velocity P-wave (km/s) = 6.94745 7.24254 7.09653
#
# Compressibility (1/GPa) = 0.01695347
#
# Stress axis : x y z
#
# Youngs Moduli (GPa) = 54.83612 86.83513 75.24223
#
# Poissons Ratio (x) = 0.21593 0.47374
# Poissons Ratio (y) = 0.13636 0.32067
# Poissons Ratio (z) = 0.34526 0.37007
#
# Static dielectric constant tensor:
#      x y z
#    x 3.491190 0.000000 -0.075670 
#    y 0.000000 3.366730 0.000000 
#    z -0.075670 0.000000 3.470220 
# 
# 
# High freq. dielectric constant tensor:
#      x y z
#    x 1.720580 0.000000 -0.005090 
#    y 0.000000 1.717970 0.000000 
#    z -0.005090 0.000000 1.722710 
# 
# From -- ./inp_files/223144.got.cif
#   From: 2010.06.25/outbox.cif.g09.slc.cpg/sg12_112_cif.got.tgz:223144.got - 2010.06.28 00:19:55.
