data_PCOD8083782
_publ_section_title
;
Structure prediction by ZEFSAII (Michael W. Deem and Ramdas Pophale) SiO2 
 PCOD8083782
Probable space group: C 2/M
;
_chemical_formula_sum "Si O2"
_cell_formula_units_Z 60
_cell_length_a 11.717958
_cell_length_b 32.564316
_cell_length_c 8.989326
_cell_angle_alpha 90.000000
_cell_angle_beta 109.345946
_cell_angle_gamma 90.000000
_cell_volume 3236.527650
_symmetry_space_group_name_H-M "C 2/M"
_symmetry_group_IT_number 12
_symmetry_cell_setting 'monoclinic'
loop_
_space_group_symop_operation_xyz
x,y,z
-x,y,-z
-x,-y,-z
x,-y,z
1/2+x,1/2+y,z
1/2-x,1/2+y,-z
1/2-x,1/2-y,-z
1/2+x,1/2-y,z
loop_
_atom_site_type_symbol
_atom_site_label
_atom_site_fract_x
_atom_site_fract_y
_atom_site_fract_z
Si Si1 0.639490 0.664794 0.304336
Si Si2 0.547627 0.400492 0.865830
Si Si3 0.941269 0.222831 0.312708
Si Si4 0.500000 0.866411 0.500000
Si Si5 0.716799 0.117109 0.406851
Si Si6 0.875567 0.045298 0.362970
Si Si7 0.362539 0.186806 0.207758
Si Si8 0.750928 0.340686 0.871542
O O1 0.568928 0.622413 0.249786
O O2 0.548545 0.702940 0.264196
O O3 0.707662 0.655085 0.488803
O O4 0.730435 0.678527 0.215975
O O5 0.595195 0.437825 0.787767
O O6 0.657482 0.368189 0.927283
O O7 0.500000 0.418976 0.000000
O O8 0.905466 0.266635 0.233484
O O9 0.821229 0.195163 0.246648
O O10 0.000000 0.226503 0.500000
O O11 0.393977 0.893627 0.528531
O O12 0.541647 0.839459 0.658238
O O13 0.789471 0.074891 0.420977
O O14 0.680611 0.132717 0.226205
O O15 0.000000 0.041577 0.500000
O O16 0.815563 0.000000 0.322428
O O17 0.353912 0.175450 0.028983
#
# Coordination Sequence:
#
# PCOD8083782 Si02
#       8
#     8   8   8   4   8   8   8   8
#     4  10  20  35  56  75 111 151 197 230 289 350
#     4  10  18  33  57  86 114 155 182 230 286 350
#     4  11  21  34  53  80 111 153 193 245 309 336
#     4  10  24  38  59  78 108 158 202 234 283 346
#     4  10  20  39  60  82 114 151 190 236 279 349
#     4  10  20  34  60  95 122 145 180 231 289 350
#     4  11  22  38  52  79 109 149 203 250 285 325
#     4  10  21  34  57  82 109 151 198 244 291 343
#
# _framework density 18.538385999999999
#
# number of rings (size 3 to 8) (size 9 to 14) (size 15 to 20)
#    0.000    1.733    4.667    0.400    0.000    2.400 
#    0.000    1.667    0.000    0.000    0.000    7.467 
#    0.000    0.000    0.000    0.000    0.000    0.000 
#
# Total GULP energy -371732.075945 kJ/mol
# GULP energy per Si atom -12391.069198 kJ/mol
# Density = 1.849619 g / cm^3
# Si number density = 18.538386 Si / 1000 Ang^3
#
#
#
# Elastic Constant Matrix: (Units=GPa)
#
#
# Indices 1 2 3 4 5 6 
#
# 1 94.0288 46.3911 29.7104 0.0000 -13.9273 0.0000
# 2 46.3911 114.4624 38.6712 0.0000 -8.2609 0.0000
# 3 29.7104 38.6712 108.5109 0.0000 1.8480 0.0000
# 4 0.0000 0.0000 0.0000 22.4768 0.0000 0.5269
# 5 -13.9273 -8.2609 1.8480 0.0000 28.2842 0.0000
# 6 0.0000 0.0000 0.0000 0.5269 0.0000 12.3217
#
#
#
# Elastic Compliance Matrix: (Units=1/GPa)
#
#
# Indices 1 2 3 4 5 6 
#
# 1 0.014589 -0.004658 -0.002436 0.000000 0.005982 0.000000
# 2 -0.004658 0.011705 -0.002919 0.000000 0.001316 0.000000
# 3 -0.002436 -0.002919 0.010970 0.000000 -0.002769 0.000000
# 4 0.000000 0.000000 0.000000 0.044535 0.000000 -0.001904
# 5 0.005982 0.001316 -0.002769 0.000000 0.038866 0.000000
# 6 0.000000 0.000000 0.000000 -0.001904 0.000000 0.081239
#
#
# Mechanical properties :
#
#
# Convention : Reuss Voigt Hill
#
# Bulk Modulus (GPa) = 58.00958 60.72752 59.36855
# Shear Modulus (GPa) = 21.96092 26.09851 24.02971
#
# Velocity S-wave (km/s) = 3.44556 3.75615 3.60420
# Velocity P-wave (km/s) = 6.86941 7.18612 7.02955
#
# Compressibility (1/GPa) = 0.01723853
#
# Stress axis : x y z
#
# Youngs Moduli (GPa) = 68.54433 85.43077 91.15730
#
# Poissons Ratio (x) = 0.39794 0.22209
# Poissons Ratio (y) = 0.31928 0.26605
# Poissons Ratio (z) = 0.16700 0.24934
#
# Static dielectric constant tensor:
#      x y z
#    x 3.487050 0.000000 -0.170420 
#    y 0.000000 3.410960 0.000000 
#    z -0.170420 0.000000 3.795140 
# 
# 
# High freq. dielectric constant tensor:
#      x y z
#    x 1.713690 0.000000 -0.005440 
#    y 0.000000 1.692100 0.000000 
#    z -0.005440 0.000000 1.727880 
# 
# From -- ./inp_files/54774.got.cif
#   From: 2010.06.25/outbox.cif.g09.slc.cpg/sg12_28_cif.got.tgz:54774.got - 2010.06.28 00:19:55.
