data_PCOD8083281
_publ_section_title
;
Structure prediction by ZEFSAII (Michael W. Deem and Ramdas Pophale) SiO2 
 PCOD8083281
Probable space group: C 2/M
;
_chemical_formula_sum "Si O2"
_cell_formula_units_Z 56
_cell_length_a 19.108130
_cell_length_b 14.161502
_cell_length_c 15.136246
_cell_angle_alpha 90.000000
_cell_angle_beta 45.566390
_cell_angle_gamma 90.000000
_cell_volume 2924.702418
_symmetry_space_group_name_H-M "C 2/M"
_symmetry_group_IT_number 12
_symmetry_cell_setting 'monoclinic'
loop_
_space_group_symop_operation_xyz
x,y,z
-x,y,-z
-x,-y,-z
x,-y,z
1/2+x,1/2+y,z
1/2-x,1/2+y,-z
1/2-x,1/2-y,-z
1/2+x,1/2-y,z
loop_
_atom_site_type_symbol
_atom_site_label
_atom_site_fract_x
_atom_site_fract_y
_atom_site_fract_z
Si Si1 0.901584 0.798343 0.045126
Si Si2 0.591933 0.393036 0.142555
Si Si3 0.622344 0.392247 0.599237
Si Si4 0.207128 0.107436 0.698627
Si Si5 0.390737 0.387923 0.580145
Si Si6 0.603990 0.108690 0.367152
Si Si7 0.200191 0.222378 0.185960
O O1 0.854070 0.856517 0.165452
O O2 0.818589 0.728486 0.080536
O O3 0.930999 0.866644 0.938395
O O4 0.000000 0.749638 0.000000
O O5 0.633039 0.500000 0.109246
O O6 0.493951 0.384961 0.285859
O O7 0.669818 0.321794 0.118661
O O8 0.656839 0.500000 0.563969
O O9 0.679550 0.341009 0.629868
O O10 0.646187 0.347340 0.482286
O O11 0.322199 0.118440 0.615412
O O12 0.174115 0.000000 0.716591
O O13 0.500000 0.350081 0.500000
O O14 0.388390 0.500000 0.585044
O O15 0.319764 0.349054 0.717030
O O16 0.500000 0.139345 0.500000
O O17 0.642207 0.177975 0.254810
O O18 0.601871 0.000000 0.333425
#
# Coordination Sequence:
#
# PCOD8083281 Si02
#       7
#     8   8   8   8   8   8   8
#     4  11  22  36  53  77 113 152 192 234 276 328
#     4  11  21  35  59  86 113 144 183 240 294 332
#     4   9  17  29  52  85 110 133 169 225 293 339
#     4   9  17  32  53  78 106 137 183 234 283 327
#     4  10  18  32  55  83 114 143 177 228 285 338
#     4   9  19  35  54  76 108 151 188 221 268 334
#     4  11  22  36  55  83 114 150 188 232 280 338
#
# _framework density 19.147247
#
# number of rings (size 3 to 8) (size 9 to 14) (size 15 to 20)
#    0.000    2.000    2.857    1.714    0.000    1.143 
#    0.000    4.286    0.000    1.714    0.000    0.000 
#    0.000    0.000    0.000    0.000    0.000    0.000 
#
# Total GULP energy -346956.456279 kJ/mol
# GULP energy per Si atom -12391.302010 kJ/mol
# Density = 1.910367 g / cm^3
# Si number density = 19.147247 Si / 1000 Ang^3
#
#
#
# Elastic Constant Matrix: (Units=GPa)
#
#
# Indices 1 2 3 4 5 6 
#
# 1 123.2520 33.2951 32.4962 0.0000 8.4818 0.0000
# 2 33.2951 53.1760 5.1603 0.0000 0.7241 0.0000
# 3 32.4962 5.1603 54.6709 0.0000 4.4858 0.0000
# 4 0.0000 0.0000 0.0000 17.3369 0.0000 5.2589
# 5 8.4818 0.7241 4.4858 0.0000 40.6941 0.0000
# 6 0.0000 0.0000 0.0000 5.2589 0.0000 22.8441
#
#
#
# Elastic Compliance Matrix: (Units=1/GPa)
#
#
# Indices 1 2 3 4 5 6 
#
# 1 0.011654 -0.006677 -0.006163 0.000000 -0.001631 0.000000
# 2 -0.006677 0.022805 0.001751 0.000000 0.000793 0.000000
# 3 -0.006163 0.001751 0.021884 0.000000 -0.001159 0.000000
# 4 0.000000 0.000000 0.000000 0.062011 0.000000 -0.014275
# 5 -0.001631 0.000793 -0.001159 0.000000 0.025027 0.000000
# 6 0.000000 0.000000 0.000000 -0.014275 0.000000 0.047061
#
#
# Mechanical properties :
#
#
# Convention : Reuss Voigt Hill
#
# Bulk Modulus (GPa) = 29.26878 41.44467 35.35672
# Shear Modulus (GPa) = 22.32041 26.85150 24.58596
#
# Velocity S-wave (km/s) = 3.41797 3.74888 3.58725
# Velocity P-wave (km/s) = 5.55842 6.35854 5.97190
#
# Compressibility (1/GPa) = 0.03416610
#
# Stress axis : x y z
#
# Youngs Moduli (GPa) = 85.80483 43.84939 45.69446
#
# Poissons Ratio (x) = 0.29278 0.28163
# Poissons Ratio (y) = 0.57291 -0.08001
# Poissons Ratio (z) = 0.52884 -0.07678
#
# Static dielectric constant tensor:
#      x y z
#    x 4.028410 0.000000 0.049720 
#    y 0.000000 3.351620 0.000000 
#    z 0.049720 0.000000 3.493740 
# 
# 
# High freq. dielectric constant tensor:
#      x y z
#    x 1.756450 0.000000 0.011050 
#    y 0.000000 1.715870 0.000000 
#    z 0.011050 0.000000 1.738050 
# 
# From -- ./inp_files/225167.got.cif
#   From: 2010.06.25/outbox.cif.g09.slc.cpg/sg12_113_cif.got.tgz:225167.got - 2010.06.28 00:19:55.
