data_PCOD8083360
_publ_section_title
;
Structure prediction by ZEFSAII (Michael W. Deem and Ramdas Pophale) SiO2 
 PCOD8083360
Probable space group: C 2/M
;
_chemical_formula_sum "Si O2"
_cell_formula_units_Z 56
_cell_length_a 10.256306
_cell_length_b 14.329906
_cell_length_c 24.955703
_cell_angle_alpha 90.000000
_cell_angle_beta 130.150069
_cell_angle_gamma 90.000000
_cell_volume 2803.503259
_symmetry_space_group_name_H-M "C 2/M"
_symmetry_group_IT_number 12
_symmetry_cell_setting 'monoclinic'
loop_
_space_group_symop_operation_xyz
x,y,z
-x,y,-z
-x,-y,-z
x,-y,z
1/2+x,1/2+y,z
1/2-x,1/2+y,-z
1/2-x,1/2-y,-z
1/2+x,1/2-y,z
loop_
_atom_site_type_symbol
_atom_site_label
_atom_site_fract_x
_atom_site_fract_y
_atom_site_fract_z
Si Si1 0.315993 0.750665 0.199631
Si Si2 0.535431 0.102079 0.393588
Si Si3 0.562794 0.898375 0.278068
Si Si4 0.383796 0.288650 0.332503
Si Si5 0.097066 0.109076 0.473703
Si Si6 0.418651 0.734207 0.111541
Si Si7 0.332664 0.609302 0.991391
O O1 0.373775 0.859925 0.213869
O O2 0.418592 0.707587 0.277765
O O3 0.375308 0.700468 0.160497
O O4 0.115663 0.743172 0.155045
O O5 0.602244 0.092308 0.350965
O O6 0.392813 0.182652 0.358777
O O7 0.701231 0.131248 0.472049
O O8 0.463622 0.000000 0.393242
O O9 0.693832 0.824805 0.288860
O O10 0.581671 0.000000 0.255821
O O11 0.525089 0.349825 0.399495
O O12 0.000000 0.152066 0.500000
O O13 0.061034 0.000000 0.462480
O O14 0.363181 0.649113 0.058967
O O15 0.320060 0.831197 0.074743
O O16 0.282987 0.500000 0.981630
O O17 0.500000 0.624943 0.000000
#
# Coordination Sequence:
#
# PCOD8083360 Si02
#       7
#     8   8   8   8   8   8   8
#     4  11  23  39  60  91 131 172 202 246 318 369
#     4   9  19  34  54  81 112 154 208 264 320 376
#     4  10  20  36  60  88 117 159 215 258 298 375
#     4  11  20  34  58  89 121 157 212 262 316 366
#     4  10  18  32  56  85 114 155 215 273 318 373
#     4  11  22  43  65  95 133 165 201 260 303 367
#     4  10  22  41  71 100 123 164 214 251 298 369
#
# _framework density 19.975007999999999
#
# number of rings (size 3 to 8) (size 9 to 14) (size 15 to 20)
#    0.000    1.714    4.286    0.857    0.000    1.143 
#    0.000    2.857    0.000    8.143    0.000    0.000 
#    0.000    0.000    0.000    0.000    0.000    0.000 
#
# Total GULP energy -347045.217532 kJ/mol
# GULP energy per Si atom -12394.472055 kJ/mol
# Density = 1.992954 g / cm^3
# Si number density = 19.975008 Si / 1000 Ang^3
#
#
#
# Elastic Constant Matrix: (Units=GPa)
#
#
# Indices 1 2 3 4 5 6 
#
# 1 103.1413 58.0028 51.4344 0.0000 5.8303 0.0000
# 2 58.0028 125.1314 51.5408 0.0000 13.2560 0.0000
# 3 51.4344 51.5408 123.6782 0.0000 -6.5828 0.0000
# 4 0.0000 0.0000 0.0000 20.9310 0.0000 3.7855
# 5 5.8303 13.2560 -6.5828 0.0000 29.7616 0.0000
# 6 0.0000 0.0000 0.0000 3.7855 0.0000 31.2679
#
#
#
# Elastic Compliance Matrix: (Units=1/GPa)
#
#
# Indices 1 2 3 4 5 6 
#
# 1 0.014592 -0.004903 -0.004109 0.000000 -0.001583 0.000000
# 2 -0.004903 0.012180 -0.003313 0.000000 -0.005197 0.000000
# 3 -0.004109 -0.003313 0.011431 0.000000 0.004809 0.000000
# 4 0.000000 0.000000 0.000000 0.048845 0.000000 -0.005914
# 5 -0.001583 -0.005197 0.004809 0.000000 0.037289 0.000000
# 6 0.000000 0.000000 0.000000 -0.005914 0.000000 0.032698
#
#
# Mechanical properties :
#
#
# Convention : Reuss Voigt Hill
#
# Bulk Modulus (GPa) = 73.79520 74.87853 74.33686
# Shear Modulus (GPa) = 26.85245 29.12362 27.98804
#
# Velocity S-wave (km/s) = 3.67045 3.82252 3.74726
# Velocity P-wave (km/s) = 7.41532 7.55313 7.48454
#
# Compressibility (1/GPa) = 0.01355102
#
# Stress axis : x y z
#
# Youngs Moduli (GPa) = 68.53273 82.10354 87.48149
#
# Poissons Ratio (x) = 0.40259 0.35947
# Poissons Ratio (y) = 0.33605 0.28984
# Poissons Ratio (z) = 0.28161 0.27202
#
# Static dielectric constant tensor:
#      x y z
#    x 3.477290 0.000000 -0.087350 
#    y 0.000000 3.728930 0.000000 
#    z -0.087350 0.000000 3.891310 
# 
# 
# High freq. dielectric constant tensor:
#      x y z
#    x 1.757010 0.000000 0.002320 
#    y 0.000000 1.770710 0.000000 
#    z 0.002320 0.000000 1.797150 
# 
# From -- ./inp_files/332859.got.cif
#   From: 2010.06.25/outbox.cif.g09.slc.cpg/sg12_167_cif.got.tgz:332859.got - 2010.06.28 00:19:55.
