data_PCOD8083628
_publ_section_title
;
Structure prediction by ZEFSAII (Michael W. Deem and Ramdas Pophale) SiO2 
 PCOD8083628
Probable space group: C 2/M
;
_chemical_formula_sum "Si O2"
_cell_formula_units_Z 64
_cell_length_a 14.825385
_cell_length_b 8.963800
_cell_length_c 27.240756
_cell_angle_alpha 90.000000
_cell_angle_beta 106.533992
_cell_angle_gamma 90.000000
_cell_volume 3470.386577
_symmetry_space_group_name_H-M "C 2/M"
_symmetry_group_IT_number 12
_symmetry_cell_setting 'monoclinic'
loop_
_space_group_symop_operation_xyz
x,y,z
-x,y,-z
-x,-y,-z
x,-y,z
1/2+x,1/2+y,z
1/2-x,1/2+y,-z
1/2-x,1/2-y,-z
1/2+x,1/2-y,z
loop_
_atom_site_type_symbol
_atom_site_label
_atom_site_fract_x
_atom_site_fract_y
_atom_site_fract_z
Si Si1 0.201110 0.823130 0.757346
Si Si2 0.294328 0.175986 0.575486
Si Si3 0.818660 0.323550 0.867474
Si Si4 0.292306 0.677313 0.054563
Si Si5 0.671933 0.823149 0.310337
Si Si6 0.973066 0.323631 0.121453
Si Si7 0.978961 0.676392 0.235278
Si Si8 0.101248 0.175625 0.494783
O O1 0.265082 0.758908 0.811610
O O2 0.243774 0.772206 0.712023
O O3 0.099637 0.750127 0.743444
O O4 0.192379 0.000000 0.760050
O O5 0.311238 0.240667 0.632626
O O6 0.186805 0.218142 0.544714
O O7 0.373746 0.248920 0.553221
O O8 0.309172 0.000000 0.574889
O O9 0.814476 0.500000 0.863745
O O10 0.769393 0.264949 0.909108
O O11 0.926471 0.271478 0.883960
O O12 0.290799 0.500000 0.049520
O O13 0.398124 0.733896 0.077868
O O14 0.250000 0.750000 0.000000
O O15 0.576273 0.760902 0.271897
O O16 0.667537 0.000000 0.311757
O O17 0.957001 0.500000 0.112798
O O18 0.966618 0.274118 0.177066
O O19 0.973919 0.500000 0.238899
O O20 0.000000 0.233531 0.500000
O O21 0.095265 0.000000 0.485101
#
# Coordination Sequence:
#
# PCOD8083628 Si02
#       8
#     8   8   8   8   8   8   8   8
#     4  10  18  33  55  78 103 138 178 210 250 313
#     4   9  18  33  52  76 104 139 179 218 261 313
#     4   9  18  34  57  78 101 137 175 205 247 315
#     4  11  23  39  57  80 108 136 173 219 264 310
#     4   9  18  33  53  76 107 142 176 212 256 317
#     4  10  19  35  58  79 101 135 174 211 254 307
#     4  10  19  32  52  78 105 134 169 213 260 304
#     4   9  18  33  53  75 104 139 178 222 271 315
#
# _framework density 18.441749999999999
#
# number of rings (size 3 to 8) (size 9 to 14) (size 15 to 20)
#    0.000    2.375    2.500    0.375    0.000    1.750 
#    0.000    7.500    0.000    0.000    0.000    0.000 
#    0.000    0.000    0.000    0.000    0.000    0.000 
#
# Total GULP energy -396779.361706 kJ/mol
# GULP energy per Si atom -12399.355053 kJ/mol
# Density = 1.839978 g / cm^3
# Si number density = 18.441750 Si / 1000 Ang^3
#
#
#
# Elastic Constant Matrix: (Units=GPa)
#
#
# Indices 1 2 3 4 5 6 
#
# 1 113.3142 12.4174 22.1693 0.0000 -6.6547 0.0000
# 2 12.4174 19.5300 15.4796 0.0000 1.6988 0.0000
# 3 22.1693 15.4796 102.8110 0.0000 -3.9364 0.0000
# 4 0.0000 0.0000 0.0000 22.7583 0.0000 -2.4995
# 5 -6.6547 1.6988 -3.9364 0.0000 27.3251 0.0000
# 6 0.0000 0.0000 0.0000 -2.4995 0.0000 29.4815
#
#
#
# Elastic Compliance Matrix: (Units=1/GPa)
#
#
# Indices 1 2 3 4 5 6 
#
# 1 0.009813 -0.005521 -0.001186 0.000000 0.002562 0.000000
# 2 -0.005521 0.061909 -0.008376 0.000000 -0.006400 0.000000
# 3 -0.001186 -0.008376 0.011315 0.000000 0.001862 0.000000
# 4 0.000000 0.000000 0.000000 0.044353 0.000000 0.003760
# 5 0.002562 -0.006400 0.001862 0.000000 0.037886 0.000000
# 6 0.000000 0.000000 0.000000 0.003760 0.000000 0.034238
#
#
# Mechanical properties :
#
#
# Convention : Reuss Voigt Hill
#
# Bulk Modulus (GPa) = 18.91455 37.30975 28.11215
# Shear Modulus (GPa) = 20.21794 28.28557 24.25176
#
# Velocity S-wave (km/s) = 3.31466 3.92060 3.63029
# Velocity P-wave (km/s) = 4.99278 6.38513 5.73139
#
# Compressibility (1/GPa) = 0.05286936
#
# Stress axis : x y z
#
# Youngs Moduli (GPa) = 101.90896 16.15268 88.37995
#
# Poissons Ratio (x) = 0.08919 0.10486
# Poissons Ratio (y) = 0.56269 0.74024
# Poissons Ratio (z) = 0.12091 0.13529
#
# Static dielectric constant tensor:
#      x y z
#    x 3.608630 0.000000 -0.035100 
#    y 0.000000 3.044970 0.000000 
#    z -0.035100 0.000000 3.553410 
# 
# 
# High freq. dielectric constant tensor:
#      x y z
#    x 1.728130 0.000000 -0.001650 
#    y 0.000000 1.682520 0.000000 
#    z -0.001650 0.000000 1.718160 
# 
# From -- ./inp_files/359818.got.cif
#   From: 2010.06.25/outbox.cif.g09.slc.cpg/sg12_180_cif.got.tgz:359818.got - 2010.06.28 00:19:55.
