data_PCOD8083355
_publ_section_title
;
Structure prediction by ZEFSAII (Michael W. Deem and Ramdas Pophale) SiO2 
 PCOD8083355
Probable space group: C 2/M
;
_chemical_formula_sum "Si O2"
_cell_formula_units_Z 56
_cell_length_a 20.994539
_cell_length_b 14.357512
_cell_length_c 11.830606
_cell_angle_alpha 90.000000
_cell_angle_beta 60.684419
_cell_angle_gamma 90.000000
_cell_volume 3109.404404
_symmetry_space_group_name_H-M "C 2/M"
_symmetry_group_IT_number 12
_symmetry_cell_setting 'monoclinic'
loop_
_space_group_symop_operation_xyz
x,y,z
-x,y,-z
-x,-y,-z
x,-y,z
1/2+x,1/2+y,z
1/2-x,1/2+y,-z
1/2-x,1/2-y,-z
1/2+x,1/2-y,z
loop_
_atom_site_type_symbol
_atom_site_label
_atom_site_fract_x
_atom_site_fract_y
_atom_site_fract_z
Si Si1 0.199924 0.831484 0.491787
Si Si2 0.550432 0.740815 0.210880
Si Si3 0.081022 0.240001 0.423864
Si Si4 0.581754 0.246943 0.938566
Si Si5 0.076197 0.108082 0.756791
Si Si6 0.840198 0.601862 0.279043
Si Si7 0.946879 0.607670 0.385677
O O1 0.250000 0.750000 0.500000
O O2 0.141280 0.805157 0.448706
O O3 0.155418 0.882291 0.629613
O O4 0.253941 0.900402 0.378725
O O5 0.604181 0.727872 0.272085
O O6 0.486584 0.662533 0.258559
O O7 0.513267 0.841172 0.264187
O O8 0.600142 0.740172 0.055164
O O9 0.070908 0.346971 0.476534
O O10 0.000000 0.192408 0.500000
O O11 0.583352 0.347049 0.875314
O O12 0.639608 0.177125 0.833325
O O13 0.500000 0.204116 0.000000
O O14 0.054756 0.000000 0.786827
O O15 0.864400 0.500000 0.214193
O O16 0.877457 0.625630 0.365989
O O17 0.965806 0.500000 0.386579
#
# Coordination Sequence:
#
# PCOD8083355 Si02
#       7
#     8   8   8   8   8   8   8
#     4  12  19  38  61  84 112 148 185 240 288 341
#     4  10  20  36  54  84 115 149 188 229 282 338
#     4  10  19  36  58  82 118 147 183 234 284 342
#     4  10  19  36  55  83 116 151 190 232 276 339
#     4  11  21  36  59  85 113 148 195 242 283 329
#     4  11  21  34  57  86 112 145 187 234 284 334
#     4  10  18  32  56  84 113 144 181 229 284 334
#
# _framework density 18.009881
#
# number of rings (size 3 to 8) (size 9 to 14) (size 15 to 20)
#    0.000    1.429    8.571    0.429    0.000    6.000 
#    0.000    2.857    0.000    0.000    0.000    0.000 
#    0.000    0.000    0.000    0.000    0.000    0.000 
#
# Total GULP energy -346931.674517 kJ/mol
# GULP energy per Si atom -12390.416947 kJ/mol
# Density = 1.796889 g / cm^3
# Si number density = 18.009881 Si / 1000 Ang^3
#
#
#
# Elastic Constant Matrix: (Units=GPa)
#
#
# Indices 1 2 3 4 5 6 
#
# 1 82.1901 21.2287 35.6565 0.0000 14.0012 0.0000
# 2 21.2287 84.0041 45.6539 0.0000 9.6595 0.0000
# 3 35.6565 45.6539 135.8552 0.0000 17.6571 0.0000
# 4 0.0000 0.0000 0.0000 15.9232 0.0000 -1.5726
# 5 14.0012 9.6595 17.6571 0.0000 34.3281 0.0000
# 6 0.0000 0.0000 0.0000 -1.5726 0.0000 12.9754
#
#
#
# Elastic Compliance Matrix: (Units=1/GPa)
#
#
# Indices 1 2 3 4 5 6 
#
# 1 0.014468 -0.001730 -0.002692 0.000000 -0.004029 0.000000
# 2 -0.001730 0.014863 -0.004382 0.000000 -0.001223 0.000000
# 3 -0.002692 -0.004382 0.009899 0.000000 -0.002760 0.000000
# 4 0.000000 0.000000 0.000000 0.063562 0.000000 0.007704
# 5 -0.004029 -0.001223 -0.002760 0.000000 0.032538 0.000000
# 6 0.000000 0.000000 0.000000 0.007704 0.000000 0.078003
#
#
# Mechanical properties :
#
#
# Convention : Reuss Voigt Hill
#
# Bulk Modulus (GPa) = 46.24840 56.34752 51.29796
# Shear Modulus (GPa) = 20.99532 25.94604 23.47068
#
# Velocity S-wave (km/s) = 3.41804 3.79971 3.61392
# Velocity P-wave (km/s) = 6.42748 7.11374 6.77930
#
# Compressibility (1/GPa) = 0.02162237
#
# Stress axis : x y z
#
# Youngs Moduli (GPa) = 69.11753 67.27961 101.02349
#
# Poissons Ratio (x) = 0.11637 0.27199
# Poissons Ratio (y) = 0.11955 0.44267
# Poissons Ratio (z) = 0.18609 0.29481
#
# Static dielectric constant tensor:
#      x y z
#    x 3.352830 0.000000 0.110110 
#    y 0.000000 3.215010 0.000000 
#    z 0.110110 0.000000 3.576000 
# 
# 
# High freq. dielectric constant tensor:
#      x y z
#    x 1.678750 0.000000 0.009640 
#    y 0.000000 1.684280 0.000000 
#    z 0.009640 0.000000 1.698350 
# 
# From -- ./inp_files/166665.got.cif
#   From: 2010.06.25/outbox.cif.g09.slc.cpg/sg12_84_cif.got.tgz:166665.got - 2010.06.28 00:19:55.
