data_PCOD8083681
_publ_section_title
;
Structure prediction by ZEFSAII (Michael W. Deem and Ramdas Pophale) SiO2 
 PCOD8083681
Probable space group: C 2/M
;
_chemical_formula_sum "Si O2"
_cell_formula_units_Z 64
_cell_length_a 20.479197
_cell_length_b 9.379309
_cell_length_c 24.942068
_cell_angle_alpha 90.000000
_cell_angle_beta 130.137256
_cell_angle_gamma 90.000000
_cell_volume 3662.647152
_symmetry_space_group_name_H-M "C 2/M"
_symmetry_group_IT_number 12
_symmetry_cell_setting 'monoclinic'
loop_
_space_group_symop_operation_xyz
x,y,z
-x,y,-z
-x,-y,-z
x,-y,z
1/2+x,1/2+y,z
1/2-x,1/2+y,-z
1/2-x,1/2-y,-z
1/2+x,1/2-y,z
loop_
_atom_site_type_symbol
_atom_site_label
_atom_site_fract_x
_atom_site_fract_y
_atom_site_fract_z
Si Si1 0.522647 0.164338 0.426463
Si Si2 0.785185 0.330352 0.714691
Si Si3 0.362793 0.165097 0.414230
Si Si4 0.286178 0.331218 0.209065
Si Si5 0.719597 0.166068 0.062592
Si Si6 0.623177 0.336127 0.929629
Si Si7 0.546021 0.665646 0.222915
Si Si8 0.978146 0.832895 0.304194
O O1 0.435525 0.208524 0.410327
O O2 0.602874 0.192811 0.507718
O O3 0.535043 0.257782 0.379858
O O4 0.519000 0.000000 0.407879
O O5 0.785943 0.500000 0.708992
O O6 0.718977 0.264860 0.637182
O O7 0.758431 0.280797 0.760068
O O8 0.877774 0.268645 0.752499
O O9 0.336986 0.000000 0.393340
O O10 0.292996 0.500000 0.208763
O O11 0.229940 0.276899 0.128921
O O12 0.382140 0.269689 0.256305
O O13 0.808200 0.201257 0.079744
O O14 0.697953 0.000000 0.049498
O O15 0.640911 0.246131 0.992703
O O16 0.629709 0.500000 0.949413
O O17 0.530401 0.298053 0.858084
O O18 0.572779 0.500000 0.232598
O O19 0.517871 0.703305 0.267990
O O20 0.978835 0.000000 0.316125
#
# Coordination Sequence:
#
# PCOD8083681 Si02
#       8
#     8   8   8   8   8   8   8   8
#     4   9  18  32  53  81 109 135 168 216 262 306
#     4  11  22  35  54  79 107 137 176 222 259 304
#     4   9  18  34  53  76 109 143 170 203 263 322
#     4   9  17  32  53  78 104 133 171 215 261 306
#     4   9  16  30  53  77 102 131 168 214 260 306
#     4   9  17  31  51  76 103 133 170 211 257 307
#     4  10  21  37  55  74 106 147 176 207 263 323
#     4  10  18  33  56  79 103 136 178 217 257 308
#
# _framework density 17.473700999999998
#
# number of rings (size 3 to 8) (size 9 to 14) (size 15 to 20)
#    0.000    2.500    2.500    1.125    0.000    1.500 
#    0.000    4.375    0.000    3.750    0.000    0.000 
#    0.000    0.000    0.000    0.000    0.000    0.000 
#
# Total GULP energy -396810.844661 kJ/mol
# GULP energy per Si atom -12400.338896 kJ/mol
# Density = 1.743393 g / cm^3
# Si number density = 17.473701 Si / 1000 Ang^3
#
#
#
# Elastic Constant Matrix: (Units=GPa)
#
#
# Indices 1 2 3 4 5 6 
#
# 1 89.2732 47.0214 59.7192 0.0000 2.6275 0.0000
# 2 47.0214 61.1279 60.0213 0.0000 2.5455 0.0000
# 3 59.7192 60.0213 141.5991 0.0000 -4.2944 0.0000
# 4 0.0000 0.0000 0.0000 34.8759 0.0000 0.8464
# 5 2.6275 2.5455 -4.2944 0.0000 26.4834 0.0000
# 6 0.0000 0.0000 0.0000 0.8464 0.0000 25.5288
#
#
#
# Elastic Compliance Matrix: (Units=1/GPa)
#
#
# Indices 1 2 3 4 5 6 
#
# 1 0.019701 -0.011817 -0.003341 0.000000 -0.001360 0.000000
# 2 -0.011817 0.035691 -0.010264 0.000000 -0.003922 0.000000
# 3 -0.003341 -0.010264 0.012925 0.000000 0.003414 0.000000
# 4 0.000000 0.000000 0.000000 0.028696 0.000000 -0.000951
# 5 -0.001360 -0.003922 0.003414 0.000000 0.038825 0.000000
# 6 0.000000 0.000000 0.000000 -0.000951 0.000000 0.039203
#
#
# Mechanical properties :
#
#
# Convention : Reuss Voigt Hill
#
# Bulk Modulus (GPa) = 57.23132 69.50268 63.36700
# Shear Modulus (GPa) = 21.57878 25.72684 23.65281
#
# Velocity S-wave (km/s) = 3.51797 3.84124 3.68315
# Velocity P-wave (km/s) = 7.02320 7.71592 7.37770
#
# Compressibility (1/GPa) = 0.01747295
#
# Stress axis : x y z
#
# Youngs Moduli (GPa) = 50.75910 28.01860 77.36789
#
# Poissons Ratio (x) = 0.33111 0.25848
# Poissons Ratio (y) = 0.59985 0.79407
# Poissons Ratio (z) = 0.16958 0.28757
#
# Static dielectric constant tensor:
#      x y z
#    x 3.038500 0.000000 -0.076110 
#    y 0.000000 3.070380 0.000000 
#    z -0.076110 0.000000 3.406850 
# 
# 
# High freq. dielectric constant tensor:
#      x y z
#    x 1.650420 0.000000 -0.004930 
#    y 0.000000 1.661370 0.000000 
#    z -0.004930 0.000000 1.689130 
# 
# From -- ./inp_files/346120.got.cif
#   From: 2010.06.25/outbox.cif.g09.slc.cpg/sg12_174_cif.got.tgz:346120.got - 2010.06.28 00:19:55.
