data_PCOD8083899
_publ_section_title
;
Structure prediction by ZEFSAII (Michael W. Deem and Ramdas Pophale) SiO2 
 PCOD8083899
Probable space group: C 2/M
;
_chemical_formula_sum "Si O2"
_cell_formula_units_Z 56
_cell_length_a 33.692776
_cell_length_b 14.318555
_cell_length_c 12.485861
_cell_angle_alpha 90.000000
_cell_angle_beta 26.223604
_cell_angle_gamma 90.000000
_cell_volume 2661.670936
_symmetry_space_group_name_H-M "C 2/M"
_symmetry_group_IT_number 12
_symmetry_cell_setting 'monoclinic'
loop_
_space_group_symop_operation_xyz
x,y,z
-x,y,-z
-x,-y,-z
x,-y,z
1/2+x,1/2+y,z
1/2-x,1/2+y,-z
1/2-x,1/2-y,-z
1/2+x,1/2-y,z
loop_
_atom_site_type_symbol
_atom_site_label
_atom_site_fract_x
_atom_site_fract_y
_atom_site_fract_z
Si Si1 0.112562 0.601557 0.969798
Si Si2 0.401763 0.894591 0.749283
Si Si3 0.808780 0.894012 0.412767
Si Si4 0.720002 0.611283 0.102049
Si Si5 0.095527 0.106935 0.212046
Si Si6 0.392802 0.389562 0.427104
Si Si7 0.577286 0.302450 0.032587
O O1 0.065266 0.500000 0.061179
O O2 0.202381 0.607568 0.683427
O O3 0.053350 0.691611 0.081043
O O4 0.135714 0.607245 0.039550
O O5 0.500000 0.843219 0.500000
O O6 0.416299 0.000000 0.673059
O O7 0.322959 0.849940 0.864605
O O8 0.853693 0.850935 0.410768
O O9 0.835417 0.828992 0.248392
O O10 0.842126 0.000000 0.311451
O O11 0.720510 0.500000 0.110859
O O12 0.675101 0.640924 0.098590
O O13 0.660490 0.653225 0.342912
O O14 0.000000 0.116623 0.500000
O O15 0.110233 0.000000 0.139666
O O16 0.099857 0.174927 0.100824
O O17 0.384811 0.500000 0.448475
O O18 0.495976 0.361580 0.184068
#
# Coordination Sequence:
#
# PCOD8083899 Si02
#       7
#     8   8   8   8   8   8   8
#     4  10  22  40  58  78 111 158 205 252 294 334
#     4   9  17  34  60  82 105 148 206 252 284 333
#     4  10  20  37  62  88 117 152 196 250 303 350
#     4   9  16  31  56  85 118 154 189 234 300 363
#     4  10  19  32  52  84 130 167 184 224 304 379
#     4  10  18  33  60  91 122 151 186 242 306 358
#     4  12  22  33  55  91 124 154 201 237 292 367
#
# _framework density 21.039415000000002
#
# number of rings (size 3 to 8) (size 9 to 14) (size 15 to 20)
#    0.000    2.000    2.857    2.143    0.000    1.714 
#    0.000    2.143    0.000    1.714    0.000    4.000 
#    0.000    0.000    0.000    0.000    0.000    0.143 
#
# Total GULP energy -347053.603680 kJ/mol
# GULP energy per Si atom -12394.771560 kJ/mol
# Density = 2.099153 g / cm^3
# Si number density = 21.039415 Si / 1000 Ang^3
#
#
#
# Elastic Constant Matrix: (Units=GPa)
#
#
# Indices 1 2 3 4 5 6 
#
# 1 72.8175 24.5654 29.1199 0.0000 5.8663 0.0000
# 2 24.5654 69.3786 13.6544 0.0000 17.8587 0.0000
# 3 29.1199 13.6544 92.1015 0.0000 1.2264 0.0000
# 4 0.0000 0.0000 0.0000 7.1784 0.0000 -0.4110
# 5 5.8663 17.8587 1.2264 0.0000 34.5650 0.0000
# 6 0.0000 0.0000 0.0000 -0.4110 0.0000 3.9130
#
#
#
# Elastic Compliance Matrix: (Units=1/GPa)
#
#
# Indices 1 2 3 4 5 6 
#
# 1 0.017384 -0.005201 -0.004724 0.000000 -0.000096 0.000000
# 2 -0.005201 0.018706 -0.001012 0.000000 -0.008746 0.000000
# 3 -0.004724 -0.001012 0.012490 0.000000 0.000882 0.000000
# 4 0.000000 0.000000 0.000000 0.140150 0.000000 0.014720
# 5 -0.000096 -0.008746 0.000882 0.000000 0.033435 0.000000
# 6 0.000000 0.000000 0.000000 0.014720 0.000000 0.257104
#
#
# Mechanical properties :
#
#
# Convention : Reuss Voigt Hill
#
# Bulk Modulus (GPa) = 37.44645 40.99744 39.22195
# Shear Modulus (GPa) = 9.80305 20.26180 15.03243
#
# Velocity S-wave (km/s) = 2.16090 3.10666 2.67589
# Velocity P-wave (km/s) = 4.90539 5.69181 5.31317
#
# Compressibility (1/GPa) = 0.02670480
#
# Stress axis : x y z
#
# Youngs Moduli (GPa) = 57.52259 53.45937 80.06680
#
# Poissons Ratio (x) = 0.27805 0.37825
# Poissons Ratio (y) = 0.29918 0.08105
# Poissons Ratio (z) = 0.27174 0.05412
#
# Static dielectric constant tensor:
#      x y z
#    x 3.756460 0.000000 0.002870 
#    y 0.000000 3.741560 0.000000 
#    z 0.002870 0.000000 3.816820 
# 
# 
# High freq. dielectric constant tensor:
#      x y z
#    x 1.804740 0.000000 0.006740 
#    y 0.000000 1.811130 0.000000 
#    z 0.006740 0.000000 1.822440 
# 
# From -- ./inp_files/189594.got.cif
#   From: 2010.06.25/outbox.cif.g09.slc.cpg/sg12_95_cif.got.tgz:189594.got - 2010.06.28 00:19:55.
