data_PCOD8083208
_publ_section_title
;
Structure prediction by ZEFSAII (Michael W. Deem and Ramdas Pophale) SiO2 
 PCOD8083208
Probable space group: C 2/M
;
_chemical_formula_sum "Si O2"
_cell_formula_units_Z 64
_cell_length_a 20.706063
_cell_length_b 9.145792
_cell_length_c 19.914864
_cell_angle_alpha 90.000000
_cell_angle_beta 76.629637
_cell_angle_gamma 90.000000
_cell_volume 3669.124476
_symmetry_space_group_name_H-M "C 2/M"
_symmetry_group_IT_number 12
_symmetry_cell_setting 'monoclinic'
loop_
_space_group_symop_operation_xyz
x,y,z
-x,y,-z
-x,-y,-z
x,-y,z
1/2+x,1/2+y,z
1/2-x,1/2+y,-z
1/2-x,1/2-y,-z
1/2+x,1/2-y,z
loop_
_atom_site_type_symbol
_atom_site_label
_atom_site_fract_x
_atom_site_fract_y
_atom_site_fract_z
Si Si1 0.182949 0.173819 0.795002
Si Si2 0.807200 0.671676 0.570983
Si Si3 0.448744 0.326748 0.916159
Si Si4 0.423048 0.329103 0.289335
Si Si5 0.408197 0.672944 0.068409
Si Si6 0.339026 0.668834 0.436425
Si Si7 0.942758 0.326170 0.781640
Si Si8 0.323784 0.173698 0.715996
O O1 0.133984 0.224779 0.747615
O O2 0.154465 0.232021 0.873572
O O3 0.256262 0.238999 0.765194
O O4 0.186053 0.000000 0.794478
O O5 0.817120 0.500000 0.563027
O O6 0.730325 0.717076 0.580739
O O7 0.851976 0.744012 0.502162
O O8 0.831039 0.730354 0.637782
O O9 0.443271 0.500000 0.904595
O O10 0.524410 0.276728 0.911018
O O11 0.422204 0.239694 0.858427
O O12 0.405375 0.275516 0.991461
O O13 0.439079 0.500000 0.273888
O O14 0.398533 0.298111 0.370765
O O15 0.488131 0.235245 0.261366
O O16 0.409730 0.500000 0.067471
O O17 0.336203 0.500000 0.456088
O O18 0.946456 0.500000 0.785977
O O19 0.886577 0.272944 0.743236
O O20 0.318176 0.000000 0.716751
#
# Coordination Sequence:
#
# PCOD8083208 Si02
#       8
#     8   8   8   8   8   8   8   8
#     4   9  14  27  53  77  92 119 171 215 233 268
#     4   9  16  30  51  73  98 129 161 197 242 291
#     4   9  16  30  50  74  99 125 163 205 245 288
#     4  10  18  32  55  76  95 125 168 211 244 281
#     4   8  14  25  50  79  95 116 164 216 241 273
#     4   9  17  29  50  79 100 118 156 210 254 283
#     4  11  22  33  47  72 105 135 161 197 247 299
#     4   9  18  32  49  71 100 134 169 198 235 294
#
# _framework density 17.442852999999999
#
# number of rings (size 3 to 8) (size 9 to 14) (size 15 to 20)
#    0.000    2.750    2.500    1.125    0.000    0.500 
#    0.000    3.750    0.000    5.250    0.000    0.000 
#    0.000    0.000    0.000    0.000    0.000    0.000 
#
# Total GULP energy -396652.510155 kJ/mol
# GULP energy per Si atom -12395.390942 kJ/mol
# Density = 1.740315 g / cm^3
# Si number density = 17.442853 Si / 1000 Ang^3
#
#
#
# Elastic Constant Matrix: (Units=GPa)
#
#
# Indices 1 2 3 4 5 6 
#
# 1 92.8321 29.4100 62.4953 0.0000 5.1772 0.0000
# 2 29.4100 33.8727 39.8499 0.0000 3.1289 0.0000
# 3 62.4953 39.8499 160.3256 0.0000 5.7986 0.0000
# 4 0.0000 0.0000 0.0000 26.5607 0.0000 1.8795
# 5 5.1772 3.1289 5.7986 0.0000 26.3964 0.0000
# 6 0.0000 0.0000 0.0000 1.8795 0.0000 17.2846
#
#
#
# Elastic Compliance Matrix: (Units=1/GPa)
#
#
# Indices 1 2 3 4 5 6 
#
# 1 0.016586 -0.009516 -0.004055 0.000000 -0.001234 0.000000
# 2 -0.009516 0.047372 -0.007993 0.000000 -0.001993 0.000000
# 3 -0.004055 -0.007993 0.009820 0.000000 -0.000414 0.000000
# 4 0.000000 0.000000 0.000000 0.037942 0.000000 -0.004126
# 5 -0.001234 -0.001993 -0.000414 0.000000 0.038453 0.000000
# 6 0.000000 0.000000 0.000000 -0.004126 0.000000 0.058304
#
#
# Mechanical properties :
#
#
# Convention : Reuss Voigt Hill
#
# Bulk Modulus (GPa) = 32.62725 61.17122 46.89923
# Shear Modulus (GPa) = 19.09699 24.40001 21.74850
#
# Velocity S-wave (km/s) = 3.31241 3.74418 3.53490
# Velocity P-wave (km/s) = 5.77713 7.33741 6.60351
#
# Compressibility (1/GPa) = 0.03064922
#
# Stress axis : x y z
#
# Youngs Moduli (GPa) = 60.29304 21.10938 101.83424
#
# Poissons Ratio (x) = 0.20087 0.41297
# Poissons Ratio (y) = 0.57372 0.81400
# Poissons Ratio (z) = 0.24451 0.16874
#
# Static dielectric constant tensor:
#      x y z
#    x 3.170430 0.000000 -0.127500 
#    y 0.000000 2.839770 0.000000 
#    z -0.127500 0.000000 3.661530 
# 
# 
# High freq. dielectric constant tensor:
#      x y z
#    x 1.647960 0.000000 -0.007860 
#    y 0.000000 1.631290 0.000000 
#    z -0.007860 0.000000 1.695370 
# 
# From -- ./inp_files/319144.got.cif
#   From: 2010.06.25/outbox.cif.g09.slc.cpg/sg12_160_cif.got.tgz:319144.got - 2010.06.28 00:19:55.
