data_PCOD8083155
_publ_section_title
;
Structure prediction by ZEFSAII (Michael W. Deem and Ramdas Pophale) SiO2 
 PCOD8083155
Probable space group: C 2/M
;
_chemical_formula_sum "Si O2"
_cell_formula_units_Z 56
_cell_length_a 13.388219
_cell_length_b 13.291380
_cell_length_c 25.281201
_cell_angle_alpha 90.000000
_cell_angle_beta 41.214989
_cell_angle_gamma 90.000000
_cell_volume 2964.155922
_symmetry_space_group_name_H-M "C 2/M"
_symmetry_group_IT_number 12
_symmetry_cell_setting 'monoclinic'
loop_
_space_group_symop_operation_xyz
x,y,z
-x,y,-z
-x,-y,-z
x,-y,z
1/2+x,1/2+y,z
1/2-x,1/2+y,-z
1/2-x,1/2-y,-z
1/2+x,1/2-y,z
loop_
_atom_site_type_symbol
_atom_site_label
_atom_site_fract_x
_atom_site_fract_y
_atom_site_fract_z
Si Si1 0.091867 0.698534 0.327155
Si Si2 0.280781 0.115796 0.825541
Si Si3 0.973517 0.807395 0.908770
Si Si4 0.170633 0.384988 0.074914
Si Si5 0.105334 0.115096 0.754026
Si Si6 0.445118 0.615279 0.344991
Si Si7 0.895208 0.618650 0.495066
O O1 0.097513 0.640907 0.268562
O O2 0.247199 0.685078 0.297641
O O3 0.067275 0.817389 0.327151
O O4 0.950003 0.656664 0.416344
O O5 0.355683 0.137284 0.852436
O O6 0.131947 0.184692 0.876565
O O7 0.229430 0.000000 0.841453
O O8 0.934601 0.689035 0.917598
O O9 0.981805 0.859322 0.847785
O O10 0.846565 0.865192 0.992525
O O11 0.127870 0.500000 0.077960
O O12 0.029738 0.132453 0.727486
O O13 0.161459 0.000000 0.737111
O O14 0.473457 0.500000 0.349985
O O15 0.277153 0.652189 0.427263
O O16 0.908213 0.500000 0.491677
O O17 0.000000 0.664846 0.500000
#
# Coordination Sequence:
#
# PCOD8083155 Si02
#       7
#     8   8   8   8   8   8   8
#     4  11  19  32  54  78 101 131 169 209 252 295
#     4  10  20  34  54  78 102 130 171 213 250 295
#     4  10  19  32  54  77 101 135 171 210 252 297
#     4  10  20  34  52  76 105 134 169 209 254 302
#     4  10  19  34  54  77 101 130 173 214 247 292
#     4  10  21  34  51  76 105 134 166 207 252 299
#     4  10  18  32  54  79 101 127 168 212 250 292
#
# _framework density 18.892393999999999
#
# number of rings (size 3 to 8) (size 9 to 14) (size 15 to 20)
#    0.000    1.857    1.429    5.143    0.000    1.143 
#    0.000    2.857    0.000   11.571    0.000    0.000 
#    0.000    0.000    0.000    0.000    0.000    0.000 
#
# Total GULP energy -347240.926823 kJ/mol
# GULP energy per Si atom -12401.461672 kJ/mol
# Density = 1.884939 g / cm^3
# Si number density = 18.892394 Si / 1000 Ang^3
#
#
#
# Elastic Constant Matrix: (Units=GPa)
#
#
# Indices 1 2 3 4 5 6 
#
# 1 46.7914 44.7008 11.2101 0.0000 -2.3531 0.0000
# 2 44.7008 82.0949 23.5611 0.0000 -12.6620 0.0000
# 3 11.2101 23.5611 82.7007 0.0000 21.2158 0.0000
# 4 0.0000 0.0000 0.0000 26.9185 0.0000 -0.8454
# 5 -2.3531 -12.6620 21.2158 0.0000 14.0298 0.0000
# 6 0.0000 0.0000 0.0000 -0.8454 0.0000 29.8354
#
#
#
# Elastic Compliance Matrix: (Units=1/GPa)
#
#
# Indices 1 2 3 4 5 6 
#
# 1 0.062898 -0.054696 0.027798 0.000000 -0.080851 0.000000
# 2 -0.054696 0.076438 -0.048536 0.000000 0.133208 0.000000
# 3 0.027798 -0.048536 0.052597 0.000000 -0.118678 0.000000
# 4 0.000000 0.000000 0.000000 0.037182 0.000000 0.001054
# 5 -0.080851 0.133208 -0.118678 0.000000 0.357402 0.000000
# 6 0.000000 0.000000 0.000000 0.001054 0.000000 0.033547
#
#
# Mechanical properties :
#
#
# Convention : Reuss Voigt Hill
#
# Bulk Modulus (GPa) = 24.35134 41.17011 32.76072
# Shear Modulus (GPa) = 6.37250 22.96441 14.66845
#
# Velocity S-wave (km/s) = 1.83858 3.49024 2.78946
# Velocity P-wave (km/s) = 4.17428 6.17103 5.26812
#
# Compressibility (1/GPa) = 0.04106550
#
# Stress axis : x y z
#
# Youngs Moduli (GPa) = 15.89865 13.08242 19.01264
#
# Poissons Ratio (x) = 0.71556 -0.52851
# Poissons Ratio (y) = 0.86960 0.92279
# Poissons Ratio (z) = -0.44195 0.63496
#
# Static dielectric constant tensor:
#      x y z
#    x 3.162320 0.000000 0.206070 
#    y 0.000000 3.424800 0.000000 
#    z 0.206070 0.000000 3.751810 
# 
# 
# High freq. dielectric constant tensor:
#      x y z
#    x 1.706270 0.000000 0.016090 
#    y 0.000000 1.726820 0.000000 
#    z 0.016090 0.000000 1.749540 
# 
# From -- ./inp_files/262823.got.cif
#   From: 2010.06.25/outbox.cif.g09.slc.cpg/sg12_132_cif.got.tgz:262823.got - 2010.06.28 00:19:55.
