data_PCOD8083702
_publ_section_title
;
Structure prediction by ZEFSAII (Michael W. Deem and Ramdas Pophale) SiO2 
 PCOD8083702
Probable space group: C 2/M
;
_chemical_formula_sum "Si O2"
_cell_formula_units_Z 56
_cell_length_a 12.779189
_cell_length_b 17.057296
_cell_length_c 12.302104
_cell_angle_alpha 90.000000
_cell_angle_beta 113.372054
_cell_angle_gamma 90.000000
_cell_volume 2461.563593
_symmetry_space_group_name_H-M "C 2/M"
_symmetry_group_IT_number 12
_symmetry_cell_setting 'monoclinic'
loop_
_space_group_symop_operation_xyz
x,y,z
-x,y,-z
-x,-y,-z
x,-y,z
1/2+x,1/2+y,z
1/2-x,1/2+y,-z
1/2-x,1/2-y,-z
1/2+x,1/2-y,z
loop_
_atom_site_type_symbol
_atom_site_label
_atom_site_fract_x
_atom_site_fract_y
_atom_site_fract_z
Si Si1 0.429645 0.382581 0.872017
Si Si2 0.108218 0.709276 0.832817
Si Si3 0.766148 0.841762 0.519072
Si Si4 0.853906 0.283342 0.909883
Si Si5 0.015693 0.853962 0.690364
Si Si6 0.758289 0.408501 0.715009
Si Si7 0.812471 0.413982 0.290708
O O1 0.417826 0.287817 0.875747
O O2 0.501984 0.404327 0.795019
O O3 0.308543 0.424160 0.818457
O O4 0.500000 0.418377 0.000000
O O5 0.227576 0.754519 0.884394
O O6 0.021447 0.763424 0.730311
O O7 0.107157 0.629289 0.763104
O O8 0.079039 0.693600 0.949359
O O9 0.750000 0.750000 0.500000
O O10 0.708741 0.888213 0.395615
O O11 0.702611 0.866190 0.603821
O O12 0.900556 0.863361 0.573055
O O13 0.843128 0.359478 0.827982
O O14 0.125770 0.884547 0.672773
O O15 0.776468 0.500000 0.746608
O O16 0.863589 0.500000 0.335804
#
# Coordination Sequence:
#
# PCOD8083702 Si02
#       7
#     8   8   8   8   8   8   8
#     4  10  18  33  56  82 110 148 191 230 269 326
#     4   9  17  34  56  79 109 146 191 235 274 331
#     4  11  22  40  61  82 108 150 200 238 277 338
#     4   9  18  34  55  80 111 150 194 229 268 333
#     4  10  20  34  58  86 109 142 195 239 277 330
#     4  11  23  36  55  86 122 154 183 232 296 347
#     4  10  22  35  53  82 115 147 178 231 299 343
#
# _framework density 22.749766999999999
#
# number of rings (size 3 to 8) (size 9 to 14) (size 15 to 20)
#    0.000    2.000    1.429    4.286    2.000    4.286 
#    0.000    0.000    0.000    5.571    0.000    0.000 
#    0.000    0.000    0.000    0.000    0.000    0.000 
#
# Total GULP energy -347062.627241 kJ/mol
# GULP energy per Si atom -12395.093830 kJ/mol
# Density = 2.269799 g / cm^3
# Si number density = 22.749767 Si / 1000 Ang^3
#
#
#
# Elastic Constant Matrix: (Units=GPa)
#
#
# Indices 1 2 3 4 5 6 
#
# 1 13.0795 -2.3833 6.3396 0.0000 -11.9784 0.0000
# 2 -2.3833 142.3124 51.6639 0.0000 -11.6792 0.0000
# 3 6.3396 51.6639 132.6634 0.0000 -13.9093 0.0000
# 4 0.0000 0.0000 0.0000 22.6765 0.0000 -3.0361
# 5 -11.9784 -11.6792 -13.9093 0.0000 26.6079 0.0000
# 6 0.0000 0.0000 0.0000 -3.0361 0.0000 10.6396
#
#
#
# Elastic Compliance Matrix: (Units=1/GPa)
#
#
# Indices 1 2 3 4 5 6 
#
# 1 0.138902 0.008831 -0.003295 0.000000 0.064685 0.000000
# 2 0.008831 0.008851 -0.003221 0.000000 0.006177 0.000000
# 3 -0.003295 -0.003221 0.009147 0.000000 0.001885 0.000000
# 4 0.000000 0.000000 0.000000 0.045850 0.000000 0.013084
# 5 0.064685 0.006177 0.001885 0.000000 0.070399 0.000000
# 6 0.000000 0.000000 0.000000 0.013084 0.000000 0.097722
#
#
# Mechanical properties :
#
#
# Convention : Reuss Voigt Hill
#
# Bulk Modulus (GPa) = 6.19081 44.36618 25.27849
# Shear Modulus (GPa) = 11.90233 27.48048 19.69141
#
# Velocity S-wave (km/s) = 2.28980 3.47932 2.94524
# Velocity P-wave (km/s) = 3.11739 5.97370 4.76462
#
# Compressibility (1/GPa) = 0.16152986
#
# Stress axis : x y z
#
# Youngs Moduli (GPa) = 7.19933 112.98136 109.32056
#
# Poissons Ratio (x) = -0.99772 0.36018
# Poissons Ratio (y) = -0.06358 0.35216
# Poissons Ratio (z) = 0.02372 0.36395
#
# Static dielectric constant tensor:
#      x y z
#    x 4.069880 0.000000 -0.069970 
#    y 0.000000 3.860680 0.000000 
#    z -0.069970 0.000000 4.307880 
# 
# 
# High freq. dielectric constant tensor:
#      x y z
#    x 1.888370 0.000000 -0.009650 
#    y 0.000000 1.875710 0.000000 
#    z -0.009650 0.000000 1.909480 
# 
# From -- ./inp_files/145633.got.cif
#   From: 2010.06.25/outbox.cif.g09.slc.cpg/sg12_73_cif.got.tgz:145633.got - 2010.06.28 00:19:55.
