data_PCOD8083494
_publ_section_title
;
Structure prediction by ZEFSAII (Michael W. Deem and Ramdas Pophale) SiO2 
 PCOD8083494
Probable space group: C 2/M
;
_chemical_formula_sum "Si O2"
_cell_formula_units_Z 56
_cell_length_a 28.571848
_cell_length_b 18.714229
_cell_length_c 18.907334
_cell_angle_alpha 90.000000
_cell_angle_beta 161.312263
_cell_angle_gamma 90.000000
_cell_volume 3239.268668
_symmetry_space_group_name_H-M "C 2/M"
_symmetry_group_IT_number 12
_symmetry_cell_setting 'monoclinic'
loop_
_space_group_symop_operation_xyz
x,y,z
-x,y,-z
-x,-y,-z
x,-y,z
1/2+x,1/2+y,z
1/2-x,1/2+y,-z
1/2-x,1/2-y,-z
1/2+x,1/2-y,z
loop_
_atom_site_type_symbol
_atom_site_label
_atom_site_fract_x
_atom_site_fract_y
_atom_site_fract_z
Si Si1 0.543021 0.334251 0.309765
Si Si2 0.983686 0.322306 0.771621
Si Si3 0.129603 0.300280 0.233862
Si Si4 0.019617 0.918578 0.643058
Si Si5 0.460261 0.581678 0.054021
Si Si6 0.263122 0.418582 0.168087
Si Si7 0.201501 0.862304 0.303778
O O1 0.490433 0.252535 0.230631
O O2 0.719316 0.342394 0.562971
O O3 0.475938 0.365440 0.285111
O O4 0.473094 0.376748 0.145230
O O5 0.910463 0.306069 0.741812
O O6 0.872589 0.370286 0.566063
O O7 0.132422 0.364298 0.993133
O O8 0.148570 0.218040 0.241255
O O9 0.000000 0.333682 0.000000
O O10 0.166846 0.906966 0.808785
O O11 0.880742 0.900749 0.396149
O O12 0.010447 0.000000 0.657096
O O13 0.423528 0.500000 0.018377
O O14 0.609850 0.585654 0.223482
O O15 0.327273 0.616412 0.818738
O O16 0.207515 0.500000 0.096125
#
# Coordination Sequence:
#
# PCOD8083494 Si02
#       7
#     8   8   8   8   8   8   8
#     4  11  20  33  53  81 107 136 173 212 264 305
#     4  11  20  33  54  79 108 134 170 218 260 308
#     4  11  18  32  52  75 110 138 165 210 261 312
#     4   9  19  38  58  76 102 135 174 217 261 314
#     4  11  20  32  49  72 106 146 181 205 237 304
#     4   9  20  38  58  77  99 134 176 217 265 313
#     4  10  18  33  47  71 105 141 178 202 242 297
#
# _framework density 17.287852999999998
#
# number of rings (size 3 to 8) (size 9 to 14) (size 15 to 20)
#    0.000    1.714    4.286    3.857    0.000    2.857 
#    0.000    0.000    0.000    3.857    0.000    3.000 
#    0.000    0.000    0.000    0.000    0.000    0.000 
#
# Total GULP energy -347229.714646 kJ/mol
# GULP energy per Si atom -12401.061237 kJ/mol
# Density = 1.724850 g / cm^3
# Si number density = 17.287853 Si / 1000 Ang^3
#
#
#
# Elastic Constant Matrix: (Units=GPa)
#
#
# Indices 1 2 3 4 5 6 
#
# 1 61.9473 22.1532 2.9250 0.0000 -13.2750 0.0000
# 2 22.1532 70.2649 27.0261 0.0000 -4.8324 0.0000
# 3 2.9250 27.0261 55.5437 0.0001 -9.2630 0.0000
# 4 0.0000 0.0000 0.0001 18.4759 0.0000 -4.2418
# 5 -13.2750 -4.8324 -9.2630 0.0000 25.3253 0.0000
# 6 0.0000 0.0000 0.0000 -4.2418 0.0000 19.1190
#
#
#
# Elastic Compliance Matrix: (Units=1/GPa)
#
#
# Indices 1 2 3 4 5 6 
#
# 1 0.021044 -0.007574 0.004447 0.000000 0.011212 0.000000
# 2 -0.007574 0.020236 -0.010081 0.000000 -0.003796 0.000000
# 3 0.004447 -0.010081 0.024220 0.000000 0.009266 0.000000
# 4 0.000000 0.000000 0.000000 0.057030 0.000000 0.012653
# 5 0.011212 -0.003796 0.009266 0.000000 0.048028 0.000000
# 6 0.000000 0.000000 0.000000 0.012653 0.000000 0.055111
#
#
# Mechanical properties :
#
#
# Convention : Reuss Voigt Hill
#
# Bulk Modulus (GPa) = 25.58544 32.44049 29.01296
# Shear Modulus (GPa) = 18.85991 21.62748 20.24369
#
# Velocity S-wave (km/s) = 3.30651 3.54082 3.42567
# Velocity P-wave (km/s) = 5.42302 5.96005 5.69786
#
# Compressibility (1/GPa) = 0.03908474
#
# Stress axis : x y z
#
# Youngs Moduli (GPa) = 47.51924 49.41671 41.28841
#
# Poissons Ratio (x) = 0.37429 -0.18361
# Poissons Ratio (y) = 0.35992 0.41621
# Poissons Ratio (z) = -0.21132 0.49815
#
# Static dielectric constant tensor:
#      x y z
#    x 3.123150 0.000000 -0.200000 
#    y 0.000000 3.128580 0.000000 
#    z -0.200000 0.000000 3.411500 
# 
# 
# High freq. dielectric constant tensor:
#      x y z
#    x 1.655670 0.000000 -0.020990 
#    y 0.000000 1.662970 0.000000 
#    z -0.020990 0.000000 1.666720 
# 
# From -- ./inp_files/293906.got.cif
#   From: 2010.06.25/outbox.cif.g09.slc.cpg/sg12_147_cif.got.tgz:293906.got - 2010.06.28 00:19:55.
