data_PCOD8083762
_publ_section_title
;
Structure prediction by ZEFSAII (Michael W. Deem and Ramdas Pophale) SiO2 
 PCOD8083762
Probable space group: C 2/M
;
_chemical_formula_sum "Si O2"
_cell_formula_units_Z 64
_cell_length_a 12.414836
_cell_length_b 23.767143
_cell_length_c 24.579301
_cell_angle_alpha 90.000000
_cell_angle_beta 151.127218
_cell_angle_gamma 90.000000
_cell_volume 3501.986929
_symmetry_space_group_name_H-M "C 2/M"
_symmetry_group_IT_number 12
_symmetry_cell_setting 'monoclinic'
loop_
_space_group_symop_operation_xyz
x,y,z
-x,y,-z
-x,-y,-z
x,-y,z
1/2+x,1/2+y,z
1/2-x,1/2+y,-z
1/2-x,1/2-y,-z
1/2+x,1/2-y,z
loop_
_atom_site_type_symbol
_atom_site_label
_atom_site_fract_x
_atom_site_fract_y
_atom_site_fract_z
Si Si1 0.858315 0.832280 0.491243
Si Si2 0.424467 0.684832 0.303333
Si Si3 0.743269 0.096756 0.597759
Si Si4 0.664665 0.436044 0.243477
Si Si5 0.589356 0.201083 0.755790
Si Si6 0.019786 0.173250 0.889194
Si Si7 0.333552 0.939273 0.551491
Si Si8 0.972045 0.701595 0.147456
O O1 0.603292 0.815906 0.371001
O O2 0.846989 0.898445 0.500378
O O3 0.000000 0.819530 0.500000
O O4 0.954170 0.798433 0.585792
O O5 0.564242 0.640233 0.331829
O O6 0.386256 0.732937 0.242244
O O7 0.174293 0.666647 0.209644
O O8 0.500000 0.126850 0.500000
O O9 0.821355 0.062845 0.685015
O O10 0.712843 0.055227 0.533511
O O11 0.588412 0.500000 0.192281
O O12 0.494511 0.385752 0.150679
O O13 0.907240 0.421775 0.324932
O O14 0.526057 0.185477 0.788772
O O15 0.821387 0.170609 0.845151
O O16 0.997107 0.230353 0.843151
O O17 0.252178 0.176954 0.022935
O O18 0.292162 0.000000 0.559743
#
# Coordination Sequence:
#
# PCOD8083762 Si02
#       8
#     8   8   8   8   8   8   8   8
#     4  11  20  33  51  78 112 142 171 220 272 325
#     4  10  21  34  53  80 111 140 173 218 271 327
#     4   9  18  32  53  81 110 142 176 216 270 331
#     4  10  18  33  57  82 108 138 180 232 271 313
#     4  11  20  35  53  77 109 142 179 218 268 322
#     4  10  21  36  57  81 105 141 188 225 267 317
#     4   9  18  32  51  77 108 143 181 219 263 320
#     4  10  21  37  56  78 107 145 182 225 267 322
#
# _framework density 18.275338999999999
#
# number of rings (size 3 to 8) (size 9 to 14) (size 15 to 20)
#    0.000    2.000    2.500    1.875    0.000    2.250 
#    0.000    1.875    0.000    6.750    0.000    0.000 
#    0.000    0.000    0.000    0.000    0.000    0.000 
#
# Total GULP energy -396455.431272 kJ/mol
# GULP energy per Si atom -12389.232227 kJ/mol
# Density = 1.823374 g / cm^3
# Si number density = 18.275339 Si / 1000 Ang^3
#
#
#
# Elastic Constant Matrix: (Units=GPa)
#
#
# Indices 1 2 3 4 5 6 
#
# 1 67.0143 17.2957 20.6479 -0.0017 16.0857 -0.0003
# 2 17.2957 62.4804 28.0729 0.0000 6.4941 -0.0010
# 3 20.6479 28.0729 97.1060 -0.0130 17.4144 0.0002
# 4 -0.0017 0.0000 -0.0130 23.6674 -0.0011 1.7710
# 5 16.0857 6.4941 17.4144 -0.0011 28.2574 0.0000
# 6 -0.0003 -0.0010 0.0002 1.7710 0.0000 15.7273
#
#
#
# Elastic Compliance Matrix: (Units=1/GPa)
#
#
# Indices 1 2 3 4 5 6 
#
# 1 0.018365 -0.003589 -0.001282 0.000000 -0.008840 0.000000
# 2 -0.003589 0.019124 -0.004884 -0.000003 0.000657 0.000002
# 3 -0.001282 -0.004884 0.013098 0.000007 -0.006220 -0.000001
# 4 0.000000 -0.000003 0.000007 0.042611 -0.000002 -0.004798
# 5 -0.008840 0.000657 -0.006220 -0.000002 0.044103 0.000000
# 6 0.000000 0.000002 -0.000001 -0.004798 0.000000 0.064124
#
#
# Mechanical properties :
#
#
# Convention : Reuss Voigt Hill
#
# Bulk Modulus (GPa) = 32.17707 39.84818 36.01262
# Shear Modulus (GPa) = 21.61744 24.23602 22.92673
#
# Velocity S-wave (km/s) = 3.44303 3.64560 3.54576
# Velocity P-wave (km/s) = 5.78368 6.29064 6.04248
#
# Compressibility (1/GPa) = 0.03107804
#
# Stress axis : x y z
#
# Youngs Moduli (GPa) = 54.45041 52.28926 76.34814
#
# Poissons Ratio (x) = 0.18766 0.09790
# Poissons Ratio (y) = 0.19542 0.37285
# Poissons Ratio (z) = 0.06982 0.25536
#
# Static dielectric constant tensor:
#      x y z
#    x 3.334320 0.000000 0.086070 
#    y 0.000000 3.203640 -0.000020 
#    z 0.086070 -0.000020 3.335990 
# 
# 
# High freq. dielectric constant tensor:
#      x y z
#    x 1.710180 0.000000 0.003920 
#    y 0.000000 1.686310 0.000000 
#    z 0.003920 0.000000 1.700530 
# 
# From -- ./inp_files/178387.got.cif
#   From: 2010.06.25/outbox.cif.g09.slc.cpg/sg12_90_cif.got.tgz:178387.got - 2010.06.28 00:19:55.
