data_PCOD8083027
_publ_section_title
;
Structure prediction by ZEFSAII (Michael W. Deem and Ramdas Pophale) SiO2 
 PCOD8083027
Probable space group: C 2/M
;
_chemical_formula_sum "Si O2"
_cell_formula_units_Z 52
_cell_length_a 13.767598
_cell_length_b 10.112222
_cell_length_c 26.373343
_cell_angle_alpha 90.000000
_cell_angle_beta 51.013657
_cell_angle_gamma 90.000000
_cell_volume 2854.015691
_symmetry_space_group_name_H-M "C 2/M"
_symmetry_group_IT_number 12
_symmetry_cell_setting 'monoclinic'
loop_
_space_group_symop_operation_xyz
x,y,z
-x,y,-z
-x,-y,-z
x,-y,z
1/2+x,1/2+y,z
1/2-x,1/2+y,-z
1/2-x,1/2-y,-z
1/2+x,1/2-y,z
loop_
_atom_site_type_symbol
_atom_site_label
_atom_site_fract_x
_atom_site_fract_y
_atom_site_fract_z
Si Si1 0.406088 0.151908 0.155240
Si Si2 0.110185 0.852302 0.927001
Si Si3 0.239055 0.348118 0.591138
Si Si4 0.273359 0.347411 0.693892
Si Si5 0.494932 0.852081 0.614265
Si Si6 0.000000 0.711701 0.500000
Si Si7 0.689739 0.145218 0.056797
O O1 0.360493 0.250070 0.126830
O O2 0.332852 0.183999 0.230522
O O3 0.550246 0.184676 0.117444
O O4 0.384628 0.000000 0.145289
O O5 0.238990 0.859022 0.914070
O O6 0.073900 0.000000 0.918721
O O7 0.000000 0.799245 0.000000
O O8 0.246093 0.500000 0.575948
O O9 0.211784 0.319095 0.659326
O O10 0.125485 0.292118 0.593633
O O11 0.375093 0.295605 0.532113
O O12 0.319668 0.500000 0.681896
O O13 0.389534 0.251015 0.666468
O O14 0.491888 0.871661 0.554311
O O15 0.469989 0.000000 0.644940
O O16 0.694336 0.000000 0.029052
O O17 0.750000 0.250000 0.000000
#
# Coordination Sequence:
#
# PCOD8083027 Si02
#       7
#     8   8   8   8   8   4   8
#     4  10  21  36  55  77 103 138 178 221 267 314
#     4  10  20  34  53  79 107 134 167 212 265 322
#     4   9  18  33  55  79 106 142 183 216 257 317
#     4   9  20  38  54  73 103 140 183 224 260 312
#     4  10  20  34  54  81 110 142 178 219 266 312
#     4  10  18  32  52  82 115 142 171 220 265 308
#     4  10  20  34  53  77 105 136 170 212 263 317
#
# _framework density 18.219942
#
# number of rings (size 3 to 8) (size 9 to 14) (size 15 to 20)
#    0.000    2.308    1.538    0.923    0.000    3.385 
#    0.000    6.923    0.000    0.000    0.000    0.000 
#    0.000    0.000    0.000    0.000    0.000    0.000 
#
# Total GULP energy -322246.655355 kJ/mol
# GULP energy per Si atom -12394.102129 kJ/mol
# Density = 1.817847 g / cm^3
# Si number density = 18.219942 Si / 1000 Ang^3
#
#
#
# Elastic Constant Matrix: (Units=GPa)
#
#
# Indices 1 2 3 4 5 6 
#
# 1 108.3645 45.1033 43.8495 0.0000 -18.5019 0.0000
# 2 45.1033 81.7649 59.1703 0.0000 -5.7096 0.0000
# 3 43.8495 59.1703 118.5422 0.0000 -8.6117 0.0000
# 4 0.0000 0.0000 0.0000 21.2875 0.0000 -0.6112
# 5 -18.5019 -5.7096 -8.6117 0.0000 28.5254 0.0000
# 6 0.0000 0.0000 0.0000 -0.6112 0.0000 28.9234
#
#
#
# Elastic Compliance Matrix: (Units=1/GPa)
#
#
# Indices 1 2 3 4 5 6 
#
# 1 0.013499 -0.005808 -0.001577 0.000000 0.007117 0.000000
# 2 -0.005808 0.021671 -0.008821 0.000000 -0.002092 0.000000
# 3 -0.001577 -0.008821 0.013516 0.000000 0.001292 0.000000
# 4 0.000000 0.000000 0.000000 0.047004 0.000000 0.000993
# 5 0.007117 -0.002092 0.001292 0.000000 0.039644 0.000000
# 6 0.000000 0.000000 0.000000 0.000993 0.000000 0.034595
#
#
# Mechanical properties :
#
#
# Convention : Reuss Voigt Hill
#
# Bulk Modulus (GPa) = 61.44739 67.21309 64.33024
# Shear Modulus (GPa) = 24.06559 26.45049 25.25804
#
# Velocity S-wave (km/s) = 3.63828 3.81430 3.72732
# Velocity P-wave (km/s) = 7.17272 7.50789 7.34222
#
# Compressibility (1/GPa) = 0.01627408
#
# Stress axis : x y z
#
# Youngs Moduli (GPa) = 74.08059 46.14446 73.98643
#
# Poissons Ratio (x) = 0.26800 0.11670
# Poissons Ratio (y) = 0.43025 0.65262
# Poissons Ratio (z) = 0.11685 0.40703
#
# Static dielectric constant tensor:
#      x y z
#    x 3.495000 0.000000 -0.072890 
#    y 0.000000 3.435010 0.000000 
#    z -0.072890 0.000000 3.254790 
# 
# 
# High freq. dielectric constant tensor:
#      x y z
#    x 1.710350 0.000000 -0.007480 
#    y 0.000000 1.705790 0.000000 
#    z -0.007480 0.000000 1.698110 
# 
# From -- ./inp_files/375278.got.cif
#   From: 2010.06.25/outbox.cif.g09.slc.cpg/sg12_188_cif.got.tgz:375278.got - 2010.06.28 00:19:55.
