data_PCOD8083028
_publ_section_title
;
Structure prediction by ZEFSAII (Michael W. Deem and Ramdas Pophale) SiO2 
 PCOD8083028
Probable space group: C 2/M
;
_chemical_formula_sum "Si O2"
_cell_formula_units_Z 44
_cell_length_a 20.043386
_cell_length_b 9.989061
_cell_length_c 14.018779
_cell_angle_alpha 90.000000
_cell_angle_beta 58.479126
_cell_angle_gamma 90.000000
_cell_volume 2392.625534
_symmetry_space_group_name_H-M "C 2/M"
_symmetry_group_IT_number 12
_symmetry_cell_setting 'monoclinic'
loop_
_space_group_symop_operation_xyz
x,y,z
-x,y,-z
-x,-y,-z
x,-y,z
1/2+x,1/2+y,z
1/2-x,1/2+y,-z
1/2-x,1/2-y,-z
1/2+x,1/2-y,z
loop_
_atom_site_type_symbol
_atom_site_label
_atom_site_fract_x
_atom_site_fract_y
_atom_site_fract_z
Si Si1 0.724629 0.653488 0.731513
Si Si2 0.584314 0.348042 0.708918
Si Si3 0.156321 0.149183 0.454834
Si Si4 0.039030 0.349768 0.268411
Si Si5 0.500000 0.247885 0.500000
Si Si6 0.719040 0.154562 0.104802
O O1 0.749765 0.500000 0.693225
O O2 0.635086 0.678653 0.766110
O O3 0.782092 0.744214 0.627567
O O4 0.730197 0.686288 0.839068
O O5 0.552107 0.500000 0.730313
O O6 0.641570 0.321572 0.577052
O O7 0.510136 0.249799 0.762182
O O8 0.075116 0.158135 0.457784
O O9 0.190280 0.000000 0.414525
O O10 0.024681 0.500000 0.241978
O O11 0.012204 0.344245 0.398342
O O12 0.129422 0.309661 0.193575
O O13 0.728612 0.000000 0.066532
O O14 0.750000 0.250000 0.000000
#
# Coordination Sequence:
#
# PCOD8083028 Si02
#       6
#     8   8   8   8   4   8
#     4  10  20  37  56  77 110 147 186 226 271 329
#     4   9  20  35  53  80 115 149 178 219 274 333
#     4  10  19  30  49  81 116 147 182 220 268 327
#     4  10  20  35  57  83 111 143 185 228 273 327
#     4  10  18  32  52  82 116 148 178 220 278 330
#     4  10  22  40  59  82 106 142 190 234 273 321
#
# _framework density 18.38984
#
# number of rings (size 3 to 8) (size 9 to 14) (size 15 to 20)
#    0.000    2.182    1.818    1.091    0.000    5.818 
#    0.000    0.909    0.000    5.455    0.000    0.000 
#    0.000    0.000    0.000    0.000    0.000    0.000 
#
# Total GULP energy -272823.363563 kJ/mol
# GULP energy per Si atom -12401.061980 kJ/mol
# Density = 1.834798 g / cm^3
# Si number density = 18.389840 Si / 1000 Ang^3
#
#
#
# Elastic Constant Matrix: (Units=GPa)
#
#
# Indices 1 2 3 4 5 6 
#
# 1 136.4754 65.2180 47.8034 0.0000 15.1808 0.0000
# 2 65.2180 102.8761 49.9765 0.0000 5.0882 0.0000
# 3 47.8034 49.9765 60.8246 0.0000 3.0693 0.0000
# 4 0.0000 0.0000 0.0000 31.4335 0.0000 -5.4617
# 5 15.1808 5.0882 3.0693 0.0000 20.0926 0.0000
# 6 0.0000 0.0000 0.0000 -5.4617 0.0000 30.1068
#
#
#
# Elastic Compliance Matrix: (Units=1/GPa)
#
#
# Indices 1 2 3 4 5 6 
#
# 1 0.012326 -0.004871 -0.005318 0.000000 -0.007267 0.000000
# 2 -0.004871 0.018190 -0.011157 0.000000 0.000778 0.000000
# 3 -0.005318 -0.011157 0.029671 0.000000 0.002311 0.000000
# 4 0.000000 0.000000 0.000000 0.032849 0.000000 0.005959
# 5 -0.007267 0.000778 0.002311 0.000000 0.054710 0.000000
# 6 0.000000 0.000000 0.000000 0.005959 0.000000 0.034296
#
#
# Mechanical properties :
#
#
# Convention : Reuss Voigt Hill
#
# Bulk Modulus (GPa) = 57.16064 69.57468 63.36766
# Shear Modulus (GPa) = 21.68580 25.47179 23.57880
#
# Velocity S-wave (km/s) = 3.43771 3.72573 3.58462
# Velocity P-wave (km/s) = 6.84890 7.51155 7.18787
#
# Compressibility (1/GPa) = 0.01749456
#
# Stress axis : x y z
#
# Youngs Moduli (GPa) = 81.12656 54.97599 33.70322
#
# Poissons Ratio (x) = 0.26780 0.17925
# Poissons Ratio (y) = 0.39518 0.37601
# Poissons Ratio (z) = 0.43147 0.61334
#
# Static dielectric constant tensor:
#      x y z
#    x 3.591940 0.000000 0.120840 
#    y 0.000000 3.389290 0.000000 
#    z 0.120840 0.000000 3.077650 
# 
# 
# High freq. dielectric constant tensor:
#      x y z
#    x 1.723540 0.000000 0.007070 
#    y 0.000000 1.717900 0.000000 
#    z 0.007070 0.000000 1.679200 
# 
# From -- ./inp_files/229749.got.cif
#   From: 2010.06.25/outbox.cif.g09.slc.cpg/sg12_115_cif.got.tgz:229749.got - 2010.06.28 00:19:55.
