data_PCOD8083455
_publ_section_title
;
Structure prediction by ZEFSAII (Michael W. Deem and Ramdas Pophale) SiO2 
 PCOD8083455
Probable space group: C 2/M
;
_chemical_formula_sum "Si O2"
_cell_formula_units_Z 64
_cell_length_a 23.023947
_cell_length_b 12.257450
_cell_length_c 11.118699
_cell_angle_alpha 90.000000
_cell_angle_beta 71.883599
_cell_angle_gamma 90.000000
_cell_volume 2982.308298
_symmetry_space_group_name_H-M "C 2/M"
_symmetry_group_IT_number 12
_symmetry_cell_setting 'monoclinic'
loop_
_space_group_symop_operation_xyz
x,y,z
-x,y,-z
-x,-y,-z
x,-y,z
1/2+x,1/2+y,z
1/2-x,1/2+y,-z
1/2-x,1/2-y,-z
1/2+x,1/2-y,z
loop_
_atom_site_type_symbol
_atom_site_label
_atom_site_fract_x
_atom_site_fract_y
_atom_site_fract_z
Si Si1 0.041911 0.876994 0.074989
Si Si2 0.905155 0.874678 0.514870
Si Si3 0.993810 0.727016 0.303340
Si Si4 0.378033 0.216844 0.733501
Si Si5 0.845485 0.757229 0.024996
Si Si6 0.888736 0.371784 0.220922
Si Si7 0.692459 0.299404 0.598935
Si Si8 0.754341 0.621099 0.785113
O O1 0.030685 0.820035 0.208448
O O2 0.021789 0.000000 0.105445
O O3 0.000000 0.821606 0.000000
O O4 0.112292 0.865357 0.989215
O O5 0.955923 0.789678 0.430971
O O6 0.884067 0.833351 0.660348
O O7 0.847507 0.873586 0.463347
O O8 0.929075 0.000000 0.508441
O O9 0.955869 0.653644 0.233858
O O10 0.053597 0.660582 0.317085
O O11 0.324397 0.149198 0.701355
O O12 0.349523 0.218008 0.885783
O O13 0.876489 0.665314 0.091216
O O14 0.776064 0.790798 0.103216
O O15 0.876648 0.500000 0.237087
O O16 0.843046 0.307341 0.334959
O O17 0.750000 0.250000 0.500000
O O18 0.712103 0.377716 0.694466
O O19 0.752945 0.500000 0.842291
#
# Coordination Sequence:
#
# PCOD8083455 Si02
#       8
#     8   8   8   8   8   8   8   8
#     4  10  18  32  58  89 119 158 201 255 319 362
#     4  11  23  41  66  94 124 164 207 256 319 375
#     4  10  22  40  61  91 130 161 209 264 308 368
#     4  11  24  40  60  89 128 169 205 253 303 371
#     4  10  22  41  61  89 128 159 210 264 305 364
#     4  10  22  40  66  92 122 166 209 259 316 366
#     4  10  21  43  65  91 121 152 205 266 307 365
#     4  11  23  41  63  89 120 160 203 254 314 366
#
# _framework density 21.459886999999998
#
# number of rings (size 3 to 8) (size 9 to 14) (size 15 to 20)
#    0.000    1.625    2.500    1.875    0.000    5.500 
#    0.000    4.375    0.000    2.250    0.000    0.000 
#    0.000    0.000    0.000    0.000    0.000    0.000 
#
# Total GULP energy -396426.680395 kJ/mol
# GULP energy per Si atom -12388.333762 kJ/mol
# Density = 2.141104 g / cm^3
# Si number density = 21.459887 Si / 1000 Ang^3
#
#
#
# Elastic Constant Matrix: (Units=GPa)
#
#
# Indices 1 2 3 4 5 6 
#
# 1 141.8408 29.5649 25.4170 0.0000 -8.5104 0.0000
# 2 29.5649 96.2915 20.0166 0.0000 4.8038 0.0000
# 3 25.4170 20.0166 85.9711 0.0000 5.1696 0.0000
# 4 0.0000 0.0000 0.0000 18.0372 0.0000 -2.8192
# 5 -8.5104 4.8038 5.1696 0.0000 33.7064 0.0000
# 6 0.0000 0.0000 0.0000 -2.8192 0.0000 14.4070
#
#
#
# Elastic Compliance Matrix: (Units=1/GPa)
#
#
# Indices 1 2 3 4 5 6 
#
# 1 0.008025 -0.002175 -0.002025 0.000000 0.002647 0.000000
# 2 -0.002175 0.011549 -0.001932 0.000000 -0.001899 0.000000
# 3 -0.002025 -0.001932 0.012813 0.000000 -0.002201 0.000000
# 4 0.000000 0.000000 0.000000 0.057190 0.000000 0.011191
# 5 0.002647 -0.001899 -0.002201 0.000000 0.030944 0.000000
# 6 0.000000 0.000000 0.000000 0.011191 0.000000 0.071601
#
#
# Mechanical properties :
#
#
# Convention : Reuss Voigt Hill
#
# Bulk Modulus (GPa) = 49.69483 52.67785 51.18634
# Shear Modulus (GPa) = 23.68605 29.83711 26.76158
#
# Velocity S-wave (km/s) = 3.32586 3.73281 3.53519
# Velocity P-wave (km/s) = 6.16083 6.57106 6.36925
#
# Compressibility (1/GPa) = 0.02012282
#
# Stress axis : x y z
#
# Youngs Moduli (GPa) = 124.60638 86.58571 78.04732
#
# Poissons Ratio (x) = 0.18833 0.15808
# Poissons Ratio (y) = 0.27103 0.15077
# Poissons Ratio (z) = 0.25238 0.16726
#
# Static dielectric constant tensor:
#      x y z
#    x 4.729240 0.000000 0.293360 
#    y 0.000000 3.276070 0.000000 
#    z 0.293360 0.000000 4.157280 
# 
# 
# High freq. dielectric constant tensor:
#      x y z
#    x 1.870870 0.000000 0.006270 
#    y 0.000000 1.802350 0.000000 
#    z 0.006270 0.000000 1.845310 
# 
# From -- ./inp_files/175268.got.cif
#   From: 2010.06.25/outbox.cif.g09.slc.cpg/sg12_88_cif.got.tgz:175268.got - 2010.06.28 00:19:55.
