data_PCOD8083901
_publ_section_title
;
Structure prediction by ZEFSAII (Michael W. Deem and Ramdas Pophale) SiO2 
 PCOD8083901
Probable space group: C 2/M
;
_chemical_formula_sum "Si O2"
_cell_formula_units_Z 48
_cell_length_a 28.478032
_cell_length_b 14.035280
_cell_length_c 14.531405
_cell_angle_alpha 90.000000
_cell_angle_beta 160.603122
_cell_angle_gamma 90.000000
_cell_volume 1928.946885
_symmetry_space_group_name_H-M "C 2/M"
_symmetry_group_IT_number 12
_symmetry_cell_setting 'monoclinic'
loop_
_space_group_symop_operation_xyz
x,y,z
-x,y,-z
-x,-y,-z
x,-y,z
1/2+x,1/2+y,z
1/2-x,1/2+y,-z
1/2-x,1/2-y,-z
1/2+x,1/2-y,z
loop_
_atom_site_type_symbol
_atom_site_label
_atom_site_fract_x
_atom_site_fract_y
_atom_site_fract_z
Si Si1 0.601155 0.386674 0.363808
Si Si2 0.850271 0.386794 0.689210
Si Si3 0.943240 0.192082 0.526431
Si Si4 0.599099 0.895138 0.569541
Si Si5 0.305654 0.394142 0.108068
Si Si6 0.792349 0.108665 0.754569
O O1 0.598812 0.500000 0.374051
O O2 0.726155 0.353845 0.528156
O O3 0.631316 0.335949 0.516740
O O4 0.450743 0.348079 0.047149
O O5 0.864079 0.500000 0.712863
O O6 0.809206 0.345186 0.511833
O O7 0.000000 0.343132 0.000000
O O8 0.998387 0.302845 0.628241
O O9 0.822627 0.180086 0.223508
O O10 0.075296 0.124942 0.749230
O O11 0.654071 0.889851 0.776969
O O12 0.729244 0.882138 0.739751
O O13 0.526523 0.000000 0.418493
O O14 0.328907 0.500000 0.190813
O O15 0.809160 0.000000 0.755143
#
# Coordination Sequence:
#
# PCOD8083901 Si02
#       6
#     8   8   8   8   8   8
#     4  10  18  33  60  94 123 160 217 265 305 372
#     4   9  18  33  55  88 130 168 200 252 326 383
#     4  11  20  34  60  93 119 158 211 266 307 363
#     4  10  21  38  59  84 123 169 209 255 315 374
#     4  10  20  38  63  90 125 163 205 258 317 372
#     4   9  17  34  59  85 118 167 215 254 306 375
#
# _framework density 24.884043999999999
#
# number of rings (size 3 to 8) (size 9 to 14) (size 15 to 20)
#    0.000    2.167    1.667    3.000    0.000    2.000 
#    3.000    2.500    0.000    2.000    0.000    0.000 
#    0.000    0.000    0.000    0.000    0.000    0.167 
#
# Total GULP energy -297460.602609 kJ/mol
# GULP energy per Si atom -12394.191775 kJ/mol
# Density = 2.482741 g / cm^3
# Si number density = 24.884044 Si / 1000 Ang^3
#
#
#
# Elastic Constant Matrix: (Units=GPa)
#
#
# Indices 1 2 3 4 5 6 
#
# 1 98.1696 1.6587 19.9614 0.0000 -30.9277 0.0000
# 2 1.6587 99.6008 1.6546 0.0000 -8.7861 0.0000
# 3 19.9614 1.6546 101.4677 0.0000 -15.8052 0.0000
# 4 0.0000 0.0000 0.0000 13.2288 0.0000 -2.9003
# 5 -30.9277 -8.7861 -15.8052 0.0000 34.7642 0.0000
# 6 0.0000 0.0000 0.0000 -2.9003 0.0000 15.3224
#
#
#
# Elastic Compliance Matrix: (Units=1/GPa)
#
#
# Indices 1 2 3 4 5 6 
#
# 1 0.014303 0.000883 -0.000873 0.000000 0.012551 0.000000
# 2 0.000883 0.010330 0.000201 0.000000 0.003488 0.000000
# 3 -0.000873 0.000201 0.010666 0.000000 0.004123 0.000000
# 4 0.000000 0.000000 0.000000 0.078865 0.000000 0.014928
# 5 0.012551 0.003488 0.004123 0.000000 0.042687 0.000000
# 6 0.000000 0.000000 0.000000 0.014928 0.000000 0.068090
#
#
# Mechanical properties :
#
#
# Convention : Reuss Voigt Hill
#
# Bulk Modulus (GPa) = 27.99415 38.42084 33.20749
# Shear Modulus (GPa) = 21.14827 31.06065 26.10446
#
# Velocity S-wave (km/s) = 2.91842 3.53684 3.24241
# Velocity P-wave (km/s) = 4.75715 5.67032 5.23369
#
# Compressibility (1/GPa) = 0.03572175
#
# Stress axis : x y z
#
# Youngs Moduli (GPa) = 69.91443 96.80803 93.75486
#
# Poissons Ratio (x) = -0.08553 0.08187
# Poissons Ratio (y) = -0.06177 -0.01885
# Poissons Ratio (z) = 0.06105 -0.01947
#
# Static dielectric constant tensor:
#      x y z
#    x 4.386850 0.000000 -0.194530 
#    y 0.000000 4.378470 0.000000 
#    z -0.194530 0.000000 4.331240 
# 
# 
# High freq. dielectric constant tensor:
#      x y z
#    x 1.991480 0.000000 -0.005430 
#    y 0.000000 1.988690 0.000000 
#    z -0.005430 0.000000 1.970690 
# 
# From -- ./inp_files/251487.got.cif
#   From: 2010.06.25/outbox.cif.g09.slc.cpg/sg12_126_cif.got.tgz:251487.got - 2010.06.28 00:19:55.
