data_PCOD8083708
_publ_section_title
;
Structure prediction by ZEFSAII (Michael W. Deem and Ramdas Pophale) SiO2 
 PCOD8083708
Probable space group: C 2/M
;
_chemical_formula_sum "Si O2"
_cell_formula_units_Z 64
_cell_length_a 9.037591
_cell_length_b 19.153429
_cell_length_c 19.780409
_cell_angle_alpha 90.000000
_cell_angle_beta 92.633829
_cell_angle_gamma 90.000000
_cell_volume 3420.388682
_symmetry_space_group_name_H-M "C 2/M"
_symmetry_group_IT_number 12
_symmetry_cell_setting 'monoclinic'
loop_
_space_group_symop_operation_xyz
x,y,z
-x,y,-z
-x,-y,-z
x,-y,z
1/2+x,1/2+y,z
1/2-x,1/2+y,-z
1/2-x,1/2-y,-z
1/2+x,1/2-y,z
loop_
_atom_site_type_symbol
_atom_site_label
_atom_site_fract_x
_atom_site_fract_y
_atom_site_fract_z
Si Si1 0.106265 0.578885 0.233831
Si Si2 0.105719 0.796133 0.258084
Si Si3 0.197662 0.421155 0.695068
Si Si4 0.339224 0.314909 0.474388
Si Si5 0.145470 0.417972 0.541477
Si Si6 0.386686 0.724983 0.047068
Si Si7 0.129440 0.300619 0.132397
Si Si8 0.202938 0.819908 0.682671
O O1 0.151615 0.500000 0.215356
O O2 0.097249 0.626292 0.167257
O O3 0.225536 0.608057 0.289689
O O4 0.944928 0.581019 0.261810
O O5 0.178079 0.872255 0.268889
O O6 0.129900 0.766072 0.183041
O O7 0.178503 0.742362 0.311993
O O8 0.932933 0.800585 0.271308
O O9 0.262331 0.500000 0.692385
O O10 0.147281 0.394816 0.619807
O O11 0.500000 0.296077 0.500000
O O12 0.250000 0.250000 0.500000
O O13 0.287343 0.386174 0.507955
O O14 0.342905 0.328178 0.394933
O O15 0.155039 0.500000 0.533718
O O16 0.000000 0.388746 0.500000
O O17 0.297682 0.687977 0.106232
O O18 0.496292 0.786889 0.076221
O O19 0.500000 0.679813 0.000000
O O20 0.250000 0.750000 0.000000
#
# Coordination Sequence:
#
# PCOD8083708 Si02
#       8
#     8   8   8   8   8   8   8   8
#     4  10  21  36  56  81 109 143 182 226 274 323
#     4  11  21  36  55  79 107 136 176 220 271 322
#     4  10  20  35  53  75 104 136 175 224 276 326
#     4  12  24  36  52  74 101 136 179 228 284 340
#     4  10  21  37  55  72  96 135 179 224 276 334
#     4   9  18  32  55  85 114 139 170 211 248 295
#     4  10  18  33  56  83 109 141 176 214 259 306
#     4  11  22  35  53  75 104 138 177 231 281 330
#
# _framework density 18.711324000000001
#
# number of rings (size 3 to 8) (size 9 to 14) (size 15 to 20)
#    0.000    1.625    0.000    7.125    0.000    2.250 
#    0.000    0.000    0.000    3.750    0.000    3.500 
#    0.000    0.000    0.000    0.000    0.000    0.000 
#
# Total GULP energy -396584.960666 kJ/mol
# GULP energy per Si atom -12393.280021 kJ/mol
# Density = 1.866874 g / cm^3
# Si number density = 18.711324 Si / 1000 Ang^3
#
#
#
# Elastic Constant Matrix: (Units=GPa)
#
#
# Indices 1 2 3 4 5 6 
#
# 1 97.0322 38.0518 27.7288 0.0000 -2.6688 0.0000
# 2 38.0518 85.7737 37.2191 0.0000 6.5969 0.0000
# 3 27.7288 37.2191 101.4614 0.0000 -4.0575 0.0000
# 4 0.0000 0.0000 0.0000 11.9777 0.0000 -3.1992
# 5 -2.6688 6.5969 -4.0575 0.0000 38.3096 0.0000
# 6 0.0000 0.0000 0.0000 -3.1992 0.0000 29.5253
#
#
#
# Elastic Compliance Matrix: (Units=1/GPa)
#
#
# Indices 1 2 3 4 5 6 
#
# 1 0.012806 -0.005131 -0.001553 0.000000 0.001611 0.000000
# 2 -0.005131 0.016259 -0.004708 0.000000 -0.003656 0.000000
# 3 -0.001553 -0.004708 0.012087 0.000000 0.001983 0.000000
# 4 0.000000 0.000000 0.000000 0.085977 0.000000 0.009316
# 5 0.001611 -0.003656 0.001983 0.000000 0.027055 0.000000
# 6 0.000000 0.000000 0.000000 0.009316 0.000000 0.034879
#
#
# Mechanical properties :
#
#
# Convention : Reuss Voigt Hill
#
# Bulk Modulus (GPa) = 54.44530 54.47407 54.45968
# Shear Modulus (GPa) = 22.93890 28.04701 25.49295
#
# Velocity S-wave (km/s) = 3.50514 3.87580 3.69512
# Velocity P-wave (km/s) = 6.74848 7.01464 6.88285
#
# Compressibility (1/GPa) = 0.01836706
#
# Stress axis : x y z
#
# Youngs Moduli (GPa) = 78.08682 61.50395 82.73457
#
# Poissons Ratio (x) = 0.31559 0.12850
# Poissons Ratio (y) = 0.40068 0.38953
# Poissons Ratio (z) = 0.12128 0.28957
#
# Static dielectric constant tensor:
#      x y z
#    x 3.855890 0.000000 -0.231430 
#    y 0.000000 3.418400 0.000000 
#    z -0.231430 0.000000 3.822410 
# 
# 
# High freq. dielectric constant tensor:
#      x y z
#    x 1.742930 0.000000 -0.003820 
#    y 0.000000 1.703070 0.000000 
#    z -0.003820 0.000000 1.736640 
# 
# From -- ./inp_files/300782.got.cif
#   From: 2010.06.25/outbox.cif.g09.slc.cpg/sg12_151_cif.got.tgz:300782.got - 2010.06.28 00:19:55.
