data_PCOD8083813
_publ_section_title
;
Structure prediction by ZEFSAII (Michael W. Deem and Ramdas Pophale) SiO2 
 PCOD8083813
Probable space group: C 2/M
;
_chemical_formula_sum "Si O2"
_cell_formula_units_Z 64
_cell_length_a 32.620420
_cell_length_b 9.010869
_cell_length_c 24.790484
_cell_angle_alpha 90.000000
_cell_angle_beta 26.428299
_cell_angle_gamma 90.000000
_cell_volume 3243.223634
_symmetry_space_group_name_H-M "C 2/M"
_symmetry_group_IT_number 12
_symmetry_cell_setting 'monoclinic'
loop_
_space_group_symop_operation_xyz
x,y,z
-x,y,-z
-x,-y,-z
x,-y,z
1/2+x,1/2+y,z
1/2-x,1/2+y,-z
1/2-x,1/2-y,-z
1/2+x,1/2-y,z
loop_
_atom_site_type_symbol
_atom_site_label
_atom_site_fract_x
_atom_site_fract_y
_atom_site_fract_z
Si Si1 0.426530 0.169236 0.047295
Si Si2 0.697311 0.676068 0.190074
Si Si3 0.779716 0.175599 0.409595
Si Si4 0.968515 0.330792 0.185349
Si Si5 0.142812 0.327824 0.476571
Si Si6 0.723488 0.676707 0.280677
Si Si7 0.621820 0.823903 0.082984
Si Si8 0.068183 0.327594 0.262570
O O1 0.325866 0.242197 0.171074
O O2 0.416831 0.000000 0.078338
O O3 0.500000 0.251151 0.000000
O O4 0.458648 0.178053 0.948414
O O5 0.697673 0.500000 0.186136
O O6 0.692738 0.729729 0.257402
O O7 0.606590 0.736753 0.267802
O O8 0.788429 0.741869 0.052950
O O9 0.750000 0.250000 0.500000
O O10 0.882590 0.226034 0.273862
O O11 0.712012 0.229325 0.441547
O O12 0.775227 0.000000 0.421765
O O13 0.933398 0.500000 0.235293
O O14 0.025789 0.270246 0.169144
O O15 0.159953 0.500000 0.444770
O O16 0.156099 0.240983 0.405065
O O17 0.039740 0.295961 0.617868
O O18 0.722363 0.500000 0.284638
O O19 0.620371 0.772866 0.146899
O O20 0.623498 0.000000 0.075797
O O21 0.086823 0.500000 0.251215
#
# Coordination Sequence:
#
# PCOD8083813 Si02
#       8
#     8   8   8   8   8   8   8   8
#     4   9  16  28  51  82 109 138 181 224 267 328
#     4  10  20  36  58  86 115 142 182 236 291 336
#     4  11  23  39  58  83 115 151 192 235 281 334
#     4  10  18  33  58  84 112 147 183 227 281 334
#     4  10  23  41  57  79 114 154 193 232 281 340
#     4  10  20  36  58  85 114 146 188 236 281 334
#     4   9  17  34  59  84 113 147 183 230 287 344
#     4  10  21  37  57  79 106 148 196 233 280 344
#
# _framework density 19.733453000000001
#
# number of rings (size 3 to 8) (size 9 to 14) (size 15 to 20)
#    0.000    2.125    1.250    2.250    0.000    5.500 
#    0.000    5.625    0.000    2.250    0.000    0.000 
#    0.000    0.000    0.000    0.000    0.000    0.000 
#
# Total GULP energy -396798.845746 kJ/mol
# GULP energy per Si atom -12399.963930 kJ/mol
# Density = 1.968854 g / cm^3
# Si number density = 19.733453 Si / 1000 Ang^3
#
#
#
# Elastic Constant Matrix: (Units=GPa)
#
#
# Indices 1 2 3 4 5 6 
#
# 1 145.0003 30.1045 35.5721 0.0035 1.2036 -0.0018
# 2 30.1045 31.4704 21.7393 -0.0036 2.1041 0.0002
# 3 35.5721 21.7393 75.7582 0.0003 4.8412 -0.0005
# 4 0.0035 -0.0036 0.0003 23.7297 0.0007 -0.9512
# 5 1.2036 2.1041 4.8412 0.0007 36.9204 0.0013
# 6 -0.0018 0.0002 -0.0005 -0.9512 0.0013 28.4187
#
#
#
# Elastic Compliance Matrix: (Units=1/GPa)
#
#
# Indices 1 2 3 4 5 6 
#
# 1 0.008886 -0.007018 -0.002184 -0.000002 0.000397 0.000000
# 2 -0.007018 0.045197 -0.009605 0.000008 -0.001088 -0.000001
# 3 -0.002184 -0.009605 0.017085 -0.000001 -0.001622 0.000000
# 4 -0.000002 0.000008 -0.000001 0.042198 -0.000001 0.001412
# 5 0.000397 -0.001088 -0.001622 -0.000001 0.027347 -0.000001
# 6 0.000000 -0.000001 0.000000 0.001412 -0.000001 0.035235
#
#
# Mechanical properties :
#
#
# Convention : Reuss Voigt Hill
#
# Bulk Modulus (GPa) = 29.80221 47.45120 38.62671
# Shear Modulus (GPa) = 22.24720 28.80128 25.52424
#
# Velocity S-wave (km/s) = 3.36130 3.82451 3.60036
# Velocity P-wave (km/s) = 5.49542 6.60308 6.07455
#
# Compressibility (1/GPa) = 0.03355456
#
# Stress axis : x y z
#
# Youngs Moduli (GPa) = 112.53483 22.12527 58.53065
#
# Poissons Ratio (x) = 0.15528 0.12782
# Poissons Ratio (y) = 0.78982 0.56217
# Poissons Ratio (z) = 0.24576 0.21251
#
# Static dielectric constant tensor:
#      x y z
#    x 3.782370 0.000000 -0.046340 
#    y 0.000000 3.243490 0.000020 
#    z -0.046340 0.000020 3.642280 
# 
# 
# High freq. dielectric constant tensor:
#      x y z
#    x 1.786750 0.000000 -0.001440 
#    y 0.000000 1.725240 0.000000 
#    z -0.001440 0.000000 1.775520 
# 
# From -- ./inp_files/353317.got.cif
#   From: 2010.06.25/outbox.cif.g09.slc.cpg/sg12_177_cif.got.tgz:353317.got - 2010.06.28 00:19:55.
