data_PCOD8083645
_publ_section_title
;
Structure prediction by ZEFSAII (Michael W. Deem and Ramdas Pophale) SiO2 
 PCOD8083645
Probable space group: C 2/M
;
_chemical_formula_sum "Si O2"
_cell_formula_units_Z 64
_cell_length_a 29.665265
_cell_length_b 8.875617
_cell_length_c 11.988643
_cell_angle_alpha 90.000000
_cell_angle_beta 85.701933
_cell_angle_gamma 90.000000
_cell_volume 3147.702726
_symmetry_space_group_name_H-M "C 2/M"
_symmetry_group_IT_number 12
_symmetry_cell_setting 'monoclinic'
loop_
_space_group_symop_operation_xyz
x,y,z
-x,y,-z
-x,-y,-z
x,-y,z
1/2+x,1/2+y,z
1/2-x,1/2+y,-z
1/2-x,1/2-y,-z
1/2+x,1/2-y,z
loop_
_atom_site_type_symbol
_atom_site_label
_atom_site_fract_x
_atom_site_fract_y
_atom_site_fract_z
Si Si1 0.760511 0.821548 0.312052
Si Si2 0.341050 0.822617 0.650007
Si Si3 0.997242 0.321984 0.628400
Si Si4 0.211027 0.820984 0.933911
Si Si5 0.575903 0.672408 0.749968
Si Si6 0.156212 0.171762 0.569198
Si Si7 0.415044 0.322864 0.774691
Si Si8 0.610025 0.677301 0.977718
O O1 0.710116 0.759965 0.340462
O O2 0.779942 0.762438 0.192180
O O3 0.794281 0.767403 0.403502
O O4 0.759594 0.000000 0.310775
O O5 0.362402 0.777174 0.526583
O O6 0.366709 0.737243 0.743557
O O7 0.345144 0.000000 0.668475
O O8 0.992923 0.500000 0.629892
O O9 0.953627 0.256267 0.696909
O O10 0.000000 0.262285 0.500000
O O11 0.040898 0.273857 0.689485
O O12 0.161266 0.759241 0.977723
O O13 0.214026 0.000000 0.944288
O O14 0.250000 0.750000 0.000000
O O15 0.557978 0.500000 0.755158
O O16 0.624100 0.683018 0.681695
O O17 0.582817 0.737981 0.874202
O O18 0.158229 0.000000 0.525478
O O19 0.418379 0.500000 0.754542
O O20 0.418423 0.282581 0.905762
O O21 0.614730 0.500000 0.959720
#
# Coordination Sequence:
#
# PCOD8083645 Si02
#       8
#     8   8   8   8   8   8   8   8
#     4   9  18  33  54  80 113 155 197 237 286 343
#     4  11  22  35  53  82 121 158 192 240 298 343
#     4  11  25  44  64  88 120 152 185 234 297 354
#     4  10  18  33  55  80 114 155 199 241 285 335
#     4  10  20  38  65  90 114 150 197 244 289 343
#     4  10  19  35  59  84 112 153 201 241 283 343
#     4  11  23  40  62  87 115 150 195 239 284 345
#     4   9  19  37  61  87 116 151 193 243 289 335
#
# _framework density 20.332287999999998
#
# number of rings (size 3 to 8) (size 9 to 14) (size 15 to 20)
#    0.000    1.875    1.250    3.000    0.000    4.000 
#    0.000    6.875    0.000    0.000    0.000    0.000 
#    0.000    0.000    0.000    0.000    0.000    0.000 
#
# Total GULP energy -396784.062147 kJ/mol
# GULP energy per Si atom -12399.501942 kJ/mol
# Density = 2.028601 g / cm^3
# Si number density = 20.332288 Si / 1000 Ang^3
#
#
#
# Elastic Constant Matrix: (Units=GPa)
#
#
# Indices 1 2 3 4 5 6 
#
# 1 109.3244 30.6958 57.8628 0.0000 9.7183 0.0000
# 2 30.6958 48.7420 40.7882 0.0000 1.6075 0.0000
# 3 57.8628 40.7882 149.9419 0.0000 7.0770 0.0000
# 4 0.0000 0.0000 0.0000 20.6607 0.0000 4.4692
# 5 9.7183 1.6075 7.0770 0.0000 37.5010 0.0000
# 6 0.0000 0.0000 0.0000 4.4692 0.0000 31.7081
#
#
#
# Elastic Compliance Matrix: (Units=1/GPa)
#
#
# Indices 1 2 3 4 5 6 
#
# 1 0.012548 -0.005005 -0.003367 0.000000 -0.002402 0.000000
# 2 -0.005005 0.028561 -0.005894 0.000000 0.001185 0.000000
# 3 -0.003367 -0.005894 0.009604 0.000000 -0.000687 0.000000
# 4 0.000000 0.000000 0.000000 0.049923 0.000000 -0.007037
# 5 -0.002402 0.001185 -0.000687 0.000000 0.027367 0.000000
# 6 0.000000 0.000000 0.000000 -0.007037 0.000000 0.032529
#
#
# Mechanical properties :
#
#
# Convention : Reuss Voigt Hill
#
# Bulk Modulus (GPa) = 45.08377 62.96687 54.02532
# Shear Modulus (GPa) = 25.45037 29.88471 27.66754
#
# Velocity S-wave (km/s) = 3.54181 3.83798 3.69286
# Velocity P-wave (km/s) = 6.24079 7.11872 6.69417
#
# Compressibility (1/GPa) = 0.02218093
#
# Stress axis : x y z
#
# Youngs Moduli (GPa) = 79.69218 35.01243 104.11815
#
# Poissons Ratio (x) = 0.17525 0.35062
# Poissons Ratio (y) = 0.39888 0.61365
# Poissons Ratio (z) = 0.26836 0.20636
#
# Static dielectric constant tensor:
#      x y z
#    x 3.846070 0.000000 0.051810 
#    y 0.000000 3.403280 0.000000 
#    z 0.051810 0.000000 3.959240 
# 
# 
# High freq. dielectric constant tensor:
#      x y z
#    x 1.800560 0.000000 0.003130 
#    y 0.000000 1.762420 0.000000 
#    z 0.003130 0.000000 1.810820 
# 
# From -- ./inp_files/187619.got.cif
#   From: 2010.06.25/outbox.cif.g09.slc.cpg/sg12_94_cif.got.tgz:187619.got - 2010.06.28 00:19:55.
