data_PCOD8083400
_publ_section_title
;
Structure prediction by ZEFSAII (Michael W. Deem and Ramdas Pophale) SiO2 
 PCOD8083400
Probable space group: C 2/M
;
_chemical_formula_sum "Si O2"
_cell_formula_units_Z 56
_cell_length_a 15.401837
_cell_length_b 8.809114
_cell_length_c 26.350097
_cell_angle_alpha 90.000000
_cell_angle_beta 54.139073
_cell_angle_gamma 90.000000
_cell_volume 2897.400643
_symmetry_space_group_name_H-M "C 2/M"
_symmetry_group_IT_number 12
_symmetry_cell_setting 'monoclinic'
loop_
_space_group_symop_operation_xyz
x,y,z
-x,y,-z
-x,-y,-z
x,-y,z
1/2+x,1/2+y,z
1/2-x,1/2+y,-z
1/2-x,1/2-y,-z
1/2+x,1/2-y,z
loop_
_atom_site_type_symbol
_atom_site_label
_atom_site_fract_x
_atom_site_fract_y
_atom_site_fract_z
Si Si1 0.723103 0.820731 0.371953
Si Si2 0.106280 0.319750 0.151075
Si Si3 0.535231 0.320038 0.714341
Si Si4 0.957489 0.321363 0.639336
Si Si5 0.653359 0.821112 0.503325
Si Si6 0.167241 0.320153 0.922392
Si Si7 0.041281 0.320412 0.063083
O O1 0.843484 0.755381 0.329113
O O2 0.658398 0.774726 0.343482
O O3 0.659361 0.760429 0.443384
O O4 0.729881 0.000000 0.373456
O O5 0.103558 0.500000 0.153185
O O6 0.222958 0.263842 0.128059
O O7 0.076061 0.254643 0.105658
O O8 0.018835 0.255790 0.218993
O O9 0.531087 0.500000 0.721568
O O10 0.473255 0.272950 0.684846
O O11 0.965176 0.500000 0.648940
O O12 0.042945 0.271986 0.567350
O O13 0.750000 0.750000 0.500000
O O14 0.666362 0.000000 0.500311
O O15 0.186264 0.500000 0.914935
O O16 0.079545 0.270000 0.910235
O O17 0.125214 0.263965 0.991792
O O18 0.044436 0.500000 0.062505
#
# Coordination Sequence:
#
# PCOD8083400 Si02
#       7
#     8   8   8   8   8   8   8
#     4   9  19  36  57  80 108 142 180 220 271 329
#     4  11  22  36  54  80 112 145 183 224 268 318
#     4  11  23  39  55  75 107 146 185 227 270 319
#     4  10  20  36  59  83 107 140 180 224 274 326
#     4  10  18  32  57  84 111 140 173 219 273 326
#     4   9  17  35  60  85 111 143 180 218 268 322
#     4   8  17  34  58  84 113 145 177 218 268 324
#
# _framework density 19.327670000000001
#
# number of rings (size 3 to 8) (size 9 to 14) (size 15 to 20)
#    0.000    2.286    1.429    2.571    0.000    2.857 
#    0.000    8.571    0.000    1.714    0.000    0.000 
#    0.000    0.000    0.000    0.000    0.000    0.000 
#
# Total GULP energy -347157.972567 kJ/mol
# GULP energy per Si atom -12398.499020 kJ/mol
# Density = 1.928368 g / cm^3
# Si number density = 19.327670 Si / 1000 Ang^3
#
#
#
# Elastic Constant Matrix: (Units=GPa)
#
#
# Indices 1 2 3 4 5 6 
#
# 1 105.4150 14.4063 32.8847 0.0000 9.9235 0.0000
# 2 14.4063 35.9403 20.4912 0.0000 2.2262 0.0002
# 3 32.8847 20.4912 91.6486 0.0000 2.0680 0.0000
# 4 0.0000 0.0000 0.0000 12.8242 0.0000 1.8149
# 5 9.9235 2.2262 2.0680 0.0000 15.6848 0.0000
# 6 0.0000 0.0002 0.0000 1.8149 0.0000 27.2398
#
#
#
# Elastic Compliance Matrix: (Units=1/GPa)
#
#
# Indices 1 2 3 4 5 6 
#
# 1 0.011486 -0.002218 -0.003479 0.000000 -0.006493 0.000000
# 2 -0.002218 0.032521 -0.006422 0.000000 -0.002366 0.000000
# 3 -0.003479 -0.006422 0.013565 0.000000 0.001324 0.000000
# 4 0.000000 0.000000 0.000000 0.078720 0.000000 -0.005245
# 5 -0.006493 -0.002366 0.001324 0.000000 0.068025 0.000000
# 6 0.000000 0.000000 0.000000 -0.005245 0.000000 0.037060
#
#
# Mechanical properties :
#
#
# Convention : Reuss Voigt Hill
#
# Bulk Modulus (GPa) = 29.99905 40.95203 35.47554
# Shear Modulus (GPa) = 18.06831 22.16456 20.11644
#
# Velocity S-wave (km/s) = 3.06084 3.39009 3.22966
# Velocity P-wave (km/s) = 5.29591 6.04631 5.68351
#
# Compressibility (1/GPa) = 0.03333439
#
# Stress axis : x y z
#
# Youngs Moduli (GPa) = 87.06263 30.74932 73.71682
#
# Poissons Ratio (x) = 0.06821 0.25645
# Poissons Ratio (y) = 0.19314 0.47340
# Poissons Ratio (z) = 0.30287 0.19747
#
# Static dielectric constant tensor:
#      x y z
#    x 3.841050 0.000000 0.022420 
#    y 0.000000 3.188200 0.000000 
#    z 0.022420 0.000000 3.743590 
# 
# 
# High freq. dielectric constant tensor:
#      x y z
#    x 1.766500 0.000000 0.000940 
#    y 0.000000 1.719830 0.000000 
#    z 0.000940 0.000000 1.754150 
# 
# From -- ./inp_files/338475.got.cif
#   From: 2010.06.25/outbox.cif.g09.slc.cpg/sg12_170_cif.got.tgz:338475.got - 2010.06.28 00:19:55.
