data_PCOD8083723
_publ_section_title
;
Structure prediction by ZEFSAII (Michael W. Deem and Ramdas Pophale) SiO2 
 PCOD8083723
Probable space group: C 2/M
;
_chemical_formula_sum "Si O2"
_cell_formula_units_Z 48
_cell_length_a 8.913525
_cell_length_b 21.926369
_cell_length_c 12.518380
_cell_angle_alpha 90.000000
_cell_angle_beta 72.980988
_cell_angle_gamma 90.000000
_cell_volume 2339.465081
_symmetry_space_group_name_H-M "C 2/M"
_symmetry_group_IT_number 12
_symmetry_cell_setting 'monoclinic'
loop_
_space_group_symop_operation_xyz
x,y,z
-x,y,-z
-x,-y,-z
x,-y,z
1/2+x,1/2+y,z
1/2-x,1/2+y,-z
1/2-x,1/2-y,-z
1/2+x,1/2-y,z
loop_
_atom_site_type_symbol
_atom_site_label
_atom_site_fract_x
_atom_site_fract_y
_atom_site_fract_z
Si Si1 0.189477 0.819440 0.311123
Si Si2 0.320955 0.565783 0.000762
Si Si3 0.655210 0.766544 0.916733
Si Si4 0.721480 0.355747 0.804864
Si Si5 0.451242 0.570920 0.752820
Si Si6 0.501734 0.799360 0.621554
O O1 0.258517 0.814429 0.176972
O O2 0.114253 0.887647 0.331853
O O3 0.322210 0.808489 0.372030
O O4 0.048839 0.771284 0.358283
O O5 0.244999 0.500000 0.041565
O O6 0.228697 0.615546 0.090371
O O7 0.500000 0.567108 0.000000
O O8 0.321918 0.577250 0.873936
O O9 0.623690 0.706195 0.849680
O O10 0.500000 0.795390 0.000000
O O11 0.750000 0.750000 0.000000
O O12 0.618999 0.402195 0.755630
O O13 0.883310 0.341831 0.711661
O O14 0.472270 0.500000 0.713696
O O15 0.500000 0.820852 0.500000
#
# Coordination Sequence:
#
# PCOD8083723 Si02
#       6
#     8   8   8   8   8   8
#     4  11  22  38  59  86 116 150 193 237 292 350
#     4   8  14  27  51  82 116 153 188 221 265 336
#     4  11  19  29  50  84 122 149 178 230 290 351
#     4  10  18  33  56  85 115 151 194 233 287 343
#     4  10  20  36  60  88 120 156 191 229 279 351
#     4  11  24  41  63  85 110 148 195 253 303 341
#
# _framework density 20.517510999999999
#
# number of rings (size 3 to 8) (size 9 to 14) (size 15 to 20)
#    0.000    1.833    0.000    9.500    0.000    0.000 
#    0.000    1.667    0.000   10.500    0.000    0.000 
#    0.000    0.000    0.000    0.000    0.000    0.000 
#
# Total GULP energy -297417.954085 kJ/mol
# GULP energy per Si atom -12392.414754 kJ/mol
# Density = 2.047081 g / cm^3
# Si number density = 20.517511 Si / 1000 Ang^3
#
#
#
# Elastic Constant Matrix: (Units=GPa)
#
#
# Indices 1 2 3 4 5 6 
#
# 1 88.7099 35.9318 4.0401 0.0000 19.7423 0.0000
# 2 35.9318 138.1811 7.9700 0.0000 1.4035 0.0000
# 3 4.0401 7.9700 43.3045 0.0000 4.5482 0.0000
# 4 0.0000 0.0000 0.0000 11.3640 0.0000 1.9893
# 5 19.7423 1.4035 4.5482 0.0000 28.1462 0.0000
# 6 0.0000 0.0000 0.0000 1.9893 0.0000 27.2976
#
#
#
# Elastic Compliance Matrix: (Units=1/GPa)
#
#
# Indices 1 2 3 4 5 6 
#
# 1 0.015154 -0.003857 0.000399 0.000000 -0.010501 0.000000
# 2 -0.003857 0.008297 -0.001432 0.000000 0.002523 0.000000
# 3 0.000399 -0.001432 0.023743 0.000000 -0.004045 0.000000
# 4 0.000000 0.000000 0.000000 0.089134 0.000000 -0.006496
# 5 -0.010501 0.002523 -0.004045 0.000000 0.043422 0.000000
# 6 0.000000 0.000000 0.000000 -0.006496 0.000000 0.037107
#
#
# Mechanical properties :
#
#
# Convention : Reuss Voigt Hill
#
# Bulk Modulus (GPa) = 26.72795 40.67550 33.70172
# Shear Modulus (GPa) = 20.91098 28.17847 24.54472
#
# Velocity S-wave (km/s) = 3.19592 3.70994 3.46248
# Velocity P-wave (km/s) = 5.16466 6.18218 5.69619
#
# Compressibility (1/GPa) = 0.03741402
#
# Stress axis : x y z
#
# Youngs Moduli (GPa) = 65.99005 120.52884 42.11681
#
# Poissons Ratio (x) = 0.46486 -0.01680
# Poissons Ratio (y) = 0.25451 0.06032
# Poissons Ratio (z) = -0.02633 0.17261
#
# Static dielectric constant tensor:
#      x y z
#    x 3.328880 0.000000 0.068130 
#    y 0.000000 3.929120 0.000000 
#    z 0.068130 0.000000 3.866940 
# 
# 
# High freq. dielectric constant tensor:
#      x y z
#    x 1.779910 0.000000 0.007070 
#    y 0.000000 1.798370 0.000000 
#    z 0.007070 0.000000 1.786760 
# 
# From -- ./inp_files/196903.got.cif
#   From: 2010.06.25/outbox.cif.g09.slc.cpg/sg12_99_cif.got.tgz:196903.got - 2010.06.28 00:19:55.
