data_PCOD8083408
_publ_section_title
;
Structure prediction by ZEFSAII (Michael W. Deem and Ramdas Pophale) SiO2 
 PCOD8083408
Probable space group: C 2/M
;
_chemical_formula_sum "Si O2"
_cell_formula_units_Z 64
_cell_length_a 15.386616
_cell_length_b 9.029995
_cell_length_c 24.036283
_cell_angle_alpha 90.000000
_cell_angle_beta 90.778239
_cell_angle_gamma 90.000000
_cell_volume 3339.318707
_symmetry_space_group_name_H-M "C 2/M"
_symmetry_group_IT_number 12
_symmetry_cell_setting 'monoclinic'
loop_
_space_group_symop_operation_xyz
x,y,z
-x,y,-z
-x,-y,-z
x,-y,z
1/2+x,1/2+y,z
1/2-x,1/2+y,-z
1/2-x,1/2-y,-z
1/2+x,1/2-y,z
loop_
_atom_site_type_symbol
_atom_site_label
_atom_site_fract_x
_atom_site_fract_y
_atom_site_fract_z
Si Si1 0.589295 0.674497 0.131396
Si Si2 0.497367 0.175264 0.437338
Si Si3 0.896720 0.169531 0.126152
Si Si4 0.154067 0.825944 0.247993
Si Si5 0.149812 0.169656 0.632288
Si Si6 0.752597 0.175653 0.940540
Si Si7 0.670919 0.332978 0.755868
Si Si8 0.848835 0.325638 0.639550
O O1 0.602084 0.500000 0.134514
O O2 0.493700 0.715953 0.108175
O O3 0.601538 0.735482 0.194104
O O4 0.661740 0.738133 0.090007
O O5 0.500000 0.237827 0.500000
O O6 0.411387 0.232628 0.406511
O O7 0.585761 0.229238 0.407947
O O8 0.491513 0.000000 0.437130
O O9 0.831276 0.279476 0.095625
O O10 0.894286 0.186145 0.193127
O O11 0.876113 0.000000 0.108535
O O12 0.254153 0.787537 0.237275
O O13 0.118738 0.747255 0.302876
O O14 0.143524 0.000000 0.256159
O O15 0.121801 0.192103 0.696697
O O16 0.249961 0.222347 0.624517
O O17 0.139171 0.000000 0.613809
O O18 0.754330 0.000000 0.947540
O O19 0.750000 0.250000 0.000000
O O20 0.710961 0.500000 0.755646
O O21 0.853431 0.500000 0.647935
#
# Coordination Sequence:
#
# PCOD8083408 Si02
#       8
#     8   8   8   8   8   8   8   8
#     4   9  20  36  57  84 115 148 185 228 279 334
#     4  10  22  39  57  79 111 150 191 234 282 335
#     4  10  20  37  60  85 112 151 189 225 279 338
#     4  10  18  32  57  85 114 146 186 230 275 332
#     4   9  19  35  55  81 112 147 185 229 277 333
#     4  11  23  42  61  83 115 152 193 237 279 327
#     4   9  18  33  56  83 117 149 180 223 283 341
#     4   9  20  38  55  78 113 150 183 227 286 338
#
# _framework density 19.165586000000001
#
# number of rings (size 3 to 8) (size 9 to 14) (size 15 to 20)
#    0.000    2.375    1.250    1.500    1.750    3.750 
#    0.000    5.000    0.000    0.000    0.000    0.000 
#    0.000    0.000    0.000    0.000    0.000    0.000 
#
# Total GULP energy -396740.942579 kJ/mol
# GULP energy per Si atom -12398.154456 kJ/mol
# Density = 1.912196 g / cm^3
# Si number density = 19.165586 Si / 1000 Ang^3
#
#
#
# Elastic Constant Matrix: (Units=GPa)
#
#
# Indices 1 2 3 4 5 6 
#
# 1 121.7844 30.1048 77.4383 0.0000 -10.4514 0.0000
# 2 30.1048 38.5262 36.7757 0.0000 -2.7926 0.0000
# 3 77.4383 36.7757 150.7221 0.0000 -9.1747 0.0000
# 4 0.0000 0.0000 0.0000 29.7445 0.0000 5.4565
# 5 -10.4514 -2.7926 -9.1747 0.0000 23.7900 0.0000
# 6 0.0000 0.0000 0.0000 5.4565 0.0000 28.0071
#
#
#
# Elastic Compliance Matrix: (Units=1/GPa)
#
#
# Indices 1 2 3 4 5 6 
#
# 1 0.013084 -0.004905 -0.005336 0.000000 0.003114 0.000000
# 2 -0.004905 0.035691 -0.006211 0.000000 -0.000360 0.000000
# 3 -0.005336 -0.006211 0.010962 0.000000 0.001154 0.000000
# 4 0.000000 0.000000 0.000000 0.034866 0.000000 -0.006793
# 5 0.003114 -0.000360 0.001154 0.000000 0.043805 0.000000
# 6 0.000000 0.000000 0.000000 -0.006793 0.000000 0.037029
#
#
# Mechanical properties :
#
#
# Convention : Reuss Voigt Hill
#
# Bulk Modulus (GPa) = 37.26529 66.63003 51.94766
# Shear Modulus (GPa) = 23.01138 27.42260 25.21699
#
# Velocity S-wave (km/s) = 3.46882 3.78673 3.63125
# Velocity P-wave (km/s) = 5.96067 7.34575 6.68916
#
# Compressibility (1/GPa) = 0.02683462
#
# Stress axis : x y z
#
# Youngs Moduli (GPa) = 76.43000 28.01815 91.22531
#
# Poissons Ratio (x) = 0.13742 0.48677
# Poissons Ratio (y) = 0.37486 0.56656
# Poissons Ratio (z) = 0.40783 0.17401
#
# Static dielectric constant tensor:
#      x y z
#    x 3.533530 0.000000 -0.186970 
#    y 0.000000 3.312480 0.000000 
#    z -0.186970 0.000000 3.793190 
# 
# 
# High freq. dielectric constant tensor:
#      x y z
#    x 1.743980 0.000000 -0.005860 
#    y 0.000000 1.726290 0.000000 
#    z -0.005860 0.000000 1.749920 
# 
# From -- ./inp_files/338780.got.cif
#   From: 2010.06.25/outbox.cif.g09.slc.cpg/sg12_170_cif.got.tgz:338780.got - 2010.06.28 00:19:55.
