data_PCOD8083047
_publ_section_title
;
Structure prediction by ZEFSAII (Michael W. Deem and Ramdas Pophale) SiO2 
 PCOD8083047
Probable space group: C 2/M
;
_chemical_formula_sum "Si O2"
_cell_formula_units_Z 56
_cell_length_a 22.607591
_cell_length_b 26.669860
_cell_length_c 14.066363
_cell_angle_alpha 90.000000
_cell_angle_beta 23.222658
_cell_angle_gamma 90.000000
_cell_volume 3344.179049
_symmetry_space_group_name_H-M "C 2/M"
_symmetry_group_IT_number 12
_symmetry_cell_setting 'monoclinic'
loop_
_space_group_symop_operation_xyz
x,y,z
-x,y,-z
-x,-y,-z
x,-y,z
1/2+x,1/2+y,z
1/2-x,1/2+y,-z
1/2-x,1/2-y,-z
1/2+x,1/2-y,z
loop_
_atom_site_type_symbol
_atom_site_label
_atom_site_fract_x
_atom_site_fract_y
_atom_site_fract_z
Si Si1 0.653491 0.861176 0.116527
Si Si2 0.822778 0.555662 0.772701
Si Si3 0.379915 0.284030 0.430517
Si Si4 0.155142 0.180058 0.314885
Si Si5 0.158360 0.193431 0.723526
Si Si6 0.225627 0.784707 0.916644
Si Si7 0.300363 0.132458 0.655520
O O1 0.719180 0.909921 0.074607
O O2 0.710929 0.810268 0.081851
O O3 0.476000 0.863506 0.377346
O O4 0.716652 0.857625 0.915595
O O5 0.753900 0.500000 0.887283
O O6 0.758886 0.580485 0.769763
O O7 0.000000 0.552845 0.500000
O O8 0.338439 0.320841 0.579592
O O9 0.281096 0.233988 0.575336
O O10 0.349623 0.314029 0.377705
O O11 0.553076 0.268221 0.183849
O O12 0.174669 0.236729 0.251398
O O13 0.000000 0.159901 0.500000
O O14 0.209602 0.139324 0.690868
O O15 0.000000 0.211364 0.000000
O O16 0.242806 0.822332 0.804729
#
# Coordination Sequence:
#
# PCOD8083047 Si02
#       7
#     8   8   8   8   8   8   8
#     4  10  20  31  50  77 102 125 161 206 263 301
#     4   8  16  32  55  82 103 118 153 212 268 312
#     4  11  22  33  47  68  98 145 178 200 240 288
#     4  12  21  29  46  72 105 134 166 205 243 298
#     4  11  21  35  47  65 100 142 180 208 236 281
#     4  11  19  32  47  71 101 133 168 213 242 286
#     4  10  18  32  53  74  95 131 169 207 256 293
#
# _framework density 16.745515999999999
#
# number of rings (size 3 to 8) (size 9 to 14) (size 15 to 20)
#    0.000    1.571    4.286    3.429    0.000    1.143 
#    0.000    0.000    0.000    0.857    0.000    1.000 
#    0.000    4.571    0.000    0.000    0.000    2.571 
#
# Total GULP energy -347078.910275 kJ/mol
# GULP energy per Si atom -12395.675367 kJ/mol
# Density = 1.670740 g / cm^3
# Si number density = 16.745516 Si / 1000 Ang^3
#
#
#
# Elastic Constant Matrix: (Units=GPa)
#
#
# Indices 1 2 3 4 5 6 
#
# 1 109.8447 25.6434 31.1797 0.0054 22.7282 -0.0022
# 2 25.6434 63.4452 24.0622 0.0070 10.0869 -0.0049
# 3 31.1797 24.0622 91.0685 -0.0275 9.1157 0.0020
# 4 0.0054 0.0070 -0.0275 11.6517 0.0059 -1.3380
# 5 22.7282 10.0869 9.1157 0.0059 26.1904 0.0012
# 6 -0.0022 -0.0049 0.0020 -1.3380 0.0012 15.7163
#
#
#
# Elastic Compliance Matrix: (Units=1/GPa)
#
#
# Indices 1 2 3 4 5 6 
#
# 1 0.012260 -0.002564 -0.002646 -0.000006 -0.008731 0.000001
# 2 -0.002564 0.018799 -0.003717 -0.000016 -0.003722 0.000005
# 3 -0.002646 -0.003717 0.012947 0.000034 -0.000778 0.000000
# 4 -0.000006 -0.000016 0.000034 0.086672 -0.000020 0.007379
# 5 -0.008731 -0.003722 -0.000778 -0.000020 0.047463 -0.000008
# 6 0.000001 0.000005 0.000000 0.007379 -0.000008 0.064256
#
#
# Mechanical properties :
#
#
# Convention : Reuss Voigt Hill
#
# Bulk Modulus (GPa) = 38.23726 47.34766 42.79246
# Shear Modulus (GPa) = 18.58957 22.94322 20.76640
#
# Velocity S-wave (km/s) = 3.33546 3.70552 3.52535
# Velocity P-wave (km/s) = 6.14147 6.82964 6.49468
#
# Compressibility (1/GPa) = 0.02615250
#
# Stress axis : x y z
#
# Youngs Moduli (GPa) = 81.56689 53.19385 77.23954
#
# Poissons Ratio (x) = 0.13636 0.20439
# Poissons Ratio (y) = 0.20910 0.28709
# Poissons Ratio (z) = 0.21584 0.19772
#
# Static dielectric constant tensor:
#      x y z
#    x 3.511230 0.000050 0.204810 
#    y 0.000050 3.070350 0.000140 
#    z 0.204810 0.000140 3.255020 
# 
# 
# High freq. dielectric constant tensor:
#      x y z
#    x 1.648970 0.000000 0.007480 
#    y 0.000000 1.594640 0.000010 
#    z 0.007480 0.000010 1.649690 
# 
# From -- ./inp_files/178471.got.cif
#   From: 2010.06.25/outbox.cif.g09.slc.cpg/sg12_90_cif.got.tgz:178471.got - 2010.06.28 00:19:55.
