data_PCOD8083706
_publ_section_title
;
Structure prediction by ZEFSAII (Michael W. Deem and Ramdas Pophale) SiO2 
 PCOD8083706
Probable space group: C 2/M
;
_chemical_formula_sum "Si O2"
_cell_formula_units_Z 64
_cell_length_a 12.100288
_cell_length_b 20.654785
_cell_length_c 15.066462
_cell_angle_alpha 90.000000
_cell_angle_beta 67.976941
_cell_angle_gamma 90.000000
_cell_volume 3490.783130
_symmetry_space_group_name_H-M "C 2/M"
_symmetry_group_IT_number 12
_symmetry_cell_setting 'monoclinic'
loop_
_space_group_symop_operation_xyz
x,y,z
-x,y,-z
-x,-y,-z
x,-y,z
1/2+x,1/2+y,z
1/2-x,1/2+y,-z
1/2-x,1/2-y,-z
1/2+x,1/2-y,z
loop_
_atom_site_type_symbol
_atom_site_label
_atom_site_fract_x
_atom_site_fract_y
_atom_site_fract_z
Si Si1 0.417718 0.926748 0.608688
Si Si2 0.381247 0.703506 0.208371
Si Si3 0.212103 0.669250 0.109552
Si Si4 0.253641 0.824014 0.587358
Si Si5 0.863151 0.810348 0.554619
Si Si6 0.005882 0.575994 0.219861
Si Si7 0.789342 0.657513 0.230076
Si Si8 0.353115 0.316616 0.893827
O O1 0.500000 0.914132 0.500000
O O2 0.301639 0.884354 0.628160
O O3 0.487593 0.907456 0.677216
O O4 0.373118 0.000000 0.628349
O O5 0.282439 0.664818 0.181223
O O6 0.358789 0.699882 0.320812
O O7 0.372842 0.779804 0.187984
O O8 0.506306 0.670000 0.148962
O O9 0.110057 0.614696 0.137753
O O10 0.155637 0.739770 0.116157
O O11 0.302334 0.657156 0.001530
O O12 0.211235 0.843951 0.502286
O O13 0.352541 0.767434 0.550858
O O14 0.809101 0.834697 0.663213
O O15 0.000000 0.830572 0.500000
O O16 0.021863 0.500000 0.195831
O O17 0.876105 0.597491 0.224185
O O18 0.714514 0.644285 0.163350
#
# Coordination Sequence:
#
# PCOD8083706 Si02
#       8
#     8   8   8   8   8   8   8   8
#     4  10  20  34  55  79 107 148 192 233 268 326
#     4  10  18  33  56  82 114 141 181 245 284 338
#     4  10  20  35  56  84 109 145 191 236 290 333
#     4  10  19  31  52  80 110 146 180 227 283 340
#     4  10  20  32  51  81 116 149 179 231 289 341
#     4  11  22  39  60  82 118 151 193 243 282 342
#     4  10  21  34  53  82 114 150 189 228 288 346
#     4  10  20  34  57  81 113 145 184 238 288 348
#
# _framework density 18.333995000000002
#
# number of rings (size 3 to 8) (size 9 to 14) (size 15 to 20)
#    0.000    1.875    2.500    2.250    0.000    2.500 
#    0.000    1.250    0.000    6.750    0.000    0.000 
#    0.000    0.000    0.000    0.000    0.000    0.000 
#
# Total GULP energy -396793.719100 kJ/mol
# GULP energy per Si atom -12399.803722 kJ/mol
# Density = 1.829227 g / cm^3
# Si number density = 18.333995 Si / 1000 Ang^3
#
#
#
# Elastic Constant Matrix: (Units=GPa)
#
#
# Indices 1 2 3 4 5 6 
#
# 1 85.5035 36.1653 30.0148 0.0000 -10.1118 0.0000
# 2 36.1653 63.6692 20.7825 0.0000 -1.7933 0.0000
# 3 30.0148 20.7825 93.2587 0.0000 2.6612 0.0000
# 4 0.0000 0.0000 0.0000 19.8308 0.0000 2.3030
# 5 -10.1118 -1.7933 2.6612 0.0000 29.9677 0.0000
# 6 0.0000 0.0000 0.0000 2.3030 0.0000 25.2548
#
#
#
# Elastic Compliance Matrix: (Units=1/GPa)
#
#
# Indices 1 2 3 4 5 6 
#
# 1 0.017266 -0.008391 -0.003849 0.000000 0.005665 0.000000
# 2 -0.008391 0.021072 -0.001955 0.000000 -0.001397 0.000000
# 3 -0.003849 -0.001955 0.012469 0.000000 -0.002523 0.000000
# 4 0.000000 0.000000 0.000000 0.050966 0.000000 -0.004648
# 5 0.005665 -0.001397 -0.002523 0.000000 0.035421 0.000000
# 6 0.000000 0.000000 0.000000 -0.004648 0.000000 0.040020
#
#
# Mechanical properties :
#
#
# Convention : Reuss Voigt Hill
#
# Bulk Modulus (GPa) = 44.61064 46.26183 45.43624
# Shear Modulus (GPa) = 23.46573 25.37525 24.42049
#
# Velocity S-wave (km/s) = 3.58145 3.72432 3.65359
# Velocity P-wave (km/s) = 6.44107 6.61678 6.52952
#
# Compressibility (1/GPa) = 0.02241618
#
# Stress axis : x y z
#
# Youngs Moduli (GPa) = 57.91823 47.45744 80.19773
#
# Poissons Ratio (x) = 0.39824 0.30864
# Poissons Ratio (y) = 0.48602 0.15680
# Poissons Ratio (z) = 0.22290 0.09279
#
# Static dielectric constant tensor:
#      x y z
#    x 3.269830 0.000000 0.106510 
#    y 0.000000 3.047790 0.000000 
#    z 0.106510 0.000000 3.479990 
# 
# 
# High freq. dielectric constant tensor:
#      x y z
#    x 1.711090 0.000000 0.005180 
#    y 0.000000 1.668730 0.000000 
#    z 0.005180 0.000000 1.726000 
# 
# From -- ./inp_files/207686.got.cif
#   From: 2010.06.25/outbox.cif.g09.slc.cpg/sg12_104_cif.got.tgz:207686.got - 2010.06.28 00:19:55.
