data_PCOD8083248
_publ_section_title
;
Structure prediction by ZEFSAII (Michael W. Deem and Ramdas Pophale) SiO2 
 PCOD8083248
Probable space group: C 2/M
;
_chemical_formula_sum "Si O2"
_cell_formula_units_Z 48
_cell_length_a 28.486709
_cell_length_b 23.104641
_cell_length_c 12.256198
_cell_angle_alpha 90.000000
_cell_angle_beta 159.460747
_cell_angle_gamma 90.000000
_cell_volume 2830.202595
_symmetry_space_group_name_H-M "C 2/M"
_symmetry_group_IT_number 12
_symmetry_cell_setting 'monoclinic'
loop_
_space_group_symop_operation_xyz
x,y,z
-x,y,-z
-x,-y,-z
x,-y,z
1/2+x,1/2+y,z
1/2-x,1/2+y,-z
1/2-x,1/2-y,-z
1/2+x,1/2-y,z
loop_
_atom_site_type_symbol
_atom_site_label
_atom_site_fract_x
_atom_site_fract_y
_atom_site_fract_z
Si Si1 0.644120 0.179352 0.353949
Si Si2 0.204458 0.878989 0.128172
Si Si3 0.374124 0.500000 0.375093
Si Si4 0.639625 0.313522 0.356983
Si Si5 0.399437 0.377994 0.511303
Si Si6 0.349696 0.301923 0.194666
Si Si7 0.683608 0.500000 0.989860
O O1 0.684892 0.140494 0.544820
O O2 0.641916 0.245602 0.389261
O O3 0.743285 0.169536 0.469704
O O4 0.500000 0.158687 0.000000
O O5 0.206560 0.836291 0.030642
O O6 0.246356 0.943095 0.181296
O O7 0.059669 0.877330 0.869977
O O8 0.344634 0.443571 0.384045
O O9 0.525872 0.500000 0.665253
O O10 0.284453 0.500000 0.070087
O O11 0.664470 0.348262 0.522239
O O12 0.500000 0.332083 0.000000
O O13 0.350490 0.345022 0.297815
O O14 0.500000 0.278315 0.500000
O O15 0.250000 0.250000 0.000000
#
# Coordination Sequence:
#
# PCOD8083248 Si02
#       7
#     8   8   4   8   8   8   4
#     4  10  21  35  54  77 106 146 181 211 262 323
#     4  10  18  33  54  79 106 139 182 217 263 315
#     4   9  16  30  52  82 104 138 175 218 274 307
#     4  10  19  35  54  76 110 141 174 222 268 307
#     4  10  18  32  55  80 108 136 176 223 267 314
#     4  10  20  33  52  81 111 136 171 221 269 319
#     4   9  16  30  54  77 106 141 175 218 265 316
#
# _framework density 16.959917000000001
#
# number of rings (size 3 to 8) (size 9 to 14) (size 15 to 20)
#    0.000    2.167    3.333    1.000    0.000    0.000 
#    3.000    1.667    0.000    0.000    0.000    2.333 
#    0.000    0.000    0.000    0.000    0.000    0.000 
#
# Total GULP energy -297632.249389 kJ/mol
# GULP energy per Si atom -12401.343725 kJ/mol
# Density = 1.692132 g / cm^3
# Si number density = 16.959917 Si / 1000 Ang^3
#
#
#
# Elastic Constant Matrix: (Units=GPa)
#
#
# Indices 1 2 3 4 5 6 
#
# 1 105.7586 66.1042 56.1287 0.0000 -17.9568 0.0000
# 2 66.1042 125.7529 60.0305 0.0000 -9.5323 0.0000
# 3 56.1287 60.0305 108.1289 0.0000 -14.1763 0.0000
# 4 0.0000 0.0000 0.0000 14.1423 0.0000 2.5046
# 5 -17.9568 -9.5323 -14.1763 0.0000 27.6324 0.0000
# 6 0.0000 0.0000 0.0000 2.5046 0.0000 -2.1080
#
#
#
# Elastic Compliance Matrix: (Units=1/GPa)
#
#
# Indices 1 2 3 4 5 6 
#
# 1 0.016792 -0.006232 -0.004404 0.000000 0.006503 0.000000
# 2 -0.006232 0.013145 -0.004288 0.000000 -0.001715 0.000000
# 3 -0.004404 -0.004288 0.014308 0.000000 0.002999 0.000000
# 4 0.000000 0.000000 0.000000 0.058417 0.000000 0.069409
# 5 0.006503 -0.001715 0.002999 0.000000 0.041362 0.000000
# 6 0.000000 0.000000 0.000000 0.069409 0.000000 -0.391921
#
#
# Mechanical properties :
#
#
# Convention : Reuss Voigt Hill
#
# Bulk Modulus (GPa) = 69.45607 78.24081 73.84844
# Shear Modulus (GPa) = -23.44671 18.42516 -2.51078
#
# Velocity S-wave (km/s) = -3.72220 3.29963 -1.21804
# Velocity P-wave (km/s) = 4.75068 7.79420 6.45440
#
# Compressibility (1/GPa) = 0.01439759
#
# Stress axis : x y z
#
# Youngs Moduli (GPa) = 59.55109 76.07637 69.89029
#
# Poissons Ratio (x) = 0.47408 0.30783
# Poissons Ratio (y) = 0.37110 0.29966
# Poissons Ratio (z) = 0.26229 0.32619
#
# Static dielectric constant tensor:
#      x y z
#    x 3.134900 0.000000 -0.069930 
#    y 0.000000 3.241620 0.000000 
#    z -0.069930 0.000000 3.023150 
# 
# 
# High freq. dielectric constant tensor:
#      x y z
#    x 1.655150 0.000000 -0.017320 
#    y 0.000000 1.652380 0.000000 
#    z -0.017320 0.000000 1.633420 
# 
# From -- ./inp_files/122593.got.cif
#   From: 2010.06.25/outbox.cif.g09.slc.cpg/sg12_62_cif.got.tgz:122593.got - 2010.06.28 00:19:55.
