data_PCOD8083834
_publ_section_title
;
Structure prediction by ZEFSAII (Michael W. Deem and Ramdas Pophale) SiO2 
 PCOD8083834
Probable space group: C 2/M
;
_chemical_formula_sum "Si O2"
_cell_formula_units_Z 48
_cell_length_a 24.473455
_cell_length_b 8.730752
_cell_length_c 19.532792
_cell_angle_alpha 90.000000
_cell_angle_beta 146.528454
_cell_angle_gamma 90.000000
_cell_volume 2301.837865
_symmetry_space_group_name_H-M "C 2/M"
_symmetry_group_IT_number 12
_symmetry_cell_setting 'monoclinic'
loop_
_space_group_symop_operation_xyz
x,y,z
-x,y,-z
-x,-y,-z
x,-y,z
1/2+x,1/2+y,z
1/2-x,1/2+y,-z
1/2-x,1/2-y,-z
1/2+x,1/2-y,z
loop_
_atom_site_type_symbol
_atom_site_label
_atom_site_fract_x
_atom_site_fract_y
_atom_site_fract_z
Si Si1 0.233164 0.317754 0.797805
Si Si2 0.306624 0.178493 0.394557
Si Si3 0.165444 0.180021 0.864041
Si Si4 0.130114 0.178857 0.303213
Si Si5 0.454088 0.678027 0.020203
Si Si6 0.041002 0.322227 0.335159
O O1 0.223398 0.500000 0.795771
O O2 0.191605 0.257738 0.681088
O O3 0.169864 0.240423 0.791234
O O4 0.345549 0.256141 0.923108
O O5 0.216522 0.248454 0.345382
O O6 0.411970 0.210350 0.540716
O O7 0.282503 0.000000 0.364191
O O8 0.057472 0.223930 0.779661
O O9 0.177912 0.000000 0.879697
O O10 0.250000 0.250000 0.000000
O O11 0.125458 0.272737 0.369043
O O12 0.147907 0.000000 0.337401
O O13 0.024441 0.208313 0.157496
O O14 0.439372 0.500000 0.988896
O O15 0.500000 0.755883 0.000000
O O16 0.015250 0.500000 0.299427
#
# Coordination Sequence:
#
# PCOD8083834 Si02
#       6
#     8   8   8   8   8   8
#     4  10  19  36  62  91 122 158 200 245 290 347
#     4   9  19  35  59  89 123 163 205 243 291 356
#     4  12  26  45  65  87 115 151 195 247 304 362
#     4  10  18  33  58  89 122 159 203 249 297 350
#     4   9  15  27  54  87 114 143 186 236 285 341
#     4  11  23  39  58  85 121 163 206 248 294 349
#
# _framework density 20.852900999999999
#
# number of rings (size 3 to 8) (size 9 to 14) (size 15 to 20)
#    0.000    1.833    1.667    3.500    0.000    2.000 
#    0.000    6.667    0.000    1.000    0.000    0.000 
#    0.000    0.000    0.000    0.000    0.000    0.000 
#
# Total GULP energy -297604.734446 kJ/mol
# GULP energy per Si atom -12400.197269 kJ/mol
# Density = 2.080544 g / cm^3
# Si number density = 20.852901 Si / 1000 Ang^3
#
#
#
# Elastic Constant Matrix: (Units=GPa)
#
#
# Indices 1 2 3 4 5 6 
#
# 1 121.3443 33.4923 34.7563 0.0000 -13.5242 0.0000
# 2 33.4923 74.1979 37.4821 0.0000 -7.5394 0.0000
# 3 34.7563 37.4821 96.9860 0.0000 -8.5324 0.0000
# 4 0.0000 0.0000 0.0000 18.9111 0.0000 0.9340
# 5 -13.5242 -7.5394 -8.5324 0.0000 34.6764 0.0000
# 6 0.0000 0.0000 0.0000 0.9340 0.0000 29.6405
#
#
#
# Elastic Compliance Matrix: (Units=1/GPa)
#
#
# Indices 1 2 3 4 5 6 
#
# 1 0.010028 -0.003177 -0.002129 0.000000 0.002697 0.000000
# 2 -0.003177 0.017904 -0.005670 0.000000 0.001258 0.000000
# 3 -0.002129 -0.005670 0.013373 0.000000 0.001228 0.000000
# 4 0.000000 0.000000 0.000000 0.052961 0.000000 -0.001669
# 5 0.002697 0.001258 0.001228 0.000000 0.030465 0.000000
# 6 0.000000 0.000000 0.000000 -0.001669 0.000000 0.033790
#
#
# Mechanical properties :
#
#
# Convention : Reuss Voigt Hill
#
# Bulk Modulus (GPa) = 51.67123 55.99883 53.83503
# Shear Modulus (GPa) = 26.74877 29.09878 27.92377
#
# Velocity S-wave (km/s) = 3.58542 3.73960 3.66332
# Velocity P-wave (km/s) = 6.47866 6.74971 6.61557
#
# Compressibility (1/GPa) = 0.01935313
#
# Stress axis : x y z
#
# Youngs Moduli (GPa) = 99.71855 55.85411 74.77869
#
# Poissons Ratio (x) = 0.17747 0.15917
# Poissons Ratio (y) = 0.31684 0.42399
# Poissons Ratio (z) = 0.21226 0.31669
#
# Static dielectric constant tensor:
#      x y z
#    x 3.929610 0.000000 -0.073370 
#    y 0.000000 3.291880 0.000000 
#    z -0.073370 0.000000 3.814010 
# 
# 
# High freq. dielectric constant tensor:
#      x y z
#    x 1.827150 0.000000 -0.005190 
#    y 0.000000 1.767860 0.000000 
#    z -0.005190 0.000000 1.827940 
# 
# From -- ./inp_files/327340.got.cif
#   From: 2010.06.25/outbox.cif.g09.slc.cpg/sg12_164_cif.got.tgz:327340.got - 2010.06.28 00:19:55.
