data_PCOD8083270
_publ_section_title
;
Structure prediction by ZEFSAII (Michael W. Deem and Ramdas Pophale) SiO2 
 PCOD8083270
Probable space group: C 2/M
;
_chemical_formula_sum "Si O2"
_cell_formula_units_Z 64
_cell_length_a 25.364512
_cell_length_b 9.027563
_cell_length_c 31.347887
_cell_angle_alpha 90.000000
_cell_angle_beta 27.736019
_cell_angle_gamma 90.000000
_cell_volume 3340.645129
_symmetry_space_group_name_H-M "C 2/M"
_symmetry_group_IT_number 12
_symmetry_cell_setting 'monoclinic'
loop_
_space_group_symop_operation_xyz
x,y,z
-x,y,-z
-x,-y,-z
x,-y,z
1/2+x,1/2+y,z
1/2-x,1/2+y,-z
1/2-x,1/2-y,-z
1/2+x,1/2-y,z
loop_
_atom_site_type_symbol
_atom_site_label
_atom_site_fract_x
_atom_site_fract_y
_atom_site_fract_z
Si Si1 0.882207 0.333349 0.596696
Si Si2 0.706334 0.665203 0.649844
Si Si3 0.514446 0.169704 0.070614
Si Si4 0.920665 0.670939 0.789091
Si Si5 0.995686 0.668586 0.826873
Si Si6 0.679288 0.828452 0.586578
Si Si7 0.739654 0.174595 0.860895
Si Si8 0.217804 0.177299 0.787119
O O1 0.910843 0.500000 0.591301
O O2 0.814496 0.333987 0.601699
O O3 0.809411 0.260147 0.687144
O O4 0.000000 0.249885 0.500000
O O5 0.680774 0.500000 0.650992
O O6 0.600593 0.720618 0.753050
O O7 0.732294 0.775199 0.592823
O O8 0.561137 0.188625 0.085916
O O9 0.406873 0.269644 0.136913
O O10 0.478806 0.000000 0.087884
O O11 0.616063 0.217227 0.967019
O O12 0.890102 0.500000 0.801958
O O13 0.914207 0.705330 0.844873
O O14 0.833053 0.775865 0.828069
O O15 0.045653 0.709603 0.681705
O O16 0.039706 0.500000 0.788856
O O17 0.750000 0.750000 0.500000
O O18 0.700342 0.000000 0.566192
O O19 0.757173 0.260252 0.804274
O O20 0.751312 0.000000 0.845086
O O21 0.215742 0.000000 0.789481
#
# Coordination Sequence:
#
# PCOD8083270 Si02
#       8
#     8   8   8   8   8   8   8   8
#     4   9  19  35  55  82 113 144 182 231 288 341
#     4  10  18  32  55  82 110 143 187 235 284 339
#     4  10  21  38  60  84 115 153 193 239 295 349
#     4   9  20  38  57  81 114 150 188 236 291 342
#     4   9  18  35  59  82 110 148 187 233 289 343
#     4  10  21  37  58  84 113 149 192 235 287 345
#     4  11  24  39  56  83 118 157 194 237 294 351
#     4  11  22  38  60  85 113 151 198 242 287 347
#
# _framework density 19.157976000000001
#
# number of rings (size 3 to 8) (size 9 to 14) (size 15 to 20)
#    0.000    2.125    1.250    2.625    0.000    6.500 
#    0.000    2.500    0.000    5.250    0.000    0.000 
#    0.000    0.000    0.000    0.000    0.000    0.000 
#
# Total GULP energy -396686.901603 kJ/mol
# GULP energy per Si atom -12396.465675 kJ/mol
# Density = 1.911437 g / cm^3
# Si number density = 19.157976 Si / 1000 Ang^3
#
#
#
# Elastic Constant Matrix: (Units=GPa)
#
#
# Indices 1 2 3 4 5 6 
#
# 1 105.0258 41.1324 51.4538 0.0607 -1.1324 -0.0239
# 2 41.1324 74.6179 47.6996 0.1269 -5.2428 -0.1696
# 3 51.4538 47.6996 114.0291 0.0240 4.9947 -0.0060
# 4 0.0607 0.1269 0.0240 26.9239 0.0469 0.1565
# 5 -1.1324 -5.2428 4.9947 0.0469 25.4778 -0.0510
# 6 -0.0239 -0.1696 -0.0060 0.1565 -0.0510 34.0739
#
#
#
# Elastic Compliance Matrix: (Units=1/GPa)
#
#
# Indices 1 2 3 4 5 6 
#
# 1 0.013378 -0.004743 -0.004071 -0.000005 0.000417 -0.000014
# 2 -0.004743 0.020717 -0.006761 -0.000091 0.005378 0.000107
# 3 -0.004071 -0.006761 0.013621 0.000037 -0.004243 -0.000041
# 4 -0.000005 -0.000091 0.000037 0.037143 -0.000095 -0.000171
# 5 0.000417 0.005378 -0.004243 -0.000095 0.041207 0.000088
# 6 -0.000014 0.000107 -0.000041 -0.000171 0.000088 0.029349
#
#
# Mechanical properties :
#
#
# Convention : Reuss Voigt Hill
#
# Bulk Modulus (GPa) = 60.36800 63.80496 62.08648
# Shear Modulus (GPa) = 26.02992 27.52092 26.77542
#
# Velocity S-wave (km/s) = 3.69005 3.79426 3.74252
# Velocity P-wave (km/s) = 7.05226 7.25067 7.15215
#
# Compressibility (1/GPa) = 0.01656507
#
# Stress axis : x y z
#
# Youngs Moduli (GPa) = 74.75060 48.27057 73.41753
#
# Poissons Ratio (x) = 0.22894 0.29887
# Poissons Ratio (y) = 0.35454 0.49640
# Poissons Ratio (z) = 0.30429 0.32637
#
# Static dielectric constant tensor:
#      x y z
#    x 3.616000 -0.000200 0.338730 
#    y -0.000200 3.511070 0.000220 
#    z 0.338730 0.000220 3.851970 
# 
# 
# High freq. dielectric constant tensor:
#      x y z
#    x 1.752020 -0.000010 0.012870 
#    y -0.000010 1.738290 0.000010 
#    z 0.012870 0.000010 1.741790 
# 
# From -- ./inp_files/382397.got.cif
#   From: 2010.06.25/outbox.cif.g09.slc.cpg/sg12_192_cif.got.tgz:382397.got - 2010.06.28 00:19:55.
