data_PCOD8083959
_publ_section_title
;
Structure prediction by ZEFSAII (Michael W. Deem and Ramdas Pophale) SiO2 
 PCOD8083959
Probable space group: C 2/M
;
_chemical_formula_sum "Si O2"
_cell_formula_units_Z 40
_cell_length_a 9.251208
_cell_length_b 20.088546
_cell_length_c 20.189898
_cell_angle_alpha 90.000000
_cell_angle_beta 140.918251
_cell_angle_gamma 90.000000
_cell_volume 2365.467378
_symmetry_space_group_name_H-M "C 2/M"
_symmetry_group_IT_number 12
_symmetry_cell_setting 'monoclinic'
loop_
_space_group_symop_operation_xyz
x,y,z
-x,y,-z
-x,-y,-z
x,-y,z
1/2+x,1/2+y,z
1/2-x,1/2+y,-z
1/2-x,1/2-y,-z
1/2+x,1/2-y,z
loop_
_atom_site_type_symbol
_atom_site_label
_atom_site_fract_x
_atom_site_fract_y
_atom_site_fract_z
Si Si1 0.892235 0.423386 0.358213
Si Si2 0.610501 0.192353 0.740154
Si Si3 0.358383 0.423483 0.597834
Si Si4 0.999859 0.274512 0.926985
Si Si5 0.262668 0.682476 0.283767
O O1 0.869777 0.500000 0.328432
O O2 0.838072 0.378202 0.275666
O O3 0.146946 0.408024 0.474492
O O4 0.710106 0.406818 0.351069
O O5 0.825826 0.210830 0.864231
O O6 0.589592 0.249999 0.676168
O O7 0.375797 0.189558 0.697499
O O8 0.431426 0.500000 0.617440
O O9 0.573189 0.380387 0.651297
O O10 0.912288 0.327730 0.840896
O O11 0.250000 0.250000 0.000000
O O12 0.000000 0.307448 0.000000
#
# Coordination Sequence:
#
# PCOD8083959 Si02
#       5
#     8   8   8   8   8
#     4   9  19  36  55  75 105 142 173 208 257 308
#     4  10  20  32  53  82 103 135 173 215 257 303
#     4   9  19  36  55  75 105 142 174 207 255 310
#     4  10  18  34  53  76 103 134 169 211 264 308
#     4  10  20  32  53  82 103 135 172 217 255 304
#
# _framework density 16.909977000000001
#
# number of rings (size 3 to 8) (size 9 to 14) (size 15 to 20)
#    1.200    1.200    2.000    2.400    2.800    2.400 
#    0.000    2.000    0.000    2.400    0.000    0.000 
#    0.000    0.000    0.000    0.000    0.000    0.000 
#
# Total GULP energy -247871.067328 kJ/mol
# GULP energy per Si atom -12393.553366 kJ/mol
# Density = 1.687149 g / cm^3
# Si number density = 16.909977 Si / 1000 Ang^3
#
#
#
# Elastic Constant Matrix: (Units=GPa)
#
#
# Indices 1 2 3 4 5 6 
#
# 1 118.7868 45.0863 16.6345 0.0000 11.6003 0.0000
# 2 45.0863 76.2136 24.5107 0.0003 5.2309 0.0003
# 3 16.6345 24.5107 35.8332 -0.0001 4.0255 0.0000
# 4 0.0000 0.0003 -0.0001 14.8525 -0.0004 -9.0117
# 5 11.6003 5.2309 4.0255 -0.0004 32.1820 -0.0003
# 6 0.0000 0.0003 0.0000 -9.0117 -0.0003 22.9834
#
#
#
# Elastic Compliance Matrix: (Units=1/GPa)
#
#
# Indices 1 2 3 4 5 6 
#
# 1 0.011141 -0.006195 -0.000605 0.000000 -0.002933 0.000000
# 2 -0.006195 0.020321 -0.011059 -0.000001 0.000313 -0.000001
# 3 -0.000605 -0.011059 0.036033 0.000001 -0.002492 0.000000
# 4 0.000000 -0.000001 0.000001 0.088347 0.000001 0.034640
# 5 -0.002933 0.000313 -0.002492 0.000001 0.032391 0.000001
# 6 0.000000 -0.000001 0.000000 0.034640 0.000001 0.057092
#
#
# Mechanical properties :
#
#
# Convention : Reuss Voigt Hill
#
# Bulk Modulus (GPa) = 31.47007 44.81073 38.14040
# Shear Modulus (GPa) = 17.14471 23.64372 20.39422
#
# Velocity S-wave (km/s) = 3.18760 3.74332 3.47659
# Velocity P-wave (km/s) = 5.67437 6.72610 6.22250
#
# Compressibility (1/GPa) = 0.03177622
#
# Stress axis : x y z
#
# Youngs Moduli (GPa) = 89.75940 49.21012 27.75258
#
# Poissons Ratio (x) = 0.30485 0.01679
# Poissons Ratio (y) = 0.55605 0.30693
# Poissons Ratio (z) = 0.05430 0.54424
#
# Static dielectric constant tensor:
#      x y z
#    x 1.457180 0.000000 1.918870 
#    y 0.000000 2.914610 0.000000 
#    z 1.918870 0.000000 0.734790 
# 
# 
# High freq. dielectric constant tensor:
#      x y z
#    x 1.664650 0.000000 -0.001060 
#    y 0.000000 1.628710 0.000000 
#    z -0.001060 0.000000 1.635880 
# 
# From -- ./inp_files/177980.got.cif
#   From: 2010.06.25/outbox.cif.g09.slc.cpg/sg12_89_cif.got.tgz:177980.got - 2010.06.28 00:19:55.
