data_PCOD8083609
_publ_section_title
;
Structure prediction by ZEFSAII (Michael W. Deem and Ramdas Pophale) SiO2 
 PCOD8083609
Probable space group: C 2/M
;
_chemical_formula_sum "Si O2"
_cell_formula_units_Z 48
_cell_length_a 12.071579
_cell_length_b 18.637210
_cell_length_c 16.145431
_cell_angle_alpha 90.000000
_cell_angle_beta 135.252440
_cell_angle_gamma 90.000000
_cell_volume 2557.158851
_symmetry_space_group_name_H-M "C 2/M"
_symmetry_group_IT_number 12
_symmetry_cell_setting 'monoclinic'
loop_
_space_group_symop_operation_xyz
x,y,z
-x,y,-z
-x,-y,-z
x,-y,z
1/2+x,1/2+y,z
1/2-x,1/2+y,-z
1/2-x,1/2-y,-z
1/2+x,1/2-y,z
loop_
_atom_site_type_symbol
_atom_site_label
_atom_site_fract_x
_atom_site_fract_y
_atom_site_fract_z
Si Si1 0.823417 0.500000 0.632924
Si Si2 0.995347 0.000000 0.611075
Si Si3 0.054708 0.357559 0.220392
Si Si4 0.500000 0.123988 0.500000
Si Si5 0.337640 0.359538 0.260741
Si Si6 0.208867 0.500000 0.567060
Si Si7 0.568828 0.769339 0.389355
Si Si8 0.150199 0.418603 0.020203
O O1 0.630898 0.500000 0.531733
O O2 0.887913 0.431496 0.712116
O O3 0.884671 0.500000 0.570640
O O4 0.108297 0.932097 0.665868
O O5 0.895710 0.000000 0.646101
O O6 0.186645 0.327533 0.227848
O O7 0.031116 0.299405 0.278722
O O8 0.892471 0.373364 0.084989
O O9 0.654841 0.072400 0.586598
O O10 0.494528 0.174295 0.577416
O O11 0.479226 0.305088 0.346143
O O12 0.292470 0.377022 0.141474
O O13 0.750000 0.750000 0.500000
O O14 0.202550 0.500000 0.025530
O O15 0.000000 0.422774 0.000000
#
# Coordination Sequence:
#
# PCOD8083609 Si02
#       8
#     4   4   8   4   8   4   8   8
#     4  10  18  33  54  85 110 136 187 240 269 336
#     4  10  20  35  53  83 114 142 190 231 284 342
#     4  11  21  36  58  85 114 146 191 241 278 337
#     4  11  20  38  56  75 116 156 182 223 284 340
#     4  11  22  36  57  82 115 154 185 238 293 331
#     4   9  20  36  56  80 110 149 193 220 271 351
#     4  12  24  37  54  84 122 152 190 231 286 351
#     4   9  18  35  58  83 109 143 192 238 286 335
#
# _framework density 18.770833
#
# number of rings (size 3 to 8) (size 9 to 14) (size 15 to 20)
#    0.500    1.000    3.333    3.500    0.000    3.333 
#    0.000    0.000    0.000    0.000    0.000    1.167 
#    0.000    0.000    0.000    0.000    0.000    0.000 
#
# Total GULP energy -297534.143255 kJ/mol
# GULP energy per Si atom -12397.255969 kJ/mol
# Density = 1.872811 g / cm^3
# Si number density = 18.770833 Si / 1000 Ang^3
#
#
#
# Elastic Constant Matrix: (Units=GPa)
#
#
# Indices 1 2 3 4 5 6 
#
# 1 54.4860 21.1509 19.1990 0.0000 -8.1782 0.0000
# 2 21.1509 105.4331 44.2171 0.0000 -4.6611 0.0000
# 3 19.1990 44.2171 115.7135 -0.0001 -14.4321 0.0000
# 4 0.0000 0.0000 -0.0001 35.1049 0.0000 -4.3805
# 5 -8.1782 -4.6611 -14.4321 0.0000 26.9210 0.0000
# 6 0.0000 0.0000 0.0000 -4.3805 0.0000 27.4167
#
#
#
# Elastic Compliance Matrix: (Units=1/GPa)
#
#
# Indices 1 2 3 4 5 6 
#
# 1 0.020942 -0.003315 -0.001592 0.000000 0.004934 0.000000
# 2 -0.003315 0.011823 -0.004113 0.000000 -0.001165 0.000000
# 3 -0.001592 -0.004113 0.011069 0.000000 0.004738 0.000000
# 4 0.000000 0.000000 0.000000 0.029066 0.000000 0.004644
# 5 0.004934 -0.001165 0.004738 0.000000 0.040983 0.000000
# 6 0.000000 0.000000 0.000000 0.004644 0.000000 0.037216
#
#
# Mechanical properties :
#
#
# Convention : Reuss Voigt Hill
#
# Bulk Modulus (GPa) = 38.77094 49.41851 44.09472
# Shear Modulus (GPa) = 28.13130 30.62623 29.37876
#
# Velocity S-wave (km/s) = 3.87547 4.04367 3.96046
# Velocity P-wave (km/s) = 6.38164 6.94162 6.66752
#
# Compressibility (1/GPa) = 0.02579251
#
# Stress axis : x y z
#
# Youngs Moduli (GPa) = 47.75094 84.57891 90.34264
#
# Poissons Ratio (x) = 0.28039 0.14386
# Poissons Ratio (y) = 0.15830 0.37160
# Poissons Ratio (z) = 0.07604 0.34789
#
# Static dielectric constant tensor:
#      x y z
#    x 3.489160 0.000000 -0.146590 
#    y 0.000000 3.062300 0.000000 
#    z -0.146590 0.000000 3.528420 
# 
# 
# High freq. dielectric constant tensor:
#      x y z
#    x 1.714750 0.000000 -0.008450 
#    y 0.000000 1.731940 0.000000 
#    z -0.008450 0.000000 1.721180 
# 
# From -- ./inp_files/264030.got.cif
#   From: 2010.06.25/outbox.cif.g09.slc.cpg/sg12_133_cif.got.tgz:264030.got - 2010.06.28 00:19:55.
