data_PCOD8083783
_publ_section_title
;
Structure prediction by ZEFSAII (Michael W. Deem and Ramdas Pophale) SiO2 
 PCOD8083783
Probable space group: C 2/M
;
_chemical_formula_sum "Si O2"
_cell_formula_units_Z 60
_cell_length_a 12.333878
_cell_length_b 31.425135
_cell_length_c 9.251122
_cell_angle_alpha 90.000000
_cell_angle_beta 115.657384
_cell_angle_gamma 90.000000
_cell_volume 3232.127142
_symmetry_space_group_name_H-M "C 2/M"
_symmetry_group_IT_number 12
_symmetry_cell_setting 'monoclinic'
loop_
_space_group_symop_operation_xyz
x,y,z
-x,y,-z
-x,-y,-z
x,-y,z
1/2+x,1/2+y,z
1/2-x,1/2+y,-z
1/2-x,1/2-y,-z
1/2+x,1/2-y,z
loop_
_atom_site_type_symbol
_atom_site_label
_atom_site_fract_x
_atom_site_fract_y
_atom_site_fract_z
Si Si1 0.643591 0.675129 0.295757
Si Si2 0.526684 0.402343 0.852269
Si Si3 0.946593 0.224329 0.313118
Si Si4 0.500000 0.862741 0.500000
Si Si5 0.707232 0.119850 0.422867
Si Si6 0.903766 0.048711 0.560338
Si Si7 0.336847 0.188224 0.184713
Si Si8 0.734649 0.351162 0.849790
O O1 0.554507 0.636110 0.245396
O O2 0.566085 0.716822 0.286611
O O3 0.740087 0.663277 0.475408
O O4 0.703529 0.683512 0.175211
O O5 0.478058 0.445386 0.750777
O O6 0.663882 0.390071 0.889075
O O7 0.500000 0.411886 0.000000
O O8 0.873137 0.262527 0.197863
O O9 0.859209 0.183503 0.266372
O O10 0.000000 0.235800 0.500000
O O11 0.412583 0.890975 0.552187
O O12 0.569187 0.834798 0.657819
O O13 0.786590 0.077761 0.483482
O O14 0.688873 0.130185 0.241818
O O15 0.000000 0.064811 0.500000
O O16 0.864033 0.000000 0.516413
O O17 0.329219 0.168870 0.018779
#
# Coordination Sequence:
#
# PCOD8083783 Si02
#       8
#     8   8   8   4   8   8   8   8
#     4   9  20  34  55  75 109 149 195 236 286 353
#     4  10  18  33  57  86 117 154 184 225 287 347
#     4  11  21  34  54  80 111 150 196 246 311 339
#     4  10  24  40  59  80 108 160 202 236 275 340
#     4  10  20  39  61  83 115 151 195 228 280 350
#     4  10  20  35  62  99 123 142 177 228 290 350
#     4  11  22  38  53  79 110 150 201 250 288 325
#     4  11  21  35  57  86 109 154 195 243 287 348
#
# _framework density 18.563625999999999
#
# number of rings (size 3 to 8) (size 9 to 14) (size 15 to 20)
#    0.000    1.733    4.667    0.400    0.000    2.400 
#    0.000    1.667    0.000    0.000    0.000    0.933 
#    0.000    0.000    0.000    0.000    0.000    0.000 
#
# Total GULP energy -371769.309793 kJ/mol
# GULP energy per Si atom -12392.310326 kJ/mol
# Density = 1.852137 g / cm^3
# Si number density = 18.563626 Si / 1000 Ang^3
#
#
#
# Elastic Constant Matrix: (Units=GPa)
#
#
# Indices 1 2 3 4 5 6 
#
# 1 116.7264 39.2493 34.8252 0.0000 -21.5422 0.0000
# 2 39.2493 62.6739 19.1872 0.0000 -5.1204 0.0000
# 3 34.8252 19.1872 118.9980 0.0000 -16.8321 0.0000
# 4 0.0000 0.0000 0.0000 23.2093 0.0000 4.7227
# 5 -21.5422 -5.1204 -16.8321 0.0000 32.5716 0.0000
# 6 0.0000 0.0000 0.0000 4.7227 0.0000 23.8785
#
#
#
# Elastic Compliance Matrix: (Units=1/GPa)
#
#
# Indices 1 2 3 4 5 6 
#
# 1 0.012529 -0.006817 -0.001669 0.000000 0.006353 0.000000
# 2 -0.006817 0.020547 -0.001617 0.000000 -0.002114 0.000000
# 3 -0.001669 -0.001617 0.009667 0.000000 0.003638 0.000000
# 4 0.000000 0.000000 0.000000 0.044893 0.000000 -0.008879
# 5 0.006353 -0.002114 0.003638 0.000000 0.036451 0.000000
# 6 0.000000 0.000000 0.000000 -0.008879 0.000000 0.043635
#
#
# Mechanical properties :
#
#
# Convention : Reuss Voigt Hill
#
# Bulk Modulus (GPa) = 44.36948 53.88017 49.12483
# Shear Modulus (GPa) = 25.58332 29.60766 27.59549
#
# Velocity S-wave (km/s) = 3.71636 3.99799 3.85974
# Velocity P-wave (km/s) = 6.50909 7.09926 6.81057
#
# Compressibility (1/GPa) = 0.02253801
#
# Stress axis : x y z
#
# Youngs Moduli (GPa) = 79.81179 48.66940 103.44201
#
# Poissons Ratio (x) = 0.33176 0.17266
# Poissons Ratio (y) = 0.54404 0.16727
# Poissons Ratio (z) = 0.13322 0.07870
#
# Static dielectric constant tensor:
#      x y z
#    x 3.547590 0.000000 -0.195190 
#    y 0.000000 3.108840 0.000000 
#    z -0.195190 0.000000 3.311940 
# 
# 
# High freq. dielectric constant tensor:
#      x y z
#    x 1.719270 0.000000 -0.013130 
#    y 0.000000 1.685910 0.000000 
#    z -0.013130 0.000000 1.726990 
# 
# From -- ./inp_files/54753.got.cif
#   From: 2010.06.25/outbox.cif.g09.slc.cpg/sg12_28_cif.got.tgz:54753.got - 2010.06.28 00:19:55.
