data_PCOD8083149
_publ_section_title
;
Structure prediction by ZEFSAII (Michael W. Deem and Ramdas Pophale) SiO2 
 PCOD8083149
Probable space group: C 2/M
;
_chemical_formula_sum "Si O2"
_cell_formula_units_Z 56
_cell_length_a 23.819716
_cell_length_b 8.922181
_cell_length_c 15.649797
_cell_angle_alpha 90.000000
_cell_angle_beta 62.799525
_cell_angle_gamma 90.000000
_cell_volume 2958.145876
_symmetry_space_group_name_H-M "C 2/M"
_symmetry_group_IT_number 12
_symmetry_cell_setting 'monoclinic'
loop_
_space_group_symop_operation_xyz
x,y,z
-x,y,-z
-x,-y,-z
x,-y,z
1/2+x,1/2+y,z
1/2-x,1/2+y,-z
1/2-x,1/2-y,-z
1/2+x,1/2-y,z
loop_
_atom_site_type_symbol
_atom_site_label
_atom_site_fract_x
_atom_site_fract_y
_atom_site_fract_z
Si Si1 0.153757 0.174962 0.589014
Si Si2 0.964244 0.322012 0.267917
Si Si3 0.105345 0.325316 0.170358
Si Si4 0.718201 0.175180 0.210542
Si Si5 0.668349 0.823051 0.953936
Si Si6 0.756174 0.175134 0.628177
Si Si7 0.557727 0.823872 0.906640
O O1 0.083662 0.244513 0.632307
O O2 0.186993 0.211013 0.476051
O O3 0.191999 0.249824 0.640104
O O4 0.150344 0.000000 0.609458
O O5 0.959219 0.500000 0.282198
O O6 0.943395 0.263537 0.188900
O O7 0.035176 0.261577 0.236500
O O8 0.097893 0.500000 0.157007
O O9 0.148371 0.292113 0.222570
O O10 0.136383 0.258555 0.062425
O O11 0.766835 0.235055 0.105843
O O12 0.724338 0.262008 0.294277
O O13 0.729423 0.000000 0.217792
O O14 0.623843 0.783962 0.904526
O O15 0.682161 0.000000 0.950638
O O16 0.742491 0.000000 0.646467
O O17 0.546517 0.000000 0.911412
O O18 0.500000 0.750784 0.000000
#
# Coordination Sequence:
#
# PCOD8083149 Si02
#       7
#     8   8   8   8   8   8   8
#     4  10  21  37  59  86 112 133 164 220 281 328
#     4  10  18  32  55  81 110 146 185 217 259 321
#     4   9  19  34  52  76 109 151 191 223 258 316
#     4  11  22  35  52  77 110 144 184 233 275 307
#     4  10  18  32  54  78 106 143 187 226 268 324
#     4  10  21  39  60  81 105 139 179 216 266 332
#     4   9  15  26  49  77 101 130 172 217 253 300
#
# _framework density 18.930778
#
# number of rings (size 3 to 8) (size 9 to 14) (size 15 to 20)
#    0.000    2.143    1.429    2.571    0.000    2.857 
#    0.000    3.571    0.000    5.143    0.000    0.000 
#    0.000    0.000    0.000    0.000    0.000    0.000 
#
# Total GULP energy -347223.006989 kJ/mol
# GULP energy per Si atom -12400.821678 kJ/mol
# Density = 1.888769 g / cm^3
# Si number density = 18.930778 Si / 1000 Ang^3
#
#
#
# Elastic Constant Matrix: (Units=GPa)
#
#
# Indices 1 2 3 4 5 6 
#
# 1 105.4496 35.1471 58.1754 0.0000 -17.6125 0.0000
# 2 35.1471 51.1763 37.4316 0.0000 -9.0535 0.0001
# 3 58.1754 37.4316 100.1864 0.0000 -16.1206 0.0000
# 4 0.0000 0.0000 0.0000 26.7855 0.0000 -4.9371
# 5 -17.6125 -9.0535 -16.1206 0.0000 32.5206 0.0000
# 6 0.0000 0.0001 0.0000 -4.9371 0.0000 21.5095
#
#
#
# Elastic Compliance Matrix: (Units=1/GPa)
#
#
# Indices 1 2 3 4 5 6 
#
# 1 0.015360 -0.005237 -0.006366 0.000000 0.003705 0.000000
# 2 -0.005237 0.028897 -0.007517 0.000000 0.001482 0.000000
# 3 -0.006366 -0.007517 0.016947 0.000000 0.002860 0.000000
# 4 0.000000 0.000000 0.000000 0.038983 0.000000 0.008948
# 5 0.003705 0.001482 0.002860 0.000000 0.034587 0.000000
# 6 0.000000 0.000000 0.000000 0.008948 0.000000 0.048545
#
#
# Mechanical properties :
#
#
# Convention : Reuss Voigt Hill
#
# Bulk Modulus (GPa) = 43.54777 57.59115 50.56946
# Shear Modulus (GPa) = 21.81375 24.56701 23.19038
#
# Velocity S-wave (km/s) = 3.39822 3.60631 3.50381
# Velocity P-wave (km/s) = 6.20087 6.91582 6.56808
#
# Compressibility (1/GPa) = 0.02296329
#
# Stress axis : x y z
#
# Youngs Moduli (GPa) = 65.10568 34.60510 59.00822
#
# Poissons Ratio (x) = 0.18123 0.37565
# Poissons Ratio (y) = 0.34096 0.44357
# Poissons Ratio (z) = 0.41447 0.26013
#
# Static dielectric constant tensor:
#      x y z
#    x 3.563190 0.000000 -0.139870 
#    y 0.000000 3.165980 0.000000 
#    z -0.139870 0.000000 3.532330 
# 
# 
# High freq. dielectric constant tensor:
#      x y z
#    x 1.738700 0.000000 -0.009850 
#    y 0.000000 1.706140 0.000000 
#    z -0.009850 0.000000 1.738050 
# 
# From -- ./inp_files/238275.got.cif
#   From: 2010.06.25/outbox.cif.g09.slc.cpg/sg12_120_cif.got.tgz:238275.got - 2010.06.28 00:19:55.
