data_PCOD8083305
_publ_section_title
;
Structure prediction by ZEFSAII (Michael W. Deem and Ramdas Pophale) SiO2 
 PCOD8083305
Probable space group: C 2/M
;
_chemical_formula_sum "Si O2"
_cell_formula_units_Z 60
_cell_length_a 24.345025
_cell_length_b 23.337878
_cell_length_c 8.385035
_cell_angle_alpha 90.000000
_cell_angle_beta 134.143837
_cell_angle_gamma 90.000000
_cell_volume 3418.653254
_symmetry_space_group_name_H-M "C 2/M"
_symmetry_group_IT_number 12
_symmetry_cell_setting 'monoclinic'
loop_
_space_group_symop_operation_xyz
x,y,z
-x,y,-z
-x,-y,-z
x,-y,z
1/2+x,1/2+y,z
1/2-x,1/2+y,-z
1/2-x,1/2-y,-z
1/2+x,1/2-y,z
loop_
_atom_site_type_symbol
_atom_site_label
_atom_site_fract_x
_atom_site_fract_y
_atom_site_fract_z
Si Si1 0.000000 0.100156 0.500000
Si Si2 0.864314 0.169675 0.115721
Si Si3 0.540164 0.435217 0.238807
Si Si4 0.772960 0.345806 0.945510
Si Si5 0.814370 0.753846 0.427339
Si Si6 0.410928 0.785104 0.336247
Si Si7 0.286768 0.568274 0.413530
Si Si8 0.201569 0.836401 0.334889
O O1 0.076098 0.137526 0.650497
O O2 0.996785 0.066913 0.323381
O O3 0.779488 0.155534 0.004546
O O4 0.888772 0.235654 0.167332
O O5 0.862826 0.149905 0.928636
O O6 0.549742 0.500000 0.206431
O O7 0.625644 0.412141 0.439839
O O8 0.500000 0.405367 0.000000
O O9 0.749689 0.289732 0.797705
O O10 0.763738 0.405990 0.833175
O O11 0.860834 0.340313 0.181923
O O12 0.887408 0.736478 0.466537
O O13 0.841717 0.796082 0.623558
O O14 0.775163 0.696641 0.414371
O O15 0.500000 0.801107 0.500000
O O16 0.272636 0.500000 0.400602
O O17 0.265513 0.603046 0.531388
#
# Coordination Sequence:
#
# PCOD8083305 Si02
#       8
#     4   8   8   8   8   8   8   8
#     4  12  21  32  52  80 110 154 183 224 266 324
#     4  11  19  32  53  81 109 144 183 212 268 329
#     4  10  21  37  52  75 112 151 190 231 270 314
#     4  10  18  36  56  73 110 147 176 225 274 325
#     4   9  18  32  55  78 107 141 174 215 284 332
#     4  11  20  34  54  82 111 139 179 227 277 335
#     4  10  21  36  54  76 106 146 188 225 271 330
#     4  10  18  32  56  77 107 143 175 223 270 332
#
# _framework density 17.55077
#
# number of rings (size 3 to 8) (size 9 to 14) (size 15 to 20)
#    0.000    1.733    4.667    1.800    0.000    0.000 
#    0.000    2.000    0.000    0.400    0.000    0.933 
#    0.000    0.000    0.000    0.000    0.000    0.000 
#
# Total GULP energy -371643.931019 kJ/mol
# GULP energy per Si atom -12388.131034 kJ/mol
# Density = 1.751082 g / cm^3
# Si number density = 17.550770 Si / 1000 Ang^3
#
#
#
# Elastic Constant Matrix: (Units=GPa)
#
#
# Indices 1 2 3 4 5 6 
#
# 1 93.3821 34.3608 52.7989 0.0000 -1.4951 0.0000
# 2 34.3608 93.0318 39.5808 0.0000 -0.6433 0.0000
# 3 52.7989 39.5808 110.8922 0.0000 -5.9944 0.0000
# 4 0.0000 0.0000 0.0000 34.5257 0.0000 -19.7119
# 5 -1.4951 -0.6433 -5.9944 0.0000 35.7929 0.0000
# 6 0.0000 0.0000 0.0000 -19.7119 0.0000 44.0928
#
#
#
# Elastic Compliance Matrix: (Units=1/GPa)
#
#
# Indices 1 2 3 4 5 6 
#
# 1 0.015347 -0.003009 -0.006258 0.000000 -0.000461 0.000000
# 2 -0.003009 0.013274 -0.003329 0.000000 -0.000445 0.000000
# 3 -0.006258 -0.003329 0.013289 0.000000 0.001904 0.000000
# 4 0.000000 0.000000 0.000000 0.038890 0.000000 0.017386
# 5 -0.000461 -0.000445 0.001904 0.000000 0.028230 0.000000
# 6 0.000000 0.000000 0.000000 0.017386 0.000000 0.030452
#
#
# Mechanical properties :
#
#
# Convention : Reuss Voigt Hill
#
# Bulk Modulus (GPa) = 59.81987 61.19858 60.50923
# Shear Modulus (GPa) = 29.36928 34.25331 31.81130
#
# Velocity S-wave (km/s) = 4.09515 4.42256 4.26200
# Velocity P-wave (km/s) = 7.51786 7.81178 7.66623
#
# Compressibility (1/GPa) = 0.01671685
#
# Stress axis : x y z
#
# Youngs Moduli (GPa) = 65.16019 75.33700 75.25251
#
# Poissons Ratio (x) = 0.22669 0.47093
# Poissons Ratio (y) = 0.19606 0.25053
# Poissons Ratio (z) = 0.40777 0.25081
#
# Static dielectric constant tensor:
#      x y z
#    x 3.275520 0.000000 -0.208110 
#    y 0.000000 3.070940 0.000000 
#    z -0.208110 0.000000 3.384310 
# 
# 
# High freq. dielectric constant tensor:
#      x y z
#    x 1.669250 0.000000 -0.024440 
#    y 0.000000 1.653950 0.000000 
#    z -0.024440 0.000000 1.674230 
# 
# From -- ./inp_files/106795.got.cif
#   From: 2010.06.25/outbox.cif.g09.slc.cpg/sg12_54_cif.got.tgz:106795.got - 2010.06.28 00:19:55.
