data_PCOD8083016
_publ_section_title
;
Structure prediction by ZEFSAII (Michael W. Deem and Ramdas Pophale) SiO2 
 PCOD8083016
Probable space group: C 2/M
;
_chemical_formula_sum "Si O2"
_cell_formula_units_Z 64
_cell_length_a 9.321345
_cell_length_b 18.179900
_cell_length_c 20.053304
_cell_angle_alpha 90.000000
_cell_angle_beta 89.752243
_cell_angle_gamma 90.000000
_cell_volume 3398.223584
_symmetry_space_group_name_H-M "C 2/M"
_symmetry_group_IT_number 12
_symmetry_cell_setting 'monoclinic'
loop_
_space_group_symop_operation_xyz
x,y,z
-x,y,-z
-x,-y,-z
x,-y,z
1/2+x,1/2+y,z
1/2-x,1/2+y,-z
1/2-x,1/2-y,-z
1/2+x,1/2-y,z
loop_
_atom_site_type_symbol
_atom_site_label
_atom_site_fract_x
_atom_site_fract_y
_atom_site_fract_z
Si Si1 0.217755 0.580025 0.768059
Si Si2 0.977495 0.709009 0.654489
Si Si3 0.330864 0.086715 0.384757
Si Si4 0.043327 0.917853 0.811471
Si Si5 0.355725 0.695811 0.539951
Si Si6 0.293988 0.699145 0.262739
Si Si7 0.175058 0.704114 0.860289
Si Si8 0.527688 0.312541 0.076511
O O1 0.147594 0.500000 0.777162
O O2 0.222006 0.601345 0.690471
O O3 0.379429 0.581899 0.791341
O O4 0.126126 0.633730 0.816025
O O5 0.896807 0.765368 0.607794
O O6 0.861992 0.681201 0.708014
O O7 0.026503 0.637581 0.611117
O O8 0.110912 0.749821 0.689046
O O9 0.219672 0.118480 0.439866
O O10 0.359464 0.000000 0.399397
O O11 0.128408 0.878167 0.751577
O O12 0.055296 0.875327 0.881603
O O13 0.104457 0.000000 0.820050
O O14 0.500000 0.676280 0.500000
O O15 0.250000 0.750000 0.500000
O O16 0.263336 0.737944 0.192681
O O17 0.302049 0.686257 0.911816
O O18 0.038749 0.733649 0.901735
O O19 0.500000 0.329289 0.000000
#
# Coordination Sequence:
#
# PCOD8083016 Si02
#       8
#     8   8   8   8   8   8   8   8
#     4   9  17  33  56  81 110 141 176 228 292 346
#     4  12  21  38  61  89 115 151 190 235 287 343
#     4  11  23  38  61  92 121 146 189 245 295 338
#     4   9  19  33  52  80 113 144 183 236 286 337
#     4  12  23  41  63  85 116 160 200 231 274 344
#     4  11  20  33  60  84 112 142 187 236 291 343
#     4  10  18  32  52  79 106 135 186 233 274 331
#     4  10  20  32  51  75 106 149 188 227 271 326
#
# _framework density 18.833368
#
# number of rings (size 3 to 8) (size 9 to 14) (size 15 to 20)
#    0.000    1.500    3.750    3.375    0.000    1.000 
#    0.000    1.250    0.000    3.375    0.000    0.000 
#    0.000    0.000    0.000    0.000    0.000    0.000 
#
# Total GULP energy -396660.156207 kJ/mol
# GULP energy per Si atom -12395.629881 kJ/mol
# Density = 1.879050 g / cm^3
# Si number density = 18.833368 Si / 1000 Ang^3
#
#
#
# Elastic Constant Matrix: (Units=GPa)
#
#
# Indices 1 2 3 4 5 6 
#
# 1 59.3022 26.0587 11.1376 0.0000 -13.2014 0.0000
# 2 26.0587 129.0530 21.0015 0.0000 -13.1306 0.0000
# 3 11.1376 21.0015 50.6954 0.0000 -2.0345 0.0000
# 4 0.0000 0.0000 0.0000 23.5762 0.0000 -7.5773
# 5 -13.2014 -13.1306 -2.0345 0.0000 33.2509 0.0000
# 6 0.0000 0.0000 0.0000 -7.5773 0.0000 23.5435
#
#
#
# Elastic Compliance Matrix: (Units=1/GPa)
#
#
# Indices 1 2 3 4 5 6 
#
# 1 0.020187 -0.002915 -0.002959 0.000000 0.006683 0.000000
# 2 -0.002915 0.009056 -0.003022 0.000000 0.002234 0.000000
# 3 -0.002959 -0.003022 0.021586 0.000000 -0.001047 0.000000
# 4 0.000000 0.000000 0.000000 0.047309 0.000000 0.015226
# 5 0.006683 0.002234 -0.001047 0.000000 0.033546 0.000000
# 6 0.000000 0.000000 0.000000 0.015226 0.000000 0.047375
#
#
# Mechanical properties :
#
#
# Convention : Reuss Voigt Hill
#
# Bulk Modulus (GPa) = 30.26876 39.49402 34.88139
# Shear Modulus (GPa) = 24.05429 28.13097 26.09263
#
# Velocity S-wave (km/s) = 3.57769 3.86900 3.72620
# Velocity P-wave (km/s) = 5.75963 6.40115 6.08884
#
# Compressibility (1/GPa) = 0.03303736
#
# Stress axis : x y z
#
# Youngs Moduli (GPa) = 49.53678 110.41966 46.32717
#
# Poissons Ratio (x) = 0.32184 0.13710
# Poissons Ratio (y) = 0.14438 0.13999
# Poissons Ratio (z) = 0.14660 0.33366
#
# Static dielectric constant tensor:
#      x y z
#    x -5.363880 0.000000 -1.485990 
#    y 0.000000 3.832470 0.000000 
#    z -1.485990 0.000000 3.193980 
# 
# 
# High freq. dielectric constant tensor:
#      x y z
#    x 1.722470 0.000000 0.000650 
#    y 0.000000 1.727910 0.000000 
#    z 0.000650 0.000000 1.729230 
# 
# From -- ./inp_files/300781.got.cif
#   From: 2010.06.25/outbox.cif.g09.slc.cpg/sg12_151_cif.got.tgz:300781.got - 2010.06.28 00:19:55.
