data_PCOD8083438
_publ_section_title
;
Structure prediction by ZEFSAII (Michael W. Deem and Ramdas Pophale) SiO2 
 PCOD8083438
Probable space group: C 2/M
;
_chemical_formula_sum "Si O2"
_cell_formula_units_Z 64
_cell_length_a 20.400762
_cell_length_b 9.129759
_cell_length_c 22.191825
_cell_angle_alpha 90.000000
_cell_angle_beta 56.227715
_cell_angle_gamma 90.000000
_cell_volume 3435.834127
_symmetry_space_group_name_H-M "C 2/M"
_symmetry_group_IT_number 12
_symmetry_cell_setting 'monoclinic'
loop_
_space_group_symop_operation_xyz
x,y,z
-x,y,-z
-x,-y,-z
x,-y,z
1/2+x,1/2+y,z
1/2-x,1/2+y,-z
1/2-x,1/2-y,-z
1/2+x,1/2-y,z
loop_
_atom_site_type_symbol
_atom_site_label
_atom_site_fract_x
_atom_site_fract_y
_atom_site_fract_z
Si Si1 0.383514 0.173710 0.203956
Si Si2 0.601659 0.331404 0.336601
Si Si3 0.204219 0.674078 0.970111
Si Si4 0.650689 0.173061 0.431295
Si Si5 0.421997 0.668693 0.420353
Si Si6 0.831352 0.827691 0.347603
Si Si7 0.252183 0.327793 0.815067
Si Si8 0.973524 0.673354 0.949550
O O1 0.378904 0.246545 0.271304
O O2 0.313081 0.235011 0.197731
O O3 0.466392 0.224258 0.132999
O O4 0.377835 0.000000 0.214459
O O5 0.616872 0.500000 0.347252
O O6 0.616276 0.232692 0.386958
O O7 0.513622 0.307834 0.357003
O O8 0.661051 0.283921 0.252819
O O9 0.212721 0.500000 0.971254
O O10 0.239254 0.734069 0.888856
O O11 0.250000 0.750000 0.000000
O O12 0.113901 0.726550 0.021832
O O13 0.598431 0.234413 0.511895
O O14 0.740792 0.223883 0.393743
O O15 0.643061 0.000000 0.435027
O O16 0.404563 0.500000 0.445185
O O17 0.369559 0.721219 0.391099
O O18 0.839647 0.000000 0.333088
O O19 0.239518 0.500000 0.824763
O O20 0.975254 0.500000 0.954737
O O21 0.000000 0.741794 0.000000
#
# Coordination Sequence:
#
# PCOD8083438 Si02
#       8
#     8   8   8   8   8   8   8   8
#     4  10  18  32  58  84 103 136 186 229 263 309
#     4  10  20  36  58  81 104 139 186 224 259 316
#     4  10  20  35  55  82 114 144 178 220 268 318
#     4  11  22  36  56  81 109 140 176 222 273 320
#     4  10  22  38  55  76 107 144 180 219 265 321
#     4  10  22  38  54  79 112 143 174 219 276 321
#     4   9  17  32  56  80 103 138 182 220 257 312
#     4   9  16  30  55  82 105 136 181 226 260 301
#
# _framework density 18.627206999999999
#
# number of rings (size 3 to 8) (size 9 to 14) (size 15 to 20)
#    0.000    2.125    2.500    1.125    0.000    4.000 
#    0.000    3.125    0.000    0.750    0.000    0.000 
#    0.000    0.000    0.000    0.000    0.000    0.000 
#
# Total GULP energy -396857.177617 kJ/mol
# GULP energy per Si atom -12401.786801 kJ/mol
# Density = 1.858481 g / cm^3
# Si number density = 18.627207 Si / 1000 Ang^3
#
#
#
# Elastic Constant Matrix: (Units=GPa)
#
#
# Indices 1 2 3 4 5 6 
#
# 1 104.9006 22.2840 40.6145 0.0001 -4.0926 0.0002
# 2 22.2840 31.7628 29.3832 0.0003 0.2556 0.0004
# 3 40.6145 29.3832 128.4310 0.0000 -11.2025 0.0000
# 4 0.0001 0.0003 0.0000 26.5311 0.0000 6.0534
# 5 -4.0926 0.2556 -11.2025 0.0000 33.1560 0.0001
# 6 0.0002 0.0004 0.0000 6.0534 0.0001 24.2475
#
#
#
# Elastic Compliance Matrix: (Units=1/GPa)
#
#
# Indices 1 2 3 4 5 6 
#
# 1 0.011739 -0.006174 -0.002235 0.000000 0.000741 0.000000
# 2 -0.006174 0.043580 -0.008360 0.000000 -0.003923 0.000000
# 3 -0.002235 -0.008360 0.010703 0.000000 0.003405 0.000000
# 4 0.000000 0.000000 0.000000 0.039968 0.000000 -0.009978
# 5 0.000741 -0.003923 0.003405 0.000000 0.031433 0.000000
# 6 0.000000 0.000000 0.000000 -0.009978 0.000000 0.043732
#
#
# Mechanical properties :
#
#
# Convention : Reuss Voigt Hill
#
# Bulk Modulus (GPa) = 30.78508 49.96198 40.37353
# Shear Modulus (GPa) = 22.17086 28.30776 25.23931
#
# Velocity S-wave (km/s) = 3.45373 3.90256 3.68499
# Velocity P-wave (km/s) = 5.69800 6.86927 6.31087
#
# Compressibility (1/GPa) = 0.03248327
#
# Stress axis : x y z
#
# Youngs Moduli (GPa) = 85.18887 22.94608 93.43375
#
# Poissons Ratio (x) = 0.14167 0.20882
# Poissons Ratio (y) = 0.52595 0.78114
# Poissons Ratio (z) = 0.19040 0.19184
#
# Static dielectric constant tensor:
#      x y z
#    x 3.546060 0.000000 -0.130110 
#    y 0.000000 3.085320 0.000000 
#    z -0.130110 0.000000 3.636850 
# 
# 
# High freq. dielectric constant tensor:
#      x y z
#    x 1.730410 0.000000 -0.007190 
#    y 0.000000 1.688590 0.000000 
#    z -0.007190 0.000000 1.736180 
# 
# From -- ./inp_files/319973.got.cif
#   From: 2010.06.25/outbox.cif.g09.slc.cpg/sg12_160_cif.got.tgz:319973.got - 2010.06.28 00:19:55.
