data_PCOD8083428
_publ_section_title
;
Structure prediction by ZEFSAII (Michael W. Deem and Ramdas Pophale) SiO2 
 PCOD8083428
Probable space group: C 2/M
;
_chemical_formula_sum "Si O2"
_cell_formula_units_Z 60
_cell_length_a 16.486742
_cell_length_b 16.270888
_cell_length_c 17.316738
_cell_angle_alpha 90.000000
_cell_angle_beta 40.817051
_cell_angle_gamma 90.000000
_cell_volume 3036.370017
_symmetry_space_group_name_H-M "C 2/M"
_symmetry_group_IT_number 12
_symmetry_cell_setting 'monoclinic'
loop_
_space_group_symop_operation_xyz
x,y,z
-x,y,-z
-x,-y,-z
x,-y,z
1/2+x,1/2+y,z
1/2-x,1/2+y,-z
1/2-x,1/2-y,-z
1/2+x,1/2-y,z
loop_
_atom_site_type_symbol
_atom_site_label
_atom_site_fract_x
_atom_site_fract_y
_atom_site_fract_z
Si Si1 0.656132 0.348079 0.638093
Si Si2 0.120909 0.597029 0.813376
Si Si3 0.649331 0.097597 0.964977
Si Si4 0.363859 0.410029 0.067681
Si Si5 0.888919 0.098667 0.881638
Si Si6 0.285358 0.317139 0.570390
Si Si7 0.695250 0.904558 0.324150
Si Si8 0.500000 0.222042 0.500000
O O1 0.511750 0.363931 0.755859
O O2 0.689352 0.371241 0.525075
O O3 0.682841 0.251775 0.627237
O O4 0.740083 0.398550 0.638290
O O5 0.127694 0.500000 0.808091
O O6 0.154203 0.631794 0.874206
O O7 0.223832 0.626716 0.679486
O O8 0.978113 0.625571 0.899559
O O9 0.770830 0.131342 0.919705
O O10 0.652414 0.000000 0.960878
O O11 0.305765 0.500000 0.094557
O O12 0.285368 0.369159 0.192554
O O13 0.500000 0.418869 0.000000
O O14 0.366769 0.363735 0.983447
O O15 0.903281 0.000000 0.872767
O O16 0.415897 0.278751 0.505361
O O17 0.582825 0.842005 0.391862
O O18 0.655769 0.000000 0.341219
#
# Coordination Sequence:
#
# PCOD8083428 Si02
#       8
#     8   8   8   8   8   8   8   4
#     4  10  21  37  55  78 118 155 182 230 281 333
#     4   9  18  38  62  81 107 143 184 231 283 336
#     4   8  17  34  58  88 113 134 174 235 288 328
#     4   9  16  29  52  83 116 142 177 231 283 329
#     4  10  18  32  57  89 116 142 180 231 283 335
#     4  10  23  40  55  77 114 153 192 229 283 331
#     4  10  19  37  62  86 110 151 196 231 279 333
#     4  10  23  40  57  78 116 156 188 238 281 328
#
# _framework density 19.760438000000001
#
# number of rings (size 3 to 8) (size 9 to 14) (size 15 to 20)
#    0.000    2.533    1.333    1.400    1.867    1.067 
#    7.200    6.333    0.000    0.000    0.000    0.000 
#    0.000    0.000    0.000    0.000    0.000    0.000 
#
# Total GULP energy -371700.090222 kJ/mol
# GULP energy per Si atom -12390.003007 kJ/mol
# Density = 1.971546 g / cm^3
# Si number density = 19.760438 Si / 1000 Ang^3
#
#
#
# Elastic Constant Matrix: (Units=GPa)
#
#
# Indices 1 2 3 4 5 6 
#
# 1 130.4672 26.5583 79.7230 0.0000 -8.4009 0.0000
# 2 26.5583 30.4227 37.8445 -0.0001 -2.3126 0.0000
# 3 79.7230 37.8445 182.8820 -0.0001 5.4046 0.0000
# 4 0.0000 -0.0001 -0.0001 7.8954 0.0000 -14.6359
# 5 -8.4009 -2.3126 5.4046 0.0000 34.0544 0.0000
# 6 0.0000 0.0000 0.0000 -14.6359 0.0000 23.7099
#
#
#
# Elastic Compliance Matrix: (Units=1/GPa)
#
#
# Indices 1 2 3 4 5 6 
#
# 1 0.011276 -0.004548 -0.004067 0.000000 0.003118 0.000000
# 2 -0.004548 0.046790 -0.007797 -0.000001 0.003293 -0.000001
# 3 -0.004067 -0.007797 0.008941 0.000000 -0.002952 0.000000
# 4 0.000000 -0.000001 0.000000 -0.877748 0.000001 -0.541828
# 5 0.003118 0.003293 -0.002952 0.000001 0.030826 0.000000
# 6 0.000000 -0.000001 0.000000 -0.541828 0.000000 -0.292290
#
#
# Mechanical properties :
#
#
# Convention : Reuss Voigt Hill
#
# Bulk Modulus (GPa) = 29.25337 70.22484 49.73910
# Shear Modulus (GPa) = -4.86388 26.44167 10.78890
#
# Velocity S-wave (km/s) = -1.57059 3.66199 2.33917
# Velocity P-wave (km/s) = 3.39811 7.31406 5.70274
#
# Compressibility (1/GPa) = 0.03418410
#
# Stress axis : x y z
#
# Youngs Moduli (GPa) = 88.68121 21.37199 111.83842
#
# Poissons Ratio (x) = 0.09720 0.45480
# Poissons Ratio (y) = 0.40334 0.87202
# Poissons Ratio (z) = 0.36063 0.16664
#
# Static dielectric constant tensor:
#      x y z
#    x 3.746440 0.000000 0.049570 
#    y 0.000000 3.284070 0.000000 
#    z 0.049570 0.000000 4.269620 
# 
# 
# High freq. dielectric constant tensor:
#      x y z
#    x 1.769580 0.000000 -0.001150 
#    y 0.000000 1.736730 0.000000 
#    z -0.001150 0.000000 1.784220 
# 
# From -- ./inp_files/216766.got.cif
#   From: 2010.06.25/outbox.cif.g09.slc.cpg/sg12_109_cif.got.tgz:216766.got - 2010.06.28 00:19:55.
