data_PCOD8083945
_publ_section_title
;
Structure prediction by ZEFSAII (Michael W. Deem and Ramdas Pophale) SiO2 
 PCOD8083945
Probable space group: C 2/M
;
_chemical_formula_sum "Si O2"
_cell_formula_units_Z 52
_cell_length_a 20.110944
_cell_length_b 28.066323
_cell_length_c 5.381829
_cell_angle_alpha 90.000000
_cell_angle_beta 109.696343
_cell_angle_gamma 90.000000
_cell_volume 2859.990110
_symmetry_space_group_name_H-M "C 2/M"
_symmetry_group_IT_number 12
_symmetry_cell_setting 'monoclinic'
loop_
_space_group_symop_operation_xyz
x,y,z
-x,y,-z
-x,-y,-z
x,-y,z
1/2+x,1/2+y,z
1/2-x,1/2+y,-z
1/2-x,1/2-y,-z
1/2+x,1/2-y,z
loop_
_atom_site_type_symbol
_atom_site_label
_atom_site_fract_x
_atom_site_fract_y
_atom_site_fract_z
Si Si1 0.634421 0.238440 0.412680
Si Si2 0.802483 0.445032 0.524826
Si Si3 0.968731 0.445554 0.712074
Si Si4 0.073247 0.334967 0.715061
Si Si5 0.000000 0.270349 0.000000
Si Si6 0.749376 0.292359 0.807837
Si Si7 0.793888 0.391317 0.021422
O O1 0.621374 0.198126 0.601010
O O2 0.556664 0.259592 0.233604
O O3 0.678221 0.284678 0.556580
O O4 0.679381 0.210436 0.262275
O O5 0.778745 0.500000 0.489812
O O6 0.885773 0.439757 0.604953
O O7 0.769025 0.418607 0.241470
O O8 0.778264 0.422866 0.756823
O O9 0.994319 0.500000 0.753200
O O10 0.000000 0.422063 0.500000
O O11 0.000000 0.419605 0.000000
O O12 0.122192 0.379571 0.855234
O O13 0.000000 0.352702 0.500000
O O14 0.054217 0.303705 0.925669
O O15 0.750000 0.250000 0.000000
O O16 0.746984 0.343386 0.939656
#
# Coordination Sequence:
#
# PCOD8083945 Si02
#       7
#     8   8   8   8   4   8   8
#     4  10  19  34  53  76 116 143 186 221 282 327
#     4  11  25  40  53  71 101 139 188 240 288 327
#     4   9  17  32  50  66  87 123 171 226 286 324
#     4  10  21  33  50  79 108 144 188 232 276 331
#     4  10  18  34  52  74 111 152 181 228 276 328
#     4  11  21  34  55  81 111 143 180 236 275 347
#     4  12  23  38  57  79 103 144 188 233 285 333
#
# _framework density 18.181881000000001
#
# number of rings (size 3 to 8) (size 9 to 14) (size 15 to 20)
#    0.000    1.538    3.077    2.308    4.308    4.308 
#    0.000    0.000    0.000    0.462    0.000    0.000 
#    0.000    0.000    0.000    4.154    0.000    0.000 
#
# Total GULP energy -322183.062693 kJ/mol
# GULP energy per Si atom -12391.656257 kJ/mol
# Density = 1.814050 g / cm^3
# Si number density = 18.181881 Si / 1000 Ang^3
#
#
#
# Elastic Constant Matrix: (Units=GPa)
#
#
# Indices 1 2 3 4 5 6 
#
# 1 55.6167 29.2721 32.0730 0.0000 -3.6477 0.0000
# 2 29.2721 110.1831 53.8741 0.0000 1.5141 0.0000
# 3 32.0730 53.8741 123.9373 0.0000 -12.6289 0.0000
# 4 0.0000 0.0000 0.0000 19.9754 0.0000 11.3200
# 5 -3.6477 1.5141 -12.6289 0.0000 44.4904 0.0000
# 6 0.0000 0.0000 0.0000 11.3200 0.0000 16.6339
#
#
#
# Elastic Compliance Matrix: (Units=1/GPa)
#
#
# Indices 1 2 3 4 5 6 
#
# 1 0.022448 -0.004035 -0.003969 0.000000 0.000851 0.000000
# 2 -0.004035 0.012404 -0.004556 0.000000 -0.002046 0.000000
# 3 -0.003969 -0.004556 0.011388 0.000000 0.003062 0.000000
# 4 0.000000 0.000000 0.000000 0.081489 0.000000 -0.055457
# 5 0.000851 -0.002046 0.003062 0.000000 0.023485 0.000000
# 6 0.000000 0.000000 0.000000 -0.055457 0.000000 0.097859
#
#
# Mechanical properties :
#
#
# Convention : Reuss Voigt Hill
#
# Bulk Modulus (GPa) = 47.34669 57.79727 52.57198
# Shear Modulus (GPa) = 17.77889 27.85446 22.81667
#
# Velocity S-wave (km/s) = 3.13043 3.91831 3.54632
# Velocity P-wave (km/s) = 6.25805 7.23383 6.76356
#
# Compressibility (1/GPa) = 0.02112080
#
# Stress axis : x y z
#
# Youngs Moduli (GPa) = 44.54669 80.62204 87.81143
#
# Poissons Ratio (x) = 0.32532 0.34848
# Poissons Ratio (y) = 0.17975 0.40007
# Poissons Ratio (z) = 0.17678 0.36731
#
# Static dielectric constant tensor:
#      x y z
#    x 3.104720 0.000000 -0.032080 
#    y 0.000000 3.307140 0.000000 
#    z -0.032080 0.000000 3.898400 
# 
# 
# High freq. dielectric constant tensor:
#      x y z
#    x 1.661770 0.000000 -0.017580 
#    y 0.000000 1.682660 0.000000 
#    z -0.017580 0.000000 1.732650 
# 
# From -- ./inp_files/22231.got.cif
#   From: 2010.06.25/outbox.cif.g09.slc.cpg/sg12_12_cif.got.tgz:22231.got - 2010.06.28 00:19:55.
