data_PCOD8083225
_publ_section_title
;
Structure prediction by ZEFSAII (Michael W. Deem and Ramdas Pophale) SiO2 
 PCOD8083225
Probable space group: C 2/M
;
_chemical_formula_sum "Si O2"
_cell_formula_units_Z 64
_cell_length_a 20.587093
_cell_length_b 9.073156
_cell_length_c 19.702285
_cell_angle_alpha 90.000000
_cell_angle_beta 102.273926
_cell_angle_gamma 90.000000
_cell_volume 3596.067774
_symmetry_space_group_name_H-M "C 2/M"
_symmetry_group_IT_number 12
_symmetry_cell_setting 'monoclinic'
loop_
_space_group_symop_operation_xyz
x,y,z
-x,y,-z
-x,-y,-z
x,-y,z
1/2+x,1/2+y,z
1/2-x,1/2+y,-z
1/2-x,1/2-y,-z
1/2+x,1/2-y,z
loop_
_atom_site_type_symbol
_atom_site_label
_atom_site_fract_x
_atom_site_fract_y
_atom_site_fract_z
Si Si1 0.706481 0.328146 0.772612
Si Si2 0.164200 0.172553 0.155664
Si Si3 0.573161 0.337198 0.485454
Si Si4 0.603902 0.326076 0.861385
Si Si5 0.682872 0.326378 0.007282
Si Si6 0.393491 0.328342 0.363926
Si Si7 0.972868 0.325557 0.648531
Si Si8 0.038983 0.825820 0.216291
O O1 0.718894 0.500000 0.787287
O O2 0.776821 0.248321 0.789807
O O3 0.658101 0.263187 0.820350
O O4 0.673739 0.296100 0.692104
O O5 0.161962 0.227610 0.077324
O O6 0.094499 0.215995 0.173661
O O7 0.177106 0.000000 0.161903
O O8 0.500000 0.341649 0.500000
O O9 0.593416 0.500000 0.463467
O O10 0.619807 0.288501 0.559543
O O11 0.576051 0.223057 0.423934
O O12 0.601441 0.500000 0.852402
O O13 0.530868 0.264023 0.828390
O O14 0.624422 0.279995 0.942179
O O15 0.694994 0.500000 0.007431
O O16 0.750000 0.250000 0.000000
O O17 0.414594 0.500000 0.361473
O O18 0.452648 0.232707 0.345480
O O19 0.973451 0.500000 0.652882
O O20 0.943196 0.257783 0.710541
O O21 0.036543 0.000000 0.229944
#
# Coordination Sequence:
#
# PCOD8083225 Si02
#       8
#     8   8   8   8   8   8   8   8
#     4  10  18  32  55  78 102 136 175 212 252 307
#     4  10  22  35  52  78 106 135 170 217 263 305
#     4   8  15  28  47  71 101 136 172 208 250 305
#     4   9  17  31  55  77  96 133 177 211 249 301
#     4  10  19  33  52  78 104 131 169 212 261 306
#     4   9  17  31  51  75 102 137 177 211 249 303
#     4  11  20  29  47  76 107 136 167 213 264 304
#     4  10  20  37  54  71 102 141 179 213 252 310
#
# _framework density 17.797218000000001
#
# number of rings (size 3 to 8) (size 9 to 14) (size 15 to 20)
#    0.000    2.375    2.500    1.875    0.000    3.750 
#    0.000    3.125    0.000    0.750    0.000    2.625 
#    0.000    0.000    0.000    0.000    0.000    0.000 
#
# Total GULP energy -396731.115496 kJ/mol
# GULP energy per Si atom -12397.847359 kJ/mol
# Density = 1.775671 g / cm^3
# Si number density = 17.797218 Si / 1000 Ang^3
#
#
#
# Elastic Constant Matrix: (Units=GPa)
#
#
# Indices 1 2 3 4 5 6 
#
# 1 90.5751 31.2439 54.6312 0.0000 3.5847 0.0000
# 2 31.2439 54.4853 45.6411 0.0000 -3.1226 0.0000
# 3 54.6312 45.6411 148.8884 0.0000 12.5491 0.0000
# 4 0.0000 0.0000 0.0000 18.6801 0.0000 1.7486
# 5 3.5847 -3.1226 12.5491 0.0000 26.1561 0.0000
# 6 0.0000 0.0000 0.0000 1.7486 0.0000 22.5418
#
#
#
# Elastic Compliance Matrix: (Units=1/GPa)
#
#
# Indices 1 2 3 4 5 6 
#
# 1 0.015326 -0.005650 -0.003812 0.000000 -0.000946 0.000000
# 2 -0.005650 0.028017 -0.007152 0.000000 0.007550 0.000000
# 3 -0.003812 -0.007152 0.010771 0.000000 -0.005499 0.000000
# 4 0.000000 0.000000 0.000000 0.053924 0.000000 -0.004183
# 5 -0.000946 0.007550 -0.005499 0.000000 0.041901 0.000000
# 6 0.000000 0.000000 0.000000 -0.004183 0.000000 0.044686
#
#
# Mechanical properties :
#
#
# Convention : Reuss Voigt Hill
#
# Bulk Modulus (GPa) = 47.87619 61.88681 54.88150
# Shear Modulus (GPa) = 21.29332 24.30444 22.79888
#
# Velocity S-wave (km/s) = 3.46271 3.69945 3.58304
# Velocity P-wave (km/s) = 6.55336 7.28675 6.92976
#
# Compressibility (1/GPa) = 0.02088721
#
# Stress axis : x y z
#
# Youngs Moduli (GPa) = 65.24846 35.69267 92.84176
#
# Poissons Ratio (x) = 0.20165 0.35391
# Poissons Ratio (y) = 0.36863 0.66399
# Poissons Ratio (z) = 0.24872 0.25527
#
# Static dielectric constant tensor:
#      x y z
#    x 3.132520 0.000000 0.238370 
#    y 0.000000 3.065750 0.000000 
#    z 0.238370 0.000000 3.831840 
# 
# 
# High freq. dielectric constant tensor:
#      x y z
#    x 1.656520 0.000000 0.015570 
#    y 0.000000 1.665180 0.000000 
#    z 0.015570 0.000000 1.707020 
# 
# From -- ./inp_files/281369.got.cif
#   From: 2010.06.25/outbox.cif.g09.slc.cpg/sg12_141_cif.got.tgz:281369.got - 2010.06.28 00:19:55.
