data_PCOD8083244
_publ_section_title
;
Structure prediction by ZEFSAII (Michael W. Deem and Ramdas Pophale) SiO2 
 PCOD8083244
Probable space group: C 2/M
;
_chemical_formula_sum "Si O2"
_cell_formula_units_Z 56
_cell_length_a 20.881136
_cell_length_b 9.494963
_cell_length_c 19.832201
_cell_angle_alpha 90.000000
_cell_angle_beta 50.664656
_cell_angle_gamma 90.000000
_cell_volume 3041.236489
_symmetry_space_group_name_H-M "C 2/M"
_symmetry_group_IT_number 12
_symmetry_cell_setting 'monoclinic'
loop_
_space_group_symop_operation_xyz
x,y,z
-x,y,-z
-x,-y,-z
x,-y,z
1/2+x,1/2+y,z
1/2-x,1/2+y,-z
1/2-x,1/2-y,-z
1/2+x,1/2-y,z
loop_
_atom_site_type_symbol
_atom_site_label
_atom_site_fract_x
_atom_site_fract_y
_atom_site_fract_z
Si Si1 0.162170 0.844747 0.995421
Si Si2 0.448162 0.666510 0.472299
Si Si3 0.097695 0.340026 0.736128
Si Si4 0.518266 0.333242 0.283283
Si Si5 0.490120 0.161475 0.930083
Si Si6 0.766925 0.164810 0.556802
Si Si7 0.801508 0.845064 0.874793
O O1 0.227365 0.761007 0.904208
O O2 0.146636 0.000000 0.974431
O O3 0.198793 0.862240 0.044961
O O4 0.077725 0.759171 0.059164
O O5 0.500000 0.733652 0.500000
O O6 0.450366 0.500000 0.477448
O O7 0.492389 0.716174 0.374643
O O8 0.352393 0.717208 0.534419
O O9 0.078389 0.500000 0.726464
O O10 0.042101 0.237156 0.729597
O O11 0.075062 0.320203 0.830511
O O12 0.194364 0.305837 0.659508
O O13 0.511063 0.500000 0.277255
O O14 0.612177 0.282092 0.209613
O O15 0.459379 0.000000 0.948837
O O16 0.500000 0.213054 0.000000
O O17 0.750000 0.250000 0.500000
O O18 0.773029 0.000000 0.533402
O O19 0.785195 0.000000 0.853365
#
# Coordination Sequence:
#
# PCOD8083244 Si02
#       7
#     8   8   8   8   8   8   8
#     4  10  19  32  52  75 101 133 172 216 265 314
#     4   9  18  33  53  80 111 142 176 220 270 320
#     4  10  20  33  53  81 106 136 179 225 271 320
#     4  10  18  32  55  80 103 137 179 218 263 320
#     4  10  21  37  53  73 106 144 180 223 277 326
#     4  10  19  33  56  83 110 140 179 224 270 323
#     4   9  18  31  49  76 103 131 170 214 261 310
#
# _framework density 18.413563
#
# number of rings (size 3 to 8) (size 9 to 14) (size 15 to 20)
#    0.000    2.286    2.857    0.429    0.000    1.429 
#    2.571    0.000    0.000    1.714    0.000    0.000 
#    0.000    0.000    0.000    0.000    0.000    0.000 
#
# Total GULP energy -347098.818840 kJ/mol
# GULP energy per Si atom -12396.386387 kJ/mol
# Density = 1.837165 g / cm^3
# Si number density = 18.413563 Si / 1000 Ang^3
#
#
#
# Elastic Constant Matrix: (Units=GPa)
#
#
# Indices 1 2 3 4 5 6 
#
# 1 79.6697 28.3980 59.2462 0.0000 -7.7216 0.0002
# 2 28.3980 58.7133 34.6994 0.0001 -9.6216 0.0001
# 3 59.2462 34.6994 148.1509 0.0000 -20.7204 -0.0001
# 4 0.0000 0.0001 0.0000 20.6912 0.0000 -4.4838
# 5 -7.7216 -9.6216 -20.7204 0.0000 37.1109 -0.0001
# 6 0.0002 0.0001 -0.0001 -4.4838 -0.0001 17.2550
#
#
#
# Elastic Compliance Matrix: (Units=1/GPa)
#
#
# Indices 1 2 3 4 5 6 
#
# 1 0.019343 -0.005657 -0.006565 0.000000 -0.001108 0.000000
# 2 -0.005657 0.021686 -0.002381 0.000000 0.003116 0.000000
# 3 -0.006565 -0.002381 0.010474 0.000000 0.003864 0.000000
# 4 0.000000 0.000000 0.000000 0.051214 0.000000 0.013308
# 5 -0.001108 0.003116 0.003864 0.000000 0.029681 0.000000
# 6 0.000000 0.000000 0.000000 0.013308 0.000000 0.061412
#
#
# Mechanical properties :
#
#
# Convention : Reuss Voigt Hill
#
# Bulk Modulus (GPa) = 44.85211 59.02455 51.93833
# Shear Modulus (GPa) = 21.69676 25.95744 23.82710
#
# Velocity S-wave (km/s) = 3.43637 3.75866 3.60112
# Velocity P-wave (km/s) = 6.33687 7.13871 6.74971
#
# Compressibility (1/GPa) = 0.02229550
#
# Stress axis : x y z
#
# Youngs Moduli (GPa) = 51.69755 46.11277 95.47852
#
# Poissons Ratio (x) = 0.26087 0.62685
# Poissons Ratio (y) = 0.29246 0.22734
# Poissons Ratio (z) = 0.33941 0.10980
#
# Static dielectric constant tensor:
#      x y z
#    x 3.273060 0.000000 -0.162280 
#    y 0.000000 3.453340 0.000000 
#    z -0.162280 0.000000 3.661230 
# 
# 
# High freq. dielectric constant tensor:
#      x y z
#    x 1.689070 0.000000 -0.019450 
#    y 0.000000 1.698910 0.000000 
#    z -0.019450 0.000000 1.723540 
# 
# From -- ./inp_files/319696.got.cif
#   From: 2010.06.25/outbox.cif.g09.slc.cpg/sg12_160_cif.got.tgz:319696.got - 2010.06.28 00:19:55.
