data_PCOD8083611
_publ_section_title
;
Structure prediction by ZEFSAII (Michael W. Deem and Ramdas Pophale) SiO2 
 PCOD8083611
Probable space group: C 2/M
;
_chemical_formula_sum "Si O2"
_cell_formula_units_Z 48
_cell_length_a 9.117700
_cell_length_b 26.983328
_cell_length_c 14.088596
_cell_angle_alpha 90.000000
_cell_angle_beta 135.022886
_cell_angle_gamma 90.000000
_cell_volume 2449.965601
_symmetry_space_group_name_H-M "C 2/M"
_symmetry_group_IT_number 12
_symmetry_cell_setting 'monoclinic'
loop_
_space_group_symop_operation_xyz
x,y,z
-x,y,-z
-x,-y,-z
x,-y,z
1/2+x,1/2+y,z
1/2-x,1/2+y,-z
1/2-x,1/2-y,-z
1/2+x,1/2-y,z
loop_
_atom_site_type_symbol
_atom_site_label
_atom_site_fract_x
_atom_site_fract_y
_atom_site_fract_z
Si Si1 0.398979 0.111479 0.742885
Si Si2 0.779069 0.683798 0.422638
Si Si3 0.621230 0.945146 0.461247
Si Si4 0.473132 0.593341 0.290353
Si Si5 0.260389 0.290272 0.387637
Si Si6 0.179106 0.555758 0.004985
O O1 0.404696 0.094006 0.635909
O O2 0.202162 0.090286 0.709339
O O3 0.375915 0.171285 0.738046
O O4 0.610958 0.092114 0.888166
O O5 0.585833 0.646574 0.329485
O O6 0.826602 0.705553 0.547220
O O7 0.733696 0.733426 0.337800
O O8 0.000000 0.657785 0.500000
O O9 0.500000 0.928059 0.500000
O O10 0.861792 0.947202 0.600785
O O11 0.551713 0.000000 0.395931
O O12 0.384743 0.578446 0.146826
O O13 0.500000 0.307610 0.500000
O O14 0.222485 0.500000 0.986431
O O15 0.000000 0.553862 0.000000
#
# Coordination Sequence:
#
# PCOD8083611 Si02
#       6
#     8   8   8   8   8   8
#     4  11  20  36  59  83 109 144 193 234 277 333
#     4  10  20  32  55  84 118 145 178 233 287 334
#     4  11  23  36  54  82 112 140 183 239 289 336
#     4  11  20  36  57  84 111 147 190 230 281 332
#     4  10  18  33  54  86 113 144 187 231 281 334
#     4   9  20  36  56  81 112 148 187 235 284 330
#
# _framework density 19.592110999999999
#
# number of rings (size 3 to 8) (size 9 to 14) (size 15 to 20)
#    0.000    1.667    3.333    2.000    0.000    2.667 
#    0.000    1.667    0.000    3.000    0.000    0.000 
#    0.000    0.000    0.000    0.000    0.000    0.000 
#
# Total GULP energy -297343.430331 kJ/mol
# GULP energy per Si atom -12389.309597 kJ/mol
# Density = 1.954752 g / cm^3
# Si number density = 19.592111 Si / 1000 Ang^3
#
#
#
# Elastic Constant Matrix: (Units=GPa)
#
#
# Indices 1 2 3 4 5 6 
#
# 1 80.0924 4.7677 18.4734 0.0000 -4.6590 0.0000
# 2 4.7677 132.6409 34.0381 0.0000 -7.9767 0.0000
# 3 18.4734 34.0381 101.7943 0.0000 -9.8790 0.0000
# 4 0.0000 0.0000 0.0000 26.8505 0.0000 2.8354
# 5 -4.6590 -7.9767 -9.8790 0.0000 11.5315 0.0000
# 6 0.0000 0.0000 0.0000 2.8354 0.0000 21.7998
#
#
#
# Elastic Compliance Matrix: (Units=1/GPa)
#
#
# Indices 1 2 3 4 5 6 
#
# 1 0.013175 0.000296 -0.002131 0.000000 0.003702 0.000000
# 2 0.000296 0.008396 -0.002493 0.000000 0.003792 0.000000
# 3 -0.002131 -0.002493 0.011772 0.000000 0.007499 0.000000
# 4 0.000000 0.000000 0.000000 0.037762 0.000000 -0.004912
# 5 0.003702 0.003792 0.007499 0.000000 0.097262 0.000000
# 6 0.000000 0.000000 0.000000 -0.004912 0.000000 0.046511
#
#
# Mechanical properties :
#
#
# Convention : Reuss Voigt Hill
#
# Bulk Modulus (GPa) = 40.50722 47.67622 44.09172
# Shear Modulus (GPa) = 21.57376 29.18625 25.38000
#
# Velocity S-wave (km/s) = 3.32195 3.86384 3.60310
# Velocity P-wave (km/s) = 5.95264 6.65529 6.31375
#
# Compressibility (1/GPa) = 0.02468695
#
# Stress axis : x y z
#
# Youngs Moduli (GPa) = 75.90280 119.09920 84.94802
#
# Poissons Ratio (x) = -0.03523 0.18099
# Poissons Ratio (y) = -0.02245 0.21180
# Poissons Ratio (z) = 0.16171 0.29695
#
# Static dielectric constant tensor:
#      x y z
#    x 3.557500 0.000000 0.001580 
#    y 0.000000 3.948170 0.000000 
#    z 0.001580 0.000000 3.490740 
# 
# 
# High freq. dielectric constant tensor:
#      x y z
#    x 1.759940 0.000000 0.005760 
#    y 0.000000 1.782660 0.000000 
#    z 0.005760 0.000000 1.722550 
# 
# From -- ./inp_files/201067.got.cif
#   From: 2010.06.25/outbox.cif.g09.slc.cpg/sg12_101_cif.got.tgz:201067.got - 2010.06.28 00:19:55.
