data_PCOD8083414
_publ_section_title
;
Structure prediction by ZEFSAII (Michael W. Deem and Ramdas Pophale) SiO2 
 PCOD8083414
Probable space group: C 2/M
;
_chemical_formula_sum "Si O2"
_cell_formula_units_Z 56
_cell_length_a 26.518583
_cell_length_b 8.747043
_cell_length_c 14.349290
_cell_angle_alpha 90.000000
_cell_angle_beta 122.462484
_cell_angle_gamma 90.000000
_cell_volume 2808.356328
_symmetry_space_group_name_H-M "C 2/M"
_symmetry_group_IT_number 12
_symmetry_cell_setting 'monoclinic'
loop_
_space_group_symop_operation_xyz
x,y,z
-x,y,-z
-x,-y,-z
x,-y,z
1/2+x,1/2+y,z
1/2-x,1/2+y,-z
1/2-x,1/2-y,-z
1/2+x,1/2-y,z
loop_
_atom_site_type_symbol
_atom_site_label
_atom_site_fract_x
_atom_site_fract_y
_atom_site_fract_z
Si Si1 0.904743 0.819745 0.752145
Si Si2 0.352630 0.680665 0.892986
Si Si3 0.966538 0.827143 0.332285
Si Si4 0.394076 0.322780 0.537143
Si Si5 0.256529 0.679908 0.108264
Si Si6 0.535915 0.323981 0.883887
Si Si7 0.361987 0.823087 0.323890
O O1 0.858662 0.781354 0.788848
O O2 0.879731 0.760533 0.627641
O O3 0.970726 0.749136 0.839742
O O4 0.915172 0.000000 0.750029
O O5 0.345585 0.500000 0.903577
O O6 0.294844 0.764713 0.873273
O O7 0.411277 0.749999 0.002290
O O8 0.946927 0.802416 0.206462
O O9 0.929796 0.709995 0.359440
O O10 0.036254 0.795031 0.414767
O O11 0.951496 0.000000 0.349213
O O12 0.376981 0.500000 0.509837
O O13 0.354733 0.227248 0.424577
O O14 0.253664 0.500000 0.094719
O O15 0.319385 0.726796 0.214559
O O16 0.250000 0.750000 0.000000
O O17 0.533066 0.500000 0.910497
O O18 0.345880 0.000000 0.298626
#
# Coordination Sequence:
#
# PCOD8083414 Si02
#       7
#     8   8   8   8   8   8   8
#     4   8  15  29  53  85 116 146 183 224 265 317
#     4  10  18  32  57  86 114 145 184 227 270 318
#     4   9  17  31  53  81 114 151 187 224 272 330
#     4   9  18  34  55  81 114 151 189 227 271 325
#     4  12  26  44  62  81 108 141 180 224 273 328
#     4   8  14  26  50  84 116 145 178 217 263 319
#     4  12  24  37  55  80 109 144 188 233 280 329
#
# _framework density 19.940488999999999
#
# number of rings (size 3 to 8) (size 9 to 14) (size 15 to 20)
#    0.000    2.286    0.000    6.000    0.000    5.143 
#    0.000    1.429    0.000    3.429    0.000    0.000 
#    0.000    0.000    0.000    0.000    0.000    0.000 
#
# Total GULP energy -347136.050165 kJ/mol
# GULP energy per Si atom -12397.716077 kJ/mol
# Density = 1.989510 g / cm^3
# Si number density = 19.940489 Si / 1000 Ang^3
#
#
#
# Elastic Constant Matrix: (Units=GPa)
#
#
# Indices 1 2 3 4 5 6 
#
# 1 91.3555 36.7350 38.3665 0.0000 -17.6330 0.0000
# 2 36.7350 78.8748 35.8527 0.0000 -8.2077 0.0000
# 3 38.3665 35.8527 121.3158 0.0000 -16.7025 0.0000
# 4 0.0000 0.0000 0.0000 23.5944 0.0000 0.6195
# 5 -17.6330 -8.2077 -16.7025 0.0000 19.2466 0.0000
# 6 0.0000 0.0000 0.0000 0.6195 0.0000 23.3196
#
#
#
# Elastic Compliance Matrix: (Units=1/GPa)
#
#
# Indices 1 2 3 4 5 6 
#
# 1 0.016028 -0.005452 -0.001994 0.000000 0.010628 0.000000
# 2 -0.005452 0.016637 -0.003297 0.000000 -0.000762 0.000000
# 3 -0.001994 -0.003297 0.010679 0.000000 0.006034 0.000000
# 4 0.000000 0.000000 0.000000 0.042412 0.000000 -0.001127
# 5 0.010628 -0.000762 0.006034 0.000000 0.066606 0.000000
# 6 0.000000 0.000000 0.000000 -0.001127 0.000000 0.042912
#
#
# Mechanical properties :
#
#
# Convention : Reuss Voigt Hill
#
# Bulk Modulus (GPa) = 45.75410 57.05051 51.40231
# Shear Modulus (GPa) = 22.31671 25.27158 23.79414
#
# Velocity S-wave (km/s) = 3.34902 3.56385 3.45810
# Velocity P-wave (km/s) = 6.16034 6.75331 6.46363
#
# Compressibility (1/GPa) = 0.02185596
#
# Stress axis : x y z
#
# Youngs Moduli (GPa) = 62.39275 60.10625 93.64276
#
# Poissons Ratio (x) = 0.32771 0.18674
# Poissons Ratio (y) = 0.34018 0.30878
# Poissons Ratio (z) = 0.12442 0.19820
#
# Static dielectric constant tensor:
#      x y z
#    x 3.545940 0.000000 -0.158600 
#    y 0.000000 3.193080 0.000000 
#    z -0.158600 0.000000 3.844250 
# 
# 
# High freq. dielectric constant tensor:
#      x y z
#    x 1.768660 0.000000 -0.015200 
#    y 0.000000 1.732060 0.000000 
#    z -0.015200 0.000000 1.791990 
# 
# From -- ./inp_files/238987.got.cif
#   From: 2010.06.25/outbox.cif.g09.slc.cpg/sg12_120_cif.got.tgz:238987.got - 2010.06.28 00:19:55.
