data_PCOD8083499
_publ_section_title
;
Structure prediction by ZEFSAII (Michael W. Deem and Ramdas Pophale) SiO2 
 PCOD8083499
Probable space group: C 2/M
;
_chemical_formula_sum "Si O2"
_cell_formula_units_Z 56
_cell_length_a 9.491985
_cell_length_b 18.961520
_cell_length_c 31.396676
_cell_angle_alpha 90.000000
_cell_angle_beta 147.003220
_cell_angle_gamma 90.000000
_cell_volume 3077.407738
_symmetry_space_group_name_H-M "C 2/M"
_symmetry_group_IT_number 12
_symmetry_cell_setting 'monoclinic'
loop_
_space_group_symop_operation_xyz
x,y,z
-x,y,-z
-x,-y,-z
x,-y,z
1/2+x,1/2+y,z
1/2-x,1/2+y,-z
1/2-x,1/2-y,-z
1/2+x,1/2-y,z
loop_
_atom_site_type_symbol
_atom_site_label
_atom_site_fract_x
_atom_site_fract_y
_atom_site_fract_z
Si Si1 0.275691 0.697025 0.588957
Si Si2 0.488194 0.157650 0.322294
Si Si3 0.758213 0.807370 0.907966
Si Si4 0.090709 0.143474 0.288962
Si Si5 0.622589 0.922931 0.207967
Si Si6 0.355926 0.584017 0.356048
Si Si7 0.711193 0.270949 0.178582
O O1 0.437780 0.769871 0.634172
O O2 0.242399 0.666992 0.627860
O O3 0.404384 0.637622 0.590833
O O4 0.000000 0.716940 0.500000
O O5 0.293777 0.116863 0.304919
O O6 0.726694 0.107171 0.368510
O O7 0.338668 0.170609 0.240562
O O8 0.591009 0.877727 0.870062
O O9 0.567677 0.744404 0.871955
O O10 0.854849 0.800077 0.884491
O O11 0.000000 0.811210 0.000000
O O12 0.899533 0.080684 0.254278
O O13 0.911051 0.206329 0.225874
O O14 0.662356 0.900974 0.267440
O O15 0.509251 0.000000 0.176186
O O16 0.434149 0.500000 0.377462
#
# Coordination Sequence:
#
# PCOD8083499 Si02
#       7
#     8   8   8   8   8   8   8
#     4  10  21  36  57  84 113 144 185 226 272 328
#     4  11  19  33  58  82 109 141 182 230 273 321
#     4  11  20  31  52  79 108 139 171 225 279 316
#     4   9  19  32  55  77 103 141 175 220 267 314
#     4   9  19  36  53  72 102 142 186 217 256 329
#     4  10  21  37  57  81 110 148 186 226 275 325
#     4  10  18  33  49  78 108 135 176 219 265 326
#
# _framework density 18.197133999999998
#
# number of rings (size 3 to 8) (size 9 to 14) (size 15 to 20)
#    0.000    2.000    2.857    3.000    0.000    3.429 
#    0.000    0.000    0.000    3.000    0.000    1.000 
#    0.000    0.000    0.000    0.000    0.000    0.000 
#
# Total GULP energy -346995.347220 kJ/mol
# GULP energy per Si atom -12392.690972 kJ/mol
# Density = 1.815572 g / cm^3
# Si number density = 18.197134 Si / 1000 Ang^3
#
#
#
# Elastic Constant Matrix: (Units=GPa)
#
#
# Indices 1 2 3 4 5 6 
#
# 1 115.2232 24.4800 11.1934 0.0014 8.9502 0.0001
# 2 24.4800 59.3424 13.9515 -0.0031 5.8539 -0.0011
# 3 11.1934 13.9515 87.3618 -0.0079 -3.0049 -0.0026
# 4 0.0014 -0.0031 -0.0079 9.4575 -0.0028 2.9171
# 5 8.9502 5.8539 -3.0049 -0.0028 18.9613 -0.0004
# 6 0.0001 -0.0011 -0.0026 2.9171 -0.0004 18.2159
#
#
#
# Elastic Compliance Matrix: (Units=1/GPa)
#
#
# Indices 1 2 3 4 5 6 
#
# 1 0.009784 -0.003480 -0.000824 -0.000004 -0.003674 0.000000
# 2 -0.003480 0.019424 -0.002821 0.000003 -0.004801 0.000000
# 3 -0.000824 -0.002821 0.012112 0.000010 0.003180 0.000000
# 4 -0.000004 0.000003 0.000010 0.111230 0.000019 -0.017812
# 5 -0.003674 -0.004801 0.003180 0.000019 0.056460 -0.000002
# 6 0.000000 0.000000 0.000000 -0.017812 -0.000002 0.057750
#
#
# Mechanical properties :
#
#
# Convention : Reuss Voigt Hill
#
# Bulk Modulus (GPa) = 36.94240 40.13080 38.53660
# Shear Modulus (GPa) = 17.23948 23.48043 20.35995
#
# Velocity S-wave (km/s) = 3.08128 3.59602 3.34856
# Velocity P-wave (km/s) = 5.74494 6.27241 6.01446
#
# Compressibility (1/GPa) = 0.02706917
#
# Stress axis : x y z
#
# Youngs Moduli (GPa) = 102.21205 51.48345 82.56160
#
# Poissons Ratio (x) = 0.17915 0.06805
# Poissons Ratio (y) = 0.35567 0.23292
# Poissons Ratio (z) = 0.08425 0.14525
#
# Static dielectric constant tensor:
#      x y z
#    x 3.454560 0.000000 0.002740 
#    y 0.000000 3.181270 0.000000 
#    z 0.002740 0.000000 3.106990 
# 
# 
# High freq. dielectric constant tensor:
#      x y z
#    x 1.716210 0.000000 0.000590 
#    y 0.000000 1.682420 0.000000 
#    z 0.000590 0.000000 1.685810 
# 
# From -- ./inp_files/197502.got.cif
#   From: 2010.06.25/outbox.cif.g09.slc.cpg/sg12_99_cif.got.tgz:197502.got - 2010.06.28 00:19:55.
