data_PCOD8083642
_publ_section_title
;
Structure prediction by ZEFSAII (Michael W. Deem and Ramdas Pophale) SiO2 
 PCOD8083642
Probable space group: C 2/M
;
_chemical_formula_sum "Si O2"
_cell_formula_units_Z 64
_cell_length_a 34.120895
_cell_length_b 8.595539
_cell_length_c 15.381016
_cell_angle_alpha 90.000000
_cell_angle_beta 44.919119
_cell_angle_gamma 90.000000
_cell_volume 3185.294722
_symmetry_space_group_name_H-M "C 2/M"
_symmetry_group_IT_number 12
_symmetry_cell_setting 'monoclinic'
loop_
_space_group_symop_operation_xyz
x,y,z
-x,y,-z
-x,-y,-z
x,-y,z
1/2+x,1/2+y,z
1/2-x,1/2+y,-z
1/2-x,1/2-y,-z
1/2+x,1/2-y,z
loop_
_atom_site_type_symbol
_atom_site_label
_atom_site_fract_x
_atom_site_fract_y
_atom_site_fract_z
Si Si1 0.006878 0.321765 0.319687
Si Si2 0.594026 0.317176 0.734661
Si Si3 0.306985 0.314568 0.078809
Si Si4 0.390278 0.318569 0.485781
Si Si5 0.477834 0.176906 0.905018
Si Si6 0.629996 0.320095 0.857303
Si Si7 0.382361 0.682516 0.801992
Si Si8 0.681628 0.182304 0.257208
O O1 0.992968 0.500000 0.363832
O O2 0.026428 0.298739 0.190877
O O3 0.057567 0.263639 0.299479
O O4 0.951885 0.220900 0.423499
O O5 0.579987 0.500000 0.758754
O O6 0.617503 0.270930 0.603317
O O7 0.538420 0.222827 0.843407
O O8 0.637799 0.271113 0.743112
O O9 0.308099 0.500000 0.078290
O O10 0.328192 0.241580 0.138183
O O11 0.244762 0.256428 0.159669
O O12 0.346908 0.252241 0.939342
O O13 0.379112 0.500000 0.518590
O O14 0.345260 0.216772 0.607144
O O15 0.465567 0.000000 0.951213
O O16 0.433355 0.288570 0.018361
O O17 0.641762 0.500000 0.847222
O O18 0.391878 0.500000 0.796140
O O19 0.349852 0.718908 0.765424
O O20 0.677947 0.000000 0.241663
#
# Coordination Sequence:
#
# PCOD8083642 Si02
#       8
#     8   8   8   8   8   8   8   8
#     4  10  20  35  56  85 117 150 181 224 280 333
#     4   9  19  33  54  79 108 147 188 226 268 322
#     4   9  20  37  59  84 113 146 185 228 276 330
#     4  10  21  39  58  81 112 149 192 234 272 323
#     4  10  19  30  48  79 118 149 177 220 275 328
#     4  10  18  33  55  80 109 146 187 224 268 328
#     4  11  21  37  61  88 113 143 182 229 279 334
#     4  11  23  40  59  81 109 148 189 232 282 332
#
# _framework density 20.092331999999999
#
# number of rings (size 3 to 8) (size 9 to 14) (size 15 to 20)
#    0.000    2.000    1.250    2.625    0.000    4.000 
#    0.000    6.250    0.000    0.000    0.000    0.000 
#    0.000    0.000    0.000    0.000    0.000    0.000 
#
# Total GULP energy -396755.616238 kJ/mol
# GULP energy per Si atom -12398.613007 kJ/mol
# Density = 2.004660 g / cm^3
# Si number density = 20.092332 Si / 1000 Ang^3
#
#
#
# Elastic Constant Matrix: (Units=GPa)
#
#
# Indices 1 2 3 4 5 6 
#
# 1 74.7749 7.6099 10.8354 -0.0007 22.8469 -0.0010
# 2 7.6099 23.4994 3.1785 -0.0070 0.3859 0.0045
# 3 10.8354 3.1785 59.3477 -0.0015 2.6166 0.0005
# 4 -0.0007 -0.0070 -0.0015 23.9751 0.0005 0.1187
# 5 22.8469 0.3859 2.6166 0.0005 19.7430 0.0002
# 6 -0.0010 0.0045 0.0005 0.1187 0.0002 20.2026
#
#
#
# Elastic Compliance Matrix: (Units=1/GPa)
#
#
# Indices 1 2 3 4 5 6 
#
# 1 0.022051 -0.006380 -0.002580 -0.000001 -0.025051 0.000003
# 2 -0.006380 0.044717 -0.001526 0.000013 0.006712 -0.000010
# 3 -0.002580 -0.001526 0.017371 0.000001 0.000713 0.000000
# 4 -0.000001 0.000013 0.000001 0.041711 0.000000 -0.000245
# 5 -0.025051 0.006712 0.000713 0.000000 0.079414 -0.000004
# 6 0.000003 -0.000010 0.000000 -0.000245 -0.000004 0.049500
#
#
# Mechanical properties :
#
#
# Convention : Reuss Voigt Hill
#
# Bulk Modulus (GPa) = 15.83121 22.31884 19.07502
# Shear Modulus (GPa) = 16.84686 21.85069 19.34878
#
# Velocity S-wave (km/s) = 2.89878 3.30133 3.10658
# Velocity P-wave (km/s) = 4.37038 5.06596 4.73097
#
# Compressibility (1/GPa) = 0.06316638
#
# Stress axis : x y z
#
# Youngs Moduli (GPa) = 45.35013 22.36306 57.56674
#
# Poissons Ratio (x) = 0.14268 0.14851
# Poissons Ratio (y) = 0.28935 0.08784
# Poissons Ratio (z) = 0.11699 0.03412
#
# Static dielectric constant tensor:
#      x y z
#    x 3.892050 0.000000 0.158770 
#    y 0.000000 3.439300 0.000000 
#    z 0.158770 0.000000 3.604350 
# 
# 
# High freq. dielectric constant tensor:
#      x y z
#    x 1.793240 0.000000 0.015140 
#    y 0.000000 1.770270 0.000000 
#    z 0.015140 0.000000 1.768720 
# 
# From -- ./inp_files/249798.got.cif
#   From: 2010.06.25/outbox.cif.g09.slc.cpg/sg12_125_cif.got.tgz:249798.got - 2010.06.28 00:19:55.
