data_PCOD8083307
_publ_section_title
;
Structure prediction by ZEFSAII (Michael W. Deem and Ramdas Pophale) SiO2 
 PCOD8083307
Probable space group: C 2/M
;
_chemical_formula_sum "Si O2"
_cell_formula_units_Z 56
_cell_length_a 31.786395
_cell_length_b 8.969905
_cell_length_c 11.813269
_cell_angle_alpha 90.000000
_cell_angle_beta 123.493772
_cell_angle_gamma 90.000000
_cell_volume 2808.904960
_symmetry_space_group_name_H-M "C 2/M"
_symmetry_group_IT_number 12
_symmetry_cell_setting 'monoclinic'
loop_
_space_group_symop_operation_xyz
x,y,z
-x,y,-z
-x,-y,-z
x,-y,z
1/2+x,1/2+y,z
1/2-x,1/2+y,-z
1/2-x,1/2-y,-z
1/2+x,1/2-y,z
loop_
_atom_site_type_symbol
_atom_site_label
_atom_site_fract_x
_atom_site_fract_y
_atom_site_fract_z
Si Si1 0.065225 0.170916 0.859106
Si Si2 0.243954 0.677611 0.868850
Si Si3 0.627226 0.328085 0.322966
Si Si4 0.521458 0.824410 0.151085
Si Si5 0.652301 0.325764 0.608940
Si Si6 0.444797 0.670563 0.411243
Si Si7 0.338401 0.324722 0.867166
O O1 0.079249 0.186838 0.748580
O O2 0.013574 0.258799 0.802680
O O3 0.056002 0.000000 0.879864
O O4 0.111105 0.241888 0.999660
O O5 0.244637 0.500000 0.881936
O O6 0.192316 0.727933 0.735052
O O7 0.288851 0.739306 0.854852
O O8 0.250000 0.750000 0.000000
O O9 0.610240 0.500000 0.288472
O O10 0.578030 0.227993 0.252107
O O11 0.659107 0.300440 0.484516
O O12 0.661864 0.283115 0.266589
O O13 0.519940 0.000000 0.156492
O O14 0.500000 0.765514 0.000000
O O15 0.658814 0.500000 0.651184
O O16 0.596657 0.265417 0.562733
O O17 0.500000 0.750966 0.500000
O O18 0.453566 0.500000 0.459298
O O19 0.339008 0.500000 0.887707
#
# Coordination Sequence:
#
# PCOD8083307 Si02
#       7
#     8   8   8   8   8   8   8
#     4  10  18  32  56  78 104 147 195 238 278 332
#     4  11  23  41  63  86 115 150 190 237 288 340
#     4  10  20  37  61  85 111 151 198 236 276 340
#     4  11  22  34  50  80 121 154 182 231 292 340
#     4  10  21  38  61  88 117 147 187 238 289 339
#     4   9  17  31  53  82 112 145 188 235 279 327
#     4   9  19  35  57  84 110 144 195 243 279 329
#
# _framework density 19.936595000000001
#
# number of rings (size 3 to 8) (size 9 to 14) (size 15 to 20)
#    0.000    2.000    1.429    2.571    0.000    6.286 
#    0.000    5.000    0.000    1.714    0.000    0.000 
#    0.000    0.000    0.000    0.000    0.000    0.000 
#
# Total GULP energy -347191.732488 kJ/mol
# GULP energy per Si atom -12399.704732 kJ/mol
# Density = 1.989122 g / cm^3
# Si number density = 19.936595 Si / 1000 Ang^3
#
#
#
# Elastic Constant Matrix: (Units=GPa)
#
#
# Indices 1 2 3 4 5 6 
#
# 1 158.9900 31.4281 62.0932 0.0000 -6.4289 0.0000
# 2 31.4281 48.5551 31.6671 0.0000 -1.6357 0.0000
# 3 62.0932 31.6671 123.1100 0.0000 -6.1741 0.0000
# 4 0.0000 0.0000 0.0000 26.3247 0.0000 4.7083
# 5 -6.4289 -1.6357 -6.1741 0.0000 33.4054 0.0000
# 6 0.0000 0.0000 0.0000 4.7083 0.0000 19.2968
#
#
#
# Elastic Compliance Matrix: (Units=1/GPa)
#
#
# Indices 1 2 3 4 5 6 
#
# 1 0.008235 -0.003149 -0.003302 0.000000 0.000820 0.000000
# 2 -0.003149 0.025951 -0.005101 0.000000 -0.000278 0.000000
# 3 -0.003302 -0.005101 0.011160 0.000000 0.001177 0.000000
# 4 0.000000 0.000000 0.000000 0.039721 0.000000 -0.009692
# 5 0.000820 -0.000278 0.001177 0.000000 0.030297 0.000000
# 6 0.000000 0.000000 0.000000 -0.009692 0.000000 0.054187
#
#
# Mechanical properties :
#
#
# Convention : Reuss Voigt Hill
#
# Bulk Modulus (GPa) = 44.96214 64.55910 54.76062
# Shear Modulus (GPa) = 24.99150 29.50315 27.24733
#
# Velocity S-wave (km/s) = 3.54439 3.85105 3.70090
# Velocity P-wave (km/s) = 6.27310 7.22680 6.76677
#
# Compressibility (1/GPa) = 0.02224094
#
# Stress axis : x y z
#
# Youngs Moduli (GPa) = 121.43176 38.53457 89.60882
#
# Poissons Ratio (x) = 0.12134 0.29593
# Poissons Ratio (y) = 0.38237 0.45709
# Poissons Ratio (z) = 0.40102 0.19656
#
# Static dielectric constant tensor:
#      x y z
#    x 3.897750 0.000000 -0.144550 
#    y 0.000000 3.236910 0.000000 
#    z -0.144550 0.000000 3.705350 
# 
# 
# High freq. dielectric constant tensor:
#      x y z
#    x 1.787390 0.000000 -0.009590 
#    y 0.000000 1.736200 0.000000 
#    z -0.009590 0.000000 1.785950 
# 
# From -- ./inp_files/187771.got.cif
#   From: 2010.06.25/outbox.cif.g09.slc.cpg/sg12_94_cif.got.tgz:187771.got - 2010.06.28 00:19:55.
