data_PCOD8083138
_publ_section_title
;
Structure prediction by ZEFSAII (Michael W. Deem and Ramdas Pophale) SiO2 
 PCOD8083138
Probable space group: C 2/M
;
_chemical_formula_sum "Si O2"
_cell_formula_units_Z 56
_cell_length_a 13.230730
_cell_length_b 13.903508
_cell_length_c 17.870091
_cell_angle_alpha 90.000000
_cell_angle_beta 119.514799
_cell_angle_gamma 90.000000
_cell_volume 2860.673241
_symmetry_space_group_name_H-M "C 2/M"
_symmetry_group_IT_number 12
_symmetry_cell_setting 'monoclinic'
loop_
_space_group_symop_operation_xyz
x,y,z
-x,y,-z
-x,-y,-z
x,-y,z
1/2+x,1/2+y,z
1/2-x,1/2+y,-z
1/2-x,1/2-y,-z
1/2+x,1/2-y,z
loop_
_atom_site_type_symbol
_atom_site_label
_atom_site_fract_x
_atom_site_fract_y
_atom_site_fract_z
Si Si1 0.577580 0.725880 0.247210
Si Si2 0.124270 0.106584 0.781445
Si Si3 0.431663 0.782986 0.598113
Si Si4 0.557493 0.223334 0.943410
Si Si5 0.171489 0.772050 0.653918
Si Si6 0.204369 0.886007 0.515356
Si Si7 0.780231 0.109102 0.025684
O O1 0.504156 0.628866 0.232591
O O2 0.548846 0.797950 0.305977
O O3 0.540496 0.777079 0.156625
O O4 0.715662 0.703591 0.299108
O O5 0.161308 0.175598 0.728976
O O6 0.214731 0.118614 0.882382
O O7 0.123772 0.000000 0.748834
O O8 0.554934 0.792684 0.599252
O O9 0.335523 0.859603 0.534623
O O10 0.385378 0.672608 0.569468
O O11 0.619106 0.327138 0.975757
O O12 0.500000 0.192601 0.000000
O O13 0.653762 0.145268 0.954088
O O14 0.185594 0.850071 0.593367
O O15 0.182074 0.000000 0.500862
O O16 0.798764 0.000000 0.005393
#
# Coordination Sequence:
#
# PCOD8083138 Si02
#       7
#     8   8   8   8   8   8   8
#     4   9  19  33  50  73 104 135 164 204 255 300
#     4   9  17  31  51  75 103 133 168 208 247 293
#     4   9  20  35  52  76 107 133 161 207 256 298
#     4  10  19  33  54  76  99 133 175 213 250 296
#     4  10  18  32  54  77 103 134 167 203 245 296
#     4  10  20  35  56  79 101 130 169 208 247 296
#     4   9  19  34  51  74 104 136 170 210 255 298
#
# _framework density 19.575811999999999
#
# number of rings (size 3 to 8) (size 9 to 14) (size 15 to 20)
#    0.000    2.571    0.000    1.714    0.000    5.143 
#    0.000    4.286    0.000   11.143    0.000    0.000 
#    0.000    0.000    0.000    0.000    0.000    0.000 
#
# Total GULP energy -347014.880750 kJ/mol
# GULP energy per Si atom -12393.388598 kJ/mol
# Density = 1.953126 g / cm^3
# Si number density = 19.575812 Si / 1000 Ang^3
#
#
#
# Elastic Constant Matrix: (Units=GPa)
#
#
# Indices 1 2 3 4 5 6 
#
# 1 114.1432 18.2043 21.4834 0.0000 19.7002 0.0000
# 2 18.2043 56.6909 8.6367 0.0000 1.7002 0.0000
# 3 21.4834 8.6367 76.6953 0.0000 10.4778 0.0000
# 4 0.0000 0.0000 0.0000 15.3837 0.0000 -2.5522
# 5 19.7002 1.7002 10.4778 0.0000 27.0023 0.0000
# 6 0.0000 0.0000 0.0000 -2.5522 0.0000 16.6275
#
#
#
# Elastic Compliance Matrix: (Units=1/GPa)
#
#
# Indices 1 2 3 4 5 6 
#
# 1 0.010770 -0.002986 -0.001724 0.000000 -0.007000 0.000000
# 2 -0.002986 0.018779 -0.001494 0.000000 0.001576 0.000000
# 3 -0.001724 -0.001494 0.014261 0.000000 -0.004182 0.000000
# 4 0.000000 0.000000 0.000000 0.066703 0.000000 0.010238
# 5 -0.007000 0.001576 -0.004182 0.000000 0.043665 0.000000
# 6 0.000000 0.000000 0.000000 0.010238 0.000000 0.061713
#
#
# Mechanical properties :
#
#
# Convention : Reuss Voigt Hill
#
# Bulk Modulus (GPa) = 31.84460 38.24203 35.04331
# Shear Modulus (GPa) = 20.94117 25.08301 23.01209
#
# Velocity S-wave (km/s) = 3.27425 3.58345 3.43233
# Velocity P-wave (km/s) = 5.53145 6.05799 5.80069
#
# Compressibility (1/GPa) = 0.03140250
#
# Stress axis : x y z
#
# Youngs Moduli (GPa) = 92.85192 53.25213 70.12094
#
# Poissons Ratio (x) = 0.15900 0.12090
# Poissons Ratio (y) = 0.27723 0.10473
# Poissons Ratio (z) = 0.16009 0.07954
#
# Static dielectric constant tensor:
#      x y z
#    x 3.762510 0.000000 0.118250 
#    y 0.000000 3.197630 0.000000 
#    z 0.118250 0.000000 3.727600 
# 
# 
# High freq. dielectric constant tensor:
#      x y z
#    x 1.768260 0.000000 0.007820 
#    y 0.000000 1.715600 0.000000 
#    z 0.007820 0.000000 1.775640 
# 
# From -- ./inp_files/262982.got.cif
#   From: 2010.06.25/outbox.cif.g09.slc.cpg/sg12_132_cif.got.tgz:262982.got - 2010.06.28 00:19:55.
