data_PCOD8083677
_publ_section_title
;
Structure prediction by ZEFSAII (Michael W. Deem and Ramdas Pophale) SiO2 
 PCOD8083677
Probable space group: C 2/M
;
_chemical_formula_sum "Si O2"
_cell_formula_units_Z 56
_cell_length_a 30.692214
_cell_length_b 14.216265
_cell_length_c 8.428107
_cell_angle_alpha 90.000000
_cell_angle_beta 51.279055
_cell_angle_gamma 90.000000
_cell_volume 2869.133208
_symmetry_space_group_name_H-M "C 2/M"
_symmetry_group_IT_number 12
_symmetry_cell_setting 'monoclinic'
loop_
_space_group_symop_operation_xyz
x,y,z
-x,y,-z
-x,-y,-z
x,-y,z
1/2+x,1/2+y,z
1/2-x,1/2+y,-z
1/2-x,1/2-y,-z
1/2+x,1/2-y,z
loop_
_atom_site_type_symbol
_atom_site_label
_atom_site_fract_x
_atom_site_fract_y
_atom_site_fract_z
Si Si1 0.508864 0.895962 0.793130
Si Si2 0.337420 0.606872 0.140542
Si Si3 0.877408 0.604572 0.353895
Si Si4 0.772337 0.170992 0.567761
Si Si5 0.097384 0.288354 0.017086
Si Si6 0.224105 0.666401 0.233932
Si Si7 0.314145 0.894359 0.008239
O O1 0.574405 0.868621 0.625102
O O2 0.496049 0.000000 0.748743
O O3 0.500000 0.899235 0.000000
O O4 0.468017 0.815659 0.813796
O O5 0.355272 0.500000 0.058395
O O6 0.317958 0.609561 0.370051
O O7 0.390797 0.676170 0.996509
O O8 0.287403 0.640912 0.139574
O O9 0.890492 0.500000 0.255429
O O10 0.877334 0.677589 0.208812
O O11 0.818490 0.597856 0.577589
O O12 0.750000 0.250000 0.500000
O O13 0.794741 0.228247 0.670178
O O14 0.722851 0.104767 0.746226
O O15 0.128455 0.340429 0.090066
O O16 0.218780 0.658554 0.057308
O O17 0.327476 0.000000 0.925458
#
# Coordination Sequence:
#
# PCOD8083677 Si02
#       7
#     8   8   8   8   8   8   8
#     4   8  16  30  52  79 103 133 174 217 262 318
#     4  11  21  35  53  76 106 143 183 222 263 307
#     4  10  18  33  56  78 105 140 174 212 266 323
#     4  10  19  35  51  70 101 143 177 217 251 309
#     4  11  19  33  52  77 104 138 181 221 258 310
#     4  11  21  36  49  78 113 143 172 211 267 323
#     4  12  22  32  51  79 112 144 172 212 264 323
#
# _framework density 19.518087999999999
#
# number of rings (size 3 to 8) (size 9 to 14) (size 15 to 20)
#    0.000    1.571    4.286    5.143    0.000    0.000 
#    0.000    0.714    0.000    6.429    0.000    0.000 
#    0.000    1.143    0.000    0.000    0.000    0.000 
#
# Total GULP energy -346947.836731 kJ/mol
# GULP energy per Si atom -12390.994169 kJ/mol
# Density = 1.947366 g / cm^3
# Si number density = 19.518088 Si / 1000 Ang^3
#
#
#
# Elastic Constant Matrix: (Units=GPa)
#
#
# Indices 1 2 3 4 5 6 
#
# 1 97.2321 64.3366 15.5726 0.0000 -2.9663 0.0000
# 2 64.3366 76.2432 2.3968 0.0000 -7.8790 0.0000
# 3 15.5726 2.3968 22.9062 0.0000 6.8191 0.0000
# 4 0.0000 0.0000 0.0000 21.8624 0.0000 -2.9750
# 5 -2.9663 -7.8790 6.8191 0.0000 27.9153 0.0000
# 6 0.0000 0.0000 0.0000 -2.9750 0.0000 25.3698
#
#
#
# Elastic Compliance Matrix: (Units=1/GPa)
#
#
# Indices 1 2 3 4 5 6 
#
# 1 0.028661 -0.023584 -0.017193 0.000000 0.000589 0.000000
# 2 -0.023584 0.033079 0.011365 0.000000 0.004054 0.000000
# 3 -0.017193 0.011365 0.057959 0.000000 -0.012777 0.000000
# 4 0.000000 0.000000 0.000000 0.046482 0.000000 0.005451
# 5 0.000589 0.004054 -0.012777 0.000000 0.040151 0.000000
# 6 0.000000 0.000000 0.000000 0.005451 0.000000 0.040056
#
#
# Mechanical properties :
#
#
# Convention : Reuss Voigt Hill
#
# Bulk Modulus (GPa) = 16.42679 40.11039 28.26859
# Shear Modulus (GPa) = 15.36083 22.63453 18.99768
#
# Velocity S-wave (km/s) = 2.80840 3.40909 3.12322
# Velocity P-wave (km/s) = 4.35323 6.00756 5.24602
#
# Compressibility (1/GPa) = 0.06087617
#
# Stress axis : x y z
#
# Youngs Moduli (GPa) = 34.89019 30.23095 17.25356
#
# Poissons Ratio (x) = 0.71297 0.29663
# Poissons Ratio (y) = 0.82285 -0.19609
# Poissons Ratio (z) = 0.59986 -0.34359
#
# Static dielectric constant tensor:
#      x y z
#    x 3.858410 0.000000 -0.107840 
#    y 0.000000 3.578760 0.000000 
#    z -0.107840 0.000000 3.488860 
# 
# 
# High freq. dielectric constant tensor:
#      x y z
#    x 1.748750 0.000000 0.005840 
#    y 0.000000 1.746670 0.000000 
#    z 0.005840 0.000000 1.729780 
# 
# From -- ./inp_files/104439.got.cif
#   From: 2010.06.25/outbox.cif.g09.slc.cpg/sg12_53_cif.got.tgz:104439.got - 2010.06.28 00:19:55.
