data_PCOD8083652
_publ_section_title
;
Structure prediction by ZEFSAII (Michael W. Deem and Ramdas Pophale) SiO2 
 PCOD8083652
Probable space group: C 2/M
;
_chemical_formula_sum "Si O2"
_cell_formula_units_Z 56
_cell_length_a 19.645416
_cell_length_b 8.799825
_cell_length_c 29.406578
_cell_angle_alpha 90.000000
_cell_angle_beta 146.588087
_cell_angle_gamma 90.000000
_cell_volume 2799.360290
_symmetry_space_group_name_H-M "C 2/M"
_symmetry_group_IT_number 12
_symmetry_cell_setting 'monoclinic'
loop_
_space_group_symop_operation_xyz
x,y,z
-x,y,-z
-x,-y,-z
x,-y,z
1/2+x,1/2+y,z
1/2-x,1/2+y,-z
1/2-x,1/2-y,-z
1/2+x,1/2-y,z
loop_
_atom_site_type_symbol
_atom_site_label
_atom_site_fract_x
_atom_site_fract_y
_atom_site_fract_z
Si Si1 0.170214 0.320805 0.496073
Si Si2 0.908524 0.180282 0.368825
Si Si3 0.055938 0.319722 0.934928
Si Si4 0.738099 0.178665 0.635482
Si Si5 0.732268 0.678465 0.881452
Si Si6 0.711349 0.180629 0.185537
Si Si7 0.506894 0.677593 0.814728
O O1 0.162478 0.500000 0.484145
O O2 0.250000 0.250000 0.500000
O O3 0.232605 0.280484 0.579194
O O4 0.033863 0.251797 0.420076
O O5 0.872535 0.237902 0.399234
O O6 0.801930 0.239250 0.275427
O O7 0.922440 0.000000 0.377382
O O8 0.059798 0.500000 0.935964
O O9 0.926113 0.258903 0.881926
O O10 0.070963 0.260685 0.892399
O O11 0.165803 0.252057 0.027262
O O12 0.869843 0.238989 0.727526
O O13 0.722164 0.000000 0.634232
O O14 0.757326 0.500000 0.892881
O O15 0.746664 0.749763 0.839411
O O16 0.593466 0.714292 0.819951
O O17 0.714911 0.000000 0.186570
O O18 0.503289 0.500000 0.823241
#
# Coordination Sequence:
#
# PCOD8083652 Si02
#       7
#     8   8   8   8   8   8   8
#     4  11  25  43  64  91 120 152 189 235 290 347
#     4  11  22  38  63  90 118 153 195 241 288 340
#     4  10  18  33  55  82 111 145 190 240 284 331
#     4  10  22  40  61  83 116 157 197 236 285 349
#     4   9  18  31  53  80 111 150 192 234 282 337
#     4   9  18  32  54  83 113 146 190 238 281 333
#     4  10  20  34  55  81 110 150 189 230 283 343
#
# _framework density 20.004572
#
# number of rings (size 3 to 8) (size 9 to 14) (size 15 to 20)
#    0.000    2.000    1.429    2.143    2.000    4.571 
#    0.000    0.000    0.000    4.286    0.000    0.000 
#    0.000    0.000    0.000    0.000    0.000    0.000 
#
# Total GULP energy -347229.964640 kJ/mol
# GULP energy per Si atom -12401.070166 kJ/mol
# Density = 1.995904 g / cm^3
# Si number density = 20.004572 Si / 1000 Ang^3
#
#
#
# Elastic Constant Matrix: (Units=GPa)
#
#
# Indices 1 2 3 4 5 6 
#
# 1 150.1778 41.6733 51.5901 0.0000 -0.9531 0.0001
# 2 41.6733 43.4161 31.1906 -0.0001 0.3869 0.0004
# 3 51.5901 31.1906 102.8099 0.0000 4.1110 0.0000
# 4 0.0000 -0.0001 0.0000 24.3040 0.0000 -1.2183
# 5 -0.9531 0.3869 4.1110 0.0000 38.8741 0.0000
# 6 0.0001 0.0004 0.0000 -1.2183 0.0000 28.4028
#
#
#
# Elastic Compliance Matrix: (Units=1/GPa)
#
#
# Indices 1 2 3 4 5 6 
#
# 1 0.009597 -0.007340 -0.002612 0.000000 0.000585 0.000000
# 2 -0.007340 0.035083 -0.006969 0.000000 0.000208 0.000000
# 3 -0.002612 -0.006969 0.013207 0.000000 -0.001391 0.000000
# 4 0.000000 0.000000 0.000000 0.041234 0.000000 0.001769
# 5 0.000585 0.000208 -0.001391 0.000000 0.025883 0.000000
# 6 0.000000 0.000000 0.000000 0.001769 0.000000 0.035284
#
#
# Mechanical properties :
#
#
# Convention : Reuss Voigt Hill
#
# Bulk Modulus (GPa) = 41.58834 60.59020 51.08927
# Shear Modulus (GPa) = 24.73479 29.77949 27.25714
#
# Velocity S-wave (km/s) = 3.52014 3.86247 3.69527
# Velocity P-wave (km/s) = 6.11199 7.08840 6.61823
#
# Compressibility (1/GPa) = 0.02404520
#
# Stress axis : x y z
#
# Youngs Moduli (GPa) = 104.20324 28.50405 75.71608
#
# Poissons Ratio (x) = 0.20922 0.19778
# Poissons Ratio (y) = 0.76485 0.52763
# Poissons Ratio (z) = 0.27219 0.19863
#
# Static dielectric constant tensor:
#      x y z
#    x 3.777130 0.000000 -0.026030 
#    y 0.000000 3.284790 0.000000 
#    z -0.026030 0.000000 3.887770 
# 
# 
# High freq. dielectric constant tensor:
#      x y z
#    x 1.796200 0.000000 0.001400 
#    y 0.000000 1.743720 0.000000 
#    z 0.001400 0.000000 1.792940 
# 
# From -- ./inp_files/275176.got.cif
#   From: 2010.06.25/outbox.cif.g09.slc.cpg/sg12_138_cif.got.tgz:275176.got - 2010.06.28 00:19:55.
