data_PCOD8083088
_publ_section_title
;
Structure prediction by ZEFSAII (Michael W. Deem and Ramdas Pophale) SiO2 
 PCOD8083088
Probable space group: C 2/M
;
_chemical_formula_sum "Si O2"
_cell_formula_units_Z 56
_cell_length_a 20.571385
_cell_length_b 13.796348
_cell_length_c 22.167465
_cell_angle_alpha 90.000000
_cell_angle_beta 151.769905
_cell_angle_gamma 90.000000
_cell_volume 2975.893202
_symmetry_space_group_name_H-M "C 2/M"
_symmetry_group_IT_number 12
_symmetry_cell_setting 'monoclinic'
loop_
_space_group_symop_operation_xyz
x,y,z
-x,y,-z
-x,-y,-z
x,-y,z
1/2+x,1/2+y,z
1/2-x,1/2+y,-z
1/2-x,1/2-y,-z
1/2+x,1/2-y,z
loop_
_atom_site_type_symbol
_atom_site_label
_atom_site_fract_x
_atom_site_fract_y
_atom_site_fract_z
Si Si1 0.656697 0.609991 0.608172
Si Si2 0.453169 0.784300 0.682796
Si Si3 0.420682 0.799861 0.873578
Si Si4 0.298747 0.222984 0.446381
Si Si5 0.902664 0.889427 0.795015
Si Si6 0.581344 0.889630 0.893350
Si Si7 0.599217 0.609041 0.845686
O O1 0.500000 0.608745 0.500000
O O2 0.700340 0.500000 0.625765
O O3 0.769685 0.649420 0.749740
O O4 0.653062 0.683635 0.550433
O O5 0.424137 0.818767 0.590088
O O6 0.311636 0.767788 0.599988
O O7 0.534889 0.864178 0.787591
O O8 0.533785 0.682362 0.744485
O O9 0.410784 0.682702 0.859211
O O10 0.503505 0.830200 0.881326
O O11 0.500000 0.827985 0.000000
O O12 0.237411 0.136490 0.355759
O O13 0.034771 0.874679 0.859588
O O14 0.893139 0.000000 0.810455
O O15 0.548050 0.000000 0.879780
O O16 0.741287 0.866760 0.023596
O O17 0.569372 0.500000 0.799037
#
# Coordination Sequence:
#
# PCOD8083088 Si02
#       7
#     8   8   8   8   8   8   8
#     4  10  21  39  58  79 113 152 186 224 270 326
#     4  10  18  32  53  78 110 141 175 219 270 323
#     4  11  23  38  57  82 108 144 190 231 270 320
#     4   9  19  33  53  82 105 138 182 221 268 321
#     4   9  18  37  59  79 109 139 175 225 273 323
#     4  11  21  34  54  79 113 147 175 220 276 326
#     4   9  18  32  53  81 110 142 175 214 271 325
#
# _framework density 18.817879999999999
#
# number of rings (size 3 to 8) (size 9 to 14) (size 15 to 20)
#    0.000    2.143    4.286    0.857    0.000    3.714 
#    0.000    5.714    0.000    6.857    0.000    0.000 
#    0.000    0.000    0.000    0.000    0.000    0.000 
#
# Total GULP energy -346908.644875 kJ/mol
# GULP energy per Si atom -12389.594460 kJ/mol
# Density = 1.877505 g / cm^3
# Si number density = 18.817880 Si / 1000 Ang^3
#
#
#
# Elastic Constant Matrix: (Units=GPa)
#
#
# Indices 1 2 3 4 5 6 
#
# 1 52.0404 15.9913 25.3092 0.0008 -0.7600 -0.0001
# 2 15.9913 109.8282 63.8355 0.0005 -2.4610 0.0002
# 3 25.3092 63.8355 159.1834 0.0012 -22.2388 0.0002
# 4 0.0008 0.0005 0.0012 23.2391 0.0007 6.0698
# 5 -0.7600 -2.4610 -22.2388 0.0007 36.7516 -0.0002
# 6 -0.0001 0.0002 0.0002 6.0698 -0.0002 16.8842
#
#
#
# Elastic Compliance Matrix: (Units=1/GPa)
#
#
# Indices 1 2 3 4 5 6 
#
# 1 0.021076 -0.001348 -0.003017 -0.000001 -0.001480 0.000000
# 2 -0.001348 0.012136 -0.004962 0.000000 -0.002218 0.000000
# 3 -0.003017 -0.004962 0.009500 0.000000 0.005354 0.000000
# 4 -0.000001 0.000000 0.000000 0.047490 -0.000001 -0.017072
# 5 -0.001480 -0.002218 0.005354 -0.000001 0.030270 0.000001
# 6 0.000000 0.000000 0.000000 -0.017072 0.000001 0.065364
#
#
# Mechanical properties :
#
#
# Convention : Reuss Voigt Hill
#
# Bulk Modulus (GPa) = 41.56908 59.03601 50.30254
# Shear Modulus (GPa) = 23.52837 29.76941 26.64889
#
# Velocity S-wave (km/s) = 3.53982 3.98172 3.76726
# Velocity P-wave (km/s) = 6.23260 7.25115 6.76108
#
# Compressibility (1/GPa) = 0.02405634
#
# Stress axis : x y z
#
# Youngs Moduli (GPa) = 47.44777 82.39990 105.26727
#
# Poissons Ratio (x) = 0.11110 0.31759
# Poissons Ratio (y) = 0.06397 0.52236
# Poissons Ratio (z) = 0.14315 0.40889
#
# Static dielectric constant tensor:
#      x y z
#    x 3.067310 0.000000 -0.002670 
#    y 0.000000 3.617910 0.000000 
#    z -0.002670 0.000000 3.844430 
# 
# 
# High freq. dielectric constant tensor:
#      x y z
#    x 1.695460 0.000000 0.005160 
#    y 0.000000 1.737070 0.000000 
#    z 0.005160 0.000000 1.741260 
# 
# From -- ./inp_files/316768.got.cif
#   From: 2010.06.25/outbox.cif.g09.slc.cpg/sg12_159_cif.got.tgz:316768.got - 2010.06.28 00:19:55.
