data_PCOD8083168
_publ_section_title
;
Structure prediction by ZEFSAII (Michael W. Deem and Ramdas Pophale) SiO2 
 PCOD8083168
Probable space group: C 2/M
;
_chemical_formula_sum "Si O2"
_cell_formula_units_Z 48
_cell_length_a 13.860334
_cell_length_b 18.449712
_cell_length_c 10.255123
_cell_angle_alpha 90.000000
_cell_angle_beta 81.795061
_cell_angle_gamma 90.000000
_cell_volume 2595.588160
_symmetry_space_group_name_H-M "C 2/M"
_symmetry_group_IT_number 12
_symmetry_cell_setting 'monoclinic'
loop_
_space_group_symop_operation_xyz
x,y,z
-x,y,-z
-x,-y,-z
x,-y,z
1/2+x,1/2+y,z
1/2-x,1/2+y,-z
1/2-x,1/2-y,-z
1/2+x,1/2-y,z
loop_
_atom_site_type_symbol
_atom_site_label
_atom_site_fract_x
_atom_site_fract_y
_atom_site_fract_z
Si Si1 0.537178 0.795641 0.264915
Si Si2 0.902820 0.825592 0.258356
Si Si3 0.554986 0.578960 0.124523
Si Si4 0.427340 0.080414 0.394043
Si Si5 0.643356 0.718310 0.022562
Si Si6 0.708602 0.181691 0.432913
O O1 0.455251 0.738175 0.331600
O O2 0.483651 0.873962 0.271165
O O3 0.575720 0.775056 0.114129
O O4 0.624669 0.793630 0.350945
O O5 0.798887 0.850904 0.332896
O O6 0.974014 0.895219 0.245054
O O7 0.896095 0.791402 0.114811
O O8 0.597890 0.500000 0.157882
O O9 0.640318 0.639665 0.096571
O O10 0.500000 0.570687 0.000000
O O11 0.500000 0.074051 0.500000
O O12 0.328460 0.120535 0.459308
O O13 0.401385 0.000000 0.345947
O O14 0.750000 0.750000 0.000000
O O15 0.750000 0.250000 0.500000
#
# Coordination Sequence:
#
# PCOD8083168 Si02
#       6
#     8   8   8   8   8   8
#     4  10  19  34  54  75 107 137 171 220 262 306
#     4  10  19  32  54  80 104 137 172 216 262 318
#     4   8  16  30  48  74 108 135 164 212 263 302
#     4   9  19  34  51  76 108 139 175 218 261 306
#     4  10  18  32  54  80 104 137 179 216 260 310
#     4  11  20  32  54  81 102 135 177 216 260 311
#
# _framework density 18.492919000000001
#
# number of rings (size 3 to 8) (size 9 to 14) (size 15 to 20)
#    0.000    2.333    3.333    1.500    0.000    0.667 
#    0.000    0.833    0.000   11.000    0.000    5.833 
#    0.000    0.000    0.000    0.000    0.000    0.000 
#
# Total GULP energy -297386.959762 kJ/mol
# GULP energy per Si atom -12391.123323 kJ/mol
# Density = 1.845083 g / cm^3
# Si number density = 18.492919 Si / 1000 Ang^3
#
#
#
# Elastic Constant Matrix: (Units=GPa)
#
#
# Indices 1 2 3 4 5 6 
#
# 1 94.9491 55.6220 30.7672 0.0000 -31.1881 0.0000
# 2 55.6220 169.3623 50.5979 0.0000 -30.8039 0.0000
# 3 30.7672 50.5979 71.8065 0.0000 -29.5585 0.0000
# 4 0.0000 0.0000 0.0000 17.7159 0.0000 -6.4300
# 5 -31.1881 -30.8039 -29.5585 0.0000 27.6304 0.0000
# 6 0.0000 0.0000 0.0000 -6.4300 0.0000 24.5779
#
#
#
# Elastic Compliance Matrix: (Units=1/GPa)
#
#
# Indices 1 2 3 4 5 6 
#
# 1 0.017928 -0.003098 0.002519 0.000000 0.019478 0.000000
# 2 -0.003098 0.008392 -0.003885 0.000000 0.001703 0.000000
# 3 0.002519 -0.003885 0.026753 0.000000 0.027132 0.000000
# 4 0.000000 0.000000 0.000000 0.062368 0.000000 0.016317
# 5 0.019478 0.001703 0.027132 0.000000 0.089102 0.000000
# 6 0.000000 0.000000 0.000000 0.016317 0.000000 0.044956
#
#
# Mechanical properties :
#
#
# Convention : Reuss Voigt Hill
#
# Bulk Modulus (GPa) = 22.65210 67.78802 45.22006
# Shear Modulus (GPa) = 18.30535 27.26023 22.78279
#
# Velocity S-wave (km/s) = 3.14961 3.84355 3.51376
# Velocity P-wave (km/s) = 5.04999 7.51219 6.40060
#
# Compressibility (1/GPa) = 0.04414601
#
# Stress axis : x y z
#
# Youngs Moduli (GPa) = 55.77721 119.15502 37.37849
#
# Poissons Ratio (x) = 0.36914 -0.09416
# Poissons Ratio (y) = 0.17280 0.14522
# Poissons Ratio (z) = -0.14050 0.46293
#
# Static dielectric constant tensor:
#      x y z
#    x 3.570800 0.000000 -0.326040 
#    y 0.000000 4.189610 0.000000 
#    z -0.326040 0.000000 3.406080 
# 
# 
# High freq. dielectric constant tensor:
#      x y z
#    x 1.709610 0.000000 -0.026070 
#    y 0.000000 1.710340 0.000000 
#    z -0.026070 0.000000 1.702080 
# 
# From -- ./inp_files/144789.got.cif
#   From: 2010.06.25/outbox.cif.g09.slc.cpg/sg12_73_cif.got.tgz:144789.got - 2010.06.28 00:19:55.
