data_PCOD8083816
_publ_section_title
;
Structure prediction by ZEFSAII (Michael W. Deem and Ramdas Pophale) SiO2 
 PCOD8083816
Probable space group: C 2/M
;
_chemical_formula_sum "Si O2"
_cell_formula_units_Z 64
_cell_length_a 23.111961
_cell_length_b 10.202074
_cell_length_c 16.055590
_cell_angle_alpha 90.000000
_cell_angle_beta 118.086766
_cell_angle_gamma 90.000000
_cell_volume 3339.920508
_symmetry_space_group_name_H-M "C 2/M"
_symmetry_group_IT_number 12
_symmetry_cell_setting 'monoclinic'
loop_
_space_group_symop_operation_xyz
x,y,z
-x,y,-z
-x,-y,-z
x,-y,z
1/2+x,1/2+y,z
1/2-x,1/2+y,-z
1/2-x,1/2-y,-z
1/2+x,1/2-y,z
loop_
_atom_site_type_symbol
_atom_site_label
_atom_site_fract_x
_atom_site_fract_y
_atom_site_fract_z
Si Si1 0.912694 0.656890 0.608039
Si Si2 0.476357 0.348456 0.071691
Si Si3 0.103923 0.850497 0.261480
Si Si4 0.222885 0.150529 0.223467
Si Si5 0.744847 0.141259 0.097094
Si Si6 0.139942 0.732584 0.907338
Si Si7 0.939939 0.350563 0.302868
Si Si8 0.855103 0.346009 0.394530
O O1 0.906248 0.500000 0.621048
O O2 0.878616 0.741702 0.657626
O O3 0.876948 0.703670 0.499647
O O4 0.987417 0.709211 0.654357
O O5 0.461771 0.500000 0.046541
O O6 0.530814 0.325831 0.179043
O O7 0.408678 0.285315 0.054940
O O8 0.500000 0.285021 0.000000
O O9 0.152853 0.828675 0.217883
O O10 0.111386 0.000000 0.300917
O O11 0.227614 0.239908 0.145859
O O12 0.279406 0.191261 0.327469
O O13 0.232825 0.000000 0.201275
O O14 0.818121 0.153417 0.109128
O O15 0.741588 0.000000 0.140735
O O16 0.692037 0.136957 0.986485
O O17 0.098562 0.656956 0.809714
O O18 0.950478 0.500000 0.334503
O O19 0.899592 0.281918 0.351013
O O20 0.865286 0.500000 0.398628
#
# Coordination Sequence:
#
# PCOD8083816 Si02
#       8
#     8   8   8   8   8   8   8   8
#     4  10  20  35  59  87 115 147 193 241 285 332
#     4  10  20  36  57  80 108 149 196 231 267 329
#     4  10  21  37  57  82 114 152 194 235 281 339
#     4  10  21  39  61  82 112 156 198 233 280 342
#     4  11  24  37  56  89 120 145 186 240 290 337
#     4  11  21  36  58  81 115 155 183 225 285 347
#     4  10  18  33  58  85 112 147 188 232 280 338
#     4   9  18  34  58  86 111 146 195 240 279 335
#
# _framework density 19.162132
#
# number of rings (size 3 to 8) (size 9 to 14) (size 15 to 20)
#    0.000    1.875    2.500    1.875    0.000    6.000 
#    0.000    0.625    0.000    2.625    0.000    0.000 
#    0.000    0.000    0.000    0.000    0.000    0.000 
#
# Total GULP energy -396702.826521 kJ/mol
# GULP energy per Si atom -12396.963329 kJ/mol
# Density = 1.911852 g / cm^3
# Si number density = 19.162132 Si / 1000 Ang^3
#
#
#
# Elastic Constant Matrix: (Units=GPa)
#
#
# Indices 1 2 3 4 5 6 
#
# 1 96.3360 30.7738 18.5632 0.0000 -6.8913 0.0000
# 2 30.7738 71.5084 31.9120 0.0000 -11.2391 0.0000
# 3 18.5632 31.9120 88.4696 0.0000 -5.8839 0.0000
# 4 0.0000 0.0000 0.0000 26.9342 0.0000 -7.1450
# 5 -6.8913 -11.2391 -5.8839 0.0000 36.2235 0.0000
# 6 0.0000 0.0000 0.0000 -7.1450 0.0000 15.4072
#
#
#
# Elastic Compliance Matrix: (Units=1/GPa)
#
#
# Indices 1 2 3 4 5 6 
#
# 1 0.012097 -0.004748 -0.000779 0.000000 0.000702 0.000000
# 2 -0.004748 0.019201 -0.005655 0.000000 0.004136 0.000000
# 3 -0.000779 -0.005655 0.013526 0.000000 0.000294 0.000000
# 4 0.000000 0.000000 0.000000 0.042336 0.000000 0.019633
# 5 0.000702 0.004136 0.000294 0.000000 0.029071 0.000000
# 6 0.000000 0.000000 0.000000 0.019633 0.000000 0.074009
#
#
# Mechanical properties :
#
#
# Convention : Reuss Voigt Hill
#
# Bulk Modulus (GPa) = 44.52174 46.53466 45.52820
# Shear Modulus (GPa) = 22.71781 27.38398 25.05090
#
# Velocity S-wave (km/s) = 3.44693 3.78440 3.61960
# Velocity P-wave (km/s) = 6.25511 6.59037 6.42493
#
# Compressibility (1/GPa) = 0.02246094
#
# Stress axis : x y z
#
# Youngs Moduli (GPa) = 82.66227 52.07961 73.93121
#
# Poissons Ratio (x) = 0.24729 0.05759
# Poissons Ratio (y) = 0.39250 0.41807
# Poissons Ratio (z) = 0.06439 0.29450
#
# Static dielectric constant tensor:
#      x y z
#    x 3.666530 0.000000 0.044930 
#    y 0.000000 3.166960 0.000000 
#    z 0.044930 0.000000 3.561610 
# 
# 
# High freq. dielectric constant tensor:
#      x y z
#    x 1.758790 0.000000 0.005950 
#    y 0.000000 1.708960 0.000000 
#    z 0.005950 0.000000 1.748180 
# 
# From -- ./inp_files/175314.got.cif
#   From: 2010.06.25/outbox.cif.g09.slc.cpg/sg12_88_cif.got.tgz:175314.got - 2010.06.28 00:19:55.
