data_PCOD8083591
_publ_section_title
;
Structure prediction by ZEFSAII (Michael W. Deem and Ramdas Pophale) SiO2 
 PCOD8083591
Probable space group: C 2/M
;
_chemical_formula_sum "Si O2"
_cell_formula_units_Z 40
_cell_length_a 20.371822
_cell_length_b 8.899105
_cell_length_c 12.494415
_cell_angle_alpha 90.000000
_cell_angle_beta 76.687309
_cell_angle_gamma 90.000000
_cell_volume 2204.256102
_symmetry_space_group_name_H-M "C 2/M"
_symmetry_group_IT_number 12
_symmetry_cell_setting 'monoclinic'
loop_
_space_group_symop_operation_xyz
x,y,z
-x,y,-z
-x,-y,-z
x,-y,z
1/2+x,1/2+y,z
1/2-x,1/2+y,-z
1/2-x,1/2-y,-z
1/2+x,1/2-y,z
loop_
_atom_site_type_symbol
_atom_site_label
_atom_site_fract_x
_atom_site_fract_y
_atom_site_fract_z
Si Si1 0.425425 0.326563 0.061854
Si Si2 0.920758 0.330995 0.510128
Si Si3 0.602945 0.323608 0.270010
Si Si4 0.678886 0.177613 0.051546
Si Si5 0.050655 0.828011 0.705645
O O1 0.413319 0.500000 0.033051
O O2 0.415559 0.302668 0.192075
O O3 0.500000 0.276617 0.000000
O O4 0.372665 0.221503 0.022532
O O5 0.892829 0.500000 0.527585
O O6 0.883824 0.230462 0.613419
O O7 0.906817 0.267292 0.396601
O O8 0.000000 0.323831 0.500000
O O9 0.616416 0.500000 0.256479
O O10 0.654621 0.237086 0.175132
O O11 0.527708 0.279636 0.260023
O O12 0.686166 0.000000 0.053736
O O13 0.750000 0.250000 0.000000
O O14 0.054378 0.000000 0.667274
#
# Coordination Sequence:
#
# PCOD8083591 Si02
#       5
#     8   8   8   8   8
#     4  10  19  36  58  82 112 146 183 226 276 327
#     4   9  17  28  45  75 111 142 177 224 271 316
#     4  10  18  33  54  77 107 144 184 224 272 326
#     4  12  25  39  56  80 111 148 188 228 276 329
#     4   9  17  30  52  79 109 144 179 219 271 326
#
# _framework density 18.146709999999999
#
# number of rings (size 3 to 8) (size 9 to 14) (size 15 to 20)
#    0.000    2.000    2.000    3.000    0.000    4.400 
#    0.000    0.000    0.000    1.200    0.000    0.000 
#    0.000    0.000    0.000    0.000    0.000    0.000 
#
# Total GULP energy -248044.236311 kJ/mol
# GULP energy per Si atom -12402.211816 kJ/mol
# Density = 1.810541 g / cm^3
# Si number density = 18.146710 Si / 1000 Ang^3
#
#
#
# Elastic Constant Matrix: (Units=GPa)
#
#
# Indices 1 2 3 4 5 6 
#
# 1 69.1203 47.7698 48.2459 0.0000 -9.1556 0.0000
# 2 47.7698 126.4593 67.7028 0.0000 -9.4956 0.0000
# 3 48.2459 67.7028 137.0289 0.0000 -7.2181 0.0000
# 4 0.0000 0.0000 0.0000 38.5242 0.0000 -0.5104
# 5 -9.1556 -9.4956 -7.2181 0.0000 16.5999 0.0000
# 6 0.0000 0.0000 0.0000 -0.5104 0.0000 23.9282
#
#
#
# Elastic Compliance Matrix: (Units=1/GPa)
#
#
# Indices 1 2 3 4 5 6 
#
# 1 0.022553 -0.005341 -0.004920 0.000000 0.007244 0.000000
# 2 -0.005341 0.012273 -0.004062 0.000000 0.002309 0.000000
# 3 -0.004920 -0.004062 0.011024 0.000000 -0.000243 0.000000
# 4 0.000000 0.000000 0.000000 0.025965 0.000000 0.000554
# 5 0.007244 0.002309 -0.000243 0.000000 0.065452 0.000000
# 6 0.000000 0.000000 0.000000 0.000554 0.000000 0.041803
#
#
# Mechanical properties :
#
#
# Convention : Reuss Voigt Hill
#
# Bulk Modulus (GPa) = 58.12605 73.33840 65.73223
# Shear Modulus (GPa) = 23.42468 27.06981 25.24725
#
# Velocity S-wave (km/s) = 3.59674 3.86647 3.73404
# Velocity P-wave (km/s) = 7.02491 7.77397 7.40892
#
# Compressibility (1/GPa) = 0.01720399
#
# Stress axis : x y z
#
# Youngs Moduli (GPa) = 44.34096 81.47819 90.71199
#
# Poissons Ratio (x) = 0.43520 0.44629
# Poissons Ratio (y) = 0.23684 0.36845
# Poissons Ratio (z) = 0.21815 0.33094
#
# Static dielectric constant tensor:
#      x y z
#    x 2.576760 0.000000 -0.159410 
#    y 0.000000 3.402940 0.000000 
#    z -0.159410 0.000000 3.501290 
# 
# 
# High freq. dielectric constant tensor:
#      x y z
#    x 1.650400 0.000000 0.000830 
#    y 0.000000 1.708890 0.000000 
#    z 0.000830 0.000000 1.723400 
# 
# From -- ./inp_files/151703.got.cif
#   From: 2010.06.25/outbox.cif.g09.slc.cpg/sg12_76_cif.got.tgz:151703.got - 2010.06.28 00:19:55.
