data_PCOD8083810
_publ_section_title
;
Structure prediction by ZEFSAII (Michael W. Deem and Ramdas Pophale) SiO2 
 PCOD8083810
Probable space group: C 2/M
;
_chemical_formula_sum "Si O2"
_cell_formula_units_Z 56
_cell_length_a 19.922809
_cell_length_b 8.414719
_cell_length_c 21.353575
_cell_angle_alpha 90.000000
_cell_angle_beta 126.370363
_cell_angle_gamma 90.000000
_cell_volume 2882.470672
_symmetry_space_group_name_H-M "C 2/M"
_symmetry_group_IT_number 12
_symmetry_cell_setting 'monoclinic'
loop_
_space_group_symop_operation_xyz
x,y,z
-x,y,-z
-x,-y,-z
x,-y,z
1/2+x,1/2+y,z
1/2-x,1/2+y,-z
1/2-x,1/2-y,-z
1/2+x,1/2-y,z
loop_
_atom_site_type_symbol
_atom_site_label
_atom_site_fract_x
_atom_site_fract_y
_atom_site_fract_z
Si Si1 0.493478 0.814169 0.196515
Si Si2 0.250841 0.815497 0.625709
Si Si3 0.158394 0.187901 0.953674
Si Si4 0.425252 0.186503 0.501888
Si Si5 0.091666 0.811526 0.047844
Si Si6 0.595365 0.187033 0.370665
Si Si7 0.856021 0.184353 0.790758
O O1 0.397722 0.767388 0.131787
O O2 0.519408 0.769324 0.282077
O O3 0.549447 0.712350 0.179895
O O4 0.509363 0.000000 0.193668
O O5 0.164736 0.720064 0.577465
O O6 0.316410 0.749762 0.609457
O O7 0.291310 0.790902 0.716322
O O8 0.231755 0.000000 0.604781
O O9 0.152873 0.000000 0.943821
O O10 0.250000 0.250000 0.000000
O O11 0.131444 0.251916 0.006450
O O12 0.500000 0.259785 0.500000
O O13 0.425050 0.261524 0.572299
O O14 0.440219 0.000000 0.514738
O O15 0.147572 0.761107 0.138665
O O16 0.084550 0.000000 0.043787
O O17 0.000000 0.734903 0.000000
O O18 0.605145 0.000000 0.382792
O O19 0.832787 0.000000 0.769353
#
# Coordination Sequence:
#
# PCOD8083810 Si02
#       7
#     8   8   8   8   8   8   8
#     4  10  19  34  55  81 112 143 177 223 278 323
#     4  10  20  35  55  80 112 141 173 220 273 321
#     4  11  22  38  56  78 110 146 187 226 268 321
#     4  10  20  36  57  80 106 139 182 220 259 320
#     4   9  17  33  57  81 105 139 182 227 268 313
#     4   8  17  34  56  80 105 137 177 220 264 315
#     4  10  18  33  58  84 107 138 184 228 268 315
#
# _framework density 19.427776999999999
#
# number of rings (size 3 to 8) (size 9 to 14) (size 15 to 20)
#    0.000    2.286    1.429    3.000    0.000    0.286 
#    2.571    7.143    0.000    0.000    0.000    0.000 
#    0.000    0.000    0.000    0.000    0.000    0.000 
#
# Total GULP energy -347098.040287 kJ/mol
# GULP energy per Si atom -12396.358582 kJ/mol
# Density = 1.938356 g / cm^3
# Si number density = 19.427777 Si / 1000 Ang^3
#
#
#
# Elastic Constant Matrix: (Units=GPa)
#
#
# Indices 1 2 3 4 5 6 
#
# 1 137.3537 11.0930 80.3707 0.0000 2.7593 0.0000
# 2 11.0930 28.3671 12.1396 0.0000 -6.0129 0.0000
# 3 80.3707 12.1396 136.0961 0.0000 3.9985 0.0000
# 4 0.0000 0.0000 0.0000 26.6047 0.0000 5.3005
# 5 2.7593 -6.0129 3.9985 0.0000 30.2013 0.0000
# 6 0.0000 0.0000 0.0000 5.3005 0.0000 21.8960
#
#
#
# Elastic Compliance Matrix: (Units=1/GPa)
#
#
# Indices 1 2 3 4 5 6 
#
# 1 0.011202 -0.001731 -0.006446 0.000000 -0.000515 0.000000
# 2 -0.001731 0.038825 -0.002683 0.000000 0.008243 0.000000
# 3 -0.006446 -0.002683 0.011437 0.000000 -0.001459 0.000000
# 4 0.000000 0.000000 0.000000 0.039492 0.000000 -0.009560
# 5 -0.000515 0.008243 -0.001459 0.000000 0.034993 0.000000
# 6 0.000000 0.000000 0.000000 -0.009560 0.000000 0.047985
#
#
# Mechanical properties :
#
#
# Convention : Reuss Voigt Hill
#
# Bulk Modulus (GPa) = 25.16151 56.55816 40.85983
# Shear Modulus (GPa) = 22.84141 28.95465 25.89803
#
# Velocity S-wave (km/s) = 3.43258 3.86472 3.65504
# Velocity P-wave (km/s) = 5.35626 7.00643 6.23617
#
# Compressibility (1/GPa) = 0.03974325
#
# Stress axis : x y z
#
# Youngs Moduli (GPa) = 89.26658 25.75688 87.43897
#
# Poissons Ratio (x) = 0.04459 0.56363
# Poissons Ratio (y) = 0.15455 0.23459
# Poissons Ratio (z) = 0.57541 0.06910
#
# Static dielectric constant tensor:
#      x y z
#    x 3.514300 0.000000 -0.181630 
#    y 0.000000 3.241680 0.000000 
#    z -0.181630 0.000000 3.725350 
# 
# 
# High freq. dielectric constant tensor:
#      x y z
#    x 1.737440 0.000000 -0.003510 
#    y 0.000000 1.732030 0.000000 
#    z -0.003510 0.000000 1.772110 
# 
# From -- ./inp_files/275020.got.cif
#   From: 2010.06.25/outbox.cif.g09.slc.cpg/sg12_138_cif.got.tgz:275020.got - 2010.06.28 00:19:55.
