data_PCOD8083156
_publ_section_title
;
Structure prediction by ZEFSAII (Michael W. Deem and Ramdas Pophale) SiO2 
 PCOD8083156
Probable space group: C 2/M
;
_chemical_formula_sum "Si O2"
_cell_formula_units_Z 48
_cell_length_a 20.664251
_cell_length_b 8.746717
_cell_length_c 15.149697
_cell_angle_alpha 90.000000
_cell_angle_beta 68.746137
_cell_angle_gamma 90.000000
_cell_volume 2551.977739
_symmetry_space_group_name_H-M "C 2/M"
_symmetry_group_IT_number 12
_symmetry_cell_setting 'monoclinic'
loop_
_space_group_symop_operation_xyz
x,y,z
-x,y,-z
-x,-y,-z
x,-y,z
1/2+x,1/2+y,z
1/2-x,1/2+y,-z
1/2-x,1/2-y,-z
1/2+x,1/2-y,z
loop_
_atom_site_type_symbol
_atom_site_label
_atom_site_fract_x
_atom_site_fract_y
_atom_site_fract_z
Si Si1 0.906108 0.820114 0.407656
Si Si2 0.450799 0.176094 0.712371
Si Si3 0.348222 0.179986 0.610926
Si Si4 0.192637 0.181795 0.697867
Si Si5 0.904306 0.180464 0.099548
Si Si6 0.954757 0.323079 0.909338
O O1 0.890839 0.748920 0.509598
O O2 0.852064 0.753716 0.362157
O O3 0.983625 0.780326 0.340962
O O4 0.898723 0.000000 0.418741
O O5 0.386852 0.224767 0.682218
O O6 0.425930 0.202963 0.825151
O O7 0.471928 0.000000 0.685674
O O8 0.270406 0.248629 0.653104
O O9 0.344964 0.000000 0.599370
O O10 0.158757 0.235616 0.806954
O O11 0.192632 0.000000 0.694649
O O12 0.975666 0.225409 0.112267
O O13 0.903160 0.000000 0.085037
O O14 0.897515 0.264406 0.008121
O O15 0.971788 0.500000 0.918541
#
# Coordination Sequence:
#
# PCOD8083156 Si02
#       6
#     8   8   8   8   8   8
#     4  11  21  35  55  80 106 135 176 223 263 302
#     4  10  21  36  55  77 105 142 177 211 258 312
#     4  10  21  38  55  74 105 143 179 212 255 315
#     4   9  19  35  55  78 105 138 175 214 259 310
#     4  10  18  32  54  79 103 134 171 211 260 309
#     4  10  19  32  51  79 106 132 170 216 258 301
#
# _framework density 18.808941999999998
#
# number of rings (size 3 to 8) (size 9 to 14) (size 15 to 20)
#    0.000    2.000    1.667    3.500    0.000    3.333 
#    0.000    3.333    0.000    0.000    0.000    0.000 
#    0.000    0.000    0.000    0.000    0.000    0.000 
#
# Total GULP energy -297616.766038 kJ/mol
# GULP energy per Si atom -12400.698585 kJ/mol
# Density = 1.876613 g / cm^3
# Si number density = 18.808942 Si / 1000 Ang^3
#
#
#
# Elastic Constant Matrix: (Units=GPa)
#
#
# Indices 1 2 3 4 5 6 
#
# 1 97.3071 27.3987 45.1489 0.0000 20.5732 0.0000
# 2 27.3987 27.5874 31.8731 0.0000 6.9954 0.0000
# 3 45.1489 31.8731 143.4868 0.0000 25.0441 0.0000
# 4 0.0000 0.0000 0.0000 26.5695 0.0000 1.7089
# 5 20.5732 6.9954 25.0441 0.0000 22.1984 0.0000
# 6 0.0000 0.0000 0.0000 1.7089 0.0000 18.9475
#
#
#
# Elastic Compliance Matrix: (Units=1/GPa)
#
#
# Indices 1 2 3 4 5 6 
#
# 1 0.016406 -0.013154 -0.000386 0.000000 -0.010624 0.000000
# 2 -0.013154 0.059584 -0.009896 0.000000 0.004578 0.000000
# 3 -0.000386 -0.009896 0.010811 0.000000 -0.008721 0.000000
# 4 0.000000 0.000000 0.000000 0.037857 0.000000 -0.003414
# 5 -0.010624 0.004578 -0.008721 0.000000 0.063291 0.000000
# 6 0.000000 0.000000 0.000000 -0.003414 0.000000 0.053085
#
#
# Mechanical properties :
#
#
# Convention : Reuss Voigt Hill
#
# Bulk Modulus (GPa) = 25.04368 53.02474 39.03421
# Shear Modulus (GPa) = 16.59947 24.47379 20.53663
#
# Velocity S-wave (km/s) = 2.97396 3.61110 3.30791
# Velocity P-wave (km/s) = 5.01361 6.75568 5.94876
#
# Compressibility (1/GPa) = 0.03993023
#
# Stress axis : x y z
#
# Youngs Moduli (GPa) = 60.95450 16.78294 92.49808
#
# Poissons Ratio (x) = 0.22076 0.03570
# Poissons Ratio (y) = 0.80177 0.91535
# Poissons Ratio (z) = 0.02353 0.16608
#
# Static dielectric constant tensor:
#      x y z
#    x 3.448070 0.000000 0.048660 
#    y 0.000000 3.299840 0.000000 
#    z 0.048660 0.000000 3.787100 
# 
# 
# High freq. dielectric constant tensor:
#      x y z
#    x 1.711280 0.000000 0.005890 
#    y 0.000000 1.718000 0.000000 
#    z 0.005890 0.000000 1.749370 
# 
# From -- ./inp_files/229895.got.cif
#   From: 2010.06.25/outbox.cif.g09.slc.cpg/sg12_115_cif.got.tgz:229895.got - 2010.06.28 00:19:55.
