data_PCOD8083482
_publ_section_title
;
Structure prediction by ZEFSAII (Michael W. Deem and Ramdas Pophale) SiO2 
 PCOD8083482
Probable space group: C 2/M
;
_chemical_formula_sum "Si O2"
_cell_formula_units_Z 44
_cell_length_a 23.005802
_cell_length_b 9.567925
_cell_length_c 13.720776
_cell_angle_alpha 90.000000
_cell_angle_beta 128.331938
_cell_angle_gamma 90.000000
_cell_volume 2369.127506
_symmetry_space_group_name_H-M "C 2/M"
_symmetry_group_IT_number 12
_symmetry_cell_setting 'monoclinic'
loop_
_space_group_symop_operation_xyz
x,y,z
-x,y,-z
-x,-y,-z
x,-y,z
1/2+x,1/2+y,z
1/2-x,1/2+y,-z
1/2-x,1/2-y,-z
1/2+x,1/2-y,z
loop_
_atom_site_type_symbol
_atom_site_label
_atom_site_fract_x
_atom_site_fract_y
_atom_site_fract_z
Si Si1 0.423846 0.845911 0.155740
Si Si2 0.794219 0.500000 0.692819
Si Si3 0.063733 0.500000 0.266977
Si Si4 0.798223 0.841339 0.974890
Si Si5 0.577708 0.164602 0.622585
Si Si6 0.707598 0.000000 0.525701
Si Si7 0.772325 0.725601 0.298279
O O1 0.419800 0.795211 0.262243
O O2 0.385683 0.000000 0.106498
O O3 0.510573 0.861909 0.213456
O O4 0.379037 0.731788 0.046562
O O5 0.884351 0.500000 0.775245
O O6 0.756570 0.500000 0.545741
O O7 0.770225 0.368690 0.730531
O O8 0.117168 0.500000 0.418821
O O9 0.761133 0.850770 0.830672
O O10 0.806904 0.000000 0.023045
O O11 0.750000 0.750000 0.000000
O O12 0.500000 0.215152 0.500000
O O13 0.640832 0.250715 0.631593
O O14 0.591193 0.000000 0.619082
O O15 0.736677 0.134720 0.613446
#
# Coordination Sequence:
#
# PCOD8083482 Si02
#       7
#     8   4   4   8   8   4   8
#     4   9  19  37  62  91 122 161 210 264 310 373
#     4  10  26  39  66  94 130 167 210 278 316 364
#     4   8  20  40  70  89 117 173 220 260 307 380
#     4  12  24  38  61  93 136 170 208 264 320 394
#     4  10  18  32  61  92 119 156 206 258 316 377
#     4  10  20  43  65  89 124 161 224 255 316 375
#     4  12  22  39  63  98 125 166 214 265 319 384
#
# _framework density 18.572237000000001
#
# number of rings (size 3 to 8) (size 9 to 14) (size 15 to 20)
#    1.091    0.545    3.636    2.182    2.545    0.000 
#    0.000    2.273    8.000    1.091    0.000    0.000 
#    0.000    0.000    0.000    0.000    0.000    0.000 
#
# Total GULP energy -272658.208180 kJ/mol
# GULP energy per Si atom -12393.554917 kJ/mol
# Density = 1.852997 g / cm^3
# Si number density = 18.572237 Si / 1000 Ang^3
#
#
#
# Elastic Constant Matrix: (Units=GPa)
#
#
# Indices 1 2 3 4 5 6 
#
# 1 101.9331 39.3796 13.7526 0.0000 8.4405 0.0000
# 2 39.3796 100.9226 29.5154 0.0000 12.3139 0.0000
# 3 13.7526 29.5154 78.5606 0.0000 6.7214 0.0000
# 4 0.0000 0.0000 0.0000 26.4055 0.0000 0.8659
# 5 8.4405 12.3139 6.7214 0.0000 22.4900 0.0000
# 6 0.0000 0.0000 0.0000 0.8659 0.0000 24.5890
#
#
#
# Elastic Compliance Matrix: (Units=1/GPa)
#
#
# Indices 1 2 3 4 5 6 
#
# 1 0.011642 -0.004219 -0.000284 0.000000 -0.001975 0.000000
# 2 -0.004219 0.013230 -0.003846 0.000000 -0.004511 0.000000
# 3 -0.000284 -0.003846 0.014403 0.000000 -0.002092 0.000000
# 4 0.000000 0.000000 0.000000 0.037915 0.000000 -0.001335
# 5 -0.001975 -0.004511 -0.002092 0.000000 0.048300 0.000000
# 6 0.000000 0.000000 0.000000 -0.001335 0.000000 0.040716
#
#
# Mechanical properties :
#
#
# Convention : Reuss Voigt Hill
#
# Bulk Modulus (GPa) = 44.29296 49.63460 46.96378
# Shear Modulus (GPa) = 26.25657 27.94814 27.10236
#
# Velocity S-wave (km/s) = 3.76407 3.88343 3.82422
# Velocity P-wave (km/s) = 6.54154 6.84771 6.69638
#
# Compressibility (1/GPa) = 0.02257695
#
# Stress axis : x y z
#
# Youngs Moduli (GPa) = 85.89611 75.58644 69.43134
#
# Poissons Ratio (x) = 0.31887 0.01973
# Poissons Ratio (y) = 0.36236 0.26704
# Poissons Ratio (z) = 0.02441 0.29071
#
# Static dielectric constant tensor:
#      x y z
#    x 3.296790 0.000000 0.105950 
#    y 0.000000 3.183780 0.000000 
#    z 0.105950 0.000000 3.473870 
# 
# 
# High freq. dielectric constant tensor:
#      x y z
#    x 1.710420 0.000000 0.000650 
#    y 0.000000 1.692260 0.000000 
#    z 0.000650 0.000000 1.725310 
# 
# From -- ./inp_files/238080.got.cif
#   From: 2010.06.25/outbox.cif.g09.slc.cpg/sg12_120_cif.got.tgz:238080.got - 2010.06.28 00:19:55.
