data_PCOD8083365
_publ_section_title
;
Structure prediction by ZEFSAII (Michael W. Deem and Ramdas Pophale) SiO2 
 PCOD8083365
Probable space group: C 2/M
;
_chemical_formula_sum "Si O2"
_cell_formula_units_Z 52
_cell_length_a 19.974777
_cell_length_b 9.463922
_cell_length_c 17.502275
_cell_angle_alpha 90.000000
_cell_angle_beta 50.862464
_cell_angle_gamma 90.000000
_cell_volume 2566.279244
_symmetry_space_group_name_H-M "C 2/M"
_symmetry_group_IT_number 12
_symmetry_cell_setting 'monoclinic'
loop_
_space_group_symop_operation_xyz
x,y,z
-x,y,-z
-x,-y,-z
x,-y,z
1/2+x,1/2+y,z
1/2-x,1/2+y,-z
1/2-x,1/2-y,-z
1/2+x,1/2-y,z
loop_
_atom_site_type_symbol
_atom_site_label
_atom_site_fract_x
_atom_site_fract_y
_atom_site_fract_z
Si Si1 0.289971 0.844038 0.034636
Si Si2 0.068697 0.332187 0.517389
Si Si3 0.683995 0.344928 0.849676
Si Si4 0.488449 0.846809 0.853011
Si Si5 0.736290 0.665674 0.645807
Si Si6 0.075976 0.169260 0.665805
Si Si7 0.000000 0.224948 0.000000
O O1 0.270397 0.770431 0.129981
O O2 0.248044 0.000000 0.067927
O O3 0.250000 0.750000 0.000000
O O4 0.388186 0.854119 0.941076
O O5 0.065438 0.500000 0.535671
O O6 0.165450 0.277415 0.427379
O O7 0.045353 0.246324 0.610615
O O8 0.000000 0.293017 0.500000
O O9 0.728866 0.500000 0.824580
O O10 0.692373 0.288577 0.756994
O O11 0.585564 0.368488 0.950217
O O12 0.510636 0.721587 0.778478
O O13 0.528652 0.819716 0.907285
O O14 0.521468 0.000000 0.798602
O O15 0.740377 0.500000 0.636592
O O16 0.673336 0.717477 0.621866
O O17 0.068254 0.000000 0.662870
#
# Coordination Sequence:
#
# PCOD8083365 Si02
#       7
#     8   8   8   8   8   8   4
#     4  10  22  38  54  79 115 157 200 242 289 348
#     4  10  22  41  63  85 115 157 201 244 300 365
#     4  10  19  33  56  83 114 152 191 238 291 348
#     4  10  21  36  57  84 117 153 193 240 291 347
#     4   9  19  37  59  87 118 152 195 244 298 358
#     4  11  22  38  61  90 120 151 196 250 304 360
#     4  10  18  32  56  86 116 148 192 236 282 338
#
# _framework density 20.262799000000001
#
# number of rings (size 3 to 8) (size 9 to 14) (size 15 to 20)
#    0.000    2.000    1.538    1.846    0.000    5.231 
#    0.000    4.615    0.000    0.000    0.000    0.000 
#    0.000    0.000    0.000    0.000    0.000    0.000 
#
# Total GULP energy -322128.422038 kJ/mol
# GULP energy per Si atom -12389.554694 kJ/mol
# Density = 2.021668 g / cm^3
# Si number density = 20.262799 Si / 1000 Ang^3
#
#
#
# Elastic Constant Matrix: (Units=GPa)
#
#
# Indices 1 2 3 4 5 6 
#
# 1 100.7185 50.0183 28.9354 -0.0001 37.6587 0.0000
# 2 50.0183 116.6978 34.4657 -0.0001 23.5312 0.0003
# 3 28.9354 34.4657 87.0704 0.0000 26.0474 0.0000
# 4 -0.0001 -0.0001 0.0000 29.8516 0.0000 6.4388
# 5 37.6587 23.5312 26.0474 0.0000 30.3801 0.0000
# 6 0.0000 0.0003 0.0000 6.4388 0.0000 25.6899
#
#
#
# Elastic Compliance Matrix: (Units=1/GPa)
#
#
# Indices 1 2 3 4 5 6 
#
# 1 0.020419 -0.004625 0.002078 0.000000 -0.023511 0.000000
# 2 -0.004625 0.011539 -0.002787 0.000000 -0.000815 0.000000
# 3 0.002078 -0.002787 0.016170 0.000000 -0.014282 0.000000
# 4 0.000000 0.000000 0.000000 0.035413 0.000000 -0.008876
# 5 -0.023511 -0.000815 -0.014282 0.000000 0.074936 0.000000
# 6 0.000000 0.000000 0.000000 -0.008876 0.000000 0.041150
#
#
# Mechanical properties :
#
#
# Convention : Reuss Voigt Hill
#
# Bulk Modulus (GPa) = 26.69426 59.03617 42.86522
# Shear Modulus (GPa) = 22.44352 29.92214 26.18283
#
# Velocity S-wave (km/s) = 3.33171 3.84696 3.59857
# Velocity P-wave (km/s) = 5.29178 6.99504 6.20216
#
# Compressibility (1/GPa) = 0.03746124
#
# Stress axis : x y z
#
# Youngs Moduli (GPa) = 48.97359 86.66359 61.84411
#
# Poissons Ratio (x) = 0.40082 -0.12853
# Poissons Ratio (y) = 0.22650 0.17234
# Poissons Ratio (z) = -0.10179 0.24150
#
# Static dielectric constant tensor:
#      x y z
#    x 4.070820 0.000000 0.118630 
#    y 0.000000 3.736320 0.000000 
#    z 0.118630 0.000000 3.609440 
# 
# 
# High freq. dielectric constant tensor:
#      x y z
#    x 1.788570 0.000000 0.008750 
#    y 0.000000 1.781910 0.000000 
#    z 0.008750 0.000000 1.784270 
# 
# From -- ./inp_files/282030.got.cif
#   From: 2010.06.25/outbox.cif.g09.slc.cpg/sg12_142_cif.got.tgz:282030.got - 2010.06.28 00:19:55.
