data_PCOD8083908
_publ_section_title
;
Structure prediction by ZEFSAII (Michael W. Deem and Ramdas Pophale) SiO2 
 PCOD8083908
Probable space group: C 2/M
;
_chemical_formula_sum "Si O2"
_cell_formula_units_Z 52
_cell_length_a 30.722599
_cell_length_b 15.513522
_cell_length_c 9.529244
_cell_angle_alpha 90.000000
_cell_angle_beta 143.531910
_cell_angle_gamma 90.000000
_cell_volume 2699.524909
_symmetry_space_group_name_H-M "C 2/M"
_symmetry_group_IT_number 12
_symmetry_cell_setting 'monoclinic'
loop_
_space_group_symop_operation_xyz
x,y,z
-x,y,-z
-x,-y,-z
x,-y,z
1/2+x,1/2+y,z
1/2-x,1/2+y,-z
1/2-x,1/2-y,-z
1/2+x,1/2-y,z
loop_
_atom_site_type_symbol
_atom_site_label
_atom_site_fract_x
_atom_site_fract_y
_atom_site_fract_z
Si Si1 0.071212 0.000000 0.279874
Si Si2 0.771787 0.728911 0.898616
Si Si3 0.390133 0.903383 0.241982
Si Si4 0.000000 0.701686 0.000000
Si Si5 0.365141 0.320398 0.637349
Si Si6 0.014502 0.337254 0.739504
Si Si7 0.031920 0.000000 0.734817
Si Si8 0.886129 0.176550 0.012360
O O1 0.121320 0.917368 0.379758
O O2 0.040651 0.000000 0.357904
O O3 0.000000 0.000000 0.000000
O O4 0.702566 0.721018 0.618753
O O5 0.825237 0.802091 0.972197
O O6 0.750000 0.750000 0.000000
O O7 0.811575 0.636680 0.005645
O O8 0.431606 0.845259 0.466647
O O9 0.436305 0.905965 0.216861
O O10 0.379610 0.000000 0.271047
O O11 0.934950 0.762955 0.779094
O O12 0.019416 0.641061 0.917939
O O13 0.350051 0.315660 0.764744
O O14 0.044929 0.240948 0.792041
O O15 0.000000 0.000000 0.500000
O O16 0.084018 0.081112 0.893448
#
# Coordination Sequence:
#
# PCOD8083908 Si02
#       8
#     4   8   8   4   8   8   4   8
#     4  12  20  40  62  96 122 159 200 259 310 373
#     4  11  25  39  61  86 122 162 201 249 305 363
#     4  10  21  39  57  82 113 155 194 235 288 350
#     4  10  18  33  61  90 108 148 194 242 292 340
#     4  11  21  38  63  86 122 159 205 243 299 375
#     4   9  18  34  63  82 115 145 194 240 286 346
#     4  12  26  36  64  98 132 155 204 267 320 364
#     4  10  22  41  59  92 120 162 202 249 308 362
#
# _framework density 19.262649
#
# number of rings (size 3 to 8) (size 9 to 14) (size 15 to 20)
#    0.000    1.538    2.308    3.231    7.538    0.000 
#    1.385    1.538    0.000    0.000    0.000    0.000 
#    0.000    0.000    0.000    0.000    0.000    0.000 
#
# Total GULP energy -322396.532771 kJ/mol
# GULP energy per Si atom -12399.866645 kJ/mol
# Density = 1.921881 g / cm^3
# Si number density = 19.262649 Si / 1000 Ang^3
#
#
#
# Elastic Constant Matrix: (Units=GPa)
#
#
# Indices 1 2 3 4 5 6 
#
# 1 119.5963 31.8982 38.9356 0.0000 -20.7608 0.0000
# 2 31.8982 98.4986 40.2770 0.0000 -0.5363 0.0000
# 3 38.9356 40.2770 126.0362 0.0000 -4.4284 0.0000
# 4 0.0000 0.0000 0.0000 14.2904 0.0000 -1.5804
# 5 -20.7608 -0.5363 -4.4284 0.0000 38.5780 0.0000
# 6 0.0000 0.0000 0.0000 -1.5804 0.0000 22.6371
#
#
#
# Elastic Compliance Matrix: (Units=1/GPa)
#
#
# Indices 1 2 3 4 5 6 
#
# 1 0.010735 -0.002495 -0.002326 0.000000 0.005475 0.000000
# 2 -0.002495 0.012261 -0.003202 0.000000 -0.001540 0.000000
# 3 -0.002326 -0.003202 0.009669 0.000000 -0.000187 0.000000
# 4 0.000000 0.000000 0.000000 0.070521 0.000000 0.004923
# 5 0.005475 -0.001540 -0.000187 0.000000 0.028825 0.000000
# 6 0.000000 0.000000 0.000000 0.004923 0.000000 0.044519
#
#
# Mechanical properties :
#
#
# Convention : Reuss Voigt Hill
#
# Bulk Modulus (GPa) = 60.17211 62.92809 61.55010
# Shear Modulus (GPa) = 25.23757 30.63581 27.93669
#
# Velocity S-wave (km/s) = 3.62357 3.99234 3.81242
# Velocity P-wave (km/s) = 6.98660 7.34786 7.16951
#
# Compressibility (1/GPa) = 0.01661900
#
# Stress axis : x y z
#
# Youngs Moduli (GPa) = 93.15464 81.55763 103.41814
#
# Poissons Ratio (x) = 0.20351 0.24060
# Poissons Ratio (y) = 0.23245 0.33110
# Poissons Ratio (z) = 0.21672 0.26111
#
# Static dielectric constant tensor:
#      x y z
#    x 3.760870 0.000000 -0.199590 
#    y 0.000000 3.406510 0.000000 
#    z -0.199590 0.000000 3.561280 
# 
# 
# High freq. dielectric constant tensor:
#      x y z
#    x 1.755310 0.000000 -0.009870 
#    y 0.000000 1.737100 0.000000 
#    z -0.009870 0.000000 1.753230 
# 
# From -- ./inp_files/112112.got.cif
#   From: 2010.06.25/outbox.cif.g09.slc.cpg/sg12_57_cif.got.tgz:112112.got - 2010.06.28 00:19:55.
