data_PCOD8083602
_publ_section_title
;
Structure prediction by ZEFSAII (Michael W. Deem and Ramdas Pophale) SiO2 
 PCOD8083602
Probable space group: C 2/M
;
_chemical_formula_sum "Si O2"
_cell_formula_units_Z 40
_cell_length_a 18.545872
_cell_length_b 13.237668
_cell_length_c 12.156287
_cell_angle_alpha 90.000000
_cell_angle_beta 47.024272
_cell_angle_gamma 90.000000
_cell_volume 2183.527377
_symmetry_space_group_name_H-M "C 2/M"
_symmetry_group_IT_number 12
_symmetry_cell_setting 'monoclinic'
loop_
_space_group_symop_operation_xyz
x,y,z
-x,y,-z
-x,-y,-z
x,-y,z
1/2+x,1/2+y,z
1/2-x,1/2+y,-z
1/2-x,1/2-y,-z
1/2+x,1/2-y,z
loop_
_atom_site_type_symbol
_atom_site_label
_atom_site_fract_x
_atom_site_fract_y
_atom_site_fract_z
Si Si1 0.846317 0.309132 0.679666
Si Si2 0.948965 0.310651 0.939951
Si Si3 0.523137 0.881863 0.640511
Si Si4 0.269525 0.385993 0.857399
Si Si5 0.157007 0.113622 0.974686
O O1 0.889344 0.322419 0.512670
O O2 0.833066 0.189573 0.715844
O O3 0.741514 0.365487 0.796456
O O4 0.918760 0.358824 0.693098
O O5 0.022056 0.345123 0.767110
O O6 0.846303 0.369387 0.037513
O O7 0.933642 0.189637 0.949667
O O8 0.000000 0.341602 0.000000
O O9 0.545307 0.000000 0.610264
O O10 0.297272 0.500000 0.794384
O O11 0.294904 0.364449 0.957352
O O12 0.116588 0.000000 0.005453
#
# Coordination Sequence:
#
# PCOD8083602 Si02
#       5
#     8   8   8   8   8
#     4  10  18  33  54  82 107 132 178 228 261 303
#     4  11  22  36  54  80 112 140 175 221 264 318
#     4  11  20  32  53  82 109 136 175 222 269 308
#     4  10  19  35  57  79 107 143 180 215 261 316
#     4  10  18  35  58  78 105 143 183 218 256 311
#
# _framework density 18.318981999999998
#
# number of rings (size 3 to 8) (size 9 to 14) (size 15 to 20)
#    0.000    1.600    4.000    4.200    0.000    2.000 
#    0.000    7.000    0.000    2.400    0.000    0.000 
#    0.000    0.000    0.000    0.000    0.000    0.000 
#
# Total GULP energy -248047.366819 kJ/mol
# GULP energy per Si atom -12402.368341 kJ/mol
# Density = 1.827729 g / cm^3
# Si number density = 18.318982 Si / 1000 Ang^3
#
#
#
# Elastic Constant Matrix: (Units=GPa)
#
#
# Indices 1 2 3 4 5 6 
#
# 1 53.9728 0.8174 32.5516 0.0000 19.6367 0.0000
# 2 0.8174 111.5579 56.4926 0.0000 2.7168 0.0000
# 3 32.5516 56.4926 138.3400 0.0000 17.9005 0.0000
# 4 0.0000 0.0000 0.0000 26.1112 0.0000 -1.9981
# 5 19.6367 2.7168 17.9005 0.0000 22.9232 0.0000
# 6 0.0000 0.0000 0.0000 -1.9981 0.0000 7.9132
#
#
#
# Elastic Compliance Matrix: (Units=1/GPa)
#
#
# Indices 1 2 3 4 5 6 
#
# 1 0.029556 0.003054 -0.005427 0.000000 -0.021443 0.000000
# 2 0.003054 0.011749 -0.005559 0.000000 0.000333 0.000000
# 3 -0.005427 -0.005559 0.011223 0.000000 -0.003456 0.000000
# 4 0.000000 0.000000 0.000000 0.039052 0.000000 0.009861
# 5 -0.021443 0.000333 -0.003456 0.000000 0.064652 0.000000
# 6 0.000000 0.000000 0.000000 0.009861 0.000000 0.128860
#
#
# Mechanical properties :
#
#
# Convention : Reuss Voigt Hill
#
# Bulk Modulus (GPa) = 27.27570 53.73264 40.50417
# Shear Modulus (GPa) = 15.96535 25.65680 20.81107
#
# Velocity S-wave (km/s) = 2.95535 3.74646 3.37417
# Velocity P-wave (km/s) = 5.15433 6.93614 6.11053
#
# Compressibility (1/GPa) = 0.03666267
#
# Stress axis : x y z
#
# Youngs Moduli (GPa) = 33.83398 85.11566 89.10280
#
# Poissons Ratio (x) = -0.25994 0.48357
# Poissons Ratio (y) = -0.10333 0.49535
# Poissons Ratio (z) = 0.18362 0.47319
#
# Static dielectric constant tensor:
#      x y z
#    x 3.038220 0.000000 0.041830 
#    y 0.000000 3.581470 0.000000 
#    z 0.041830 0.000000 3.406480 
# 
# 
# High freq. dielectric constant tensor:
#      x y z
#    x 1.673670 0.000000 0.002700 
#    y 0.000000 1.725250 0.000000 
#    z 0.002700 0.000000 1.704370 
# 
# From -- ./inp_files/155079.got.cif
#   From: 2010.06.25/outbox.cif.g09.slc.cpg/sg12_78_cif.got.tgz:155079.got - 2010.06.28 00:19:55.
