data_PCOD8083437
_publ_section_title
;
Structure prediction by ZEFSAII (Michael W. Deem and Ramdas Pophale) SiO2 
 PCOD8083437
Probable space group: C 2/M
;
_chemical_formula_sum "Si O2"
_cell_formula_units_Z 64
_cell_length_a 19.964204
_cell_length_b 25.627586
_cell_length_c 17.543884
_cell_angle_alpha 90.000000
_cell_angle_beta 158.277485
_cell_angle_gamma 90.000000
_cell_volume 3322.143791
_symmetry_space_group_name_H-M "C 2/M"
_symmetry_group_IT_number 12
_symmetry_cell_setting 'monoclinic'
loop_
_space_group_symop_operation_xyz
x,y,z
-x,y,-z
-x,-y,-z
x,-y,z
1/2+x,1/2+y,z
1/2-x,1/2+y,-z
1/2-x,1/2-y,-z
1/2+x,1/2-y,z
loop_
_atom_site_type_symbol
_atom_site_label
_atom_site_fract_x
_atom_site_fract_y
_atom_site_fract_z
Si Si1 0.311622 0.393033 0.217093
Si Si2 0.294370 0.206351 0.647484
Si Si3 0.250380 0.180710 0.068510
Si Si4 0.633393 0.851527 0.429568
Si Si5 0.275674 0.597584 0.352557
Si Si6 0.886708 0.791534 0.229551
Si Si7 0.966345 0.558792 0.780259
Si Si8 0.546710 0.686791 0.136709
O O1 0.512407 0.411416 0.403479
O O2 0.252559 0.411866 0.238267
O O3 0.326874 0.329526 0.235681
O O4 0.162236 0.414710 0.001084
O O5 0.339171 0.193443 0.606115
O O6 0.306902 0.153961 0.711073
O O7 0.428436 0.251521 0.818232
O O8 0.092382 0.228460 0.446013
O O9 0.442928 0.153242 0.271366
O O10 0.258827 0.242286 0.095088
O O11 0.146441 0.172057 0.879332
O O12 0.123470 0.159741 0.001176
O O13 0.640616 0.908223 0.397186
O O14 0.780684 0.846094 0.651927
O O15 0.155590 0.556237 0.272009
O O16 0.996157 0.500000 0.782559
O O17 0.500000 0.678596 0.000000
#
# Coordination Sequence:
#
# PCOD8083437 Si02
#       8
#     8   8   8   8   8   8   8   8
#     4  10  20  37  54  86 124 165 197 238 285 344
#     4  10  19  36  56  83 122 164 200 224 269 347
#     4  11  21  34  59  82 113 158 198 235 288 337
#     4  11  22  42  60  82 120 154 198 252 295 350
#     4   9  22  35  55  85 131 164 194 237 285 340
#     4  10  18  32  58  83 115 161 203 230 271 339
#     4  11  24  40  64  86 107 153 213 259 302 348
#     4  12  26  37  55  88 124 157 191 239 296 360
#
# _framework density 19.264669000000001
#
# number of rings (size 3 to 8) (size 9 to 14) (size 15 to 20)
#    0.000    1.500    3.750    2.250    3.500    2.000 
#    0.000    1.250    0.000    0.375    0.000    0.875 
#    0.000    0.000    0.000    0.000    0.000    0.000 
#
# Total GULP energy -396670.416181 kJ/mol
# GULP energy per Si atom -12395.950506 kJ/mol
# Density = 1.922082 g / cm^3
# Si number density = 19.264669 Si / 1000 Ang^3
#
#
#
# Elastic Constant Matrix: (Units=GPa)
#
#
# Indices 1 2 3 4 5 6 
#
# 1 88.6100 17.5683 49.8981 0.0000 7.3730 0.0000
# 2 17.5683 61.3320 28.7356 0.0000 -0.1318 0.0000
# 3 49.8981 28.7356 93.0136 0.0000 -3.0229 0.0000
# 4 0.0000 0.0000 0.0000 13.8042 0.0000 2.3012
# 5 7.3730 -0.1318 -3.0229 0.0000 34.8592 0.0000
# 6 0.0000 0.0000 0.0000 2.3012 0.0000 14.8947
#
#
#
# Elastic Compliance Matrix: (Units=1/GPa)
#
#
# Indices 1 2 3 4 5 6 
#
# 1 0.016823 -0.000624 -0.008973 0.000000 -0.004339 0.000000
# 2 -0.000624 0.019094 -0.005573 0.000000 -0.000279 0.000000
# 3 -0.008973 -0.005573 0.017397 0.000000 0.003385 0.000000
# 4 0.000000 0.000000 0.000000 0.074357 0.000000 -0.011488
# 5 -0.004339 -0.000279 0.003385 0.000000 0.029897 0.000000
# 6 0.000000 0.000000 0.000000 -0.011488 0.000000 0.068913
#
#
# Mechanical properties :
#
#
# Convention : Reuss Voigt Hill
#
# Bulk Modulus (GPa) = 43.52937 48.37328 45.95133
# Shear Modulus (GPa) = 18.90505 22.49517 20.70011
#
# Velocity S-wave (km/s) = 3.13602 3.42086 3.28153
# Velocity P-wave (km/s) = 5.97974 6.38493 6.18566
#
# Compressibility (1/GPa) = 0.02297299
#
# Stress axis : x y z
#
# Youngs Moduli (GPa) = 59.44196 52.37236 57.48232
#
# Poissons Ratio (x) = 0.03269 0.51580
# Poissons Ratio (y) = 0.03710 0.32036
# Poissons Ratio (z) = 0.53338 0.29188
#
# Static dielectric constant tensor:
#      x y z
#    x 3.529000 0.000000 0.155160 
#    y 0.000000 3.136440 0.000000 
#    z 0.155160 0.000000 3.581610 
# 
# 
# High freq. dielectric constant tensor:
#      x y z
#    x 1.739710 0.000000 0.022850 
#    y 0.000000 1.702210 0.000000 
#    z 0.022850 0.000000 1.758940 
# 
# From -- ./inp_files/286708.got.cif
#   From: 2010.06.25/outbox.cif.g09.slc.cpg/sg12_144_cif.got.tgz:286708.got - 2010.06.28 00:19:55.
