data_PCOD8083700
_publ_section_title
;
Structure prediction by ZEFSAII (Michael W. Deem and Ramdas Pophale) SiO2 
 PCOD8083700
Probable space group: C 2/M
;
_chemical_formula_sum "Si O2"
_cell_formula_units_Z 40
_cell_length_a 22.770187
_cell_length_b 8.371330
_cell_length_c 13.639413
_cell_angle_alpha 90.000000
_cell_angle_beta 126.104856
_cell_angle_gamma 90.000000
_cell_volume 2100.563524
_symmetry_space_group_name_H-M "C 2/M"
_symmetry_group_IT_number 12
_symmetry_cell_setting 'monoclinic'
loop_
_space_group_symop_operation_xyz
x,y,z
-x,y,-z
-x,-y,-z
x,-y,z
1/2+x,1/2+y,z
1/2-x,1/2+y,-z
1/2-x,1/2-y,-z
1/2+x,1/2-y,z
loop_
_atom_site_type_symbol
_atom_site_label
_atom_site_fract_x
_atom_site_fract_y
_atom_site_fract_z
Si Si1 0.033666 0.688321 0.178617
Si Si2 0.399161 0.683786 0.349312
Si Si3 0.887122 0.311039 0.935390
Si Si4 0.743412 0.185399 0.884456
Si Si5 0.458169 0.186007 0.596622
O O1 0.025688 0.500000 0.176470
O O2 0.095703 0.733338 0.161048
O O3 0.054380 0.755819 0.306123
O O4 0.954629 0.751205 0.067188
O O5 0.417883 0.500000 0.348499
O O6 0.319035 0.720560 0.233648
O O7 0.457567 0.790877 0.349262
O O8 0.404672 0.719934 0.470904
O O9 0.873404 0.500000 0.934836
O O10 0.817475 0.212025 0.898788
O O11 0.723650 0.000000 0.867920
O O12 0.750000 0.250000 0.000000
O O13 0.438887 0.000000 0.571885
#
# Coordination Sequence:
#
# PCOD8083700 Si02
#       5
#     8   8   8   8   8
#     4   8  16  31  56  82 107 139 176 213 259 313
#     4  11  22  36  53  78 108 142 180 222 265 313
#     4   9  17  34  56  81 109 140 175 214 258 315
#     4  12  24  38  55  79 107 139 174 217 268 319
#     4  10  18  33  56  82 109 142 179 220 264 314
#
# _framework density 19.042508999999999
#
# number of rings (size 3 to 8) (size 9 to 14) (size 15 to 20)
#    0.000    2.000    0.000    7.800    0.000    1.600 
#    0.000    6.000    0.000    0.000    0.000    0.000 
#    0.000    0.000    0.000    0.000    0.000    0.000 
#
# Total GULP energy -248004.419204 kJ/mol
# GULP energy per Si atom -12400.220960 kJ/mol
# Density = 1.899917 g / cm^3
# Si number density = 19.042509 Si / 1000 Ang^3
#
#
#
# Elastic Constant Matrix: (Units=GPa)
#
#
# Indices 1 2 3 4 5 6 
#
# 1 103.1967 7.6706 70.6869 0.0000 -15.7116 0.0000
# 2 7.6706 58.9781 19.0352 0.0000 -5.0414 0.0000
# 3 70.6869 19.0352 137.7531 0.0000 -18.1449 0.0000
# 4 0.0000 0.0000 0.0000 26.0573 0.0000 3.4501
# 5 -15.7116 -5.0414 -18.1449 0.0000 38.2168 0.0000
# 6 0.0000 0.0000 0.0000 3.4501 0.0000 25.7676
#
#
#
# Elastic Compliance Matrix: (Units=1/GPa)
#
#
# Indices 1 2 3 4 5 6 
#
# 1 0.015229 0.000691 -0.007545 0.000000 0.002770 0.000000
# 2 0.000691 0.017835 -0.002637 0.000000 0.001385 0.000000
# 3 -0.007545 -0.002637 0.011778 0.000000 0.002142 0.000000
# 4 0.000000 0.000000 0.000000 0.039070 0.000000 -0.005231
# 5 0.002770 0.001385 0.002142 0.000000 0.028505 0.000000
# 6 0.000000 0.000000 0.000000 -0.005231 0.000000 0.039509
#
#
# Mechanical properties :
#
#
# Convention : Reuss Voigt Hill
#
# Bulk Modulus (GPa) = 38.66980 54.96815 46.81897
# Shear Modulus (GPa) = 27.85107 31.51067 29.68087
#
# Velocity S-wave (km/s) = 3.82851 4.07228 3.95227
# Velocity P-wave (km/s) = 6.31621 7.14423 6.74294
#
# Compressibility (1/GPa) = 0.02585997
#
# Stress axis : x y z
#
# Youngs Moduli (GPa) = 65.66495 56.06966 84.90634
#
# Poissons Ratio (x) = -0.03876 0.64064
# Poissons Ratio (y) = -0.04540 0.22388
# Poissons Ratio (z) = 0.49546 0.14785
#
# Static dielectric constant tensor:
#      x y z
#    x 3.568010 0.000000 -0.369280 
#    y 0.000000 3.294550 0.000000 
#    z -0.369280 0.000000 3.806420 
# 
# 
# High freq. dielectric constant tensor:
#      x y z
#    x 1.733780 0.000000 -0.014410 
#    y 0.000000 1.728370 0.000000 
#    z -0.014410 0.000000 1.744020 
# 
# From -- ./inp_files/230607.got.cif
#   From: 2010.06.25/outbox.cif.g09.slc.cpg/sg12_116_cif.got.tgz:230607.got - 2010.06.28 00:19:55.
