data_PCOD8083836
_publ_section_title
;
Structure prediction by ZEFSAII (Michael W. Deem and Ramdas Pophale) SiO2 
 PCOD8083836
Probable space group: C 2/M
;
_chemical_formula_sum "Si O2"
_cell_formula_units_Z 52
_cell_length_a 13.362395
_cell_length_b 21.227948
_cell_length_c 13.191645
_cell_angle_alpha 90.000000
_cell_angle_beta 44.319826
_cell_angle_gamma 90.000000
_cell_volume 2614.321260
_symmetry_space_group_name_H-M "C 2/M"
_symmetry_group_IT_number 12
_symmetry_cell_setting 'monoclinic'
loop_
_space_group_symop_operation_xyz
x,y,z
-x,y,-z
-x,-y,-z
x,-y,z
1/2+x,1/2+y,z
1/2-x,1/2+y,-z
1/2-x,1/2-y,-z
1/2+x,1/2-y,z
loop_
_atom_site_type_symbol
_atom_site_label
_atom_site_fract_x
_atom_site_fract_y
_atom_site_fract_z
Si Si1 0.527552 0.273546 0.097957
Si Si2 0.667697 0.071519 0.854609
Si Si3 0.796416 0.654623 0.992586
Si Si4 0.500000 0.854094 0.500000
Si Si5 0.410167 0.931637 0.739252
Si Si6 0.265117 0.311298 0.424027
Si Si7 0.728822 0.069783 0.578558
O O1 0.565951 0.200422 0.091515
O O2 0.386011 0.298618 0.254011
O O3 0.500000 0.285076 0.000000
O O4 0.661340 0.311442 0.043304
O O5 0.708568 0.089835 0.710320
O O6 0.717350 0.000000 0.841319
O O7 0.500000 0.077925 0.000000
O O8 0.748072 0.121462 0.869091
O O9 0.836922 0.600123 0.886952
O O10 0.390923 0.894624 0.648270
O O11 0.606912 0.813350 0.490066
O O12 0.577326 0.938453 0.636498
O O13 0.338378 0.000000 0.778436
O O14 0.250000 0.250000 0.500000
O O15 0.307459 0.373675 0.460020
O O16 0.805792 0.000000 0.515215
#
# Coordination Sequence:
#
# PCOD8083836 Si02
#       7
#     8   8   8   4   8   8   8
#     4  11  25  41  59  84 123 162 203 249 299 356
#     4  10  18  33  62  95 121 153 199 252 306 360
#     4  11  22  37  61  87 120 158 200 250 301 358
#     4  10  21  38  62  86 119 154 198 246 310 354
#     4  10  18  33  58  90 117 149 195 246 301 361
#     4  11  24  42  62  90 120 159 204 251 302 368
#     4   9  19  36  60  91 124 155 196 253 306 355
#
# _framework density 19.890439000000001
#
# number of rings (size 3 to 8) (size 9 to 14) (size 15 to 20)
#    0.000    1.692    1.538    3.923    2.154    1.846 
#    0.000    1.538    0.000    5.077    0.000    0.000 
#    0.000    0.000    0.000    0.000    0.000    0.000 
#
# Total GULP energy -322237.445645 kJ/mol
# GULP energy per Si atom -12393.747909 kJ/mol
# Density = 1.984517 g / cm^3
# Si number density = 19.890439 Si / 1000 Ang^3
#
#
#
# Elastic Constant Matrix: (Units=GPa)
#
#
# Indices 1 2 3 4 5 6 
#
# 1 89.9635 52.8211 38.6824 0.0004 23.2217 -0.0002
# 2 52.8211 142.7227 60.9636 0.0002 15.9968 -0.0002
# 3 38.6824 60.9636 117.0182 0.0006 20.4563 -0.0003
# 4 0.0004 0.0002 0.0006 37.5675 -0.0006 8.4526
# 5 23.2217 15.9968 20.4563 -0.0006 31.3535 0.0003
# 6 -0.0002 -0.0002 -0.0003 8.4526 0.0003 20.1969
#
#
#
# Elastic Compliance Matrix: (Units=1/GPa)
#
#
# Indices 1 2 3 4 5 6 
#
# 1 0.016805 -0.004510 -0.001616 0.000000 -0.009091 0.000000
# 2 -0.004510 0.010307 -0.003999 0.000000 0.000691 0.000000
# 3 -0.001616 -0.003999 0.011962 0.000000 -0.004567 0.000000
# 4 0.000000 0.000000 0.000000 0.029386 0.000001 -0.012298
# 5 -0.009091 0.000691 -0.004567 0.000001 0.041254 -0.000001
# 6 0.000000 0.000000 0.000000 -0.012298 -0.000001 0.054660
#
#
# Mechanical properties :
#
#
# Convention : Reuss Voigt Hill
#
# Bulk Modulus (GPa) = 53.12959 72.73763 62.93361
# Shear Modulus (GPa) = 26.19176 30.97274 28.58225
#
# Velocity S-wave (km/s) = 3.63271 3.95038 3.79487
# Velocity P-wave (km/s) = 6.66067 7.57996 7.13514
#
# Compressibility (1/GPa) = 0.01882190
#
# Stress axis : x y z
#
# Youngs Moduli (GPa) = 59.50488 97.02451 83.59852
#
# Poissons Ratio (x) = 0.43760 0.13513
# Poissons Ratio (y) = 0.26838 0.33435
# Poissons Ratio (z) = 0.09618 0.38804
#
# Static dielectric constant tensor:
#      x y z
#    x 3.014130 0.000000 0.916380 
#    y 0.000000 4.271000 0.000000 
#    z 0.916380 0.000000 2.857620 
# 
# 
# High freq. dielectric constant tensor:
#      x y z
#    x 1.762510 0.000000 0.032650 
#    y 0.000000 1.794190 0.000000 
#    z 0.032650 0.000000 1.764480 
# 
# From -- ./inp_files/135831.got.cif
#   From: 2010.06.25/outbox.cif.g09.slc.cpg/sg12_68_cif.got.tgz:135831.got - 2010.06.28 00:19:55.
