data_PCOD8083496
_publ_section_title
;
Structure prediction by ZEFSAII (Michael W. Deem and Ramdas Pophale) SiO2 
 PCOD8083496
Probable space group: C 2/M
;
_chemical_formula_sum "Si O2"
_cell_formula_units_Z 64
_cell_length_a 26.075921
_cell_length_b 23.534858
_cell_length_c 13.607923
_cell_angle_alpha 90.000000
_cell_angle_beta 152.890217
_cell_angle_gamma 90.000000
_cell_volume 3805.565110
_symmetry_space_group_name_H-M "C 2/M"
_symmetry_group_IT_number 12
_symmetry_cell_setting 'monoclinic'
loop_
_space_group_symop_operation_xyz
x,y,z
-x,y,-z
-x,-y,-z
x,-y,z
1/2+x,1/2+y,z
1/2-x,1/2+y,-z
1/2-x,1/2-y,-z
1/2+x,1/2-y,z
loop_
_atom_site_type_symbol
_atom_site_label
_atom_site_fract_x
_atom_site_fract_y
_atom_site_fract_z
Si Si1 0.653576 0.638332 0.157733
Si Si2 0.030933 0.064877 0.810985
Si Si3 0.129333 0.368998 0.223862
Si Si4 0.644816 0.206414 0.432247
Si Si5 0.756139 0.194692 0.287374
Si Si6 0.926505 0.764237 0.103734
Si Si7 0.160540 0.934328 0.356474
Si Si8 0.518167 0.656281 0.416362
O O1 0.783268 0.659959 0.382912
O O2 0.617355 0.609013 0.198669
O O3 0.641147 0.590031 0.053328
O O4 0.570440 0.690623 0.983421
O O5 0.919438 0.076109 0.686512
O O6 0.016996 0.094213 0.681534
O O7 0.053656 0.000000 0.828173
O O8 0.142914 0.313283 0.316096
O O9 0.168840 0.350836 0.182643
O O10 0.209472 0.420525 0.395919
O O11 0.000000 0.390306 0.000000
O O12 0.697071 0.269162 0.539159
O O13 0.516145 0.213036 0.246894
O O14 0.852192 0.164062 0.390170
O O15 0.695189 0.234988 0.104182
O O16 0.942422 0.796064 0.233928
O O17 0.152400 0.000000 0.307083
O O18 0.500000 0.661253 0.500000
#
# Coordination Sequence:
#
# PCOD8083496 Si02
#       8
#     8   8   8   8   8   8   8   8
#     4   9  18  30  49  74 102 131 161 197 234 294
#     4  10  19  34  52  70  95 127 165 208 253 290
#     4  11  19  30  48  72 100 135 163 197 234 291
#     4   9  18  30  44  73 105 133 161 190 233 289
#     4  10  18  33  48  70 102 132 164 199 235 292
#     4   9  18  33  50  74 101 134 165 194 238 292
#     4  10  20  33  48  70 100 133 164 200 246 291
#     4  10  21  35  51  73  99 127 166 211 251 285
#
# _framework density 16.817475000000002
#
# number of rings (size 3 to 8) (size 9 to 14) (size 15 to 20)
#    0.000    2.250    2.500    1.125    0.000    2.000 
#    6.750    0.000    0.000    0.000    0.000    0.000 
#    0.000    1.000    0.000    0.000    0.000    0.000 
#
# Total GULP energy -396506.486314 kJ/mol
# GULP energy per Si atom -12390.827697 kJ/mol
# Density = 1.677920 g / cm^3
# Si number density = 16.817475 Si / 1000 Ang^3
#
#
#
# Elastic Constant Matrix: (Units=GPa)
#
#
# Indices 1 2 3 4 5 6 
#
# 1 71.0004 37.3709 40.3324 0.0000 -15.9607 0.0000
# 2 37.3709 77.2577 35.5900 0.0000 -5.5428 0.0000
# 3 40.3324 35.5900 98.3746 0.0000 -3.5533 0.0000
# 4 0.0000 0.0000 0.0000 18.2743 0.0000 2.6566
# 5 -15.9607 -5.5428 -3.5533 0.0000 20.4449 0.0000
# 6 0.0000 0.0000 0.0000 2.6566 0.0000 16.3561
#
#
#
# Elastic Compliance Matrix: (Units=1/GPa)
#
#
# Indices 1 2 3 4 5 6 
#
# 1 0.026335 -0.008188 -0.007218 0.000000 0.017084 0.000000
# 2 -0.008188 0.018296 -0.003335 0.000000 -0.002011 0.000000
# 3 -0.007218 -0.003335 0.014184 0.000000 -0.004074 0.000000
# 4 0.000000 0.000000 0.000000 0.056045 0.000000 -0.009103
# 5 0.017084 -0.002011 -0.004074 0.000000 0.060996 0.000000
# 6 0.000000 0.000000 0.000000 -0.009103 0.000000 0.062618
#
#
# Mechanical properties :
#
#
# Convention : Reuss Voigt Hill
#
# Bulk Modulus (GPa) = 46.87397 52.57993 49.72695
# Shear Modulus (GPa) = 17.66376 19.90435 18.78405
#
# Velocity S-wave (km/s) = 3.24438 3.44401 3.34569
# Velocity P-wave (km/s) = 6.47822 6.86643 6.67515
#
# Compressibility (1/GPa) = 0.02133380
#
# Stress axis : x y z
#
# Youngs Moduli (GPa) = 37.97280 54.65574 70.50332
#
# Poissons Ratio (x) = 0.44752 0.50886
# Poissons Ratio (y) = 0.31092 0.23513
# Poissons Ratio (z) = 0.27407 0.18227
#
# Static dielectric constant tensor:
#      x y z
#    x 2.701370 0.000000 0.023920 
#    y 0.000000 3.153780 0.000000 
#    z 0.023920 0.000000 3.409930 
# 
# 
# High freq. dielectric constant tensor:
#      x y z
#    x 1.597640 0.000000 -0.000880 
#    y 0.000000 1.641710 0.000000 
#    z -0.000880 0.000000 1.664500 
# 
# From -- ./inp_files/178445.got.cif
#   From: 2010.06.25/outbox.cif.g09.slc.cpg/sg12_90_cif.got.tgz:178445.got - 2010.06.28 00:19:55.
