data_PCOD8083466
_publ_section_title
;
Structure prediction by ZEFSAII (Michael W. Deem and Ramdas Pophale) SiO2 
 PCOD8083466
Probable space group: C 2/M
;
_chemical_formula_sum "Si O2"
_cell_formula_units_Z 64
_cell_length_a 12.636036
_cell_length_b 13.170895
_cell_length_c 21.398633
_cell_angle_alpha 90.000000
_cell_angle_beta 62.821390
_cell_angle_gamma 90.000000
_cell_volume 3168.112387
_symmetry_space_group_name_H-M "C 2/M"
_symmetry_group_IT_number 12
_symmetry_cell_setting 'monoclinic'
loop_
_space_group_symop_operation_xyz
x,y,z
-x,y,-z
-x,-y,-z
x,-y,z
1/2+x,1/2+y,z
1/2-x,1/2+y,-z
1/2-x,1/2-y,-z
1/2+x,1/2-y,z
loop_
_atom_site_type_symbol
_atom_site_label
_atom_site_fract_x
_atom_site_fract_y
_atom_site_fract_z
Si Si1 0.558034 0.744891 0.092437
Si Si2 0.973699 0.251899 0.343725
Si Si3 0.794463 0.112009 0.447870
Si Si4 0.251310 0.114510 0.987179
Si Si5 0.082126 0.880694 0.205843
Si Si6 0.347557 0.113939 0.100877
Si Si7 0.397549 0.788526 0.577320
Si Si8 0.733727 0.114435 0.603881
O O1 0.623357 0.670954 0.024118
O O2 0.525663 0.676338 0.161017
O O3 0.441401 0.799724 0.096018
O O4 0.658305 0.829262 0.084957
O O5 0.905189 0.187917 0.416091
O O6 0.883352 0.331324 0.335068
O O7 0.030285 0.174391 0.280052
O O8 0.068153 0.314823 0.360053
O O9 0.709824 0.137509 0.412257
O O10 0.722240 0.122275 0.531824
O O11 0.845419 0.000000 0.425458
O O12 0.319478 0.121114 0.035167
O O13 0.228748 0.000000 0.971285
O O14 0.224516 0.869133 0.170952
O O15 0.046342 0.000000 0.213075
O O16 0.397716 0.000000 0.101789
O O17 0.500000 0.806790 0.500000
O O18 0.354032 0.671180 0.590828
O O19 0.740298 0.000000 0.627150
#
# Coordination Sequence:
#
# PCOD8083466 Si02
#       8
#     8   8   8   8   8   8   8   8
#     4  10  18  32  59  84 112 148 184 226 265 309
#     4  11  21  38  56  75 108 144 184 227 275 328
#     4  10  20  34  55  82 108 138 174 216 276 342
#     4   9  18  33  57  90 118 145 183 222 269 319
#     4  10  23  40  56  76 106 150 192 225 268 329
#     4   9  18  34  58  88 116 145 186 226 266 317
#     4  11  19  34  54  81 106 133 172 225 277 326
#     4  10  21  35  54  82 110 134 170 224 283 336
#
# _framework density 20.201305000000001
#
# number of rings (size 3 to 8) (size 9 to 14) (size 15 to 20)
#    0.000    2.000    2.500    3.000    0.000    5.000 
#    0.000    2.500    0.000   34.500    0.000    0.000 
#    0.000    0.000    0.000    0.000    0.000    0.000 
#
# Total GULP energy -396564.840269 kJ/mol
# GULP energy per Si atom -12392.651258 kJ/mol
# Density = 2.015533 g / cm^3
# Si number density = 20.201305 Si / 1000 Ang^3
#
#
#
# Elastic Constant Matrix: (Units=GPa)
#
#
# Indices 1 2 3 4 5 6 
#
# 1 50.2842 -6.6570 2.0611 0.0000 -2.8078 0.0000
# 2 -6.6570 74.9962 6.3310 0.0000 -12.5646 0.0000
# 3 2.0611 6.3310 51.9190 0.0000 -5.6607 0.0000
# 4 0.0000 0.0000 0.0000 30.3575 0.0000 0.0051
# 5 -2.8078 -12.5646 -5.6607 0.0000 17.5345 0.0000
# 6 0.0000 0.0000 0.0000 0.0051 0.0000 30.4576
#
#
#
# Elastic Compliance Matrix: (Units=1/GPa)
#
#
# Indices 1 2 3 4 5 6 
#
# 1 0.020553 0.002721 -0.000597 0.000000 0.005048 0.000000
# 2 0.002721 0.015537 -0.000768 0.000000 0.011321 0.000000
# 3 -0.000597 -0.000768 0.020012 0.000000 0.005814 0.000000
# 4 0.000000 0.000000 0.000000 0.032941 0.000000 -0.000005
# 5 0.005048 0.011321 0.005814 0.000000 0.067828 0.000000
# 6 0.000000 0.000000 0.000000 -0.000005 0.000000 0.032832
#
#
# Mechanical properties :
#
#
# Convention : Reuss Voigt Hill
#
# Bulk Modulus (GPa) = 17.00320 20.07441 18.53880
# Shear Modulus (GPa) = 24.20158 27.36755 25.78456
#
# Velocity S-wave (km/s) = 3.46500 3.68467 3.57652
# Velocity P-wave (km/s) = 4.94403 5.29728 5.12370
#
# Compressibility (1/GPa) = 0.05881247
#
# Stress axis : x y z
#
# Youngs Moduli (GPa) = 48.65359 64.36237 49.96982
#
# Poissons Ratio (x) = -0.17510 0.02985
# Poissons Ratio (y) = -0.13236 0.03839
# Poissons Ratio (z) = 0.02906 0.04945
#
# Static dielectric constant tensor:
#      x y z
#    x 3.604650 0.000000 -0.213020 
#    y 0.000000 3.922710 0.000000 
#    z -0.213020 0.000000 3.422010 
# 
# 
# High freq. dielectric constant tensor:
#      x y z
#    x 1.780230 0.000000 -0.015500 
#    y 0.000000 1.800020 0.000000 
#    z -0.015500 0.000000 1.754520 
# 
# From -- ./inp_files/305429.got.cif
#   From: 2010.06.25/outbox.cif.g09.slc.cpg/sg12_153_cif.got.tgz:305429.got - 2010.06.28 00:19:55.
