data_PCOD8083282
_publ_section_title
;
Structure prediction by ZEFSAII (Michael W. Deem and Ramdas Pophale) SiO2 
 PCOD8083282
Probable space group: C 2/M
;
_chemical_formula_sum "Si O2"
_cell_formula_units_Z 64
_cell_length_a 18.091420
_cell_length_b 17.222501
_cell_length_c 22.068894
_cell_angle_alpha 90.000000
_cell_angle_beta 150.845873
_cell_angle_gamma 90.000000
_cell_volume 3349.821070
_symmetry_space_group_name_H-M "C 2/M"
_symmetry_group_IT_number 12
_symmetry_cell_setting 'monoclinic'
loop_
_space_group_symop_operation_xyz
x,y,z
-x,y,-z
-x,-y,-z
x,-y,z
1/2+x,1/2+y,z
1/2-x,1/2+y,-z
1/2-x,1/2-y,-z
1/2+x,1/2-y,z
loop_
_atom_site_type_symbol
_atom_site_label
_atom_site_fract_x
_atom_site_fract_y
_atom_site_fract_z
Si Si1 0.944150 0.087935 0.393744
Si Si2 0.458798 0.274925 0.608331
Si Si3 0.113565 0.090897 0.216626
Si Si4 0.808244 0.166111 0.969226
Si Si5 0.731352 0.697770 0.196480
Si Si6 0.444913 0.185198 0.124229
Si Si7 0.150451 0.208268 0.342790
Si Si8 0.102368 0.362206 0.127804
O O1 0.765162 0.097510 0.251835
O O2 0.000000 0.113664 0.500000
O O3 0.045524 0.138930 0.421586
O O4 0.990362 0.000000 0.414378
O O5 0.597652 0.228031 0.679411
O O6 0.313707 0.225403 0.486675
O O7 0.471666 0.288531 0.689785
O O8 0.208541 0.132431 0.231200
O O9 0.158653 0.125418 0.314742
O O10 0.151434 0.000000 0.242928
O O11 0.934512 0.104774 0.080135
O O12 0.798495 0.159478 0.890032
O O13 0.650740 0.143622 0.890669
O O14 0.841999 0.254135 0.013250
O O15 0.618973 0.769351 0.129361
O O16 0.596641 0.226958 0.257050
O O17 0.506329 0.121895 0.120363
O O18 0.000000 0.397538 0.000000
#
# Coordination Sequence:
#
# PCOD8083282 Si02
#       8
#     8   8   8   8   8   8   8   8
#     4  10  23  39  57  84 117 152 187 235 305 364
#     4  10  22  36  64  86 111 148 200 248 287 345
#     4  11  24  38  57  85 124 160 190 239 300 358
#     4  10  19  32  54  81 115 152 196 237 281 338
#     4  11  19  35  56  88 115 153 198 241 285 340
#     4  10  18  32  55  83 115 144 191 249 283 326
#     4  10  20  39  58  89 112 148 202 244 285 343
#     4  11  19  33  59  87 116 149 197 247 287 340
#
# _framework density 19.105497
#
# number of rings (size 3 to 8) (size 9 to 14) (size 15 to 20)
#    0.000    1.625    5.000    1.125    1.750    1.750 
#    0.000    1.875    0.000    1.500    0.000    0.000 
#    0.000    0.000    0.000    0.000    0.000    0.000 
#
# Total GULP energy -396739.915749 kJ/mol
# GULP energy per Si atom -12398.122367 kJ/mol
# Density = 1.906201 g / cm^3
# Si number density = 19.105497 Si / 1000 Ang^3
#
#
#
# Elastic Constant Matrix: (Units=GPa)
#
#
# Indices 1 2 3 4 5 6 
#
# 1 116.6711 42.4851 25.5607 0.0022 -6.0691 -0.0001
# 2 42.4851 73.6896 21.4983 -0.0017 -7.0556 -0.0043
# 3 25.5607 21.4983 85.5252 -0.0011 -12.3747 -0.0004
# 4 0.0022 -0.0017 -0.0011 14.4324 -0.0054 -2.2243
# 5 -6.0691 -7.0556 -12.3747 -0.0054 31.4218 -0.0019
# 6 -0.0001 -0.0043 -0.0004 -2.2243 -0.0019 15.1842
#
#
#
# Elastic Compliance Matrix: (Units=1/GPa)
#
#
# Indices 1 2 3 4 5 6 
#
# 1 0.011113 -0.005862 -0.001832 -0.000003 0.000109 -0.000002
# 2 -0.005862 0.017850 -0.002459 0.000004 0.001907 0.000006
# 3 -0.001832 -0.002459 0.013496 0.000003 0.004409 0.000001
# 4 -0.000003 0.000004 0.000003 0.070889 0.000014 0.010384
# 5 0.000109 0.001907 0.004409 0.000014 0.034011 0.000007
# 6 -0.000002 0.000006 0.000001 0.010384 0.000007 0.067379
#
#
# Mechanical properties :
#
#
# Convention : Reuss Voigt Hill
#
# Bulk Modulus (GPa) = 45.14084 50.55266 47.84675
# Shear Modulus (GPa) = 20.62466 24.63047 22.62757
#
# Velocity S-wave (km/s) = 3.28916 3.59441 3.44517
# Velocity P-wave (km/s) = 6.17278 6.61389 6.39714
#
# Compressibility (1/GPa) = 0.02215289
#
# Stress axis : x y z
#
# Youngs Moduli (GPa) = 89.98666 56.02180 74.09577
#
# Poissons Ratio (x) = 0.32841 0.13574
# Poissons Ratio (y) = 0.52751 0.18220
# Poissons Ratio (z) = 0.16485 0.13776
#
# Static dielectric constant tensor:
#      x y z
#    x 3.855670 -0.000020 -0.089650 
#    y -0.000020 3.083630 -0.000020 
#    z -0.089650 -0.000020 3.504490 
# 
# 
# High freq. dielectric constant tensor:
#      x y z
#    x 1.762350 0.000000 -0.004840 
#    y 0.000000 1.696560 0.000000 
#    z -0.004840 0.000000 1.748000 
# 
# From -- ./inp_files/317338.got.cif
#   From: 2010.06.25/outbox.cif.g09.slc.cpg/sg12_159_cif.got.tgz:317338.got - 2010.06.28 00:19:55.
