data_PCOD8083827
_publ_section_title
;
Structure prediction by ZEFSAII (Michael W. Deem and Ramdas Pophale) SiO2 
 PCOD8083827
Probable space group: C 2/M
;
_chemical_formula_sum "Si O2"
_cell_formula_units_Z 64
_cell_length_a 30.398749
_cell_length_b 8.852086
_cell_length_c 16.734597
_cell_angle_alpha 90.000000
_cell_angle_beta 45.526464
_cell_angle_gamma 90.000000
_cell_volume 3213.332598
_symmetry_space_group_name_H-M "C 2/M"
_symmetry_group_IT_number 12
_symmetry_cell_setting 'monoclinic'
loop_
_space_group_symop_operation_xyz
x,y,z
-x,y,-z
-x,-y,-z
x,-y,z
1/2+x,1/2+y,z
1/2-x,1/2+y,-z
1/2-x,1/2-y,-z
1/2+x,1/2-y,z
loop_
_atom_site_type_symbol
_atom_site_label
_atom_site_fract_x
_atom_site_fract_y
_atom_site_fract_z
Si Si1 0.387480 0.171989 0.786493
Si Si2 0.005642 0.322249 0.229370
Si Si3 0.411228 0.675955 0.000489
Si Si4 0.377679 0.679520 0.376822
Si Si5 0.348856 0.321564 0.237101
Si Si6 0.211261 0.320888 0.384481
Si Si7 0.823389 0.826722 0.732988
Si Si8 0.190290 0.329366 0.966253
O O1 0.447392 0.224861 0.759980
O O2 0.379984 0.272807 0.716663
O O3 0.395260 0.000000 0.748580
O O4 0.326970 0.191460 0.918937
O O5 0.994895 0.500000 0.240229
O O6 0.942140 0.239040 0.329144
O O7 0.032948 0.269896 0.109088
O O8 0.427604 0.500000 0.972285
O O9 0.400867 0.725056 0.106037
O O10 0.346848 0.707925 0.038242
O O11 0.376281 0.500000 0.383294
O O12 0.369268 0.740908 0.297151
O O13 0.322169 0.746478 0.498074
O O14 0.343331 0.500000 0.247624
O O15 0.281547 0.259431 0.297055
O O16 0.206995 0.500000 0.397311
O O17 0.178231 0.270325 0.345235
O O18 0.762084 0.800240 0.862814
O O19 0.833325 0.000000 0.696482
O O20 0.171417 0.500000 0.963448
#
# Coordination Sequence:
#
# PCOD8083827 Si02
#       8
#     8   8   8   8   8   8   8   8
#     4   9  19  35  55  79 113 153 190 231 282 341
#     4  10  22  41  59  83 118 155 195 238 286 341
#     4  10  18  33  58  87 117 154 191 233 283 340
#     4  11  23  41  62  85 112 150 197 244 289 338
#     4   9  20  37  60  89 119 149 188 235 290 346
#     4  11  22  40  61  85 118 154 191 235 288 345
#     4  11  21  33  54  86 118 149 190 236 284 339
#     4   9  18  32  50  80 120 154 185 230 284 340
#
# _framework density 19.917017999999999
#
# number of rings (size 3 to 8) (size 9 to 14) (size 15 to 20)
#    0.000    2.000    1.250    3.375    0.000    3.500 
#    0.000    7.500    0.000    3.750    0.000    0.000 
#    0.000    0.000    0.000    0.000    0.000    0.000 
#
# Total GULP energy -396826.859238 kJ/mol
# GULP energy per Si atom -12400.839351 kJ/mol
# Density = 1.987169 g / cm^3
# Si number density = 19.917018 Si / 1000 Ang^3
#
#
#
# Elastic Constant Matrix: (Units=GPa)
#
#
# Indices 1 2 3 4 5 6 
#
# 1 70.5677 22.9519 19.4114 0.0004 11.1839 -0.0002
# 2 22.9519 69.1536 17.3060 0.0018 2.7088 -0.0025
# 3 19.4114 17.3060 42.2083 0.0001 1.0586 -0.0005
# 4 0.0004 0.0018 0.0001 34.0947 0.0001 0.4620
# 5 11.1839 2.7088 1.0586 0.0001 28.0718 0.0001
# 6 -0.0002 -0.0025 -0.0005 0.4620 0.0001 24.4874
#
#
#
# Elastic Compliance Matrix: (Units=1/GPa)
#
#
# Indices 1 2 3 4 5 6 
#
# 1 0.018404 -0.004202 -0.006574 0.000000 -0.006679 0.000000
# 2 -0.004202 0.017121 -0.005093 -0.000001 0.000214 0.000002
# 3 -0.006574 -0.005093 0.028753 0.000000 0.002026 0.000000
# 4 0.000000 -0.000001 0.000000 0.029338 0.000000 -0.000554
# 5 -0.006679 0.000214 0.002026 0.000000 0.038187 0.000000
# 6 0.000000 0.000002 0.000000 -0.000554 0.000000 0.040848
#
#
# Mechanical properties :
#
#
# Convention : Reuss Voigt Hill
#
# Bulk Modulus (GPa) = 30.73016 33.47423 32.10220
# Shear Modulus (GPa) = 23.23055 25.48147 24.35601
#
# Velocity S-wave (km/s) = 3.41892 3.58073 3.50076
# Velocity P-wave (km/s) = 5.57207 5.82570 5.70029
#
# Compressibility (1/GPa) = 0.03254132
#
# Stress axis : x y z
#
# Youngs Moduli (GPa) = 54.33568 58.40701 34.77943
#
# Poissons Ratio (x) = 0.24540 0.22863
# Poissons Ratio (y) = 0.22829 0.17713
# Poissons Ratio (z) = 0.35719 0.29747
#
# Static dielectric constant tensor:
#      x y z
#    x 3.555520 0.000000 0.072720 
#    y 0.000000 3.505010 0.000000 
#    z 0.072720 0.000000 3.632210 
# 
# 
# High freq. dielectric constant tensor:
#      x y z
#    x 1.771220 0.000000 0.006310 
#    y 0.000000 1.770740 0.000000 
#    z 0.006310 0.000000 1.770930 
# 
# From -- ./inp_files/249790.got.cif
#   From: 2010.06.25/outbox.cif.g09.slc.cpg/sg12_125_cif.got.tgz:249790.got - 2010.06.28 00:19:55.
