data_PCOD8083256
_publ_section_title
;
Structure prediction by ZEFSAII (Michael W. Deem and Ramdas Pophale) SiO2 
 PCOD8083256
Probable space group: C 2/M
;
_chemical_formula_sum "Si O2"
_cell_formula_units_Z 56
_cell_length_a 20.591580
_cell_length_b 8.936307
_cell_length_c 30.250319
_cell_angle_alpha 90.000000
_cell_angle_beta 146.761409
_cell_angle_gamma 90.000000
_cell_volume 3051.115604
_symmetry_space_group_name_H-M "C 2/M"
_symmetry_group_IT_number 12
_symmetry_cell_setting 'monoclinic'
loop_
_space_group_symop_operation_xyz
x,y,z
-x,y,-z
-x,-y,-z
x,-y,z
1/2+x,1/2+y,z
1/2-x,1/2+y,-z
1/2-x,1/2-y,-z
1/2+x,1/2-y,z
loop_
_atom_site_type_symbol
_atom_site_label
_atom_site_fract_x
_atom_site_fract_y
_atom_site_fract_z
Si Si1 0.073722 0.673887 0.914502
Si Si2 0.304251 0.326231 0.097211
Si Si3 0.662557 0.325990 0.224655
Si Si4 0.589708 0.822186 0.672331
Si Si5 0.052636 0.322919 0.750031
Si Si6 0.569207 0.822031 0.496996
Si Si7 0.170241 0.826191 0.332780
O O1 0.069489 0.500000 0.899407
O O2 0.109647 0.765559 0.891712
O O3 0.946302 0.732196 0.857835
O O4 0.167302 0.703303 0.007144
O O5 0.333170 0.500000 0.119051
O O6 0.333815 0.243352 0.159649
O O7 0.640618 0.500000 0.202340
O O8 0.780184 0.265785 0.267563
O O9 0.675757 0.294875 0.283981
O O10 0.558111 0.762669 0.703004
O O11 0.491918 0.759113 0.582349
O O12 0.588246 0.000000 0.669705
O O13 0.060923 0.500000 0.756463
O O14 0.931304 0.271402 0.703012
O O15 0.500000 0.755762 0.500000
O O16 0.705934 0.771919 0.575562
O O17 0.561328 0.000000 0.494405
O O18 0.145441 0.000000 0.328384
#
# Coordination Sequence:
#
# PCOD8083256 Si02
#       7
#     8   8   8   8   8   8   8
#     4  10  20  33  54  83 108 134 173 222 272 314
#     4  10  20  35  54  77 107 141 179 218 259 319
#     4  10  18  32  55  81 107 139 181 223 259 310
#     4   9  19  34  52  78 110 145 183 221 263 313
#     4  11  22  35  52  77 113 147 176 218 270 319
#     4   9  15  29  54  81 105 134 180 228 263 305
#     4  10  19  31  55  83 104 135 181 225 264 314
#
# _framework density 18.353942
#
# number of rings (size 3 to 8) (size 9 to 14) (size 15 to 20)
#    0.000    2.143    2.857    1.286    0.000    2.286 
#    0.000    2.143    0.000    6.429    0.000    0.000 
#    0.000    0.000    0.000    0.000    0.000    0.000 
#
# Total GULP energy -347226.491276 kJ/mol
# GULP energy per Si atom -12400.946117 kJ/mol
# Density = 1.831217 g / cm^3
# Si number density = 18.353942 Si / 1000 Ang^3
#
#
#
# Elastic Constant Matrix: (Units=GPa)
#
#
# Indices 1 2 3 4 5 6 
#
# 1 88.5180 34.2805 51.3121 0.0000 -9.0736 -0.0001
# 2 34.2805 56.5688 43.5443 0.0000 -3.0031 0.0000
# 3 51.3121 43.5443 144.2174 -0.0001 -2.0363 0.0000
# 4 0.0000 0.0000 -0.0001 23.1133 0.0000 2.2142
# 5 -9.0736 -3.0031 -2.0363 0.0000 31.8342 0.0001
# 6 -0.0001 0.0000 0.0000 2.2142 0.0001 19.8354
#
#
#
# Elastic Compliance Matrix: (Units=1/GPa)
#
#
# Indices 1 2 3 4 5 6 
#
# 1 0.016545 -0.006948 -0.003735 0.000000 0.003821 0.000000
# 2 -0.006948 0.026044 -0.005389 0.000000 0.000132 0.000000
# 3 -0.003735 -0.005389 0.009877 0.000000 -0.000941 0.000000
# 4 0.000000 0.000000 0.000000 0.043733 0.000000 -0.004882
# 5 0.003821 0.000132 -0.000941 0.000000 0.032454 0.000000
# 6 0.000000 0.000000 0.000000 -0.004882 0.000000 0.050960
#
#
# Mechanical properties :
#
#
# Convention : Reuss Voigt Hill
#
# Bulk Modulus (GPa) = 49.21196 60.84201 55.02698
# Shear Modulus (GPa) = 22.88012 25.63441 24.25726
#
# Velocity S-wave (km/s) = 3.53456 3.74126 3.63938
# Velocity P-wave (km/s) = 6.59761 7.20305 6.90697
#
# Compressibility (1/GPa) = 0.02032027
#
# Stress axis : x y z
#
# Youngs Moduli (GPa) = 60.44255 38.39671 101.24808
#
# Poissons Ratio (x) = 0.26680 0.37812
# Poissons Ratio (y) = 0.41998 0.54568
# Poissons Ratio (z) = 0.22573 0.20694
#
# Static dielectric constant tensor:
#      x y z
#    x 3.314090 0.000000 -0.004380 
#    y 0.000000 3.101380 0.000000 
#    z -0.004380 0.000000 3.746130 
# 
# 
# High freq. dielectric constant tensor:
#      x y z
#    x 1.694570 0.000000 0.007180 
#    y 0.000000 1.684830 0.000000 
#    z 0.007180 0.000000 1.730130 
# 
# From -- ./inp_files/342591.got.cif
#   From: 2010.06.25/outbox.cif.g09.slc.cpg/sg12_172_cif.got.tgz:342591.got - 2010.06.28 00:19:55.
