data_PCOD8083732
_publ_section_title
;
Structure prediction by ZEFSAII (Michael W. Deem and Ramdas Pophale) SiO2 
 PCOD8083732
Probable space group: C 2/M
;
_chemical_formula_sum "Si O2"
_cell_formula_units_Z 64
_cell_length_a 20.686533
_cell_length_b 8.813590
_cell_length_c 21.726093
_cell_angle_alpha 90.000000
_cell_angle_beta 119.158487
_cell_angle_gamma 90.000000
_cell_volume 3459.181705
_symmetry_space_group_name_H-M "C 2/M"
_symmetry_group_IT_number 12
_symmetry_cell_setting 'monoclinic'
loop_
_space_group_symop_operation_xyz
x,y,z
-x,y,-z
-x,-y,-z
x,-y,z
1/2+x,1/2+y,z
1/2-x,1/2+y,-z
1/2-x,1/2-y,-z
1/2+x,1/2-y,z
loop_
_atom_site_type_symbol
_atom_site_label
_atom_site_fract_x
_atom_site_fract_y
_atom_site_fract_z
Si Si1 0.337032 0.822078 0.156162
Si Si2 0.670685 0.821333 0.451283
Si Si3 0.553128 0.328525 0.708369
Si Si4 0.533566 0.320769 0.450770
Si Si5 0.912566 0.180366 0.073926
Si Si6 0.102020 0.827122 0.304305
Si Si7 0.669264 0.680283 0.085277
Si Si8 0.921350 0.180509 0.841703
O O1 0.381517 0.781002 0.238869
O O2 0.370230 0.735870 0.113958
O O3 0.253499 0.764104 0.125641
O O4 0.340941 0.000000 0.146029
O O5 0.750000 0.750000 0.500000
O O6 0.611865 0.759133 0.473901
O O7 0.646563 0.781045 0.370742
O O8 0.675881 0.000000 0.461079
O O9 0.583531 0.500000 0.719414
O O10 0.525960 0.273909 0.628675
O O11 0.485633 0.318151 0.724826
O O12 0.500000 0.266541 0.500000
O O13 0.548357 0.500000 0.455836
O O14 0.995841 0.245615 0.112195
O O15 0.912554 0.000000 0.074670
O O16 0.871021 0.243559 0.994244
O O17 0.114607 0.770344 0.240284
O O18 0.129558 0.000000 0.327257
O O19 0.664651 0.500000 0.084311
O O20 0.628768 0.747367 0.126815
O O21 0.925027 0.000000 0.845969
#
# Coordination Sequence:
#
# PCOD8083732 Si02
#       8
#     8   8   8   8   8   8   8   8
#     4  11  21  32  48  75 110 141 170 214 268 316
#     4  11  22  37  58  84 115 148 185 225 269 322
#     4   9  17  33  56  80 103 137 180 214 254 314
#     4   9  19  38  62  85 112 143 179 227 277 326
#     4  10  18  33  57  77  95 133 184 222 260 316
#     4   9  17  33  57  81 104 135 180 225 268 315
#     4   9  19  32  49  77 107 133 170 223 273 314
#     4   9  16  31  55  79 101 130 176 227 268 309
#
# _framework density 18.501486
#
# number of rings (size 3 to 8) (size 9 to 14) (size 15 to 20)
#    0.000    2.375    1.250    3.000    0.000    3.750 
#    2.250    0.625    0.000    4.500    0.000    0.000 
#    0.000    0.000    0.000    0.000    0.000    0.000 
#
# Total GULP energy -396805.402303 kJ/mol
# GULP energy per Si atom -12400.168822 kJ/mol
# Density = 1.845938 g / cm^3
# Si number density = 18.501486 Si / 1000 Ang^3
#
#
#
# Elastic Constant Matrix: (Units=GPa)
#
#
# Indices 1 2 3 4 5 6 
#
# 1 146.0694 30.8457 86.3689 0.0000 -2.5489 0.0000
# 2 30.8457 46.1615 30.8949 0.0000 5.3357 0.0000
# 3 86.3689 30.8949 131.6567 0.0000 -5.5235 0.0000
# 4 0.0000 0.0000 0.0000 25.2317 0.0000 3.8213
# 5 -2.5489 5.3357 -5.5235 0.0000 33.8142 0.0000
# 6 0.0000 0.0000 0.0000 3.8213 0.0000 21.1896
#
#
#
# Elastic Compliance Matrix: (Units=1/GPa)
#
#
# Indices 1 2 3 4 5 6 
#
# 1 0.011558 -0.003186 -0.006824 0.000000 0.000259 0.000000
# 2 -0.003186 0.027473 -0.004580 0.000000 -0.005323 0.000000
# 3 -0.006824 -0.004580 0.013246 0.000000 0.002372 0.000000
# 4 0.000000 0.000000 0.000000 0.040746 0.000000 -0.007348
# 5 0.000259 -0.005323 0.002372 0.000000 0.030820 0.000000
# 6 0.000000 0.000000 0.000000 -0.007348 0.000000 0.048518
#
#
# Mechanical properties :
#
#
# Convention : Reuss Voigt Hill
#
# Bulk Modulus (GPa) = 43.29519 68.90074 56.09797
# Shear Modulus (GPa) = 23.89597 27.76565 25.83081
#
# Velocity S-wave (km/s) = 3.59774 3.87812 3.74056
# Velocity P-wave (km/s) = 6.38044 7.57460 7.00302
#
# Compressibility (1/GPa) = 0.02309725
#
# Stress axis : x y z
#
# Youngs Moduli (GPa) = 86.51794 36.39972 75.49287
#
# Poissons Ratio (x) = 0.11598 0.51515
# Poissons Ratio (y) = 0.27568 0.34575
# Poissons Ratio (z) = 0.59038 0.16671
#
# Static dielectric constant tensor:
#      x y z
#    x 3.471680 0.000000 -0.034080 
#    y 0.000000 3.089280 0.000000 
#    z -0.034080 0.000000 3.635220 
# 
# 
# High freq. dielectric constant tensor:
#      x y z
#    x 1.713010 0.000000 -0.001830 
#    y 0.000000 1.685480 0.000000 
#    z -0.001830 0.000000 1.730810 
# 
# From -- ./inp_files/320042.got.cif
#   From: 2010.06.25/outbox.cif.g09.slc.cpg/sg12_161_cif.got.tgz:320042.got - 2010.06.28 00:19:55.
