data_PCOD8083754
_publ_section_title
;
Structure prediction by ZEFSAII (Michael W. Deem and Ramdas Pophale) SiO2 
 PCOD8083754
Probable space group: C 2/M
;
_chemical_formula_sum "Si O2"
_cell_formula_units_Z 44
_cell_length_a 9.247576
_cell_length_b 27.796536
_cell_length_c 9.492967
_cell_angle_alpha 90.000000
_cell_angle_beta 111.666202
_cell_angle_gamma 90.000000
_cell_volume 2267.775732
_symmetry_space_group_name_H-M "C 2/M"
_symmetry_group_IT_number 12
_symmetry_cell_setting 'monoclinic'
loop_
_space_group_symop_operation_xyz
x,y,z
-x,y,-z
-x,-y,-z
x,-y,z
1/2+x,1/2+y,z
1/2-x,1/2+y,-z
1/2-x,1/2-y,-z
1/2+x,1/2-y,z
loop_
_atom_site_type_symbol
_atom_site_label
_atom_site_fract_x
_atom_site_fract_y
_atom_site_fract_z
Si Si1 0.924894 0.212869 0.334254
Si Si2 0.740323 0.555069 0.694107
Si Si3 0.962140 0.609662 0.149034
Si Si4 0.055089 0.711764 0.178688
Si Si5 0.836309 0.944656 0.010575
Si Si6 0.000000 0.878047 0.500000
O O1 0.984163 0.240535 0.220348
O O2 0.000000 0.238710 0.500000
O O3 0.739144 0.212087 0.266639
O O4 0.987072 0.157212 0.357878
O O5 0.725737 0.500000 0.642711
O O6 0.665664 0.563633 0.821976
O O7 0.649708 0.587460 0.547490
O O8 0.919675 0.570226 0.747138
O O9 0.985789 0.662816 0.225248
O O10 0.788845 0.589863 0.110347
O O11 0.000000 0.615941 0.000000
O O12 0.000000 0.714879 0.000000
O O13 0.793274 0.000000 0.962856
O O14 0.000000 0.930717 0.000000
#
# Coordination Sequence:
#
# PCOD8083754 Si02
#       6
#     8   8   8   8   8   4
#     4  10  22  39  59  78 118 153 185 236 292 334
#     4  10  18  33  57  81 107 145 186 224 272 332
#     4   9  17  32  54  81 109 141 183 227 274 333
#     4  11  21  39  59  86 113 150 194 242 279 337
#     4   9  18  33  53  82 115 140 172 227 287 336
#     4  10  21  36  56  78 114 142 195 226 286 326
#
# _framework density 19.402270999999999
#
# number of rings (size 3 to 8) (size 9 to 14) (size 15 to 20)
#    0.545    1.636    1.818    1.909    0.000    2.182 
#    3.273    0.000    0.000    0.000    0.000    5.091 
#    0.000    0.000    0.000    0.000    0.000    0.000 
#
# Total GULP energy -272617.253613 kJ/mol
# GULP energy per Si atom -12391.693346 kJ/mol
# Density = 1.935811 g / cm^3
# Si number density = 19.402271 Si / 1000 Ang^3
#
#
#
# Elastic Constant Matrix: (Units=GPa)
#
#
# Indices 1 2 3 4 5 6 
#
# 1 125.0579 71.6750 49.6786 0.0000 35.8616 0.0000
# 2 71.6750 166.2010 47.8763 0.0000 20.6545 0.0000
# 3 49.6786 47.8763 52.9340 0.0000 28.8009 0.0000
# 4 0.0000 0.0000 0.0000 37.0803 0.0000 13.9410
# 5 35.8616 20.6545 28.8009 0.0000 29.9898 0.0000
# 6 0.0000 0.0000 0.0000 13.9410 0.0000 22.5196
#
#
#
# Elastic Compliance Matrix: (Units=1/GPa)
#
#
# Indices 1 2 3 4 5 6 
#
# 1 0.015266 -0.003798 -0.004990 0.000000 -0.010846 0.000000
# 2 -0.003798 0.009218 -0.007937 0.000000 0.005815 0.000000
# 3 -0.004990 -0.007937 0.051380 0.000000 -0.037909 0.000000
# 4 0.000000 0.000000 0.000000 0.035149 0.000000 -0.021760
# 5 -0.010846 0.005815 -0.037909 0.000000 0.078715 0.000000
# 6 0.000000 0.000000 0.000000 -0.021760 0.000000 0.057876
#
#
# Mechanical properties :
#
#
# Convention : Reuss Voigt Hill
#
# Bulk Modulus (GPa) = 23.57801 75.85030 49.71416
# Shear Modulus (GPa) = 16.93801 29.58214 23.26007
#
# Velocity S-wave (km/s) = 2.95785 3.90894 3.46617
# Velocity P-wave (km/s) = 4.88300 7.71696 6.45737
#
# Compressibility (1/GPa) = 0.04241240
#
# Stress axis : x y z
#
# Youngs Moduli (GPa) = 65.50610 108.47808 19.46295
#
# Poissons Ratio (x) = 0.41199 0.09713
# Poissons Ratio (y) = 0.24879 0.15448
# Poissons Ratio (z) = 0.32691 0.86103
#
# Static dielectric constant tensor:
#      x y z
#    x 3.215020 0.000000 0.381060 
#    y 0.000000 3.843690 0.000000 
#    z 0.381060 0.000000 3.478960 
# 
# 
# High freq. dielectric constant tensor:
#      x y z
#    x 1.732200 0.000000 0.040550 
#    y 0.000000 1.772850 0.000000 
#    z 0.040550 0.000000 1.737030 
# 
# From -- ./inp_files/123182.got.cif
#   From: 2010.06.25/outbox.cif.g09.slc.cpg/sg12_62_cif.got.tgz:123182.got - 2010.06.28 00:19:55.
