data_PCOD8083289
_publ_section_title
;
Structure prediction by ZEFSAII (Michael W. Deem and Ramdas Pophale) SiO2 
 PCOD8083289
Probable space group: C 2/M
;
_chemical_formula_sum "Si O2"
_cell_formula_units_Z 32
_cell_length_a 17.923483
_cell_length_b 8.388098
_cell_length_c 21.575713
_cell_angle_alpha 90.000000
_cell_angle_beta 28.115456
_cell_angle_gamma 90.000000
_cell_volume 1528.629591
_symmetry_space_group_name_H-M "C 2/M"
_symmetry_group_IT_number 12
_symmetry_cell_setting 'monoclinic'
loop_
_space_group_symop_operation_xyz
x,y,z
-x,y,-z
-x,-y,-z
x,-y,z
1/2+x,1/2+y,z
1/2-x,1/2+y,-z
1/2-x,1/2-y,-z
1/2+x,1/2-y,z
loop_
_atom_site_type_symbol
_atom_site_label
_atom_site_fract_x
_atom_site_fract_y
_atom_site_fract_z
Si Si1 0.938439 0.684827 0.978438
Si Si2 0.883344 0.185326 0.263717
Si Si3 0.899943 0.315430 0.788308
Si Si4 0.636480 0.311231 0.529419
O O1 0.890931 0.500000 0.013686
O O2 0.075268 0.717238 0.828361
O O3 0.786508 0.788260 0.071110
O O4 0.000000 0.740902 0.000000
O O5 0.707338 0.242097 0.413524
O O6 0.013963 0.217041 0.220787
O O7 0.879698 0.000000 0.250662
O O8 0.939721 0.500000 0.769371
O O9 0.962873 0.256972 0.674354
O O10 0.630977 0.500000 0.530105
O O11 0.750000 0.250000 0.500000
#
# Coordination Sequence:
#
# PCOD8083289 Si02
#       4
#     8   8   8   8
#     4  11  24  41  58  79 111 149 188 231 280 331
#     4  11  21  36  59  86 115 146 185 229 276 329
#     4  11  21  36  59  86 115 146 185 229 276 329
#     4  10  18  32  55  84 115 144 181 227 277 327
#
# _framework density 20.933782999999998
#
# number of rings (size 3 to 8) (size 9 to 14) (size 15 to 20)
#    0.000    1.250    0.000   11.250    0.000    2.000 
#    0.000    1.250    0.000    7.500    0.000    0.000 
#    0.000    0.000    0.000    0.000    0.000    0.000 
#
# Total GULP energy -198437.687151 kJ/mol
# GULP energy per Si atom -12402.355447 kJ/mol
# Density = 2.088614 g / cm^3
# Si number density = 20.933783 Si / 1000 Ang^3
#
#
#
# Elastic Constant Matrix: (Units=GPa)
#
#
# Indices 1 2 3 4 5 6 
#
# 1 50.8416 6.3432 25.5743 0.0004 23.5877 -0.0001
# 2 6.3432 90.8473 10.5558 -0.0005 -3.1068 0.0001
# 3 25.5743 10.5558 121.7229 -0.0001 38.7547 -0.0002
# 4 0.0004 -0.0005 -0.0001 42.0405 -0.0003 3.3628
# 5 23.5877 -3.1068 38.7547 -0.0003 24.2484 0.0001
# 6 -0.0001 0.0001 -0.0002 3.3628 0.0001 17.2473
#
#
#
# Elastic Compliance Matrix: (Units=1/GPa)
#
#
# Indices 1 2 3 4 5 6 
#
# 1 0.042327 -0.006129 0.010175 -0.000001 -0.058221 0.000001
# 2 -0.006129 0.012459 -0.004478 0.000000 0.014714 0.000000
# 3 0.010175 -0.004478 0.019953 -0.000001 -0.042362 0.000001
# 4 -0.000001 0.000000 -0.000001 0.024163 0.000002 -0.004711
# 5 -0.058221 0.014714 -0.042362 0.000002 0.167464 -0.000003
# 6 0.000001 0.000000 0.000001 -0.004711 -0.000003 0.058899
#
#
# Mechanical properties :
#
#
# Convention : Reuss Voigt Hill
#
# Bulk Modulus (GPa) = 13.53607 38.70650 26.12129
# Shear Modulus (GPa) = 14.25507 31.43647 22.84577
#
# Velocity S-wave (km/s) = 2.61235 3.87939 3.30712
# Velocity P-wave (km/s) = 3.94707 6.21260 5.20460
#
# Compressibility (1/GPa) = 0.07387668
#
# Stress axis : x y z
#
# Youngs Moduli (GPa) = 23.62573 80.26412 50.11755
#
# Poissons Ratio (x) = 0.49192 -0.50996
# Poissons Ratio (y) = 0.14480 0.22440
# Poissons Ratio (z) = -0.24040 0.35939
#
# Static dielectric constant tensor:
#      x y z
#    x 3.321520 0.000000 0.316540 
#    y 0.000000 3.757740 0.000000 
#    z 0.316540 0.000000 4.731000 
# 
# 
# High freq. dielectric constant tensor:
#      x y z
#    x 1.767990 0.000000 0.018490 
#    y 0.000000 1.835740 0.000000 
#    z 0.018490 0.000000 1.846060 
# 
# From -- ./inp_files/118405.got.cif
#   From: 2010.06.25/outbox.cif.g09.slc.cpg/sg12_60_cif.got.tgz:118405.got - 2010.06.28 00:19:55.
