data_PCOD8083203
_publ_section_title
;
Structure prediction by ZEFSAII (Michael W. Deem and Ramdas Pophale) SiO2 
 PCOD8083203
Probable space group: C 2/M
;
_chemical_formula_sum "Si O2"
_cell_formula_units_Z 64
_cell_length_a 23.038016
_cell_length_b 24.916036
_cell_length_c 17.435479
_cell_angle_alpha 90.000000
_cell_angle_beta 164.207505
_cell_angle_gamma 90.000000
_cell_volume 2723.785854
_symmetry_space_group_name_H-M "C 2/M"
_symmetry_group_IT_number 12
_symmetry_cell_setting 'monoclinic'
loop_
_space_group_symop_operation_xyz
x,y,z
-x,y,-z
-x,-y,-z
x,-y,z
1/2+x,1/2+y,z
1/2-x,1/2+y,-z
1/2-x,1/2-y,-z
1/2+x,1/2-y,z
loop_
_atom_site_type_symbol
_atom_site_label
_atom_site_fract_x
_atom_site_fract_y
_atom_site_fract_z
Si Si1 0.618282 0.204589 0.397276
Si Si2 0.468886 0.905872 0.191467
Si Si3 0.680332 0.877408 0.167023
Si Si4 0.951511 0.906887 0.268288
Si Si5 0.052422 0.216477 0.717684
Si Si6 0.559519 0.440479 0.238171
Si Si7 0.446574 0.663188 0.020853
Si Si8 0.736879 0.767672 0.168795
O O1 0.488049 0.151666 0.258412
O O2 0.644705 0.249811 0.497173
O O3 0.852860 0.184074 0.673743
O O4 0.496553 0.225984 0.167074
O O5 0.693490 0.936806 0.476577
O O6 0.395146 0.897783 0.010599
O O7 0.275184 0.933394 0.993166
O O8 0.749439 0.813792 0.252029
O O9 0.879997 0.913693 0.447868
O O10 0.500000 0.884871 0.000000
O O11 0.937707 0.843028 0.236325
O O12 0.040326 0.935058 0.305430
O O13 0.068372 0.222531 0.644761
O O14 0.250000 0.250000 0.000000
O O15 0.480654 0.500000 0.114816
O O16 0.403380 0.396903 0.998764
O O17 0.500000 0.657613 0.000000
O O18 0.255296 0.706256 0.789041
#
# Coordination Sequence:
#
# PCOD8083203 Si02
#       8
#     8   8   8   8   8   8   8   8
#     4   9  19  35  55  84 128 174 207 251 308 381
#     4  10  21  41  62  92 125 168 215 260 325 384
#     4  11  21  35  57  98 140 176 200 245 310 399
#     4  12  22  38  67  95 131 171 218 260 322 391
#     4  10  18  32  54  89 128 171 210 247 302 389
#     4  11  26  47  71  90 116 169 233 293 332 365
#     4  11  24  40  60  93 129 167 218 269 324 381
#     4  10  20  34  55  93 136 177 208 236 312 398
#
# _framework density 23.496707000000001
#
# number of rings (size 3 to 8) (size 9 to 14) (size 15 to 20)
#    0.000    1.500    5.000    2.625    3.500    0.750 
#    0.000    1.250    0.000    1.500    0.000    2.625 
#    0.000    0.000    0.000    0.000    0.000    0.000 
#
# Total GULP energy -396522.887939 kJ/mol
# GULP energy per Si atom -12391.340248 kJ/mol
# Density = 2.344323 g / cm^3
# Si number density = 23.496707 Si / 1000 Ang^3
#
#
#
# Elastic Constant Matrix: (Units=GPa)
#
#
# Indices 1 2 3 4 5 6 
#
# 1 94.7671 23.8097 14.9171 0.0013 10.7764 -0.0002
# 2 23.8097 104.2560 3.0578 0.0006 2.2625 0.0001
# 3 14.9171 3.0578 51.5138 0.0033 7.3846 -0.0006
# 4 0.0013 0.0006 0.0033 19.4853 0.0001 -2.4775
# 5 10.7764 2.2625 7.3846 0.0001 26.9055 -0.0007
# 6 -0.0002 0.0001 -0.0006 -2.4775 -0.0007 17.1150
#
#
#
# Elastic Compliance Matrix: (Units=1/GPa)
#
#
# Indices 1 2 3 4 5 6 
#
# 1 0.012082 -0.002594 -0.002792 0.000000 -0.003855 0.000000
# 2 -0.002594 0.010177 0.000126 0.000000 0.000149 0.000000
# 3 -0.002792 0.000126 0.020876 -0.000003 -0.004622 0.000000
# 4 0.000000 0.000000 -0.000003 0.052283 0.000001 0.007568
# 5 -0.003855 0.000149 -0.004622 0.000001 0.039967 0.000002
# 6 0.000000 0.000000 0.000000 0.007568 0.000002 0.059524
#
#
# Mechanical properties :
#
#
# Convention : Reuss Voigt Hill
#
# Bulk Modulus (GPa) = 30.66097 37.12289 33.89193
# Shear Modulus (GPa) = 23.11603 26.61799 24.86701
#
# Velocity S-wave (km/s) = 3.13996 3.36942 3.25671
# Velocity P-wave (km/s) = 5.12086 5.56514 5.34761
#
# Compressibility (1/GPa) = 0.03261476
#
# Stress axis : x y z
#
# Youngs Moduli (GPa) = 82.77024 98.25897 47.90210
#
# Poissons Ratio (x) = 0.25485 0.13374
# Poissons Ratio (y) = 0.21468 -0.00602
# Poissons Ratio (z) = 0.23110 -0.01235
#
# Static dielectric constant tensor:
#      x y z
#    x 5.264320 -0.000160 -0.195710 
#    y -0.000160 4.331480 0.000030 
#    z -0.195710 0.000030 4.573920 
# 
# 
# High freq. dielectric constant tensor:
#      x y z
#    x 1.932590 0.000000 0.005490 
#    y 0.000000 1.900270 0.000000 
#    z 0.005490 0.000000 1.940250 
# 
# From -- ./inp_files/291119.got.cif
#   From: 2010.06.25/outbox.cif.g09.slc.cpg/sg12_146_cif.got.tgz:291119.got - 2010.06.28 00:19:55.
