data_PCOD8083220
_publ_section_title
;
Structure prediction by ZEFSAII (Michael W. Deem and Ramdas Pophale) SiO2 
 PCOD8083220
Probable space group: C 2/M
;
_chemical_formula_sum "Si O2"
_cell_formula_units_Z 64
_cell_length_a 14.585100
_cell_length_b 9.004933
_cell_length_c 26.628311
_cell_angle_alpha 90.000000
_cell_angle_beta 103.057600
_cell_angle_gamma 90.000000
_cell_volume 3406.876747
_symmetry_space_group_name_H-M "C 2/M"
_symmetry_group_IT_number 12
_symmetry_cell_setting 'monoclinic'
loop_
_space_group_symop_operation_xyz
x,y,z
-x,y,-z
-x,-y,-z
x,-y,z
1/2+x,1/2+y,z
1/2-x,1/2+y,-z
1/2-x,1/2-y,-z
1/2+x,1/2-y,z
loop_
_atom_site_type_symbol
_atom_site_label
_atom_site_fract_x
_atom_site_fract_y
_atom_site_fract_z
Si Si1 0.461405 0.326528 0.942433
Si Si2 0.292218 0.826354 0.871147
Si Si3 0.906930 0.674629 0.786969
Si Si4 0.059681 0.828150 0.398772
Si Si5 0.351938 0.327703 0.380063
Si Si6 0.157204 0.175862 0.507692
Si Si7 0.922947 0.174205 0.140959
Si Si8 0.176269 0.176418 0.320811
O O1 0.440722 0.500000 0.942616
O O2 0.361158 0.250544 0.919535
O O3 0.540962 0.290022 0.910754
O O4 0.500000 0.265212 0.000000
O O5 0.329870 0.787350 0.820201
O O6 0.184730 0.769825 0.865196
O O7 0.296949 0.000000 0.882452
O O8 0.915425 0.500000 0.779481
O O9 0.873164 0.752753 0.732754
O O10 0.010102 0.737447 0.812603
O O11 0.077207 0.770165 0.458021
O O12 0.126882 0.756815 0.364896
O O13 0.953483 0.801596 0.368053
O O14 0.084980 0.000000 0.402975
O O15 0.321192 0.500000 0.374017
O O16 0.361536 0.268612 0.438327
O O17 0.283781 0.228533 0.337800
O O18 0.250000 0.250000 0.500000
O O19 0.166681 0.000000 0.509552
O O20 0.930695 0.000000 0.154233
O O21 0.169862 0.000000 0.315340
#
# Coordination Sequence:
#
# PCOD8083220 Si02
#       8
#     8   8   8   8   8   8   8   8
#     4   9  18  32  51  79 114 145 174 214 260 305
#     4   9  19  35  55  77 103 140 181 219 256 304
#     4  10  21  37  55  76 102 132 174 221 261 305
#     4   9  19  35  54  76 103 135 169 203 249 310
#     4  10  20  35  56  78 101 134 172 208 247 302
#     4  10  18  32  55  78 102 133 168 205 248 300
#     4   9  18  35  56  77 104 140 179 214 258 309
#     4  11  22  37  55  76 105 135 166 211 265 313
#
# _framework density 18.785533000000001
#
# number of rings (size 3 to 8) (size 9 to 14) (size 15 to 20)
#    0.000    2.375    1.250    1.125    0.000    4.250 
#    0.000    6.875    0.000    1.500    0.000    0.000 
#    0.000    0.000    0.000    0.000    0.000    0.000 
#
# Total GULP energy -396691.943688 kJ/mol
# GULP energy per Si atom -12396.623240 kJ/mol
# Density = 1.874278 g / cm^3
# Si number density = 18.785533 Si / 1000 Ang^3
#
#
#
# Elastic Constant Matrix: (Units=GPa)
#
#
# Indices 1 2 3 4 5 6 
#
# 1 125.7362 32.8586 48.9248 0.0000 20.9633 0.0000
# 2 32.8586 44.5414 41.2025 0.0000 12.2302 0.0000
# 3 48.9248 41.2025 118.0914 0.0000 30.1251 0.0000
# 4 0.0000 0.0000 0.0000 28.1513 0.0000 4.5568
# 5 20.9633 12.2302 30.1251 0.0000 23.9215 0.0000
# 6 0.0000 0.0000 0.0000 4.5568 0.0000 26.4193
#
#
#
# Elastic Compliance Matrix: (Units=1/GPa)
#
#
# Indices 1 2 3 4 5 6 
#
# 1 0.010679 -0.005303 -0.001294 0.000000 -0.005018 0.000000
# 2 -0.005303 0.035985 -0.010093 0.000000 -0.001040 0.000000
# 3 -0.001294 -0.010093 0.016088 0.000000 -0.013967 0.000000
# 4 0.000000 0.000000 0.000000 0.036543 0.000000 -0.006303
# 5 -0.005018 -0.001040 -0.013967 0.000000 0.064321 0.000000
# 6 0.000000 0.000000 0.000000 -0.006303 0.000000 0.038938
#
#
# Mechanical properties :
#
#
# Convention : Reuss Voigt Hill
#
# Bulk Modulus (GPa) = 34.04572 59.37121 46.70846
# Shear Modulus (GPa) = 20.34790 26.72398 23.53594
#
# Velocity S-wave (km/s) = 3.29472 3.77581 3.54344
# Velocity P-wave (km/s) = 5.71282 7.11915 6.45440
#
# Compressibility (1/GPa) = 0.02937227
#
# Stress axis : x y z
#
# Youngs Moduli (GPa) = 93.64047 27.78915 62.15647
#
# Poissons Ratio (x) = 0.14738 0.08043
# Poissons Ratio (y) = 0.49661 0.62734
# Poissons Ratio (z) = 0.12117 0.28047
#
# Static dielectric constant tensor:
#      x y z
#    x 3.543220 0.000000 -0.054750 
#    y 0.000000 3.274220 0.000000 
#    z -0.054750 0.000000 3.699240 
# 
# 
# High freq. dielectric constant tensor:
#      x y z
#    x 1.735710 0.000000 0.005120 
#    y 0.000000 1.710470 0.000000 
#    z 0.005120 0.000000 1.732030 
# 
# From -- ./inp_files/359890.got.cif
#   From: 2010.06.25/outbox.cif.g09.slc.cpg/sg12_180_cif.got.tgz:359890.got - 2010.06.28 00:19:55.
