data_PCOD8083571
_publ_section_title
;
Structure prediction by ZEFSAII (Michael W. Deem and Ramdas Pophale) SiO2 
 PCOD8083571
Probable space group: C 2/M
;
_chemical_formula_sum "Si O2"
_cell_formula_units_Z 64
_cell_length_a 14.983736
_cell_length_b 30.034937
_cell_length_c 12.471927
_cell_angle_alpha 90.000000
_cell_angle_beta 142.864044
_cell_angle_gamma 90.000000
_cell_volume 3388.500951
_symmetry_space_group_name_H-M "C 2/M"
_symmetry_group_IT_number 12
_symmetry_cell_setting 'monoclinic'
loop_
_space_group_symop_operation_xyz
x,y,z
-x,y,-z
-x,-y,-z
x,-y,z
1/2+x,1/2+y,z
1/2-x,1/2+y,-z
1/2-x,1/2-y,-z
1/2+x,1/2-y,z
loop_
_atom_site_type_symbol
_atom_site_label
_atom_site_fract_x
_atom_site_fract_y
_atom_site_fract_z
Si Si1 0.667445 0.291026 0.366494
Si Si2 0.664186 0.948105 0.645616
Si Si3 0.663252 0.312367 0.957314
Si Si4 0.337701 0.222917 0.321904
Si Si5 0.405352 0.594738 0.011092
Si Si6 0.336786 0.323062 0.271746
Si Si7 0.153959 0.864235 0.516122
Si Si8 0.855181 0.050991 0.626095
O O1 0.750000 0.250000 0.500000
O O2 0.489227 0.283597 0.195592
O O3 0.721950 0.296595 0.296754
O O4 0.716438 0.335864 0.476163
O O5 0.500000 0.929269 0.500000
O O6 0.751607 0.924964 0.825243
O O7 0.724327 0.937787 0.584343
O O8 0.673183 0.000000 0.677662
O O9 0.747264 0.314845 0.921690
O O10 0.780430 0.290944 0.149876
O O11 0.618493 0.362267 0.941162
O O12 0.500000 0.202165 0.500000
O O13 0.350940 0.275913 0.345565
O O14 0.500000 0.609376 0.000000
O O15 0.490053 0.558198 0.164090
O O16 0.492122 0.344822 0.386071
O O17 0.258662 0.355563 0.286304
O O18 0.158270 0.916414 0.489639
O O19 0.846965 0.000000 0.577528
#
# Coordination Sequence:
#
# PCOD8083571 Si02
#       8
#     8   8   8   8   8   8   8   8
#     4  11  20  37  59  82 112 158 193 236 303 358
#     4   9  19  34  55  84 120 153 184 239 308 363
#     4  11  23  36  58  84 117 158 199 246 292 353
#     4  12  22  36  57  87 116 152 203 243 297 356
#     4  10  18  33  53  82 119 154 188 241 300 353
#     4  10  19  38  56  76 111 162 187 243 296 341
#     4  10  19  37  59  79 116 155 189 239 305 341
#     4  10  19  34  61  89 111 150 202 241 293 368
#
# _framework density 18.887409000000002
#
# number of rings (size 3 to 8) (size 9 to 14) (size 15 to 20)
#    0.000    1.625    5.000    2.625    1.750    2.000 
#    0.000    1.250    0.000    0.000    0.000    0.000 
#    0.000    3.000    0.000    0.000    0.000    0.000 
#
# Total GULP energy -396574.193381 kJ/mol
# GULP energy per Si atom -12392.943543 kJ/mol
# Density = 1.884442 g / cm^3
# Si number density = 18.887409 Si / 1000 Ang^3
#
#
#
# Elastic Constant Matrix: (Units=GPa)
#
#
# Indices 1 2 3 4 5 6 
#
# 1 89.7391 49.6672 57.3190 0.0000 -21.5043 0.0000
# 2 49.6672 106.4613 39.0071 0.0000 -10.3927 0.0000
# 3 57.3190 39.0071 122.7105 0.0000 -9.9000 0.0000
# 4 0.0000 0.0000 0.0000 27.9682 0.0000 -6.1526
# 5 -21.5043 -10.3927 -9.9000 0.0000 38.2796 0.0000
# 6 0.0000 0.0000 0.0000 -6.1526 0.0000 25.2594
#
#
#
# Elastic Compliance Matrix: (Units=1/GPa)
#
#
# Indices 1 2 3 4 5 6 
#
# 1 0.021372 -0.006500 -0.007241 0.000000 0.008368 0.000000
# 2 -0.006500 0.012769 -0.001060 0.000000 -0.000459 0.000000
# 3 -0.007241 -0.001060 0.011763 0.000000 -0.001314 0.000000
# 4 0.000000 0.000000 0.000000 0.037779 0.000000 0.009202
# 5 0.008368 -0.000459 -0.001314 0.000000 0.030360 0.000000
# 6 0.000000 0.000000 0.000000 0.009202 0.000000 0.041831
#
#
# Mechanical properties :
#
#
# Convention : Reuss Voigt Hill
#
# Bulk Modulus (GPa) = 61.34760 67.87752 64.61256
# Shear Modulus (GPa) = 26.19028 29.82926 28.00977
#
# Velocity S-wave (km/s) = 3.72782 3.97838 3.85513
# Velocity P-wave (km/s) = 7.14703 7.55773 7.35525
#
# Compressibility (1/GPa) = 0.01630056
#
# Stress axis : x y z
#
# Youngs Moduli (GPa) = 46.79066 78.31366 85.01465
#
# Poissons Ratio (x) = 0.50907 0.61563
# Poissons Ratio (y) = 0.30416 0.09009
# Poissons Ratio (z) = 0.33883 0.08299
#
# Static dielectric constant tensor:
#      x y z
#    x 3.822600 0.000000 -0.434220 
#    y 0.000000 3.380710 0.000000 
#    z -0.434220 0.000000 3.738960 
# 
# 
# High freq. dielectric constant tensor:
#      x y z
#    x 1.726110 0.000000 -0.022630 
#    y 0.000000 1.726570 0.000000 
#    z -0.022630 0.000000 1.721270 
# 
# From -- ./inp_files/150277.got.cif
#   From: 2010.06.25/outbox.cif.g09.slc.cpg/sg12_76_cif.got.tgz:150277.got - 2010.06.28 00:19:55.
