data_PCOD8083626
_publ_section_title
;
Structure prediction by ZEFSAII (Michael W. Deem and Ramdas Pophale) SiO2 
 PCOD8083626
Probable space group: C 2/M
;
_chemical_formula_sum "Si O2"
_cell_formula_units_Z 56
_cell_length_a 27.607381
_cell_length_b 12.943696
_cell_length_c 10.977978
_cell_angle_alpha 90.000000
_cell_angle_beta 126.032666
_cell_angle_gamma 90.000000
_cell_volume 3172.367641
_symmetry_space_group_name_H-M "C 2/M"
_symmetry_group_IT_number 12
_symmetry_cell_setting 'monoclinic'
loop_
_space_group_symop_operation_xyz
x,y,z
-x,y,-z
-x,-y,-z
x,-y,z
1/2+x,1/2+y,z
1/2-x,1/2+y,-z
1/2-x,1/2-y,-z
1/2+x,1/2-y,z
loop_
_atom_site_type_symbol
_atom_site_label
_atom_site_fract_x
_atom_site_fract_y
_atom_site_fract_z
Si Si1 0.074548 0.879639 0.861515
Si Si2 0.657493 0.241287 0.148727
Si Si3 0.327088 0.615658 0.614866
Si Si4 0.444337 0.696527 0.681078
Si Si5 0.604962 0.379351 0.632191
Si Si6 0.231485 0.881562 0.726419
Si Si7 0.437118 0.118082 0.840342
O O1 0.080286 0.852486 0.727923
O O2 0.009210 0.847644 0.810989
O O3 0.086131 0.000000 0.902948
O O4 0.123407 0.815798 0.006689
O O5 0.689407 0.307900 0.300929
O O6 0.710530 0.185456 0.152509
O O7 0.613857 0.156163 0.142432
O O8 0.315777 0.500000 0.644092
O O9 0.396868 0.625993 0.682253
O O10 0.285528 0.641194 0.438574
O O11 0.432344 0.689907 0.518606
O O12 0.438096 0.814703 0.717766
O O13 0.595055 0.500000 0.583705
O O14 0.675474 0.351758 0.729653
O O15 0.248794 0.000000 0.771839
O O16 0.423618 0.000000 0.783297
O O17 0.500000 0.128993 0.000000
#
# Coordination Sequence:
#
# PCOD8083626 Si02
#       7
#     8   8   8   8   8   8   8
#     4  11  21  32  50  79 108 135 167 206 255 306
#     4  11  20  31  50  77 103 136 167 206 257 305
#     4   9  18  31  50  76 105 130 162 210 257 308
#     4  10  18  33  55  78 100 136 168 202 254 305
#     4   9  19  35  55  76 102 134 171 212 251 298
#     4   9  18  34  52  70  94 133 178 211 247 296
#     4  10  20  35  51  73 103 133 168 207 248 298
#
# _framework density 17.652429000000001
#
# number of rings (size 3 to 8) (size 9 to 14) (size 15 to 20)
#    0.000    2.143    1.429    3.857    0.000    1.714 
#    0.000    2.143    0.000    6.857    0.000    0.000 
#    0.000    0.000    0.000    0.000    0.000    0.000 
#
# Total GULP energy -347224.917201 kJ/mol
# GULP energy per Si atom -12400.889900 kJ/mol
# Density = 1.761225 g / cm^3
# Si number density = 17.652429 Si / 1000 Ang^3
#
#
#
# Elastic Constant Matrix: (Units=GPa)
#
#
# Indices 1 2 3 4 5 6 
#
# 1 56.0866 34.4195 20.2078 0.0000 10.3027 0.0000
# 2 34.4195 100.0183 44.4593 0.0000 2.2641 0.0000
# 3 20.2078 44.4593 55.1308 0.0000 8.9720 0.0000
# 4 0.0000 0.0000 0.0000 26.7242 0.0000 -0.5334
# 5 10.3027 2.2641 8.9720 0.0000 29.7034 0.0000
# 6 0.0000 0.0000 0.0000 -0.5334 0.0000 21.3412
#
#
#
# Elastic Compliance Matrix: (Units=1/GPa)
#
#
# Indices 1 2 3 4 5 6 
#
# 1 0.024380 -0.007457 -0.001724 0.000000 -0.007367 0.000000
# 2 -0.007457 0.018081 -0.012667 0.000000 0.005034 0.000000
# 3 -0.001724 -0.012667 0.030217 0.000000 -0.007564 0.000000
# 4 0.000000 0.000000 0.000000 0.037438 0.000000 0.000936
# 5 -0.007367 0.005034 -0.007564 0.000000 0.038122 0.000000
# 6 0.000000 0.000000 0.000000 0.000936 0.000000 0.046881
#
#
# Mechanical properties :
#
#
# Convention : Reuss Voigt Hill
#
# Bulk Modulus (GPa) = 34.50433 45.48989 39.99711
# Shear Modulus (GPa) = 20.12266 23.03038 21.57652
#
# Velocity S-wave (km/s) = 3.37996 3.61592 3.49993
# Velocity P-wave (km/s) = 5.90094 6.57715 6.24820
#
# Compressibility (1/GPa) = 0.02898187
#
# Stress axis : x y z
#
# Youngs Moduli (GPa) = 41.01692 55.30644 33.09424
#
# Poissons Ratio (x) = 0.41242 0.05705
# Poissons Ratio (y) = 0.30586 0.41921
# Poissons Ratio (z) = 0.07071 0.70058
#
# Static dielectric constant tensor:
#      x y z
#    x 3.284350 0.000000 0.030660 
#    y 0.000000 3.245370 0.000000 
#    z 0.030660 0.000000 3.207380 
# 
# 
# High freq. dielectric constant tensor:
#      x y z
#    x 1.682020 0.000000 0.012080 
#    y 0.000000 1.674330 0.000000 
#    z 0.012080 0.000000 1.674390 
# 
# From -- ./inp_files/182438.got.cif
#   From: 2010.06.25/outbox.cif.g09.slc.cpg/sg12_92_cif.got.tgz:182438.got - 2010.06.28 00:19:55.
