data_PCOD8083803
_publ_section_title
;
Structure prediction by ZEFSAII (Michael W. Deem and Ramdas Pophale) SiO2 
 PCOD8083803
Probable space group: C 2/M
;
_chemical_formula_sum "Si O2"
_cell_formula_units_Z 64
_cell_length_a 20.624923
_cell_length_b 8.488645
_cell_length_c 34.096535
_cell_angle_alpha 90.000000
_cell_angle_beta 147.043032
_cell_angle_gamma 90.000000
_cell_volume 3247.484128
_symmetry_space_group_name_H-M "C 2/M"
_symmetry_group_IT_number 12
_symmetry_cell_setting 'monoclinic'
loop_
_space_group_symop_operation_xyz
x,y,z
-x,y,-z
-x,-y,-z
x,-y,z
1/2+x,1/2+y,z
1/2-x,1/2+y,-z
1/2-x,1/2-y,-z
1/2+x,1/2-y,z
loop_
_atom_site_type_symbol
_atom_site_label
_atom_site_fract_x
_atom_site_fract_y
_atom_site_fract_z
Si Si1 0.125211 0.683743 0.545846
Si Si2 0.480562 0.315127 0.162652
Si Si3 0.729652 0.184229 0.312117
Si Si4 0.778461 0.687256 0.834881
Si Si5 0.530657 0.187065 0.928310
Si Si6 0.140780 0.815495 0.468750
Si Si7 0.382981 0.312464 0.316481
Si Si8 0.750770 0.313345 0.907961
O O1 0.120062 0.500000 0.533742
O O2 0.231048 0.720357 0.629615
O O3 0.154021 0.774966 0.520856
O O4 0.000000 0.744524 0.500000
O O5 0.505255 0.500000 0.180408
O O6 0.591989 0.215604 0.234178
O O7 0.450962 0.277075 0.102890
O O8 0.369523 0.256795 0.132252
O O9 0.806041 0.248337 0.314233
O O10 0.751369 0.000000 0.330162
O O11 0.773910 0.500000 0.833936
O O12 0.676460 0.752347 0.753693
O O13 0.755486 0.758136 0.866424
O O14 0.906931 0.741931 0.884715
O O15 0.533434 0.000000 0.922322
O O16 0.635193 0.246111 0.009932
O O17 0.250000 0.750000 0.500000
O O18 0.017036 0.745534 0.388542
O O19 0.139589 0.000000 0.462907
O O20 0.381420 0.500000 0.315663
O O21 0.755754 0.500000 0.908330
#
# Coordination Sequence:
#
# PCOD8083803 Si02
#       8
#     8   8   8   8   8   8   8   8
#     4  11  23  39  62  92 121 154 195 244 298 352
#     4  11  22  35  52  82 119 153 186 233 296 352
#     4  11  21  38  62  88 114 149 198 243 288 348
#     4   9  16  31  56  84 107 139 191 243 281 327
#     4  10  18  33  58  83 106 145 197 242 282 341
#     4  11  23  40  61  89 124 161 200 244 296 355
#     4   9  18  33  57  85 112 147 191 240 291 343
#     4   9  19  32  51  82 117 147 186 240 293 341
#
# _framework density 19.707563
#
# number of rings (size 3 to 8) (size 9 to 14) (size 15 to 20)
#    0.000    1.875    2.500    2.250    0.000    3.000 
#    0.000    3.125    0.000    3.000    0.000    0.000 
#    0.000    0.000    0.000    0.000    0.000    0.000 
#
# Total GULP energy -396885.625641 kJ/mol
# GULP energy per Si atom -12402.675801 kJ/mol
# Density = 1.966271 g / cm^3
# Si number density = 19.707563 Si / 1000 Ang^3
#
#
#
# Elastic Constant Matrix: (Units=GPa)
#
#
# Indices 1 2 3 4 5 6 
#
# 1 167.5340 16.4153 81.8142 0.0004 3.4545 -0.0010
# 2 16.4153 28.1570 9.1227 0.0012 2.8440 -0.0025
# 3 81.8142 9.1227 170.4980 0.0003 0.6461 -0.0006
# 4 0.0004 0.0012 0.0003 23.0015 -0.0002 -0.4124
# 5 3.4545 2.8440 0.6461 -0.0002 35.3096 0.0002
# 6 -0.0010 -0.0025 -0.0006 -0.4124 0.0002 25.2774
#
#
#
# Elastic Compliance Matrix: (Units=1/GPa)
#
#
# Indices 1 2 3 4 5 6 
#
# 1 0.008135 -0.003494 -0.003715 0.000000 -0.000446 0.000000
# 2 -0.003494 0.037937 -0.000343 -0.000002 -0.002707 0.000004
# 3 -0.003715 -0.000343 0.007665 0.000000 0.000251 0.000000
# 4 0.000000 -0.000002 0.000000 0.043488 0.000000 0.000710
# 5 -0.000446 -0.002707 0.000251 0.000000 0.028578 -0.000001
# 6 0.000000 0.000004 0.000000 0.000710 -0.000001 0.039573
#
#
# Mechanical properties :
#
#
# Convention : Reuss Voigt Hill
#
# Bulk Modulus (GPa) = 25.88455 64.54371 45.21413
# Shear Modulus (GPa) = 25.85904 33.97349 29.91626
#
# Velocity S-wave (km/s) = 3.62627 4.15647 3.90039
# Velocity P-wave (km/s) = 5.54040 7.47374 6.57848
#
# Compressibility (1/GPa) = 0.03863309
#
# Stress axis : x y z
#
# Youngs Moduli (GPa) = 122.93247 26.35975 130.46096
#
# Poissons Ratio (x) = 0.09209 0.48463
# Poissons Ratio (y) = 0.42949 0.04476
# Poissons Ratio (z) = 0.45667 0.00904
#
# Static dielectric constant tensor:
#      x y z
#    x 3.763900 0.000000 -0.010340 
#    y 0.000000 3.199510 0.000000 
#    z -0.010340 0.000000 3.772560 
# 
# 
# High freq. dielectric constant tensor:
#      x y z
#    x 1.773880 0.000000 -0.001950 
#    y 0.000000 1.733110 0.000000 
#    z -0.001950 0.000000 1.785620 
# 
# From -- ./inp_files/378492.got.cif
#   From: 2010.06.25/outbox.cif.g09.slc.cpg/sg12_190_cif.got.tgz:378492.got - 2010.06.28 00:19:55.
