data_PCOD8083942
_publ_section_title
;
Structure prediction by ZEFSAII (Michael W. Deem and Ramdas Pophale) SiO2 
 PCOD8083942
Probable space group: C 2/M
;
_chemical_formula_sum "Si O2"
_cell_formula_units_Z 64
_cell_length_a 14.797000
_cell_length_b 30.202463
_cell_length_c 8.509151
_cell_angle_alpha 90.000000
_cell_angle_beta 89.982006
_cell_angle_gamma 90.000000
_cell_volume 3802.789130
_symmetry_space_group_name_H-M "C 2/M"
_symmetry_group_IT_number 12
_symmetry_cell_setting 'monoclinic'
loop_
_space_group_symop_operation_xyz
x,y,z
-x,y,-z
-x,-y,-z
x,-y,z
1/2+x,1/2+y,z
1/2-x,1/2+y,-z
1/2-x,1/2-y,-z
1/2+x,1/2-y,z
loop_
_atom_site_type_symbol
_atom_site_label
_atom_site_fract_x
_atom_site_fract_y
_atom_site_fract_z
Si Si1 0.395761 0.049860 0.684317
Si Si2 0.805043 0.207691 0.185046
Si Si3 0.999948 0.223761 0.181133
Si Si4 0.194851 0.207690 0.185096
Si Si5 0.664179 0.864638 0.181772
Si Si6 0.499942 0.816356 0.321555
Si Si7 0.604313 0.950139 0.684122
Si Si8 0.335714 0.135366 0.182023
O O1 0.329332 0.083098 0.779014
O O2 0.382501 0.057180 0.500112
O O3 0.500044 0.058525 0.731466
O O4 0.368105 0.000000 0.731724
O O5 0.906687 0.205284 0.258758
O O6 0.749934 0.249997 0.255685
O O7 0.756424 0.161271 0.224177
O O8 0.814155 0.215624 0.999978
O O9 0.093175 0.205286 0.258784
O O10 0.999947 0.276507 0.198764
O O11 0.000000 0.210633 0.000000
O O12 0.243424 0.161266 0.224298
O O13 0.587064 0.846117 0.293985
O O14 0.639602 0.857198 0.999869
O O15 0.500000 0.798775 0.500000
O O16 0.412733 0.846072 0.294270
O O17 0.670757 0.916895 0.778692
O O18 0.631993 0.000000 0.731469
#
# Coordination Sequence:
#
# PCOD8083942 Si02
#       8
#     8   8   8   8   8   8   8   8
#     4   9  18  32  48  68  97 127 153 187 235 286
#     4   9  17  29  48  72  94 121 158 196 234 273
#     4  10  18  34  52  65  92 129 162 195 234 280
#     4   9  17  29  48  72  94 121 158 196 234 273
#     4  11  20  31  48  71  95 125 163 197 228 274
#     4  12  22  30  43  67  98 129 161 195 234 274
#     4   9  18  32  48  68  97 127 153 187 235 286
#     4  11  20  31  48  71  95 125 163 197 228 274
#
# _framework density 16.829751999999999
#
# number of rings (size 3 to 8) (size 9 to 14) (size 15 to 20)
#    0.000    2.000    3.750    2.625    0.000    0.500 
#    0.000    5.000    0.000    0.000    0.000    0.875 
#    0.000    7.000    0.000    0.000    0.000    0.000 
#
# Total GULP energy -396638.364601 kJ/mol
# GULP energy per Si atom -12394.948894 kJ/mol
# Density = 1.679145 g / cm^3
# Si number density = 16.829752 Si / 1000 Ang^3
#
#
#
# Elastic Constant Matrix: (Units=GPa)
#
#
# Indices 1 2 3 4 5 6 
#
# 1 134.1509 63.5758 20.1710 0.0000 0.0770 0.0000
# 2 63.5758 125.4462 17.9915 0.0000 0.0330 0.0000
# 3 20.1710 17.9915 30.6303 0.0000 0.0376 0.0000
# 4 0.0000 0.0000 0.0000 22.7781 0.0000 0.0474
# 5 0.0770 0.0330 0.0376 0.0000 4.5163 0.0000
# 6 0.0000 0.0000 0.0000 0.0474 0.0000 9.1793
#
#
#
# Elastic Compliance Matrix: (Units=1/GPa)
#
#
# Indices 1 2 3 4 5 6 
#
# 1 0.010249 -0.004615 -0.004038 0.000000 -0.000107 0.000000
# 2 -0.004615 0.010783 -0.003295 0.000000 0.000027 0.000000
# 3 -0.004038 -0.003295 0.037242 0.000000 -0.000217 0.000000
# 4 0.000000 0.000000 0.000000 0.043902 0.000000 -0.000227
# 5 -0.000107 0.000027 -0.000217 0.000000 0.221422 0.000000
# 6 0.000000 0.000000 0.000000 -0.000227 0.000000 0.108942
#
#
# Mechanical properties :
#
#
# Convention : Reuss Voigt Hill
#
# Bulk Modulus (GPa) = 29.08818 54.85600 41.97209
# Shear Modulus (GPa) = 10.68618 19.86070 15.27344
#
# Velocity S-wave (km/s) = 2.52257 3.43898 3.01579
# Velocity P-wave (km/s) = 5.07994 6.95947 6.09262
#
# Compressibility (1/GPa) = 0.03437823
#
# Stress axis : x y z
#
# Youngs Moduli (GPa) = 97.57501 92.74041 26.85129
#
# Poissons Ratio (x) = 0.42797 0.10843
# Poissons Ratio (y) = 0.45028 0.08846
# Poissons Ratio (z) = 0.39403 0.30554
#
# Static dielectric constant tensor:
#      x y z
#    x 3.296640 0.000000 0.000660 
#    y 0.000000 3.201700 0.000000 
#    z 0.000660 0.000000 2.859340 
# 
# 
# High freq. dielectric constant tensor:
#      x y z
#    x 1.623630 0.000000 0.000030 
#    y 0.000000 1.640750 0.000000 
#    z 0.000030 0.000000 1.626730 
# 
# From -- ./inp_files/67866.got.cif
#   From: 2010.06.25/outbox.cif.g09.slc.cpg/sg12_34_cif.got.tgz:67866.got - 2010.06.28 00:19:55.
