data_PCOD8083703
_publ_section_title
;
Structure prediction by ZEFSAII (Michael W. Deem and Ramdas Pophale) SiO2 
 PCOD8083703
Probable space group: C 2/M
;
_chemical_formula_sum "Si O2"
_cell_formula_units_Z 64
_cell_length_a 12.828912
_cell_length_b 23.385912
_cell_length_c 12.228966
_cell_angle_alpha 90.000000
_cell_angle_beta 105.670573
_cell_angle_gamma 90.000000
_cell_volume 3532.512918
_symmetry_space_group_name_H-M "C 2/M"
_symmetry_group_IT_number 12
_symmetry_cell_setting 'monoclinic'
loop_
_space_group_symop_operation_xyz
x,y,z
-x,y,-z
-x,-y,-z
x,-y,z
1/2+x,1/2+y,z
1/2-x,1/2+y,-z
1/2-x,1/2-y,-z
1/2+x,1/2-y,z
loop_
_atom_site_type_symbol
_atom_site_label
_atom_site_fract_x
_atom_site_fract_y
_atom_site_fract_z
Si Si1 0.616978 0.656802 0.487388
Si Si2 0.602832 0.935557 0.306869
Si Si3 0.772617 0.564851 0.444294
Si Si4 0.255290 0.675220 0.880368
Si Si5 0.273800 0.168936 0.728277
Si Si6 0.105294 0.220485 0.266578
Si Si7 0.350934 0.934196 0.225528
Si Si8 0.867042 0.212614 0.120323
O O1 0.500000 0.639646 0.500000
O O2 0.667260 0.601366 0.444011
O O3 0.690523 0.679884 0.606259
O O4 0.609070 0.707021 0.396171
O O5 0.629925 0.924769 0.442207
O O6 0.677400 0.894624 0.254598
O O7 0.477933 0.923225 0.249548
O O8 0.632858 0.000000 0.281157
O O9 0.732012 0.500000 0.435522
O O10 0.818850 0.580985 0.339766
O O11 0.302063 0.686113 0.772476
O O12 0.210535 0.610117 0.872267
O O13 0.158657 0.719680 0.880510
O O14 0.350269 0.686253 0.995043
O O15 0.374219 0.212162 0.742508
O O16 0.213251 0.177614 0.824629
O O17 0.990012 0.202212 0.186802
O O18 0.320981 0.000000 0.186732
#
# Coordination Sequence:
#
# PCOD8083703 Si02
#       8
#     8   8   8   8   8   8   8   8
#     4  11  20  34  53  79 115 143 171 222 274 324
#     4   9  18  33  54  81 111 143 176 217 271 327
#     4   9  18  32  52  79 110 146 184 218 260 323
#     4  10  21  36  57  80 104 141 186 225 267 311
#     4  10  21  35  54  80 111 140 178 219 269 327
#     4  11  20  36  55  78 108 143 180 220 272 319
#     4  10  18  33  56  82 111 140 179 227 270 316
#     4  10  21  37  56  77 105 143 185 225 262 320
#
# _framework density 18.117415000000001
#
# number of rings (size 3 to 8) (size 9 to 14) (size 15 to 20)
#    0.000    2.000    2.500    1.875    0.000    1.750 
#    0.000    2.500    0.000    4.500    0.000    0.000 
#    0.000    0.000    0.000    0.000    0.000    0.000 
#
# Total GULP energy -396833.019990 kJ/mol
# GULP energy per Si atom -12401.031875 kJ/mol
# Density = 1.807618 g / cm^3
# Si number density = 18.117415 Si / 1000 Ang^3
#
#
#
# Elastic Constant Matrix: (Units=GPa)
#
#
# Indices 1 2 3 4 5 6 
#
# 1 72.9966 39.4313 13.5629 0.0000 5.4587 0.0000
# 2 39.4313 109.5694 30.0175 0.0000 3.8731 0.0000
# 3 13.5629 30.0175 53.4127 0.0000 -1.8174 0.0000
# 4 0.0000 0.0000 0.0000 25.6311 0.0000 1.9640
# 5 5.4587 3.8731 -1.8174 0.0000 19.6313 0.0000
# 6 0.0000 0.0000 0.0000 1.9640 0.0000 21.5430
#
#
#
# Elastic Compliance Matrix: (Units=1/GPa)
#
#
# Indices 1 2 3 4 5 6 
#
# 1 0.017329 -0.005745 -0.001301 0.000000 -0.003805 0.000000
# 2 -0.005745 0.012837 -0.005805 0.000000 -0.001472 0.000000
# 3 -0.001301 -0.005805 0.022437 0.000000 0.003584 0.000000
# 4 0.000000 0.000000 0.000000 0.039290 0.000000 -0.003582
# 5 -0.003805 -0.001472 0.003584 0.000000 0.052619 0.000000
# 6 0.000000 0.000000 0.000000 -0.003582 0.000000 0.046745
#
#
# Mechanical properties :
#
#
# Convention : Reuss Voigt Hill
#
# Bulk Modulus (GPa) = 37.17542 44.66688 40.92115
# Shear Modulus (GPa) = 22.13104 23.55888 22.84496
#
# Velocity S-wave (km/s) = 3.49884 3.60994 3.55482
# Velocity P-wave (km/s) = 6.07340 6.48716 6.28368
#
# Compressibility (1/GPa) = 0.02689950
#
# Stress axis : x y z
#
# Youngs Moduli (GPa) = 57.70638 77.90155 44.56926
#
# Poissons Ratio (x) = 0.44757 0.05798
# Poissons Ratio (y) = 0.33155 0.25874
# Poissons Ratio (z) = 0.07507 0.45224
#
# Static dielectric constant tensor:
#      x y z
#    x 3.246910 0.000000 -0.021980 
#    y 0.000000 3.334330 0.000000 
#    z -0.021980 0.000000 3.284000 
# 
# 
# High freq. dielectric constant tensor:
#      x y z
#    x 1.701050 0.000000 -0.000300 
#    y 0.000000 1.698230 0.000000 
#    z -0.000300 0.000000 1.695830 
# 
# From -- ./inp_files/135345.got.cif
#   From: 2010.06.25/outbox.cif.g09.slc.cpg/sg12_68_cif.got.tgz:135345.got - 2010.06.28 00:19:55.
