data_PCOD8083858
_publ_section_title
;
Structure prediction by ZEFSAII (Michael W. Deem and Ramdas Pophale) SiO2 
 PCOD8083858
Probable space group: C 2/M
;
_chemical_formula_sum "Si O2"
_cell_formula_units_Z 64
_cell_length_a 19.667718
_cell_length_b 19.099185
_cell_length_c 19.794826
_cell_angle_alpha 90.000000
_cell_angle_beta 29.018972
_cell_angle_gamma 90.000000
_cell_volume 3607.040811
_symmetry_space_group_name_H-M "C 2/M"
_symmetry_group_IT_number 12
_symmetry_cell_setting 'monoclinic'
loop_
_space_group_symop_operation_xyz
x,y,z
-x,y,-z
-x,-y,-z
x,-y,z
1/2+x,1/2+y,z
1/2-x,1/2+y,-z
1/2-x,1/2-y,-z
1/2+x,1/2-y,z
loop_
_atom_site_type_symbol
_atom_site_label
_atom_site_fract_x
_atom_site_fract_y
_atom_site_fract_z
Si Si1 0.866887 0.576517 0.878610
Si Si2 0.597779 0.718950 0.620539
Si Si3 0.870204 0.212594 0.068084
Si Si4 0.140121 0.920172 0.652222
Si Si5 0.390873 0.779101 0.907939
Si Si6 0.537761 0.921260 0.595271
Si Si7 0.412265 0.422694 0.957200
Si Si8 0.448294 0.780030 0.618298
O O1 0.901440 0.500000 0.879692
O O2 0.894605 0.636392 0.909274
O O3 0.962999 0.592070 0.730976
O O4 0.705873 0.580958 0.997297
O O5 0.750000 0.750000 0.500000
O O6 0.600268 0.634168 0.626974
O O7 0.514053 0.752080 0.754552
O O8 0.531140 0.738682 0.605713
O O9 0.718931 0.233011 0.230161
O O10 0.904161 0.253133 0.971132
O O11 0.877594 0.129267 0.048599
O O12 0.000000 0.236704 0.000000
O O13 0.299145 0.909673 0.535534
O O14 0.055046 0.903130 0.794584
O O15 0.110818 0.000000 0.652557
O O16 0.250000 0.750000 0.000000
O O17 0.479814 0.863219 0.594082
O O18 0.504980 0.000000 0.596700
O O19 0.419306 0.500000 0.983529
O O20 0.500000 0.752533 0.500000
#
# Coordination Sequence:
#
# PCOD8083858 Si02
#       8
#     8   8   8   8   8   8   8   8
#     4  10  18  33  59  87 109 143 192 243 291 337
#     4  12  21  36  64  88 112 154 196 245 287 338
#     4  12  26  39  57  83 120 158 194 243 291 341
#     4  10  20  33  57  91 117 143 190 243 289 340
#     4  12  19  38  62  84 111 151 196 245 290 336
#     4  10  19  36  56  81 118 154 188 229 282 346
#     4  10  19  34  56  83 115 147 188 235 286 346
#     4  12  26  40  55  85 120 157 197 238 289 347
#
# _framework density 17.743077
#
# number of rings (size 3 to 8) (size 9 to 14) (size 15 to 20)
#    0.000    1.000    7.500    0.000    3.500    0.500 
#    0.000    0.000    0.000    0.750    0.000    0.000 
#    0.000    0.000    0.000    0.000    0.000    0.000 
#
# Total GULP energy -396680.711312 kJ/mol
# GULP energy per Si atom -12396.272228 kJ/mol
# Density = 1.770269 g / cm^3
# Si number density = 17.743077 Si / 1000 Ang^3
#
#
#
# Elastic Constant Matrix: (Units=GPa)
#
#
# Indices 1 2 3 4 5 6 
#
# 1 105.6825 43.6300 45.3651 -0.0017 2.1461 0.0021
# 2 43.6300 108.1788 12.0760 0.0042 5.6534 0.0001
# 3 45.3651 12.0760 157.3124 -0.0002 -10.0620 -0.0004
# 4 -0.0017 0.0042 -0.0002 23.1993 0.0019 -1.1991
# 5 2.1461 5.6534 -10.0620 0.0019 28.5804 -0.0019
# 6 0.0021 0.0001 -0.0004 -1.1991 -0.0019 22.0791
#
#
#
# Elastic Compliance Matrix: (Units=1/GPa)
#
#
# Indices 1 2 3 4 5 6 
#
# 1 0.012934 -0.004767 -0.003443 0.000002 -0.001240 -0.000001
# 2 -0.004767 0.011211 0.000404 -0.000002 -0.001717 0.000000
# 3 -0.003443 0.000404 0.007499 0.000000 0.002819 0.000001
# 4 0.000002 -0.000002 0.000000 0.043226 -0.000003 0.002348
# 5 -0.001240 -0.001717 0.002819 -0.000003 0.036414 0.000003
# 6 -0.000001 0.000000 0.000001 0.002348 0.000003 0.045419
#
#
# Mechanical properties :
#
#
# Convention : Reuss Voigt Hill
#
# Bulk Modulus (GPa) = 62.37617 63.70177 63.03897
# Shear Modulus (GPa) = 28.14378 32.77858 30.46118
#
# Velocity S-wave (km/s) = 3.98701 4.30280 4.14791
# Velocity P-wave (km/s) = 7.51176 7.78882 7.65155
#
# Compressibility (1/GPa) = 0.01603176
#
# Stress axis : x y z
#
# Youngs Moduli (GPa) = 77.31842 89.19636 133.35213
#
# Poissons Ratio (x) = 0.42521 0.45915
# Poissons Ratio (y) = 0.36858 -0.05391
# Poissons Ratio (z) = 0.26622 -0.03606
#
# Static dielectric constant tensor:
#      x y z
#    x 2.646930 -0.000340 0.339390 
#    y -0.000340 2.894690 0.000440 
#    z 0.339390 0.000440 2.959090 
# 
# 
# High freq. dielectric constant tensor:
#      x y z
#    x 1.644660 0.000000 -0.016570 
#    y 0.000000 1.690910 0.000000 
#    z -0.016570 0.000000 1.712210 
# 
# From -- ./inp_files/98889.got.cif
#   From: 2010.06.25/outbox.cif.g09.slc.cpg/sg12_50_cif.got.tgz:98889.got - 2010.06.28 00:19:55.
