data_PCOD8083151
_publ_section_title
;
Structure prediction by ZEFSAII (Michael W. Deem and Ramdas Pophale) SiO2 
 PCOD8083151
Probable space group: C 2/M
;
_chemical_formula_sum "Si O2"
_cell_formula_units_Z 56
_cell_length_a 19.744494
_cell_length_b 8.535751
_cell_length_c 24.141282
_cell_angle_alpha 90.000000
_cell_angle_beta 134.581269
_cell_angle_gamma 90.000000
_cell_volume 2897.903502
_symmetry_space_group_name_H-M "C 2/M"
_symmetry_group_IT_number 12
_symmetry_cell_setting 'monoclinic'
loop_
_space_group_symop_operation_xyz
x,y,z
-x,y,-z
-x,-y,-z
x,-y,z
1/2+x,1/2+y,z
1/2-x,1/2+y,-z
1/2-x,1/2-y,-z
1/2+x,1/2-y,z
loop_
_atom_site_type_symbol
_atom_site_label
_atom_site_fract_x
_atom_site_fract_y
_atom_site_fract_z
Si Si1 0.582231 0.179197 0.792673
Si Si2 0.429137 0.821508 0.795028
Si Si3 0.476898 0.318022 0.049217
Si Si4 0.424522 0.186025 0.622448
Si Si5 0.215969 0.183077 0.370486
Si Si6 0.231661 0.813352 0.049257
Si Si7 0.581132 0.315848 0.502850
O O1 0.528343 0.198703 0.820062
O O2 0.518985 0.255769 0.707354
O O3 0.687299 0.253663 0.861661
O O4 0.594953 0.000000 0.783412
O O5 0.447265 0.769679 0.868405
O O6 0.349517 0.714991 0.720394
O O7 0.393169 0.000000 0.772564
O O8 0.481516 0.500000 0.067552
O O9 0.500000 0.282772 0.000000
O O10 0.370987 0.249951 0.993117
O O11 0.331767 0.257587 0.599556
O O12 0.433461 0.229408 0.563820
O O13 0.416878 0.000000 0.625658
O O14 0.315145 0.270266 0.415274
O O15 0.236049 0.000000 0.388250
O O16 0.237137 0.000000 0.052506
O O17 0.250000 0.750000 0.000000
O O18 0.500000 0.261079 0.500000
O O19 0.574115 0.500000 0.488794
#
# Coordination Sequence:
#
# PCOD8083151 Si02
#       7
#     8   8   8   8   8   8   8
#     4   8  16  31  53  81 108 140 182 232 280 324
#     4  10  19  35  58  82 112 145 189 238 286 339
#     4  10  21  35  51  78 116 152 189 233 284 340
#     4  10  20  37  61  88 118 150 193 239 284 340
#     4  11  22  38  63  90 115 147 192 237 288 345
#     4  10  18  32  54  78 108 145 187 232 278 327
#     4  11  24  42  61  84 120 156 189 232 284 340
#
# _framework density 19.324314999999999
#
# number of rings (size 3 to 8) (size 9 to 14) (size 15 to 20)
#    0.000    2.000    1.429    3.857    0.000    1.429 
#    2.571    0.714    0.000    0.000    0.000    0.000 
#    0.000    0.000    0.000    0.000    0.000    0.000 
#
# Total GULP energy -347087.326779 kJ/mol
# GULP energy per Si atom -12395.975956 kJ/mol
# Density = 1.928033 g / cm^3
# Si number density = 19.324315 Si / 1000 Ang^3
#
#
#
# Elastic Constant Matrix: (Units=GPa)
#
#
# Indices 1 2 3 4 5 6 
#
# 1 94.8073 18.7864 43.5999 0.0000 19.7555 0.0000
# 2 18.7864 41.3462 12.2724 0.0000 -2.9415 0.0001
# 3 43.5999 12.2724 114.2632 0.0000 12.5317 0.0000
# 4 0.0000 0.0000 0.0000 28.7680 0.0000 -2.9458
# 5 19.7555 -2.9415 12.5317 0.0000 19.4247 0.0000
# 6 0.0000 0.0001 0.0000 -2.9458 0.0000 24.0803
#
#
#
# Elastic Compliance Matrix: (Units=1/GPa)
#
#
# Indices 1 2 3 4 5 6 
#
# 1 0.017315 -0.007839 -0.003985 0.000000 -0.016226 0.000000
# 2 -0.007839 0.029183 -0.001617 0.000000 0.013434 0.000000
# 3 -0.003985 -0.001617 0.010792 0.000000 -0.003154 0.000000
# 4 0.000000 0.000000 0.000000 0.035202 0.000000 0.004306
# 5 -0.016226 0.013434 -0.003154 0.000000 0.072052 0.000000
# 6 0.000000 0.000000 0.000000 0.004306 0.000000 0.042055
#
#
# Mechanical properties :
#
#
# Convention : Reuss Voigt Hill
#
# Bulk Modulus (GPa) = 32.88576 44.41490 38.65033
# Shear Modulus (GPa) = 20.52408 26.17179 23.34793
#
# Velocity S-wave (km/s) = 3.26250 3.68414 3.47971
# Velocity P-wave (km/s) = 5.58987 6.41334 6.01571
#
# Compressibility (1/GPa) = 0.03040830
#
# Stress axis : x y z
#
# Youngs Moduli (GPa) = 57.75402 34.26616 92.66106
#
# Poissons Ratio (x) = 0.26860 0.36930
# Poissons Ratio (y) = 0.45271 0.14981
# Poissons Ratio (z) = 0.23018 0.05540
#
# Static dielectric constant tensor:
#      x y z
#    x 3.415900 0.000000 0.177670 
#    y 0.000000 3.409320 0.000000 
#    z 0.177670 0.000000 3.817110 
# 
# 
# High freq. dielectric constant tensor:
#      x y z
#    x 1.732280 0.000000 0.007430 
#    y 0.000000 1.739760 0.000000 
#    z 0.007430 0.000000 1.772470 
# 
# From -- ./inp_files/342481.got.cif
#   From: 2010.06.25/outbox.cif.g09.slc.cpg/sg12_172_cif.got.tgz:342481.got - 2010.06.28 00:19:55.
