data_PCOD8083407
_publ_section_title
;
Structure prediction by ZEFSAII (Michael W. Deem and Ramdas Pophale) SiO2 
 PCOD8083407
Probable space group: C 2/M
;
_chemical_formula_sum "Si O2"
_cell_formula_units_Z 56
_cell_length_a 15.255447
_cell_length_b 9.003273
_cell_length_c 24.423784
_cell_angle_alpha 90.000000
_cell_angle_beta 119.347531
_cell_angle_gamma 90.000000
_cell_volume 2924.064282
_symmetry_space_group_name_H-M "C 2/M"
_symmetry_group_IT_number 12
_symmetry_cell_setting 'monoclinic'
loop_
_space_group_symop_operation_xyz
x,y,z
-x,y,-z
-x,-y,-z
x,-y,z
1/2+x,1/2+y,z
1/2-x,1/2+y,-z
1/2-x,1/2-y,-z
1/2+x,1/2-y,z
loop_
_atom_site_type_symbol
_atom_site_label
_atom_site_fract_x
_atom_site_fract_y
_atom_site_fract_z
Si Si1 0.653062 0.175009 0.494118
Si Si2 0.419282 0.676023 0.713108
Si Si3 0.196200 0.675457 0.626667
Si Si4 0.767221 0.325558 0.063216
Si Si5 0.997144 0.671581 0.156476
Si Si6 0.015827 0.324932 0.641726
Si Si7 0.911051 0.326709 0.932875
O O1 0.750000 0.250000 0.500000
O O2 0.643013 0.228126 0.554040
O O3 0.557890 0.226482 0.429639
O O4 0.666795 0.000000 0.494944
O O5 0.421057 0.500000 0.709955
O O6 0.307867 0.742421 0.667592
O O7 0.453725 0.724665 0.783282
O O8 0.494781 0.740426 0.691255
O O9 0.205106 0.500000 0.628365
O O10 0.127264 0.723781 0.656716
O O11 0.750493 0.500000 0.051169
O O12 0.690338 0.263106 0.084974
O O13 0.879783 0.289012 0.116759
O O14 0.750000 0.250000 0.000000
O O15 0.011593 0.500000 0.176950
O O16 0.054475 0.708398 0.117902
O O17 0.007434 0.500000 0.649873
O O18 0.888884 0.500000 0.935479
O O19 0.000000 0.273141 0.000000
#
# Coordination Sequence:
#
# PCOD8083407 Si02
#       7
#     8   8   8   8   8   8   8
#     4  10  18  32  57  85 113 146 188 238 291 342
#     4  11  23  39  58  82 116 152 192 244 286 332
#     4   9  19  36  57  82 114 150 191 237 284 340
#     4  11  22  38  62  91 120 152 191 238 288 344
#     4  10  23  42  61  83 119 158 191 232 287 352
#     4  10  20  36  60  84 111 153 195 233 288 352
#     4  10  20  39  63  89 121 153 186 233 293 347
#
# _framework density 19.151426000000001
#
# number of rings (size 3 to 8) (size 9 to 14) (size 15 to 20)
#    0.000    1.857    2.857    1.286    0.000    4.857 
#    0.000    6.429    0.000    1.714    0.000    0.000 
#    0.000    0.000    0.000    0.000    0.000    0.000 
#
# Total GULP energy -347228.492813 kJ/mol
# GULP energy per Si atom -12401.017600 kJ/mol
# Density = 1.910784 g / cm^3
# Si number density = 19.151426 Si / 1000 Ang^3
#
#
#
# Elastic Constant Matrix: (Units=GPa)
#
#
# Indices 1 2 3 4 5 6 
#
# 1 136.4845 32.9005 38.5760 0.0000 -15.1575 0.0000
# 2 32.9005 45.3327 29.0764 0.0000 -4.8181 0.0000
# 3 38.5760 29.0764 96.1770 0.0000 -17.8876 0.0000
# 4 0.0000 0.0000 0.0000 27.9939 0.0000 -0.2717
# 5 -15.1575 -4.8181 -17.8876 0.0000 25.2116 0.0000
# 6 0.0000 0.0000 0.0000 -0.2717 0.0000 31.4459
#
#
#
# Elastic Compliance Matrix: (Units=1/GPa)
#
#
# Indices 1 2 3 4 5 6 
#
# 1 0.009479 -0.005567 -0.001448 0.000000 0.003608 0.000000
# 2 -0.005567 0.030647 -0.007564 0.000000 -0.002857 0.000000
# 3 -0.001448 -0.007564 0.014785 0.000000 0.008174 0.000000
# 4 0.000000 0.000000 0.000000 0.035725 0.000000 0.000309
# 5 0.003608 -0.002857 0.008174 0.000000 0.047087 0.000000
# 6 0.000000 0.000000 0.000000 0.000309 0.000000 0.031803
#
#
# Mechanical properties :
#
#
# Convention : Reuss Voigt Hill
#
# Bulk Modulus (GPa) = 38.82919 53.23332 46.03126
# Shear Modulus (GPa) = 24.12333 28.75969 26.44151
#
# Velocity S-wave (km/s) = 3.55295 3.87938 3.71975
# Velocity P-wave (km/s) = 6.09509 6.92261 6.52199
#
# Compressibility (1/GPa) = 0.02575382
#
# Stress axis : x y z
#
# Youngs Moduli (GPa) = 105.49974 32.62930 67.63544
#
# Poissons Ratio (x) = 0.18165 0.09792
# Poissons Ratio (y) = 0.58734 0.51157
# Poissons Ratio (z) = 0.15274 0.24680
#
# Static dielectric constant tensor:
#      x y z
#    x 3.994020 0.000000 0.210450 
#    y 0.000000 3.377030 0.000000 
#    z 0.210450 0.000000 3.714560 
# 
# 
# High freq. dielectric constant tensor:
#      x y z
#    x 1.761340 0.000000 -0.003350 
#    y 0.000000 1.725700 0.000000 
#    z -0.003350 0.000000 1.745970 
# 
# From -- ./inp_files/309030.got.cif
#   From: 2010.06.25/outbox.cif.g09.slc.cpg/sg12_155_cif.got.tgz:309030.got - 2010.06.28 00:19:55.
