data_PCOD8083928
_publ_section_title
;
Structure prediction by ZEFSAII (Michael W. Deem and Ramdas Pophale) SiO2 
 PCOD8083928
Probable space group: C 2/M
;
_chemical_formula_sum "Si O2"
_cell_formula_units_Z 44
_cell_length_a 18.119104
_cell_length_b 25.622962
_cell_length_c 8.206704
_cell_angle_alpha 90.000000
_cell_angle_beta 42.479228
_cell_angle_gamma 90.000000
_cell_volume 2573.038460
_symmetry_space_group_name_H-M "C 2/M"
_symmetry_group_IT_number 12
_symmetry_cell_setting 'monoclinic'
loop_
_space_group_symop_operation_xyz
x,y,z
-x,y,-z
-x,-y,-z
x,-y,z
1/2+x,1/2+y,z
1/2-x,1/2+y,-z
1/2-x,1/2-y,-z
1/2+x,1/2-y,z
loop_
_atom_site_type_symbol
_atom_site_label
_atom_site_fract_x
_atom_site_fract_y
_atom_site_fract_z
Si Si1 0.000000 0.787542 0.000000
Si Si2 0.336440 0.442559 0.177113
Si Si3 0.564675 0.557743 0.635144
Si Si4 0.292949 0.337201 0.153541
Si Si5 0.663437 0.748655 0.500261
Si Si6 0.118920 0.842014 0.343859
O O1 0.902094 0.822438 0.081870
O O2 0.955498 0.750939 0.219323
O O3 0.288883 0.500000 0.209980
O O4 0.359985 0.441009 0.329494
O O5 0.253956 0.395085 0.273456
O O6 0.441922 0.430251 0.892994
O O7 0.571594 0.500000 0.543795
O O8 0.605699 0.599451 0.435933
O O9 0.189344 0.298809 0.346406
O O10 0.310836 0.340302 0.932663
O O11 0.750000 0.750000 0.500000
O O12 0.678476 0.695180 0.376153
O O13 0.000000 0.818054 0.500000
#
# Coordination Sequence:
#
# PCOD8083928 Si02
#       6
#     4   8   8   8   8   8
#     4  10  18  34  49  68  91 128 158 202 240 286
#     4   9  16  28  45  66  94 129 164 193 225 281
#     4   9  17  28  44  66  95 133 164 184 228 285
#     4  11  20  31  49  69  99 127 162 196 242 282
#     4  10  21  34  50  67  92 130 164 197 243 288
#     4  12  20  30  47  70 102 131 159 200 234 277
#
# _framework density 17.100404999999999
#
# number of rings (size 3 to 8) (size 9 to 14) (size 15 to 20)
#    0.000    1.818    3.636    4.909    0.000    1.091 
#    0.000    0.000    0.000    0.000    0.000    0.636 
#    0.000    2.182    0.000    1.455    0.000    0.182 
#
# Total GULP energy -272573.847561 kJ/mol
# GULP energy per Si atom -12389.720344 kJ/mol
# Density = 1.706148 g / cm^3
# Si number density = 17.100405 Si / 1000 Ang^3
#
#
#
# Elastic Constant Matrix: (Units=GPa)
#
#
# Indices 1 2 3 4 5 6 
#
# 1 51.5431 36.8989 19.9092 0.0000 16.5582 0.0000
# 2 36.8989 153.8518 56.9927 0.0000 12.2017 0.0000
# 3 19.9092 56.9927 79.1945 0.0000 26.1681 0.0000
# 4 0.0000 0.0000 0.0000 33.5808 0.0000 8.7088
# 5 16.5582 12.2017 26.1681 0.0000 23.9232 0.0000
# 6 0.0000 0.0000 0.0000 8.7088 0.0000 19.7239
#
#
#
# Elastic Compliance Matrix: (Units=1/GPa)
#
#
# Indices 1 2 3 4 5 6 
#
# 1 0.029907 -0.007317 0.005252 0.000000 -0.022713 0.000000
# 2 -0.007317 0.010884 -0.009134 0.000000 0.009504 0.000000
# 3 0.005252 -0.009134 0.027471 0.000000 -0.029025 0.000000
# 4 0.000000 0.000000 0.000000 0.033630 0.000000 -0.014849
# 5 -0.022713 0.009504 -0.029025 0.000000 0.084423 0.000000
# 6 0.000000 0.000000 0.000000 -0.014849 0.000000 0.057256
#
#
# Mechanical properties :
#
#
# Convention : Reuss Voigt Hill
#
# Bulk Modulus (GPa) = 21.80317 56.91011 39.35664
# Shear Modulus (GPa) = 17.77734 26.83149 22.30441
#
# Velocity S-wave (km/s) = 3.22776 3.96543 3.61546
# Velocity P-wave (km/s) = 5.16420 7.37010 6.36347
#
# Compressibility (1/GPa) = 0.04586490
#
# Stress axis : x y z
#
# Youngs Moduli (GPa) = 33.43671 91.87396 36.40229
#
# Poissons Ratio (x) = 0.67225 -0.19119
# Poissons Ratio (y) = 0.24466 0.33250
# Poissons Ratio (z) = -0.17562 0.83918
#
# Static dielectric constant tensor:
#      x y z
#    x 3.059540 0.000000 0.237180 
#    y 0.000000 3.728380 0.000000 
#    z 0.237180 0.000000 3.516830 
# 
# 
# High freq. dielectric constant tensor:
#      x y z
#    x 1.637410 0.000000 0.050180 
#    y 0.000000 1.671720 0.000000 
#    z 0.050180 0.000000 1.628430 
# 
# From -- ./inp_files/62714.got.cif
#   From: 2010.06.25/outbox.cif.g09.slc.cpg/sg12_32_cif.got.tgz:62714.got - 2010.06.28 00:19:55.
