data_PCOD8083664
_publ_section_title
;
Structure prediction by ZEFSAII (Michael W. Deem and Ramdas Pophale) SiO2 
 PCOD8083664
Probable space group: C 2/M
;
_chemical_formula_sum "Si O2"
_cell_formula_units_Z 64
_cell_length_a 24.264172
_cell_length_b 17.856566
_cell_length_c 14.994741
_cell_angle_alpha 90.000000
_cell_angle_beta 28.925485
_cell_angle_gamma 90.000000
_cell_volume 3142.339471
_symmetry_space_group_name_H-M "C 2/M"
_symmetry_group_IT_number 12
_symmetry_cell_setting 'monoclinic'
loop_
_space_group_symop_operation_xyz
x,y,z
-x,y,-z
-x,-y,-z
x,-y,z
1/2+x,1/2+y,z
1/2-x,1/2+y,-z
1/2-x,1/2-y,-z
1/2+x,1/2-y,z
loop_
_atom_site_type_symbol
_atom_site_label
_atom_site_fract_x
_atom_site_fract_y
_atom_site_fract_z
Si Si1 0.184707 0.814525 0.460526
Si Si2 0.373358 0.677959 0.651834
Si Si3 0.607651 0.730955 0.904373
Si Si4 0.297428 0.829962 0.958971
Si Si5 0.291747 0.582054 0.237978
Si Si6 0.629557 0.144053 0.326993
Si Si7 0.002513 0.301801 0.782562
Si Si8 0.690583 0.914668 0.574334
O O1 0.149627 0.851953 0.415875
O O2 0.280897 0.751710 0.309450
O O3 0.079716 0.770759 0.653875
O O4 0.231646 0.878950 0.458449
O O5 0.500000 0.654220 0.500000
O O6 0.358333 0.767551 0.670672
O O7 0.285414 0.638017 0.846131
O O8 0.610617 0.642471 0.922495
O O9 0.500000 0.753576 0.000000
O O10 0.599826 0.777576 0.006312
O O11 0.300317 0.877685 0.862893
O O12 0.431865 0.826928 0.795793
O O13 0.250000 0.750000 0.000000
O O14 0.339302 0.500000 0.146263
O O15 0.178986 0.598883 0.340322
O O16 0.262968 0.586588 0.382307
O O17 0.500000 0.119042 0.500000
O O18 0.073515 0.369331 0.725400
O O19 0.659409 0.000000 0.645491
#
# Coordination Sequence:
#
# PCOD8083664 Si02
#       8
#     8   8   8   8   8   8   8   8
#     4  12  21  40  64  94 125 162 214 259 312 375
#     4  10  19  34  60  92 123 156 205 265 307 357
#     4  12  22  37  62  93 121 162 215 253 313 376
#     4  10  19  32  57  91 124 157 211 262 306 369
#     4  11  23  40  58  88 133 167 204 258 318 383
#     4  10  18  33  55  87 121 159 202 253 314 370
#     4  12  21  37  67  93 125 168 214 266 310 381
#     4  11  24  41  63  94 128 168 211 265 329 378
#
# _framework density 20.366990000000001
#
# number of rings (size 3 to 8) (size 9 to 14) (size 15 to 20)
#    0.000    1.000    5.000    4.875    0.000    0.500 
#    0.000    2.500    0.000    1.125    0.000    0.000 
#    0.000    0.000    0.000    0.000    0.000    0.000 
#
# Total GULP energy -396757.113475 kJ/mol
# GULP energy per Si atom -12398.659796 kJ/mol
# Density = 2.032063 g / cm^3
# Si number density = 20.366990 Si / 1000 Ang^3
#
#
#
# Elastic Constant Matrix: (Units=GPa)
#
#
# Indices 1 2 3 4 5 6 
#
# 1 153.9664 33.7128 34.2135 0.0000 1.2217 0.0000
# 2 33.7128 72.1477 27.3381 0.0000 5.4072 0.0000
# 3 34.2135 27.3381 77.2508 0.0000 2.6323 0.0000
# 4 0.0000 0.0000 0.0000 17.8242 0.0000 0.3031
# 5 1.2217 5.4072 2.6323 0.0000 32.2137 0.0000
# 6 0.0000 0.0000 0.0000 0.3031 0.0000 11.3721
#
#
#
# Elastic Compliance Matrix: (Units=1/GPa)
#
#
# Indices 1 2 3 4 5 6 
#
# 1 0.007618 -0.002660 -0.002445 0.000000 0.000357 0.000000
# 2 -0.002660 0.017097 -0.004791 0.000000 -0.002377 0.000000
# 3 -0.002445 -0.004791 0.015736 0.000000 -0.000389 0.000000
# 4 0.000000 0.000000 0.000000 0.056129 0.000000 -0.001496
# 5 0.000357 -0.002377 -0.000389 0.000000 0.031460 0.000000
# 6 0.000000 0.000000 0.000000 -0.001496 0.000000 0.087974
#
#
# Mechanical properties :
#
#
# Convention : Reuss Voigt Hill
#
# Bulk Modulus (GPa) = 48.40452 54.87709 51.64081
# Shear Modulus (GPa) = 20.60217 26.15537 23.37877
#
# Velocity S-wave (km/s) = 3.18393 3.58747 3.39171
# Velocity P-wave (km/s) = 6.11018 6.64549 6.38345
#
# Compressibility (1/GPa) = 0.02065923
#
# Stress axis : x y z
#
# Youngs Moduli (GPa) = 131.27197 58.48927 63.54694
#
# Poissons Ratio (x) = 0.15558 0.15535
# Poissons Ratio (y) = 0.34919 0.30448
# Poissons Ratio (z) = 0.32091 0.28024
#
# Static dielectric constant tensor:
#      x y z
#    x 4.083100 0.000000 0.222370 
#    y 0.000000 3.402780 0.000000 
#    z 0.222370 0.000000 3.912310 
# 
# 
# High freq. dielectric constant tensor:
#      x y z
#    x 1.824820 0.000000 0.003030 
#    y 0.000000 1.741080 0.000000 
#    z 0.003030 0.000000 1.797300 
# 
# From -- ./inp_files/241447.got.cif
#   From: 2010.06.25/outbox.cif.g09.slc.cpg/sg12_121_cif.got.tgz:241447.got - 2010.06.28 00:19:55.
