data_PCOD8083891
_publ_section_title
;
Structure prediction by ZEFSAII (Michael W. Deem and Ramdas Pophale) SiO2 
 PCOD8083891
Probable space group: C 2/M
;
_chemical_formula_sum "Si O2"
_cell_formula_units_Z 48
_cell_length_a 24.577842
_cell_length_b 8.584919
_cell_length_c 11.732657
_cell_angle_alpha 90.000000
_cell_angle_beta 109.962215
_cell_angle_gamma 90.000000
_cell_volume 2326.838692
_symmetry_space_group_name_H-M "C 2/M"
_symmetry_group_IT_number 12
_symmetry_cell_setting 'monoclinic'
loop_
_space_group_symop_operation_xyz
x,y,z
-x,y,-z
-x,-y,-z
x,-y,z
1/2+x,1/2+y,z
1/2-x,1/2+y,-z
1/2-x,1/2-y,-z
1/2+x,1/2-y,z
loop_
_atom_site_type_symbol
_atom_site_label
_atom_site_fract_x
_atom_site_fract_y
_atom_site_fract_z
Si Si1 0.061463 0.678488 0.489269
Si Si2 0.895240 0.185254 0.110337
Si Si3 0.161706 0.181050 0.698855
Si Si4 0.871947 0.819423 0.847459
Si Si5 0.974879 0.180796 0.762707
Si Si6 0.736112 0.317742 0.366480
O O1 0.080998 0.500000 0.520484
O O2 0.106686 0.793889 0.579338
O O3 0.058357 0.718048 0.354610
O O4 0.000000 0.713762 0.500000
O O5 0.854192 0.239084 0.184797
O O6 0.960640 0.248423 0.173912
O O7 0.899213 0.000000 0.107303
O O8 0.869383 0.253261 0.973367
O O9 0.214680 0.281311 0.690565
O O10 0.178477 0.000000 0.709400
O O11 0.937339 0.795706 0.850038
O O12 0.823710 0.746022 0.727964
O O13 0.856321 0.000000 0.845672
O O14 0.976302 0.000000 0.726554
O O15 0.730771 0.500000 0.381213
O O16 0.750000 0.250000 0.500000
#
# Coordination Sequence:
#
# PCOD8083891 Si02
#       6
#     8   8   8   8   8   8
#     4  11  22  35  54  82 118 152 186 234 290 344
#     4   9  18  33  56  87 117 146 188 239 287 343
#     4  11  22  37  59  86 116 151 193 238 285 342
#     4   9  19  35  57  85 114 148 192 238 286 339
#     4  10  18  33  60  88 114 148 191 240 288 341
#     4  11  23  40  61  85 116 153 194 240 287 340
#
# _framework density 20.628848000000001
#
# number of rings (size 3 to 8) (size 9 to 14) (size 15 to 20)
#    0.000    1.833    1.667    3.000    0.000    4.667 
#    0.000    0.833    0.000    9.000    0.000    0.000 
#    0.000    0.000    0.000    0.000    0.000    0.000 
#
# Total GULP energy -297589.218324 kJ/mol
# GULP energy per Si atom -12399.550764 kJ/mol
# Density = 2.058190 g / cm^3
# Si number density = 20.628848 Si / 1000 Ang^3
#
#
#
# Elastic Constant Matrix: (Units=GPa)
#
#
# Indices 1 2 3 4 5 6 
#
# 1 107.8440 18.9942 54.1545 0.0000 -10.5622 0.0000
# 2 18.9942 29.0072 15.6180 0.0000 -0.6749 0.0000
# 3 54.1545 15.6180 159.4753 0.0000 -10.9109 0.0000
# 4 0.0000 0.0000 0.0000 18.0689 0.0000 -5.7060
# 5 -10.5622 -0.6749 -10.9109 0.0000 30.7064 0.0000
# 6 0.0000 0.0000 0.0000 -5.7060 0.0000 15.1727
#
#
#
# Elastic Compliance Matrix: (Units=1/GPa)
#
#
# Indices 1 2 3 4 5 6 
#
# 1 0.012350 -0.006195 -0.003388 0.000000 0.002908 0.000000
# 2 -0.006195 0.039508 -0.001898 0.000000 -0.001937 0.000000
# 3 -0.003388 -0.001898 0.007712 0.000000 0.001533 0.000000
# 4 0.000000 0.000000 0.000000 0.062802 0.000000 0.023618
# 5 0.002908 -0.001937 0.001533 0.000000 0.034069 0.000000
# 6 0.000000 0.000000 0.000000 0.023618 0.000000 0.074790
#
#
# Mechanical properties :
#
#
# Convention : Reuss Voigt Hill
#
# Bulk Modulus (GPa) = 27.31695 52.65109 39.98402
# Shear Modulus (GPa) = 18.76915 26.62692 22.69803
#
# Velocity S-wave (km/s) = 3.01964 3.59661 3.32068
# Velocity P-wave (km/s) = 5.04267 6.54415 5.84185
#
# Compressibility (1/GPa) = 0.03660730
#
# Stress axis : x y z
#
# Youngs Moduli (GPa) = 80.97210 25.31158 129.67029
#
# Poissons Ratio (x) = 0.15680 0.43934
# Poissons Ratio (y) = 0.50162 0.24611
# Poissons Ratio (z) = 0.27434 0.04804
#
# Static dielectric constant tensor:
#      x y z
#    x 3.837110 0.000000 0.003060 
#    y 0.000000 3.342470 0.000000 
#    z 0.003060 0.000000 4.032000 
# 
# 
# High freq. dielectric constant tensor:
#      x y z
#    x 1.813400 0.000000 -0.005790 
#    y 0.000000 1.767820 0.000000 
#    z -0.005790 0.000000 1.818400 
# 
# From -- ./inp_files/172436.got.cif
#   From: 2010.06.25/outbox.cif.g09.slc.cpg/sg12_87_cif.got.tgz:172436.got - 2010.06.28 00:19:55.
