data_PCOD8083055
_publ_section_title
;
Structure prediction by ZEFSAII (Michael W. Deem and Ramdas Pophale) SiO2 
 PCOD8083055
Probable space group: C 2/M
;
_chemical_formula_sum "Si O2"
_cell_formula_units_Z 56
_cell_length_a 19.828624
_cell_length_b 8.568329
_cell_length_c 28.006933
_cell_angle_alpha 90.000000
_cell_angle_beta 38.253714
_cell_angle_gamma 90.000000
_cell_volume 2946.093535
_symmetry_space_group_name_H-M "C 2/M"
_symmetry_group_IT_number 12
_symmetry_cell_setting 'monoclinic'
loop_
_space_group_symop_operation_xyz
x,y,z
-x,y,-z
-x,-y,-z
x,-y,z
1/2+x,1/2+y,z
1/2-x,1/2+y,-z
1/2-x,1/2-y,-z
1/2+x,1/2-y,z
loop_
_atom_site_type_symbol
_atom_site_label
_atom_site_fract_x
_atom_site_fract_y
_atom_site_fract_z
Si Si1 0.750545 0.685771 0.277148
Si Si2 0.687973 0.685081 0.988955
Si Si3 0.424770 0.685467 0.700373
Si Si4 0.352664 0.684677 0.469494
Si Si5 0.620578 0.314460 0.439572
Si Si6 0.996702 0.685252 0.145787
Si Si7 0.621186 0.314952 0.167503
O O1 0.749514 0.500000 0.278514
O O2 0.679178 0.747863 0.272067
O O3 0.699075 0.752514 0.354804
O O4 0.874216 0.746716 0.205498
O O5 0.689257 0.500000 0.986712
O O6 0.564550 0.747263 0.062789
O O7 0.750000 0.750000 0.000000
O O8 0.753904 0.753725 0.907166
O O9 0.424874 0.500000 0.698264
O O10 0.535727 0.751847 0.615340
O O11 0.418366 0.742915 0.758606
O O12 0.355089 0.500000 0.464678
O O13 0.250000 0.750000 0.500000
O O14 0.338078 0.741443 0.531931
O O15 0.500000 0.246003 0.500000
O O16 0.616917 0.500000 0.438128
O O17 0.004401 0.500000 0.141523
O O18 0.041322 0.744844 0.171878
O O19 0.619931 0.500000 0.163331
#
# Coordination Sequence:
#
# PCOD8083055 Si02
#       7
#     8   8   8   8   8   8   8
#     4   9  17  30  49  75 102 131 172 215 248 289
#     4  10  18  32  53  75 102 132 167 206 249 301
#     4   9  18  33  50  73 104 137 170 208 253 298
#     4  10  20  33  52  77 105 135 169 211 256 300
#     4   9  15  28  51  75  99 131 173 214 248 285
#     4  10  19  31  52  79 104 128 165 213 254 297
#     4  10  19  32  52  75 103 135 167 205 252 303
#
# _framework density 19.008220999999999
#
# number of rings (size 3 to 8) (size 9 to 14) (size 15 to 20)
#    0.000    2.429    1.429    3.857    2.000    0.000 
#    0.000    1.429    0.000    9.857    0.000    0.000 
#    0.000    0.000    0.000    0.000    0.000    0.000 
#
# Total GULP energy -347061.257946 kJ/mol
# GULP energy per Si atom -12395.044927 kJ/mol
# Density = 1.896496 g / cm^3
# Si number density = 19.008221 Si / 1000 Ang^3
#
#
#
# Elastic Constant Matrix: (Units=GPa)
#
#
# Indices 1 2 3 4 5 6 
#
# 1 122.5413 15.9774 60.6335 0.0000 -13.7811 0.0022
# 2 15.9774 50.4570 21.4576 0.0005 -0.2884 0.0050
# 3 60.6335 21.4576 134.7987 -0.0001 -19.3097 -0.0005
# 4 0.0000 0.0005 -0.0001 18.6049 -0.0003 -2.2530
# 5 -13.7811 -0.2884 -19.3097 -0.0003 36.1018 -0.0001
# 6 0.0022 0.0050 -0.0005 -2.2530 -0.0001 19.7092
#
#
#
# Elastic Compliance Matrix: (Units=1/GPa)
#
#
# Indices 1 2 3 4 5 6 
#
# 1 0.010693 -0.001542 -0.004312 0.000000 0.001763 -0.000001
# 2 -0.001542 0.021586 -0.003035 -0.000001 -0.002039 -0.000006
# 3 -0.004312 -0.003035 0.010398 0.000000 0.003892 0.000002
# 4 0.000000 -0.000001 0.000000 0.054504 0.000001 0.006230
# 5 0.001763 -0.002039 0.003892 0.000001 0.030438 0.000001
# 6 -0.000001 -0.000006 0.000002 0.006230 0.000001 0.051450
#
#
# Mechanical properties :
#
#
# Convention : Reuss Voigt Hill
#
# Bulk Modulus (GPa) = 40.15976 55.99266 48.07621
# Shear Modulus (GPa) = 24.37278 28.86510 26.61894
#
# Velocity S-wave (km/s) = 3.58470 3.90110 3.74624
# Velocity P-wave (km/s) = 6.18925 7.05779 6.63774
#
# Compressibility (1/GPa) = 0.02490055
#
# Stress axis : x y z
#
# Youngs Moduli (GPa) = 93.51527 46.32615 96.16780
#
# Poissons Ratio (x) = 0.07145 0.41466
# Poissons Ratio (y) = 0.14423 0.29182
# Poissons Ratio (z) = 0.40323 0.14058
#
# Static dielectric constant tensor:
#      x y z
#    x 3.450960 0.000000 0.037920 
#    y 0.000000 3.084540 0.000000 
#    z 0.037920 0.000000 4.241350 
# 
# 
# High freq. dielectric constant tensor:
#      x y z
#    x 1.725480 0.000000 -0.002320 
#    y 0.000000 1.701580 0.000000 
#    z -0.002320 0.000000 1.758620 
# 
# From -- ./inp_files/362910.got.cif
#   From: 2010.06.25/outbox.cif.g09.slc.cpg/sg12_182_cif.got.tgz:362910.got - 2010.06.28 00:19:55.
