data_PCOD8083793
_publ_section_title
;
Structure prediction by ZEFSAII (Michael W. Deem and Ramdas Pophale) SiO2 
 PCOD8083793
Probable space group: C 2/M
;
_chemical_formula_sum "Si O2"
_cell_formula_units_Z 48
_cell_length_a 14.466604
_cell_length_b 22.579708
_cell_length_c 10.345320
_cell_angle_alpha 90.000000
_cell_angle_beta 44.948029
_cell_angle_gamma 90.000000
_cell_volume 2387.369025
_symmetry_space_group_name_H-M "C 2/M"
_symmetry_group_IT_number 12
_symmetry_cell_setting 'monoclinic'
loop_
_space_group_symop_operation_xyz
x,y,z
-x,y,-z
-x,-y,-z
x,-y,z
1/2+x,1/2+y,z
1/2-x,1/2+y,-z
1/2-x,1/2-y,-z
1/2+x,1/2-y,z
loop_
_atom_site_type_symbol
_atom_site_label
_atom_site_fract_x
_atom_site_fract_y
_atom_site_fract_z
Si Si1 0.761492 0.116118 0.047133
Si Si2 0.002893 0.388047 0.842595
Si Si3 0.786910 0.233444 0.163912
Si Si4 0.796471 0.500000 0.763406
Si Si5 0.562082 0.677627 0.311915
Si Si6 0.574955 0.000000 0.626054
Si Si7 0.059327 0.258560 0.753862
O O1 0.644698 0.107041 0.061969
O O2 0.729680 0.170279 0.176051
O O3 0.783324 0.057859 0.112030
O O4 0.895312 0.127898 0.833987
O O5 0.088095 0.442553 0.704290
O O6 0.073200 0.328913 0.719601
O O7 0.000000 0.388686 0.000000
O O8 0.690358 0.285029 0.218247
O O9 0.815928 0.234062 0.289020
O O10 0.922543 0.246909 0.960117
O O11 0.809438 0.500000 0.594868
O O12 0.938366 0.500000 0.686867
O O13 0.500000 0.646872 0.500000
O O14 0.448617 0.722063 0.371760
#
# Coordination Sequence:
#
# PCOD8083793 Si02
#       7
#     8   8   8   4   8   4   8
#     4  10  19  37  57  76 111 153 188 228 285 333
#     4  11  17  32  55  83 119 148 173 221 290 349
#     4  10  18  35  56  81 109 149 190 222 281 338
#     4   9  20  38  57  75 104 147 195 234 275 335
#     4  11  21  33  52  83 117 148 188 234 277 333
#     4   9  21  32  52  88 109 138 188 231 282 338
#     4  10  18  33  58  80 111 151 185 225 282 342
#
# _framework density 20.105813999999999
#
# number of rings (size 3 to 8) (size 9 to 14) (size 15 to 20)
#    0.000    1.833    5.000    1.250    0.000    2.000 
#    0.000    2.083    0.000    8.000    0.000    0.000 
#    0.000    0.000    0.000    0.000    0.000    0.000 
#
# Total GULP energy -297562.092712 kJ/mol
# GULP energy per Si atom -12398.420530 kJ/mol
# Density = 2.006005 g / cm^3
# Si number density = 20.105814 Si / 1000 Ang^3
#
#
#
# Elastic Constant Matrix: (Units=GPa)
#
#
# Indices 1 2 3 4 5 6 
#
# 1 82.0538 24.1781 12.8469 0.0000 9.0293 0.0000
# 2 24.1781 133.1793 57.3062 0.0000 15.0086 0.0000
# 3 12.8469 57.3062 72.6325 0.0000 21.6390 0.0000
# 4 0.0000 0.0000 0.0000 16.0592 0.0000 2.3147
# 5 9.0293 15.0086 21.6390 0.0000 25.5111 0.0000
# 6 0.0000 0.0000 0.0000 2.3147 0.0000 19.3086
#
#
#
# Elastic Compliance Matrix: (Units=1/GPa)
#
#
# Indices 1 2 3 4 5 6 
#
# 1 0.013170 -0.002192 0.000542 0.000000 -0.003831 0.000000
# 2 -0.002192 0.011762 -0.009450 0.000000 0.001872 0.000000
# 3 0.000542 -0.009450 0.026133 0.000000 -0.016798 0.000000
# 4 0.000000 0.000000 0.000000 0.063364 0.000000 -0.007596
# 5 -0.003831 0.001872 -0.016798 0.000000 0.053702 0.000000
# 6 0.000000 0.000000 0.000000 -0.007596 0.000000 0.052701
#
#
# Mechanical properties :
#
#
# Convention : Reuss Voigt Hill
#
# Bulk Modulus (GPa) = 34.64612 52.94754 43.79683
# Shear Modulus (GPa) = 19.78989 25.07810 22.43399
#
# Velocity S-wave (km/s) = 3.14074 3.53555 3.34398
# Velocity P-wave (km/s) = 5.51558 6.56189 6.06136
#
# Compressibility (1/GPa) = 0.02886326
#
# Stress axis : x y z
#
# Youngs Moduli (GPa) = 75.93094 85.01980 38.26626
#
# Poissons Ratio (x) = 0.18638 -0.02072
# Poissons Ratio (y) = 0.16646 0.36161
# Poissons Ratio (z) = -0.04112 0.80343
#
# Static dielectric constant tensor:
#      x y z
#    x 4.103220 0.000000 0.363340 
#    y 0.000000 3.795830 0.000000 
#    z 0.363340 0.000000 3.498920 
# 
# 
# High freq. dielectric constant tensor:
#      x y z
#    x 1.785220 0.000000 0.019270 
#    y 0.000000 1.771760 0.000000 
#    z 0.019270 0.000000 1.763820 
# 
# From -- ./inp_files/147964.got.cif
#   From: 2010.06.25/outbox.cif.g09.slc.cpg/sg12_74_cif.got.tgz:147964.got - 2010.06.28 00:19:55.
