data_PCOD8083971
_publ_section_title
;
Structure prediction by ZEFSAII (Michael W. Deem and Ramdas Pophale) SiO2 
 PCOD8083971
Probable space group: C 2/M
;
_chemical_formula_sum "Si O2"
_cell_formula_units_Z 56
_cell_length_a 21.238355
_cell_length_b 29.841540
_cell_length_c 8.518789
_cell_angle_alpha 90.000000
_cell_angle_beta 146.002986
_cell_angle_gamma 90.000000
_cell_volume 3018.895379
_symmetry_space_group_name_H-M "C 2/M"
_symmetry_group_IT_number 12
_symmetry_cell_setting 'monoclinic'
loop_
_space_group_symop_operation_xyz
x,y,z
-x,y,-z
-x,-y,-z
x,-y,z
1/2+x,1/2+y,z
1/2-x,1/2+y,-z
1/2-x,1/2-y,-z
1/2+x,1/2-y,z
loop_
_atom_site_type_symbol
_atom_site_label
_atom_site_fract_x
_atom_site_fract_y
_atom_site_fract_z
Si Si1 0.147428 0.371529 0.457553
Si Si2 0.295029 0.601986 0.203862
Si Si3 0.106435 0.645470 0.022142
Si Si4 0.281409 0.449192 0.872911
Si Si5 0.711656 0.683637 0.010889
Si Si6 0.477703 0.448496 0.774493
Si Si7 0.607268 0.772084 0.827174
O O1 0.162010 0.358313 0.307067
O O2 0.202538 0.419894 0.597785
O O3 0.211373 0.333877 0.689047
O O4 0.017708 0.375631 0.239674
O O5 0.180658 0.618386 0.049989
O O6 0.383297 0.585065 0.514598
O O7 0.263605 0.562013 0.019573
O O8 0.346431 0.642293 0.202592
O O9 0.096882 0.698551 0.964062
O O10 0.245557 0.500000 0.767877
O O11 0.411504 0.441225 0.099311
O O12 0.782996 0.710908 0.033549
O O13 0.619532 0.718778 0.890070
O O14 0.435783 0.500000 0.676985
O O15 0.500000 0.434974 0.000000
O O16 0.500000 0.781501 0.500000
#
# Coordination Sequence:
#
# PCOD8083971 Si02
#       7
#     8   8   8   8   8   8   8
#     4  10  20  38  57  82 109 148 189 221 285 331
#     4  10  20  35  55  81 110 146 190 223 277 326
#     4  10  21  36  58  78 110 149 181 233 277 331
#     4  10  21  36  57  82 113 146 184 230 271 327
#     4   9  20  32  54  80 104 138 182 227 267 327
#     4  10  20  35  56  82 114 148 182 227 278 328
#     4  10  18  34  54  77 106 137 178 225 275 325
#
# _framework density 18.549831999999999
#
# number of rings (size 3 to 8) (size 9 to 14) (size 15 to 20)
#    0.000    2.143    1.429    1.714    0.000    4.000 
#    0.000    4.286    0.000    0.000    0.000    0.000 
#    0.000    0.000    0.000    0.000    0.000    0.000 
#
# Total GULP energy -347160.062743 kJ/mol
# GULP energy per Si atom -12398.573669 kJ/mol
# Density = 1.850761 g / cm^3
# Si number density = 18.549832 Si / 1000 Ang^3
#
#
#
# Elastic Constant Matrix: (Units=GPa)
#
#
# Indices 1 2 3 4 5 6 
#
# 1 84.1479 35.6163 33.3613 0.0000 -15.2084 0.0000
# 2 35.6163 113.4869 56.9807 0.0000 -9.3017 0.0000
# 3 33.3613 56.9807 97.6509 0.0000 -24.2215 0.0000
# 4 0.0000 0.0000 0.0000 96.3125 0.0000 61.1170
# 5 -15.2084 -9.3017 -24.2215 0.0000 31.3374 0.0000
# 6 0.0000 0.0000 0.0000 61.1170 0.0000 71.6236
#
#
#
# Elastic Compliance Matrix: (Units=1/GPa)
#
#
# Indices 1 2 3 4 5 6 
#
# 1 0.014925 -0.003288 -0.002012 0.000000 0.004712 0.000000
# 2 -0.003288 0.013332 -0.007510 0.000000 -0.003443 0.000000
# 3 -0.002012 -0.007510 0.017958 0.000000 0.010675 0.000000
# 4 0.000000 0.000000 0.000000 0.022644 0.000000 -0.019323
# 5 0.004712 -0.003443 0.010675 0.000000 0.041427 0.000000
# 6 0.000000 0.000000 0.000000 -0.019323 0.000000 0.030450
#
#
# Mechanical properties :
#
#
# Convention : Reuss Voigt Hill
#
# Bulk Modulus (GPa) = 48.55420 60.80027 54.67723
# Shear Modulus (GPa) = 28.86509 51.14320 40.00414
#
# Velocity S-wave (km/s) = 3.94900 5.25648 4.64893
# Velocity P-wave (km/s) = 6.85745 8.34797 7.63915
#
# Compressibility (1/GPa) = 0.02059554
#
# Stress axis : x y z
#
# Youngs Moduli (GPa) = 67.00371 75.00744 55.68571
#
# Poissons Ratio (x) = 0.24660 0.11201
# Poissons Ratio (y) = 0.22028 0.41822
# Poissons Ratio (z) = 0.13478 0.56333
#
# Static dielectric constant tensor:
#      x y z
#    x 3.431410 0.000000 -0.041660 
#    y 0.000000 3.708710 0.000000 
#    z -0.041660 0.000000 3.294190 
# 
# 
# High freq. dielectric constant tensor:
#      x y z
#    x 1.715880 0.000000 -0.005900 
#    y 0.000000 1.725690 0.000000 
#    z -0.005900 0.000000 1.716690 
# 
# From -- ./inp_files/91523.got.cif
#   From: 2010.06.25/outbox.cif.g09.slc.cpg/sg12_46_cif.got.tgz:91523.got - 2010.06.28 00:19:55.
