data_PCOD8083841
_publ_section_title
;
Structure prediction by ZEFSAII (Michael W. Deem and Ramdas Pophale) SiO2 
 PCOD8083841
Probable space group: C 2/M
;
_chemical_formula_sum "Si O2"
_cell_formula_units_Z 56
_cell_length_a 30.511781
_cell_length_b 9.198514
_cell_length_c 11.871606
_cell_angle_alpha 90.000000
_cell_angle_beta 62.563949
_cell_angle_gamma 90.000000
_cell_volume 2957.165419
_symmetry_space_group_name_H-M "C 2/M"
_symmetry_group_IT_number 12
_symmetry_cell_setting 'monoclinic'
loop_
_space_group_symop_operation_xyz
x,y,z
-x,y,-z
-x,-y,-z
x,-y,z
1/2+x,1/2+y,z
1/2-x,1/2+y,-z
1/2-x,1/2-y,-z
1/2+x,1/2-y,z
loop_
_atom_site_type_symbol
_atom_site_label
_atom_site_fract_x
_atom_site_fract_y
_atom_site_fract_z
Si Si1 0.570842 0.333173 0.189687
Si Si2 0.991101 0.327416 0.136704
Si Si3 0.558463 0.835342 0.425704
Si Si4 0.772684 0.329539 0.805606
Si Si5 0.819602 0.165580 0.944270
Si Si6 0.710764 0.827459 0.467973
Si Si7 0.900233 0.671890 0.386849
O O1 0.552990 0.500000 0.211773
O O2 0.533280 0.236939 0.164681
O O3 0.575914 0.274806 0.309849
O O4 0.625369 0.317744 0.070963
O O5 0.995823 0.500000 0.138281
O O6 0.937264 0.273868 0.244099
O O7 0.000000 0.270115 0.000000
O O8 0.500000 0.836475 0.500000
O O9 0.580529 0.770878 0.515520
O O10 0.577730 0.000000 0.379631
O O11 0.781635 0.500000 0.798962
O O12 0.813553 0.259243 0.838178
O O13 0.779700 0.273314 0.670484
O O14 0.718164 0.283684 0.913376
O O15 0.808421 0.000000 0.923337
O O16 0.750000 0.750000 0.500000
O O17 0.655723 0.776285 0.570388
O O18 0.717155 0.000000 0.471438
O O19 0.902085 0.500000 0.389774
#
# Coordination Sequence:
#
# PCOD8083841 Si02
#       7
#     8   8   8   8   8   8   8
#     4  11  22  34  51  80 116 143 169 213 271 330
#     4  10  21  38  57  75 101 141 187 224 258 312
#     4  10  18  33  59  82 105 139 180 222 262 312
#     4   9  18  35  56  77 102 138 181 222 266 316
#     4   9  19  34  53  79 110 140 170 216 270 320
#     4  10  21  36  55  77 105 139 178 222 267 315
#     4   9  18  35  56  80 106 134 173 227 274 306
#
# _framework density 18.937054
#
# number of rings (size 3 to 8) (size 9 to 14) (size 15 to 20)
#    0.000    2.286    1.429    1.286    0.000    4.571 
#    0.000    1.429    0.000    0.000    0.000    0.000 
#    0.000    0.000    0.000    0.000    0.000    0.000 
#
# Total GULP energy -347171.347194 kJ/mol
# GULP energy per Si atom -12398.976685 kJ/mol
# Density = 1.889395 g / cm^3
# Si number density = 18.937054 Si / 1000 Ang^3
#
#
#
# Elastic Constant Matrix: (Units=GPa)
#
#
# Indices 1 2 3 4 5 6 
#
# 1 133.0182 21.9189 72.1867 0.0000 -7.7220 0.0000
# 2 21.9189 24.8920 26.9983 0.0000 -0.3688 0.0000
# 3 72.1867 26.9983 139.8264 0.0000 2.3210 0.0000
# 4 0.0000 0.0000 0.0000 18.7399 0.0000 -1.2558
# 5 -7.7220 -0.3688 2.3210 0.0000 25.7691 0.0000
# 6 0.0000 0.0000 0.0000 -1.2558 0.0000 27.8334
#
#
#
# Elastic Compliance Matrix: (Units=1/GPa)
#
#
# Indices 1 2 3 4 5 6 
#
# 1 0.011155 -0.004369 -0.004977 0.000000 0.003729 0.000000
# 2 -0.004369 0.052594 -0.007902 0.000000 0.000155 0.000000
# 3 -0.004977 -0.007902 0.011291 0.000000 -0.002622 0.000000
# 4 0.000000 0.000000 0.000000 0.053524 0.000000 0.002415
# 5 0.003729 0.000155 -0.002622 0.000000 0.040162 0.000000
# 6 0.000000 0.000000 0.000000 0.002415 0.000000 0.036037
#
#
# Mechanical properties :
#
#
# Convention : Reuss Voigt Hill
#
# Bulk Modulus (GPa) = 24.66537 59.99381 42.32959
# Shear Modulus (GPa) = 19.78057 26.24400 23.01229
#
# Velocity S-wave (km/s) = 3.23545 3.72675 3.48975
# Velocity P-wave (km/s) = 5.19718 7.08996 6.21604
#
# Compressibility (1/GPa) = 0.04054268
#
# Stress axis : x y z
#
# Youngs Moduli (GPa) = 89.64374 19.01369 88.56964
#
# Poissons Ratio (x) = 0.08307 0.44084
# Poissons Ratio (y) = 0.39167 0.69987
# Poissons Ratio (z) = 0.44618 0.15025
#
# Static dielectric constant tensor:
#      x y z
#    x 3.471610 0.000000 -0.212860 
#    y 0.000000 3.258910 0.000000 
#    z -0.212860 0.000000 3.908260 
# 
# 
# High freq. dielectric constant tensor:
#      x y z
#    x 1.737740 0.000000 -0.014450 
#    y 0.000000 1.712130 0.000000 
#    z -0.014450 0.000000 1.742330 
# 
# From -- ./inp_files/181124.got.cif
#   From: 2010.06.25/outbox.cif.g09.slc.cpg/sg12_91_cif.got.tgz:181124.got - 2010.06.28 00:19:55.
