data_PCOD8083324
_publ_section_title
;
Structure prediction by ZEFSAII (Michael W. Deem and Ramdas Pophale) SiO2 
 PCOD8083324
Probable space group: C 2/M
;
_chemical_formula_sum "Si O2"
_cell_formula_units_Z 48
_cell_length_a 11.617799
_cell_length_b 17.996478
_cell_length_c 11.737444
_cell_angle_alpha 90.000000
_cell_angle_beta 79.336125
_cell_angle_gamma 90.000000
_cell_volume 2411.676087
_symmetry_space_group_name_H-M "C 2/M"
_symmetry_group_IT_number 12
_symmetry_cell_setting 'monoclinic'
loop_
_space_group_symop_operation_xyz
x,y,z
-x,y,-z
-x,-y,-z
x,-y,z
1/2+x,1/2+y,z
1/2-x,1/2+y,-z
1/2-x,1/2-y,-z
1/2+x,1/2-y,z
loop_
_atom_site_type_symbol
_atom_site_label
_atom_site_fract_x
_atom_site_fract_y
_atom_site_fract_z
Si Si1 0.283915 0.339982 0.107888
Si Si2 0.802455 0.823651 0.851308
Si Si3 0.878772 0.355626 0.295481
Si Si4 0.749124 0.835832 0.466698
Si Si5 0.949293 0.812598 0.276493
Si Si6 0.379414 0.916906 0.702942
O O1 0.209629 0.264244 0.128888
O O2 0.401528 0.332451 0.159858
O O3 0.201899 0.404793 0.171919
O O4 0.317378 0.360983 0.972333
O O5 0.689331 0.860020 0.811927
O O6 0.915194 0.836621 0.749174
O O7 0.785470 0.378536 0.411535
O O8 0.932890 0.274195 0.304646
O O9 0.986158 0.412189 0.280942
O O10 0.750000 0.750000 0.500000
O O11 0.876499 0.856666 0.388934
O O12 0.651596 0.856067 0.388721
O O13 0.357634 0.000000 0.659699
#
# Coordination Sequence:
#
# PCOD8083324 Si02
#       6
#     8   8   8   8   8   8
#     4   9  19  33  53  84 110 151 198 239 288 348
#     4  10  18  32  56  81 117 146 188 252 297 330
#     4  10  20  32  50  84 116 148 193 233 291 349
#     4   9  20  35  56  82 113 147 195 249 283 339
#     4   9  17  32  54  80 114 145 189 253 296 326
#     4  11  22  39  59  82 120 157 191 235 294 360
#
# _framework density 19.903171
#
# number of rings (size 3 to 8) (size 9 to 14) (size 15 to 20)
#    0.000    2.333    1.667    2.000    0.000    2.667 
#    0.000    1.667    0.000   12.000    0.000    5.833 
#    0.000    0.000    0.000    0.000    0.000    0.000 
#
# Total GULP energy -297432.792917 kJ/mol
# GULP energy per Si atom -12393.033038 kJ/mol
# Density = 1.985787 g / cm^3
# Si number density = 19.903171 Si / 1000 Ang^3
#
#
#
# Elastic Constant Matrix: (Units=GPa)
#
#
# Indices 1 2 3 4 5 6 
#
# 1 95.1277 33.9141 34.8560 0.0000 -9.3507 0.0000
# 2 33.9141 56.7360 25.4391 0.0000 4.2900 0.0000
# 3 34.8560 25.4391 105.7741 0.0000 -5.3198 0.0000
# 4 0.0000 0.0000 0.0000 13.8602 0.0000 0.5919
# 5 -9.3507 4.2900 -5.3198 0.0000 29.2767 0.0000
# 6 0.0000 0.0000 0.0000 0.5919 0.0000 13.5925
#
#
#
# Elastic Compliance Matrix: (Units=1/GPa)
#
#
# Indices 1 2 3 4 5 6 
#
# 1 0.014937 -0.008136 -0.002690 0.000000 0.005474 0.000000
# 2 -0.008136 0.024614 -0.003584 0.000000 -0.006857 0.000000
# 3 -0.002690 -0.003584 0.011289 0.000000 0.001717 0.000000
# 4 0.000000 0.000000 0.000000 0.072283 0.000000 -0.003148
# 5 0.005474 -0.006857 0.001717 0.000000 0.037222 0.000000
# 6 0.000000 0.000000 0.000000 -0.003148 0.000000 0.073707
#
#
# Mechanical properties :
#
#
# Convention : Reuss Voigt Hill
#
# Bulk Modulus (GPa) = 45.41302 49.56181 47.48741
# Shear Modulus (GPa) = 18.50405 22.24112 20.37258
#
# Velocity S-wave (km/s) = 3.05241 3.34648 3.20282
# Velocity P-wave (km/s) = 5.94049 6.31565 6.13094
#
# Compressibility (1/GPa) = 0.02202012
#
# Stress axis : x y z
#
# Youngs Moduli (GPa) = 66.95009 40.62720 88.58370
#
# Poissons Ratio (x) = 0.33055 0.23829
# Poissons Ratio (y) = 0.54471 0.31744
# Poissons Ratio (z) = 0.18009 0.14559
#
# Static dielectric constant tensor:
#      x y z
#    x 3.562650 0.000000 -0.166400 
#    y 0.000000 3.110460 0.000000 
#    z -0.166400 0.000000 4.040330 
# 
# 
# High freq. dielectric constant tensor:
#      x y z
#    x 1.774630 0.000000 -0.007830 
#    y 0.000000 1.712320 0.000000 
#    z -0.007830 0.000000 1.789140 
# 
# From -- ./inp_files/131159.got.cif
#   From: 2010.06.25/outbox.cif.g09.slc.cpg/sg12_66_cif.got.tgz:131159.got - 2010.06.28 00:19:55.
