data_PCOD8083041
_publ_section_title
;
Structure prediction by ZEFSAII (Michael W. Deem and Ramdas Pophale) SiO2 
 PCOD8083041
Probable space group: C 2/M
;
_chemical_formula_sum "Si O2"
_cell_formula_units_Z 64
_cell_length_a 14.805150
_cell_length_b 9.226180
_cell_length_c 26.115791
_cell_angle_alpha 90.000000
_cell_angle_beta 90.083786
_cell_angle_gamma 90.000000
_cell_volume 3567.282104
_symmetry_space_group_name_H-M "C 2/M"
_symmetry_group_IT_number 12
_symmetry_cell_setting 'monoclinic'
loop_
_space_group_symop_operation_xyz
x,y,z
-x,y,-z
-x,-y,-z
x,-y,z
1/2+x,1/2+y,z
1/2-x,1/2+y,-z
1/2-x,1/2-y,-z
1/2+x,1/2-y,z
loop_
_atom_site_type_symbol
_atom_site_label
_atom_site_fract_x
_atom_site_fract_y
_atom_site_fract_z
Si Si1 0.015333 0.670969 0.441687
Si Si2 0.422983 0.828928 0.256638
Si Si3 0.102401 0.171648 0.263486
Si Si4 0.742841 0.170840 0.810374
Si Si5 0.359462 0.828346 0.366655
Si Si6 0.242758 0.670155 0.925226
Si Si7 0.158000 0.828672 0.377131
Si Si8 0.604663 0.330244 0.994718
O O1 0.028760 0.500000 0.435613
O O2 0.104680 0.749310 0.422015
O O3 0.000000 0.716625 0.500000
O O4 0.930044 0.727447 0.408938
O O5 0.513581 0.746981 0.242190
O O6 0.354264 0.785587 0.211798
O O7 0.386360 0.769115 0.310866
O O8 0.440324 0.000000 0.259340
O O9 0.181694 0.233972 0.227649
O O10 0.119804 0.218427 0.321937
O O11 0.093380 0.000000 0.259097
O O12 0.754131 0.231621 0.867764
O O13 0.754074 0.000000 0.811039
O O14 0.260550 0.771993 0.381674
O O15 0.356915 0.000000 0.364084
O O16 0.221738 0.500000 0.926126
O O17 0.337250 0.704432 0.954079
O O18 0.155006 0.747682 0.948911
O O19 0.150549 0.000000 0.385000
O O20 0.605912 0.500000 0.981966
O O21 0.500000 0.277179 0.000000
#
# Coordination Sequence:
#
# PCOD8083041 Si02
#       8
#     8   8   8   8   8   8   8   8
#     4  10  21  36  53  75 102 130 163 207 255 297
#     4  10  18  32  53  73  96 133 171 200 241 300
#     4  10  19  32  51  76 101 129 166 207 248 294
#     4   9  18  33  52  74 103 136 170 203 246 303
#     4   9  17  32  53  72  96 132 164 194 243 301
#     4   9  18  33  52  75 102 134 171 211 246 290
#     4  10  19  33  54  75  97 130 169 203 242 298
#     4   9  18  33  53  75 102 136 170 205 255 303
#
# _framework density 17.940829000000001
#
# number of rings (size 3 to 8) (size 9 to 14) (size 15 to 20)
#    0.000    2.500    2.500    0.000    0.000    2.000 
#    0.000    4.375    0.000    0.000    0.000    0.000 
#    0.000    0.000    0.000    0.000    0.000    0.000 
#
# Total GULP energy -396771.063606 kJ/mol
# GULP energy per Si atom -12399.095738 kJ/mol
# Density = 1.789999 g / cm^3
# Si number density = 17.940829 Si / 1000 Ang^3
#
#
#
# Elastic Constant Matrix: (Units=GPa)
#
#
# Indices 1 2 3 4 5 6 
#
# 1 119.6851 22.2269 36.9330 0.0000 -6.4323 0.0000
# 2 22.2269 20.7829 22.1890 0.0000 -4.7642 0.0000
# 3 36.9330 22.1890 114.2925 0.0000 1.2825 0.0000
# 4 0.0000 0.0000 0.0000 19.4828 0.0000 -5.1090
# 5 -6.4323 -4.7642 1.2825 0.0000 27.8770 0.0000
# 6 0.0000 0.0000 0.0000 -5.1090 0.0000 27.4918
#
#
#
# Elastic Compliance Matrix: (Units=1/GPa)
#
#
# Indices 1 2 3 4 5 6 
#
# 1 0.010662 -0.009465 -0.001618 0.000000 0.000917 0.000000
# 2 -0.009465 0.072615 -0.011160 0.000000 0.010740 0.000000
# 3 -0.001618 -0.011160 0.011470 0.000000 -0.002808 0.000000
# 4 0.000000 0.000000 0.000000 0.053957 0.000000 0.010027
# 5 0.000917 0.010740 -0.002808 0.000000 0.038048 0.000000
# 6 0.000000 0.000000 0.000000 0.010027 0.000000 0.038238
#
#
# Mechanical properties :
#
#
# Convention : Reuss Voigt Hill
#
# Bulk Modulus (GPa) = 19.89553 46.38426 33.13990
# Shear Modulus (GPa) = 17.46852 26.53111 21.99981
#
# Velocity S-wave (km/s) = 3.12376 3.84970 3.50557
# Velocity P-wave (km/s) = 4.91163 6.75799 5.90739
#
# Compressibility (1/GPa) = 0.05026255
#
# Stress axis : x y z
#
# Youngs Moduli (GPa) = 93.79517 13.77117 87.18070
#
# Poissons Ratio (x) = 0.13034 0.14106
# Poissons Ratio (y) = 0.88774 0.97292
# Poissons Ratio (z) = 0.15176 0.15368
#
# Static dielectric constant tensor:
#      x y z
#    x 3.477570 0.000000 0.051220 
#    y 0.000000 2.958190 0.000000 
#    z 0.051220 0.000000 3.459700 
# 
# 
# High freq. dielectric constant tensor:
#      x y z
#    x 1.706600 0.000000 0.000540 
#    y 0.000000 1.660210 0.000000 
#    z 0.000540 0.000000 1.696640 
# 
# From -- ./inp_files/359797.got.cif
#   From: 2010.06.25/outbox.cif.g09.slc.cpg/sg12_180_cif.got.tgz:359797.got - 2010.06.28 00:19:55.
