data_PCOD8083179
_publ_section_title
;
Structure prediction by ZEFSAII (Michael W. Deem and Ramdas Pophale) SiO2 
 PCOD8083179
Probable space group: C 2/M
;
_chemical_formula_sum "Si O2"
_cell_formula_units_Z 52
_cell_length_a 12.243030
_cell_length_b 18.764236
_cell_length_c 12.896320
_cell_angle_alpha 90.000000
_cell_angle_beta 62.216331
_cell_angle_gamma 90.000000
_cell_volume 2621.129260
_symmetry_space_group_name_H-M "C 2/M"
_symmetry_group_IT_number 12
_symmetry_cell_setting 'monoclinic'
loop_
_space_group_symop_operation_xyz
x,y,z
-x,y,-z
-x,-y,-z
x,-y,z
1/2+x,1/2+y,z
1/2-x,1/2+y,-z
1/2-x,1/2-y,-z
1/2+x,1/2-y,z
loop_
_atom_site_type_symbol
_atom_site_label
_atom_site_fract_x
_atom_site_fract_y
_atom_site_fract_z
Si Si1 0.355746 0.000000 0.271584
Si Si2 0.428884 0.715451 0.137608
Si Si3 0.045231 0.214632 0.301498
Si Si4 0.198738 0.851133 0.529339
Si Si5 0.058993 0.500000 0.359839
Si Si6 0.877621 0.000000 0.488493
Si Si7 0.688332 0.148876 0.305503
Si Si8 0.286870 0.852460 0.262770
O O1 0.222354 0.000000 0.378950
O O2 0.355147 0.927323 0.203683
O O3 0.456984 0.000000 0.316260
O O4 0.524725 0.704599 0.188231
O O5 0.319433 0.657145 0.189230
O O6 0.369786 0.793466 0.172005
O O7 0.500000 0.705996 0.000000
O O8 0.089918 0.294444 0.306319
O O9 0.145943 0.154346 0.286246
O O10 0.917327 0.202838 0.420702
O O11 0.140420 0.929807 0.573284
O O12 0.291517 0.834158 0.581937
O O13 0.281430 0.842695 0.390007
O O14 0.141849 0.569428 0.307106
O O15 0.000000 0.500000 0.500000
O O16 0.000000 0.000000 0.500000
#
# Coordination Sequence:
#
# PCOD8083179 Si02
#       8
#     4   8   8   8   4   4   8   8
#     4  10  20  34  53  85 119 149 183 223 275 334
#     4  10  23  42  60  79 106 146 199 246 281 330
#     4  10  21  35  57  83 112 149 186 234 285 335
#     4  10  19  33  53  86 121 150 185 226 278 339
#     4  12  22  36  57  83 120 154 182 222 281 345
#     4  10  18  32  54  80 121 161 188 217 261 331
#     4  10  23  37  57  86 117 152 188 229 285 343
#     4  10  20  34  56  84 116 148 183 225 279 338
#
# _framework density 19.838778999999999
#
# number of rings (size 3 to 8) (size 9 to 14) (size 15 to 20)
#    0.000    1.846    0.000    5.538    0.000   11.692 
#    0.000    1.538    0.000    1.846    0.000    0.000 
#    0.000    0.000    0.000    0.000    0.000    0.000 
#
# Total GULP energy -322341.984667 kJ/mol
# GULP energy per Si atom -12397.768641 kJ/mol
# Density = 1.979363 g / cm^3
# Si number density = 19.838779 Si / 1000 Ang^3
#
#
#
# Elastic Constant Matrix: (Units=GPa)
#
#
# Indices 1 2 3 4 5 6 
#
# 1 88.6780 48.9053 10.5758 0.0000 1.0224 0.0000
# 2 48.9053 144.8235 32.7116 0.0000 -3.7380 0.0000
# 3 10.5758 32.7116 79.1508 0.0000 -6.4082 0.0000
# 4 0.0000 0.0000 0.0000 12.4688 0.0000 -5.1076
# 5 1.0224 -3.7380 -6.4082 0.0000 13.3802 0.0000
# 6 0.0000 0.0000 0.0000 -5.1076 0.0000 30.4450
#
#
#
# Elastic Compliance Matrix: (Units=1/GPa)
#
#
# Indices 1 2 3 4 5 6 
#
# 1 0.013934 -0.004746 -0.000098 0.000000 -0.002437 0.000000
# 2 -0.004746 0.009238 -0.003064 0.000000 0.001476 0.000000
# 3 -0.000098 -0.003064 0.014403 0.000000 0.006050 0.000000
# 4 0.000000 0.000000 0.000000 0.086118 0.000000 0.014448
# 5 -0.002437 0.001476 0.006050 0.000000 0.078233 0.000000
# 6 0.000000 0.000000 0.000000 0.014448 0.000000 0.035270
#
#
# Mechanical properties :
#
#
# Convention : Reuss Voigt Hill
#
# Bulk Modulus (GPa) = 45.95762 55.22639 50.59201
# Shear Modulus (GPa) = 19.21112 25.95612 22.58362
#
# Velocity S-wave (km/s) = 3.11523 3.62104 3.37762
# Velocity P-wave (km/s) = 6.01293 6.73651 6.38498
#
# Compressibility (1/GPa) = 0.02175918
#
# Stress axis : x y z
#
# Youngs Moduli (GPa) = 71.76688 108.24959 69.42849
#
# Poissons Ratio (x) = 0.51378 0.00678
# Poissons Ratio (y) = 0.34062 0.21274
# Poissons Ratio (z) = 0.00700 0.33170
#
# Static dielectric constant tensor:
#      x y z
#    x 3.817200 0.000000 0.071900 
#    y 0.000000 8.418760 0.000000 
#    z 0.071900 0.000000 3.149580 
# 
# 
# High freq. dielectric constant tensor:
#      x y z
#    x 1.796550 0.000000 0.003640 
#    y 0.000000 1.787490 0.000000 
#    z 0.003640 0.000000 1.723530 
# 
# From -- ./inp_files/133119.got.cif
#   From: 2010.06.25/outbox.cif.g09.slc.cpg/sg12_67_cif.got.tgz:133119.got - 2010.06.28 00:19:55.
