data_PCOD8083921
_publ_section_title
;
Structure prediction by ZEFSAII (Michael W. Deem and Ramdas Pophale) SiO2 
 PCOD8083921
Probable space group: C 2/M
;
_chemical_formula_sum "Si O2"
_cell_formula_units_Z 32
_cell_length_a 20.422904
_cell_length_b 16.476167
_cell_length_c 10.450330
_cell_angle_alpha 90.000000
_cell_angle_beta 152.228477
_cell_angle_gamma 90.000000
_cell_volume 1638.476214
_symmetry_space_group_name_H-M "C 2/M"
_symmetry_group_IT_number 12
_symmetry_cell_setting 'monoclinic'
loop_
_space_group_symop_operation_xyz
x,y,z
-x,y,-z
-x,-y,-z
x,-y,z
1/2+x,1/2+y,z
1/2-x,1/2+y,-z
1/2-x,1/2-y,-z
1/2+x,1/2-y,z
loop_
_atom_site_type_symbol
_atom_site_label
_atom_site_fract_x
_atom_site_fract_y
_atom_site_fract_z
Si Si1 0.197078 0.843309 0.104974
Si Si2 0.581438 0.500000 0.009437
Si Si3 0.326067 0.089607 0.069316
Si Si4 0.104471 0.000000 0.561908
Si Si5 0.523152 0.766267 0.392670
O O1 0.255882 0.873776 0.072966
O O2 0.311970 0.778655 0.357227
O O3 0.175897 0.918805 0.164544
O O4 0.046650 0.800131 0.821410
O O5 0.500000 0.500000 0.000000
O O6 0.471750 0.500000 0.703646
O O7 0.450473 0.146943 0.237859
O O8 0.388062 0.000000 0.207802
O O9 0.203932 0.080345 0.749161
O O10 0.000000 0.000000 0.500000
O O11 0.500000 0.739987 0.500000
#
# Coordination Sequence:
#
# PCOD8083921 Si02
#       5
#     8   4   8   4   8
#     4  11  22  38  59  88 129 159 202 244 308 360
#     4  12  26  41  63  87 121 165 209 250 297 362
#     4   9  18  31  59  94 120 157 190 252 297 361
#     4  10  18  33  63  85 119 147 206 241 303 348
#     4  10  22  32  60  97 132 149 198 252 313 352
#
# _framework density 19.530342000000001
#
# number of rings (size 3 to 8) (size 9 to 14) (size 15 to 20)
#    0.750    1.000    3.750    3.000    8.750    1.500 
#    0.000    1.250    0.000    1.500    0.000    0.000 
#    0.000    0.000    0.000    0.000    0.000    0.000 
#
# Total GULP energy -198261.964909 kJ/mol
# GULP energy per Si atom -12391.372807 kJ/mol
# Density = 1.948589 g / cm^3
# Si number density = 19.530342 Si / 1000 Ang^3
#
#
#
# Elastic Constant Matrix: (Units=GPa)
#
#
# Indices 1 2 3 4 5 6 
#
# 1 65.9392 20.0171 33.7665 0.0000 0.9358 0.0000
# 2 20.0171 95.5135 20.3404 0.0000 7.4209 0.0000
# 3 33.7665 20.3404 93.1257 0.0000 12.0316 0.0000
# 4 0.0000 0.0000 0.0000 40.9092 0.0000 9.7829
# 5 0.9358 7.4209 12.0316 0.0000 16.8003 0.0000
# 6 0.0000 0.0000 0.0000 9.7829 0.0000 10.2782
#
#
#
# Elastic Compliance Matrix: (Units=1/GPa)
#
#
# Indices 1 2 3 4 5 6 
#
# 1 0.019676 -0.003014 -0.007170 0.000000 0.005370 0.000000
# 2 -0.003014 0.011627 -0.000887 0.000000 -0.004333 0.000000
# 3 -0.007170 -0.000887 0.014799 0.000000 -0.009807 0.000000
# 4 0.000000 0.000000 0.000000 0.031648 0.000000 -0.030123
# 5 0.005370 -0.004333 -0.009807 0.000000 0.068161 0.000000
# 6 0.000000 0.000000 0.000000 -0.030123 0.000000 0.125965
#
#
# Mechanical properties :
#
#
# Convention : Reuss Voigt Hill
#
# Bulk Modulus (GPa) = 41.73610 44.75849 43.24729
# Shear Modulus (GPa) = 16.55615 25.62783 21.09199
#
# Velocity S-wave (km/s) = 2.91471 3.62637 3.28984
# Velocity P-wave (km/s) = 5.72221 6.36406 6.05165
#
# Compressibility (1/GPa) = 0.02396007
#
# Stress axis : x y z
#
# Youngs Moduli (GPa) = 50.82416 86.00772 67.57406
#
# Poissons Ratio (x) = 0.25922 0.48449
# Poissons Ratio (y) = 0.15318 0.05994
# Poissons Ratio (z) = 0.36439 0.07628
#
# Static dielectric constant tensor:
#      x y z
#    x 2.882100 0.000000 0.434280 
#    y 0.000000 3.999850 0.000000 
#    z 0.434280 0.000000 3.670380 
# 
# 
# High freq. dielectric constant tensor:
#      x y z
#    x 1.672750 0.000000 0.024690 
#    y 0.000000 1.780870 0.000000 
#    z 0.024690 0.000000 1.773770 
# 
# From -- ./inp_files/77854.got.cif
#   From: 2010.06.25/outbox.cif.g09.slc.cpg/sg12_39_cif.got.tgz:77854.got - 2010.06.28 00:19:55.
