data_PCOD8083336
_publ_section_title
;
Structure prediction by ZEFSAII (Michael W. Deem and Ramdas Pophale) SiO2 
 PCOD8083336
Probable space group: C 2/M
;
_chemical_formula_sum "Si O2"
_cell_formula_units_Z 64
_cell_length_a 33.107966
_cell_length_b 9.081515
_cell_length_c 16.633085
_cell_angle_alpha 90.000000
_cell_angle_beta 137.652392
_cell_angle_gamma 90.000000
_cell_volume 3368.860308
_symmetry_space_group_name_H-M "C 2/M"
_symmetry_group_IT_number 12
_symmetry_cell_setting 'monoclinic'
loop_
_space_group_symop_operation_xyz
x,y,z
-x,y,-z
-x,-y,-z
x,-y,z
1/2+x,1/2+y,z
1/2-x,1/2+y,-z
1/2-x,1/2-y,-z
1/2+x,1/2-y,z
loop_
_atom_site_type_symbol
_atom_site_label
_atom_site_fract_x
_atom_site_fract_y
_atom_site_fract_z
Si Si1 0.718991 0.167838 0.026838
Si Si2 0.418205 0.833402 0.164678
Si Si3 0.258048 0.325925 0.771977
Si Si4 0.985874 0.674625 0.566742
Si Si5 0.097808 0.175048 0.299012
Si Si6 0.364598 0.674173 0.816573
Si Si7 0.630443 0.826845 0.510292
Si Si8 0.963017 0.173878 0.080703
O O1 0.733696 0.246458 0.131674
O O2 0.741804 0.000000 0.065443
O O3 0.750000 0.250000 0.000000
O O4 0.649063 0.173021 0.902718
O O5 0.461459 0.770905 0.297400
O O6 0.423356 0.730087 0.095726
O O7 0.436855 0.000000 0.168851
O O8 0.264648 0.500000 0.795330
O O9 0.307442 0.263833 0.781459
O O10 0.193134 0.284150 0.642431
O O11 0.985024 0.500000 0.558499
O O12 0.000000 0.743904 0.500000
O O13 0.922235 0.730444 0.508081
O O14 0.136706 0.224751 0.278378
O O15 0.126689 0.248400 0.419012
O O16 0.030399 0.235992 0.185016
O O17 0.098009 0.000000 0.310435
O O18 0.361646 0.500000 0.816131
O O19 0.427889 0.726451 0.948853
O O20 0.624628 0.000000 0.486544
O O21 0.965342 0.000000 0.087666
#
# Coordination Sequence:
#
# PCOD8083336 Si02
#       8
#     8   8   8   8   8   8   8   8
#     4  11  24  39  59  86 115 147 184 226 277 330
#     4  10  20  35  58  84 110 140 181 226 274 326
#     4  10  21  38  59  81 109 147 192 233 274 327
#     4   9  18  33  55  79 105 140 179 221 268 322
#     4  10  20  34  55  81 111 147 187 227 277 335
#     4   9  18  34  55  80 110 146 186 230 276 330
#     4  10  21  36  56  80 109 145 187 231 278 331
#     4  10  18  32  56  82 110 144 184 226 276 329
#
# _framework density 18.997523000000001
#
# number of rings (size 3 to 8) (size 9 to 14) (size 15 to 20)
#    0.000    2.125    2.500    0.750    1.750    3.000 
#    0.000    1.250    0.000    2.250    0.000    0.000 
#    0.000    0.000    0.000    0.000    0.000    0.000 
#
# Total GULP energy -396761.826439 kJ/mol
# GULP energy per Si atom -12398.807076 kJ/mol
# Density = 1.895428 g / cm^3
# Si number density = 18.997523 Si / 1000 Ang^3
#
#
#
# Elastic Constant Matrix: (Units=GPa)
#
#
# Indices 1 2 3 4 5 6 
#
# 1 144.3269 33.8747 67.8408 0.0000 -11.9984 0.0000
# 2 33.8747 27.3371 41.2343 0.0000 0.9030 0.0000
# 3 67.8408 41.2343 110.4839 0.0000 0.2173 0.0000
# 4 0.0000 0.0000 0.0000 23.7285 0.0000 -7.9549
# 5 -11.9984 0.9030 0.2173 0.0000 36.6736 0.0000
# 6 0.0000 0.0000 0.0000 -7.9549 0.0000 23.2527
#
#
#
# Elastic Compliance Matrix: (Units=1/GPa)
#
#
# Indices 1 2 3 4 5 6 
#
# 1 0.010855 -0.008032 -0.003675 0.000000 0.003771 0.000000
# 2 -0.008032 0.089771 -0.028563 0.000000 -0.004669 0.000000
# 3 -0.003675 -0.028563 0.021969 0.000000 -0.000629 0.000000
# 4 0.000000 0.000000 0.000000 0.047603 0.000000 0.016285
# 5 0.003771 -0.004669 -0.000629 0.000000 0.028620 0.000000
# 6 0.000000 0.000000 0.000000 0.016285 0.000000 0.048577
#
#
# Mechanical properties :
#
#
# Convention : Reuss Voigt Hill
#
# Bulk Modulus (GPa) = 23.77848 63.11640 43.44744
# Shear Modulus (GPa) = 14.62194 26.01082 20.31638
#
# Velocity S-wave (km/s) = 2.77731 3.70424 3.27375
# Velocity P-wave (km/s) = 4.77791 7.18268 6.09997
#
# Compressibility (1/GPa) = 0.04205484
#
# Stress axis : x y z
#
# Youngs Moduli (GPa) = 92.12504 11.13952 45.51904
#
# Poissons Ratio (x) = 0.08948 0.16728
# Poissons Ratio (y) = 0.73997 1.30014
# Poissons Ratio (z) = 0.33855 0.31817
#
# Static dielectric constant tensor:
#      x y z
#    x 3.737120 0.000000 0.049390 
#    y 0.000000 3.189640 0.000000 
#    z 0.049390 0.000000 3.672230 
# 
# 
# High freq. dielectric constant tensor:
#      x y z
#    x 1.750310 0.000000 -0.000180 
#    y 0.000000 1.702750 0.000000 
#    z -0.000180 0.000000 1.748070 
# 
# From -- ./inp_files/249951.got.cif
#   From: 2010.06.25/outbox.cif.g09.slc.cpg/sg12_125_cif.got.tgz:249951.got - 2010.06.28 00:19:55.
