data_PCOD8083704
_publ_section_title
;
Structure prediction by ZEFSAII (Michael W. Deem and Ramdas Pophale) SiO2 
 PCOD8083704
Probable space group: C 2/M
;
_chemical_formula_sum "Si O2"
_cell_formula_units_Z 56
_cell_length_a 15.307538
_cell_length_b 17.156802
_cell_length_c 18.417821
_cell_angle_alpha 90.000000
_cell_angle_beta 35.813732
_cell_angle_gamma 90.000000
_cell_volume 2830.405505
_symmetry_space_group_name_H-M "C 2/M"
_symmetry_group_IT_number 12
_symmetry_cell_setting 'monoclinic'
loop_
_space_group_symop_operation_xyz
x,y,z
-x,y,-z
-x,-y,-z
x,-y,z
1/2+x,1/2+y,z
1/2-x,1/2+y,-z
1/2-x,1/2-y,-z
1/2+x,1/2-y,z
loop_
_atom_site_type_symbol
_atom_site_label
_atom_site_fract_x
_atom_site_fract_y
_atom_site_fract_z
Si Si1 0.938478 0.090670 0.767766
Si Si2 0.471363 0.907780 0.438627
Si Si3 0.035826 0.092683 0.088473
Si Si4 0.281356 0.659822 0.487008
Si Si5 0.731043 0.592702 0.829046
Si Si6 0.173719 0.907049 0.390823
Si Si7 0.655349 0.909955 0.867119
O O1 0.947055 0.126135 0.842678
O O2 0.770451 0.102223 0.854805
O O3 0.046502 0.140307 0.643909
O O4 0.986280 0.000000 0.731079
O O5 0.500000 0.873139 0.500000
O O6 0.315408 0.883499 0.509099
O O7 0.603712 0.875072 0.297768
O O8 0.475484 0.000000 0.440735
O O9 0.879366 0.121606 0.160426
O O10 0.041774 0.000000 0.087186
O O11 0.172217 0.123728 0.946333
O O12 0.250000 0.750000 0.500000
O O13 0.248621 0.630841 0.590717
O O14 0.730210 0.500000 0.829614
O O15 0.272214 0.875864 0.256052
O O16 0.000000 0.881109 0.500000
O O17 0.181146 0.000000 0.392643
O O18 0.623219 0.000000 0.873020
O O19 0.500000 0.870300 0.000000
#
# Coordination Sequence:
#
# PCOD8083704 Si02
#       7
#     8   8   8   8   8   8   8
#     4  10  18  33  56  82 112 146 189 237 291 342
#     4  10  20  35  56  82 111 142 183 239 289 330
#     4   8  14  25  48  78 109 141 173 219 281 342
#     4  12  25  37  54  83 113 157 197 234 283 346
#     4   8  14  26  45  76 110 140 176 221 278 336
#     4  10  19  37  63  87 114 152 196 245 295 346
#     4   9  18  32  57  92 118 139 183 246 304 348
#
# _framework density 19.785150000000002
#
# number of rings (size 3 to 8) (size 9 to 14) (size 15 to 20)
#    0.000    2.429    1.429    3.000    0.000    4.000 
#    0.000    4.286    0.000    3.429    0.000    0.000 
#    0.000    0.000    0.000    0.000    0.000    0.000 
#
# Total GULP energy -347054.119794 kJ/mol
# GULP energy per Si atom -12394.789993 kJ/mol
# Density = 1.974012 g / cm^3
# Si number density = 19.785150 Si / 1000 Ang^3
#
#
#
# Elastic Constant Matrix: (Units=GPa)
#
#
# Indices 1 2 3 4 5 6 
#
# 1 111.5482 16.4667 52.3660 0.0001 17.3797 0.0001
# 2 16.4667 28.2823 21.6923 0.0012 1.0278 -0.0007
# 3 52.3660 21.6923 143.6730 0.0028 1.5852 -0.0013
# 4 0.0001 0.0012 0.0028 5.1210 -0.0012 1.1680
# 5 17.3797 1.0278 1.5852 -0.0012 40.2151 0.0003
# 6 0.0001 -0.0007 -0.0013 1.1680 0.0003 8.6615
#
#
#
# Elastic Compliance Matrix: (Units=1/GPa)
#
#
# Indices 1 2 3 4 5 6 
#
# 1 0.012088 -0.003981 -0.003750 0.000002 -0.004974 -0.000001
# 2 -0.003981 0.041324 -0.004798 -0.000007 0.000853 0.000003
# 3 -0.003750 -0.004798 0.009036 -0.000004 0.001387 0.000002
# 4 0.000002 -0.000007 -0.000004 0.201473 0.000006 -0.027168
# 5 -0.004974 0.000853 0.001387 0.000006 0.026940 -0.000001
# 6 -0.000001 0.000003 0.000002 -0.027168 -0.000001 0.119117
#
#
# Mechanical properties :
#
#
# Convention : Reuss Voigt Hill
#
# Bulk Modulus (GPa) = 26.74423 51.61705 39.18064
# Shear Modulus (GPa) = 11.17323 23.66475 17.41899
#
# Velocity S-wave (km/s) = 2.37898 3.46220 2.97038
# Velocity P-wave (km/s) = 4.59268 6.49060 5.62230
#
# Compressibility (1/GPa) = 0.03739125
#
# Stress axis : x y z
#
# Youngs Moduli (GPa) = 82.72819 24.19872 110.66758
#
# Poissons Ratio (x) = 0.09633 0.41498
# Poissons Ratio (y) = 0.32934 0.53096
# Poissons Ratio (z) = 0.31022 0.11610
#
# Static dielectric constant tensor:
#      x y z
#    x 3.934900 0.000010 0.096880 
#    y 0.000010 2.987660 0.000000 
#    z 0.096880 0.000000 4.099960 
# 
# 
# High freq. dielectric constant tensor:
#      x y z
#    x 1.778650 0.000000 0.006800 
#    y 0.000000 1.702880 0.000000 
#    z 0.006800 0.000000 1.786210 
# 
# From -- ./inp_files/271408.got.cif
#   From: 2010.06.25/outbox.cif.g09.slc.cpg/sg12_136_cif.got.tgz:271408.got - 2010.06.28 00:19:55.
