data_PCOD8083180
_publ_section_title
;
Structure prediction by ZEFSAII (Michael W. Deem and Ramdas Pophale) SiO2 
 PCOD8083180
Probable space group: C 2/M
;
_chemical_formula_sum "Si O2"
_cell_formula_units_Z 56
_cell_length_a 20.545219
_cell_length_b 9.176942
_cell_length_c 22.255538
_cell_angle_alpha 90.000000
_cell_angle_beta 131.840883
_cell_angle_gamma 90.000000
_cell_volume 3126.102793
_symmetry_space_group_name_H-M "C 2/M"
_symmetry_group_IT_number 12
_symmetry_cell_setting 'monoclinic'
loop_
_space_group_symop_operation_xyz
x,y,z
-x,y,-z
-x,-y,-z
x,-y,z
1/2+x,1/2+y,z
1/2-x,1/2+y,-z
1/2-x,1/2-y,-z
1/2+x,1/2-y,z
loop_
_atom_site_type_symbol
_atom_site_label
_atom_site_fract_x
_atom_site_fract_y
_atom_site_fract_z
Si Si1 0.760536 0.672954 0.335853
Si Si2 0.701212 0.170882 0.773633
Si Si3 0.859552 0.330917 0.916642
Si Si4 0.497138 0.830168 0.900927
Si Si5 0.430750 0.173152 0.505123
Si Si6 0.502454 0.828494 0.676314
Si Si7 0.931770 0.173235 0.748729
O O1 0.762520 0.500000 0.334745
O O2 0.782431 0.734195 0.283121
O O3 0.834113 0.729486 0.427809
O O4 0.666605 0.729369 0.299664
O O5 0.769339 0.242766 0.861713
O O6 0.604347 0.210414 0.734999
O O7 0.717338 0.000000 0.784520
O O8 0.837448 0.500000 0.898369
O O9 0.918356 0.282781 0.896156
O O10 0.911086 0.297319 0.009862
O O11 0.494640 0.734513 0.839385
O O12 0.489825 0.000000 0.879829
O O13 0.500000 0.237600 0.500000
O O14 0.454561 0.226175 0.586406
O O15 0.436033 0.000000 0.506065
O O16 0.460740 0.736428 0.703437
O O17 0.488279 0.000000 0.678624
O O18 0.938349 0.000000 0.751817
#
# Coordination Sequence:
#
# PCOD8083180 Si02
#       7
#     8   8   8   8   8   8   8
#     4   9  17  30  51  79 106 134 174 221 261 302
#     4  10  18  32  54  81 107 135 177 222 260 307
#     4   9  18  32  54  82 108 135 170 218 267 311
#     4   9  18  34  54  78 108 139 174 214 259 315
#     4   9  15  29  54  80 103 133 178 223 259 303
#     4  10  21  35  55  79 106 142 181 219 260 313
#     4  11  22  35  52  77 112 145 172 215 271 317
#
# _framework density 17.913678999999998
#
# number of rings (size 3 to 8) (size 9 to 14) (size 15 to 20)
#    0.000    2.429    2.857    1.286    0.000    1.714 
#    0.000    2.143    0.000    2.143    0.000    0.000 
#    0.000    0.000    0.000    0.000    0.000    0.000 
#
# Total GULP energy -347194.311206 kJ/mol
# GULP energy per Si atom -12399.796829 kJ/mol
# Density = 1.787291 g / cm^3
# Si number density = 17.913679 Si / 1000 Ang^3
#
#
#
# Elastic Constant Matrix: (Units=GPa)
#
#
# Indices 1 2 3 4 5 6 
#
# 1 109.2920 38.9169 65.6267 0.0000 -5.4711 0.0000
# 2 38.9169 37.9887 40.4237 0.0000 -1.5364 0.0000
# 3 65.6267 40.4237 142.9880 0.0000 3.2118 0.0000
# 4 0.0000 0.0000 0.0000 19.5240 0.0000 -2.7789
# 5 -5.4711 -1.5364 3.2118 0.0000 33.5439 0.0000
# 6 0.0000 0.0000 0.0000 -2.7789 0.0000 24.3808
#
#
#
# Elastic Compliance Matrix: (Units=1/GPa)
#
#
# Indices 1 2 3 4 5 6 
#
# 1 0.015927 -0.011988 -0.003976 0.000000 0.002429 0.000000
# 2 -0.011988 0.046927 -0.007786 0.000000 0.000940 0.000000
# 3 -0.003976 -0.007786 0.011066 0.000000 -0.002065 0.000000
# 4 0.000000 0.000000 0.000000 0.052064 0.000000 0.005934
# 5 0.002429 0.000940 -0.002065 0.000000 0.030449 0.000000
# 6 0.000000 0.000000 0.000000 0.005934 0.000000 0.041692
#
#
# Mechanical properties :
#
#
# Convention : Reuss Voigt Hill
#
# Bulk Modulus (GPa) = 37.84747 64.46704 51.15726
# Shear Modulus (GPa) = 19.65179 25.17653 22.41416
#
# Velocity S-wave (km/s) = 3.31573 3.75298 3.54111
# Velocity P-wave (km/s) = 5.98601 7.40578 6.73342
#
# Compressibility (1/GPa) = 0.02642184
#
# Stress axis : x y z
#
# Youngs Moduli (GPa) = 62.78542 21.30970 90.36902
#
# Poissons Ratio (x) = 0.25545 0.35928
# Poissons Ratio (y) = 0.75265 0.70359
# Poissons Ratio (z) = 0.24961 0.16591
#
# Static dielectric constant tensor:
#      x y z
#    x 3.229740 0.000000 0.109690 
#    y 0.000000 2.938900 0.000000 
#    z 0.109690 0.000000 3.507760 
# 
# 
# High freq. dielectric constant tensor:
#      x y z
#    x 1.681840 0.000000 0.007050 
#    y 0.000000 1.659900 0.000000 
#    z 0.007050 0.000000 1.708450 
# 
# From -- ./inp_files/280898.got.cif
#   From: 2010.06.25/outbox.cif.g09.slc.cpg/sg12_141_cif.got.tgz:280898.got - 2010.06.28 00:19:55.
