data_PCOD8083464
_publ_section_title
;
Structure prediction by ZEFSAII (Michael W. Deem and Ramdas Pophale) SiO2 
 PCOD8083464
Probable space group: C 2/M
;
_chemical_formula_sum "Si O2"
_cell_formula_units_Z 48
_cell_length_a 31.663318
_cell_length_b 16.453350
_cell_length_c 12.797643
_cell_angle_alpha 90.000000
_cell_angle_beta 23.652659
_cell_angle_gamma 90.000000
_cell_volume 2674.804252
_symmetry_space_group_name_H-M "C 2/M"
_symmetry_group_IT_number 12
_symmetry_cell_setting 'monoclinic'
loop_
_space_group_symop_operation_xyz
x,y,z
-x,y,-z
-x,-y,-z
x,-y,z
1/2+x,1/2+y,z
1/2-x,1/2+y,-z
1/2-x,1/2-y,-z
1/2+x,1/2-y,z
loop_
_atom_site_type_symbol
_atom_site_label
_atom_site_fract_x
_atom_site_fract_y
_atom_site_fract_z
Si Si1 0.812395 0.411109 0.908039
Si Si2 0.720031 0.687701 0.298194
Si Si3 0.885956 0.198342 0.983046
Si Si4 0.614529 0.625473 0.228196
Si Si5 0.481852 0.405545 0.163190
Si Si6 0.912911 0.726797 0.565281
O O1 0.859639 0.500000 0.819761
O O2 0.897508 0.363737 0.644214
O O3 0.794245 0.371353 0.062385
O O4 0.702372 0.421719 0.094270
O O5 0.630978 0.633697 0.555258
O O6 0.674285 0.755211 0.324026
O O7 0.787312 0.741090 0.230230
O O8 0.857397 0.132641 0.957959
O O9 0.924562 0.146160 0.994743
O O10 0.974684 0.260210 0.741282
O O11 0.500000 0.581760 0.500000
O O12 0.605853 0.716176 0.292998
O O13 0.483775 0.500000 0.195686
O O14 0.500000 0.399320 0.000000
#
# Coordination Sequence:
#
# PCOD8083464 Si02
#       6
#     8   8   8   8   8   8
#     4  11  19  28  45  75 113 141 163 201 249 294
#     4  10  18  34  54  75 102 140 178 204 249 314
#     4  10  18  32  59  75  96 141 179 204 245 319
#     4   9  16  28  48  69  98 137 172 203 240 297
#     4  10  23  40  55  78 106 126 165 236 285 297
#     4   9  17  31  47  73 110 141 167 202 244 291
#
# _framework density 17.945239000000001
#
# number of rings (size 3 to 8) (size 9 to 14) (size 15 to 20)
#    0.000    2.167    3.333    2.500    0.000    1.667 
#    0.000    2.500    0.000    0.000    0.000    0.000 
#    0.000   11.333    0.000    0.000    0.000    0.000 
#
# Total GULP energy -297395.806847 kJ/mol
# GULP energy per Si atom -12391.491952 kJ/mol
# Density = 1.790439 g / cm^3
# Si number density = 17.945239 Si / 1000 Ang^3
#
#
#
# Elastic Constant Matrix: (Units=GPa)
#
#
# Indices 1 2 3 4 5 6 
#
# 1 83.3411 42.4080 25.9992 0.0000 -1.7093 0.0000
# 2 42.4080 121.8002 39.8229 0.0000 -0.9662 0.0000
# 3 25.9992 39.8229 41.0212 0.0000 5.3617 0.0000
# 4 0.0000 0.0000 0.0000 19.4155 0.0000 2.2006
# 5 -1.7093 -0.9662 5.3617 0.0000 20.7235 0.0000
# 6 0.0000 0.0000 0.0000 2.2006 0.0000 34.1107
#
#
#
# Elastic Compliance Matrix: (Units=1/GPa)
#
#
# Indices 1 2 3 4 5 6 
#
# 1 0.015983 -0.003068 -0.007561 0.000000 0.003131 0.000000
# 2 -0.003068 0.012898 -0.010994 0.000000 0.003193 0.000000
# 3 -0.007561 -0.010994 0.041391 0.000000 -0.011845 0.000000
# 4 0.000000 0.000000 0.000000 0.051885 0.000000 -0.003347
# 5 0.003131 0.003193 -0.011845 0.000000 0.051726 0.000000
# 6 0.000000 0.000000 0.000000 -0.003347 0.000000 0.029532
#
#
# Mechanical properties :
#
#
# Convention : Reuss Voigt Hill
#
# Bulk Modulus (GPa) = 37.00152 51.40254 44.20203
# Shear Modulus (GPa) = 19.55637 24.04542 21.80090
#
# Velocity S-wave (km/s) = 3.30476 3.66448 3.48926
# Velocity P-wave (km/s) = 5.93514 6.82721 6.39675
#
# Compressibility (1/GPa) = 0.02702592
#
# Stress axis : x y z
#
# Youngs Moduli (GPa) = 62.56656 77.52921 24.15967
#
# Poissons Ratio (x) = 0.23786 0.18267
# Poissons Ratio (y) = 0.19195 0.26562
# Poissons Ratio (z) = 0.47306 0.85239
#
# Static dielectric constant tensor:
#      x y z
#    x 3.374490 0.000000 -0.333830 
#    y 0.000000 3.188120 0.000000 
#    z -0.333830 0.000000 3.285350 
# 
# 
# High freq. dielectric constant tensor:
#      x y z
#    x 1.684910 0.000000 -0.023860 
#    y 0.000000 1.685060 0.000000 
#    z -0.023860 0.000000 1.674210 
# 
# From -- ./inp_files/189521.got.cif
#   From: 2010.06.25/outbox.cif.g09.slc.cpg/sg12_95_cif.got.tgz:189521.got - 2010.06.28 00:19:55.
