data_PCOD8083854
_publ_section_title
;
Structure prediction by ZEFSAII (Michael W. Deem and Ramdas Pophale) SiO2 
 PCOD8083854
Probable space group: C 2/M
;
_chemical_formula_sum "Si O2"
_cell_formula_units_Z 48
_cell_length_a 19.655771
_cell_length_b 14.511074
_cell_length_c 10.185537
_cell_angle_alpha 90.000000
_cell_angle_beta 72.103241
_cell_angle_gamma 90.000000
_cell_volume 2764.606881
_symmetry_space_group_name_H-M "C 2/M"
_symmetry_group_IT_number 12
_symmetry_cell_setting 'monoclinic'
loop_
_space_group_symop_operation_xyz
x,y,z
-x,y,-z
-x,-y,-z
x,-y,z
1/2+x,1/2+y,z
1/2-x,1/2+y,-z
1/2-x,1/2-y,-z
1/2+x,1/2-y,z
loop_
_atom_site_type_symbol
_atom_site_label
_atom_site_fract_x
_atom_site_fract_y
_atom_site_fract_z
Si Si1 0.275973 0.000000 0.333626
Si Si2 0.556149 0.305838 0.357178
Si Si3 0.604730 0.500000 0.724798
Si Si4 0.329168 0.196285 0.310362
Si Si5 0.813046 0.696365 0.627864
Si Si6 0.265556 0.000000 0.649444
Si Si7 0.614360 0.500000 0.405301
Si Si8 0.535701 0.690677 0.839016
O O1 0.320141 0.090851 0.267474
O O2 0.263237 0.000000 0.495027
O O3 0.197582 0.000000 0.313797
O O4 0.500000 0.272946 0.500000
O O5 0.626590 0.243545 0.321045
O O6 0.575567 0.412312 0.366841
O O7 0.523868 0.288141 0.233931
O O8 0.683277 0.500000 0.742891
O O9 0.605879 0.500000 0.566801
O O10 0.564736 0.588761 0.800984
O O11 0.261988 0.254525 0.299212
O O12 0.334679 0.206045 0.463480
O O13 0.400988 0.235063 0.205034
O O14 0.806684 0.590126 0.676860
O O15 0.500000 0.700420 0.000000
#
# Coordination Sequence:
#
# PCOD8083854 Si02
#       8
#     4   8   4   8   8   4   4   8
#     4   9  18  30  58  90 110 140 193 240 274 323
#     4  12  21  35  57  87 118 144 187 238 285 328
#     4  11  18  35  59  86 117 148 183 230 280 345
#     4  10  18  35  57  84 115 147 191 229 277 336
#     4  10  18  33  59  86 113 145 186 238 279 331
#     4   9  18  30  57  90 113 140 188 235 284 327
#     4  11  18  32  60  94 114 135 182 251 284 322
#     4  12  25  38  55  83 121 156 183 227 291 344
#
# _framework density 17.362324000000001
#
# number of rings (size 3 to 8) (size 9 to 14) (size 15 to 20)
#    0.000    1.333    6.667    1.000    0.000    0.000 
#    0.000    2.500    0.000    0.000    0.000    0.000 
#    0.000    0.000    0.000    0.000    0.000    0.000 
#
# Total GULP energy -297652.203114 kJ/mol
# GULP energy per Si atom -12402.175130 kJ/mol
# Density = 1.732281 g / cm^3
# Si number density = 17.362324 Si / 1000 Ang^3
#
#
#
# Elastic Constant Matrix: (Units=GPa)
#
#
# Indices 1 2 3 4 5 6 
#
# 1 142.7857 72.0861 60.9386 0.0000 -1.1862 0.0000
# 2 72.0861 142.4803 38.3120 0.0000 -6.9848 0.0000
# 3 60.9386 38.3120 88.7075 0.0000 -0.8357 0.0000
# 4 0.0000 0.0000 0.0000 86.0780 0.0000 -56.6622
# 5 -1.1862 -6.9848 -0.8357 0.0000 15.9428 0.0000
# 6 0.0000 0.0000 0.0000 -56.6622 0.0000 64.2005
#
#
#
# Elastic Compliance Matrix: (Units=1/GPa)
#
#
# Indices 1 2 3 4 5 6 
#
# 1 0.011893 -0.004394 -0.006285 0.000000 -0.001370 0.000000
# 2 -0.004394 0.009742 -0.001152 0.000000 0.003881 0.000000
# 3 -0.006285 -0.001152 0.016087 0.000000 -0.000129 0.000000
# 4 0.000000 0.000000 0.000000 0.027725 0.000000 0.024469
# 5 -0.001370 0.003881 -0.000129 0.000000 0.064316 0.000000
# 6 0.000000 0.000000 0.000000 0.024469 0.000000 0.037172
#
#
# Mechanical properties :
#
#
# Convention : Reuss Voigt Hill
#
# Bulk Modulus (GPa) = 71.12983 79.62742 75.37863
# Shear Modulus (GPa) = 25.60376 46.75337 36.17856
#
# Velocity S-wave (km/s) = 3.84431 5.19485 4.56975
# Velocity P-wave (km/s) = 7.79499 9.05228 8.44706
#
# Compressibility (1/GPa) = 0.01405880
#
# Stress axis : x y z
#
# Youngs Moduli (GPa) = 84.08365 102.65079 62.16204
#
# Poissons Ratio (x) = 0.45107 0.39069
# Poissons Ratio (y) = 0.36948 0.07162
# Poissons Ratio (z) = 0.52847 0.11827
#
# Static dielectric constant tensor:
#      x y z
#    x 3.389310 0.000000 0.006530 
#    y 0.000000 3.457560 0.000000 
#    z 0.006530 0.000000 2.792580 
# 
# 
# High freq. dielectric constant tensor:
#      x y z
#    x 1.684070 0.000000 0.000290 
#    y 0.000000 1.681060 0.000000 
#    z 0.000290 0.000000 1.619650 
# 
# From -- ./inp_files/73701.got.cif
#   From: 2010.06.25/outbox.cif.g09.slc.cpg/sg12_37_cif.got.tgz:73701.got - 2010.06.28 00:19:55.
