data_PCOD8083577
_publ_section_title
;
Structure prediction by ZEFSAII (Michael W. Deem and Ramdas Pophale) SiO2 
 PCOD8083577
Probable space group: C 2/M
;
_chemical_formula_sum "Si O2"
_cell_formula_units_Z 56
_cell_length_a 17.548889
_cell_length_b 21.459570
_cell_length_c 9.712555
_cell_angle_alpha 90.000000
_cell_angle_beta 54.575821
_cell_angle_gamma 90.000000
_cell_volume 2980.571417
_symmetry_space_group_name_H-M "C 2/M"
_symmetry_group_IT_number 12
_symmetry_cell_setting 'monoclinic'
loop_
_space_group_symop_operation_xyz
x,y,z
-x,y,-z
-x,-y,-z
x,-y,z
1/2+x,1/2+y,z
1/2-x,1/2+y,-z
1/2-x,1/2-y,-z
1/2+x,1/2-y,z
loop_
_atom_site_type_symbol
_atom_site_label
_atom_site_fract_x
_atom_site_fract_y
_atom_site_fract_z
Si Si1 0.922999 0.185809 0.894663
Si Si2 0.182788 0.208206 0.261114
Si Si3 0.930131 0.339834 0.271359
Si Si4 0.617585 0.819331 0.978619
Si Si5 0.373610 0.698492 0.373849
Si Si6 0.399643 0.073270 0.541044
Si Si7 0.238573 0.841386 0.767086
O O1 0.900829 0.198335 0.757568
O O2 0.031019 0.164386 0.778593
O O3 0.907777 0.245984 0.009243
O O4 0.850931 0.138316 0.044115
O O5 0.273021 0.171274 0.103324
O O6 0.155107 0.180886 0.439773
O O7 0.207260 0.280953 0.233735
O O8 0.901872 0.352845 0.145161
O O9 0.889025 0.273023 0.360279
O O10 0.889362 0.395606 0.402622
O O11 0.044107 0.344492 0.168876
O O12 0.291631 0.674457 0.359344
O O13 0.500000 0.091393 0.500000
O O14 0.310628 0.101650 0.713773
O O15 0.387282 0.000000 0.542321
#
# Coordination Sequence:
#
# PCOD8083577 Si02
#       7
#     8   8   8   8   8   8   8
#     4  10  21  30  49  85 121 140 174 218 282 354
#     4  11  19  28  48  85 117 144 176 212 278 353
#     4  10  18  33  54  74 111 147 180 227 280 330
#     4   9  18  29  48  80 110 147 176 215 277 344
#     4  11  19  32  53  85 115 146 174 221 291 346
#     4  11  26  40  55  78 107 151 202 237 267 315
#     4  11  20  35  56  76 115 150 183 224 280 337
#
# _framework density 18.788343000000001
#
# number of rings (size 3 to 8) (size 9 to 14) (size 15 to 20)
#    0.000    1.571    4.286    3.857    6.000    0.000 
#    0.000    1.429    0.000    1.714    0.000    0.000 
#    0.000    3.714    0.000    0.000    0.000    0.000 
#
# Total GULP energy -346903.224263 kJ/mol
# GULP energy per Si atom -12389.400867 kJ/mol
# Density = 1.874558 g / cm^3
# Si number density = 18.788343 Si / 1000 Ang^3
#
#
#
# Elastic Constant Matrix: (Units=GPa)
#
#
# Indices 1 2 3 4 5 6 
#
# 1 93.0238 33.2423 21.7588 0.0000 -7.7433 0.0000
# 2 33.2423 50.7760 23.9689 0.0000 -6.3028 0.0000
# 3 21.7588 23.9689 76.1647 0.0000 -13.1357 0.0000
# 4 0.0000 0.0000 0.0000 13.2872 0.0000 -2.3502
# 5 -7.7433 -6.3028 -13.1357 0.0000 42.3695 0.0000
# 6 0.0000 0.0000 0.0000 -2.3502 0.0000 19.5221
#
#
#
# Elastic Compliance Matrix: (Units=1/GPa)
#
#
# Indices 1 2 3 4 5 6 
#
# 1 0.014181 -0.008611 -0.001179 0.000000 0.000945 0.000000
# 2 -0.008611 0.028422 -0.006367 0.000000 0.000680 0.000000
# 3 -0.001179 -0.006367 0.016132 0.000000 0.003839 0.000000
# 4 0.000000 0.000000 0.000000 0.076898 0.000000 0.009257
# 5 0.000945 0.000680 0.003839 0.000000 0.025066 0.000000
# 6 0.000000 0.000000 0.000000 0.009257 0.000000 0.052338
#
#
# Mechanical properties :
#
#
# Convention : Reuss Voigt Hill
#
# Bulk Modulus (GPa) = 37.84658 41.98939 39.91798
# Shear Modulus (GPa) = 19.67292 24.43542 22.05417
#
# Velocity S-wave (km/s) = 3.23937 3.61024 3.42983
# Velocity P-wave (km/s) = 5.84626 6.30679 6.08089
#
# Compressibility (1/GPa) = 0.02642247
#
# Stress axis : x y z
#
# Youngs Moduli (GPa) = 70.51527 35.18452 61.98913
#
# Poissons Ratio (x) = 0.30296 0.07306
# Poissons Ratio (y) = 0.60718 0.39469
# Poissons Ratio (z) = 0.08310 0.22402
#
# Static dielectric constant tensor:
#      x y z
#    x 3.693760 0.000000 -0.349150 
#    y 0.000000 2.724810 0.000000 
#    z -0.349150 0.000000 3.874890 
# 
# 
# High freq. dielectric constant tensor:
#      x y z
#    x 1.748730 0.000000 -0.012330 
#    y 0.000000 1.627710 0.000000 
#    z -0.012330 0.000000 1.755920 
# 
# From -- ./inp_files/77391.got.cif
#   From: 2010.06.25/outbox.cif.g09.slc.cpg/sg12_39_cif.got.tgz:77391.got - 2010.06.28 00:19:55.
