data_PCOD8083969
_publ_section_title
;
Structure prediction by ZEFSAII (Michael W. Deem and Ramdas Pophale) SiO2 
 PCOD8083969
Probable space group: C 2/M
;
_chemical_formula_sum "Si O2"
_cell_formula_units_Z 40
_cell_length_a 28.752052
_cell_length_b 17.547185
_cell_length_c 10.045371
_cell_angle_alpha 90.000000
_cell_angle_beta 153.412393
_cell_angle_gamma 90.000000
_cell_volume 2268.292470
_symmetry_space_group_name_H-M "C 2/M"
_symmetry_group_IT_number 12
_symmetry_cell_setting 'monoclinic'
loop_
_space_group_symop_operation_xyz
x,y,z
-x,y,-z
-x,-y,-z
x,-y,z
1/2+x,1/2+y,z
1/2-x,1/2+y,-z
1/2-x,1/2-y,-z
1/2+x,1/2-y,z
loop_
_atom_site_type_symbol
_atom_site_label
_atom_site_fract_x
_atom_site_fract_y
_atom_site_fract_z
Si Si1 0.182348 0.658995 0.697594
Si Si2 0.629603 0.000000 0.979545
Si Si3 0.385427 0.255027 0.237697
Si Si4 0.116502 0.500000 0.638055
Si Si5 0.384374 0.239371 0.729223
Si Si6 0.689291 0.836653 0.200175
O O1 0.115913 0.715103 0.621853
O O2 0.162410 0.571968 0.679312
O O3 0.148430 0.674593 0.459844
O O4 0.305556 0.674688 0.029547
O O5 0.655377 0.000000 0.889138
O O6 0.506979 0.000000 0.688611
O O7 0.681239 0.927620 0.183650
O O8 0.500000 0.287129 0.500000
O O9 0.354283 0.190127 0.052988
O O10 0.380406 0.201045 0.863670
O O11 0.309105 0.312432 0.526182
O O12 0.500000 0.269816 0.000000
#
# Coordination Sequence:
#
# PCOD8083969 Si02
#       6
#     8   4   8   4   8   8
#     4  10  21  32  53  81 104 134 177 213 254 311
#     4  11  20  33  54  77 107 137 165 217 268 305
#     4  10  18  34  54  76 104 139 175 214 254 301
#     4  11  20  33  52  79 109 133 167 219 266 303
#     4  10  20  36  54  76 106 138 173 213 252 304
#     4  10  21  34  53  80 105 135 175 209 258 315
#
# _framework density 17.634411
#
# number of rings (size 3 to 8) (size 9 to 14) (size 15 to 20)
#    0.000    1.800    2.000    3.600    0.000    0.800 
#    0.000    3.000    0.000    0.000    0.000    0.000 
#    0.000    0.000    0.000    0.000    0.000    0.000 
#
# Total GULP energy -248084.896729 kJ/mol
# GULP energy per Si atom -12404.244836 kJ/mol
# Density = 1.759427 g / cm^3
# Si number density = 17.634411 Si / 1000 Ang^3
#
#
#
# Elastic Constant Matrix: (Units=GPa)
#
#
# Indices 1 2 3 4 5 6 
#
# 1 86.2622 29.2406 35.3527 0.0000 18.2479 0.0000
# 2 29.2406 112.8043 41.9801 0.0000 15.4924 0.0000
# 3 35.3527 41.9801 66.8096 0.0000 18.9636 0.0000
# 4 0.0000 0.0000 0.0000 13.7229 0.0000 0.5312
# 5 18.2479 15.4924 18.9636 0.0000 38.8752 0.0000
# 6 0.0000 0.0000 0.0000 0.5312 0.0000 19.1620
#
#
#
# Elastic Compliance Matrix: (Units=1/GPa)
#
#
# Indices 1 2 3 4 5 6 
#
# 1 0.015361 -0.001098 -0.006402 0.000000 -0.003650 0.000000
# 2 -0.001098 0.011700 -0.006493 0.000000 -0.000980 0.000000
# 3 -0.006402 -0.006493 0.024199 0.000000 -0.006211 0.000000
# 4 0.000000 0.000000 0.000000 0.072949 0.000000 -0.002022
# 5 -0.003650 -0.000980 -0.006211 0.000000 0.030857 0.000000
# 6 0.000000 0.000000 0.000000 -0.002022 0.000000 0.052243
#
#
# Mechanical properties :
#
#
# Convention : Reuss Voigt Hill
#
# Bulk Modulus (GPa) = 42.96722 53.22476 48.09599
# Shear Modulus (GPa) = 20.57165 24.97220 22.77193
#
# Velocity S-wave (km/s) = 3.41920 3.76720 3.59741
# Velocity P-wave (km/s) = 6.32506 7.01215 6.67745
#
# Compressibility (1/GPa) = 0.02327356
#
# Stress axis : x y z
#
# Youngs Moduli (GPa) = 65.10153 85.46705 41.32456
#
# Poissons Ratio (x) = 0.09383 0.26458
# Poissons Ratio (y) = 0.07147 0.26831
# Poissons Ratio (z) = 0.41681 0.55492
#
# Static dielectric constant tensor:
#      x y z
#    x 3.513030 0.000000 0.006910 
#    y 0.000000 3.037610 0.000000 
#    z 0.006910 0.000000 3.282330 
# 
# 
# High freq. dielectric constant tensor:
#      x y z
#    x 1.700610 0.000000 -0.003550 
#    y 0.000000 1.656520 0.000000 
#    z -0.003550 0.000000 1.681790 
# 
# From -- ./inp_files/60895.got.cif
#   From: 2010.06.25/outbox.cif.g09.slc.cpg/sg12_31_cif.got.tgz:60895.got - 2010.06.28 00:19:55.
