data_PCOD8083618
_publ_section_title
;
Structure prediction by ZEFSAII (Michael W. Deem and Ramdas Pophale) SiO2 
 PCOD8083618
Probable space group: C 2/M
;
_chemical_formula_sum "Si O2"
_cell_formula_units_Z 64
_cell_length_a 14.783368
_cell_length_b 8.908886
_cell_length_c 29.967830
_cell_angle_alpha 90.000000
_cell_angle_beta 60.002421
_cell_angle_gamma 90.000000
_cell_volume 3418.167275
_symmetry_space_group_name_H-M "C 2/M"
_symmetry_group_IT_number 12
_symmetry_cell_setting 'monoclinic'
loop_
_space_group_symop_operation_xyz
x,y,z
-x,y,-z
-x,-y,-z
x,-y,z
1/2+x,1/2+y,z
1/2-x,1/2+y,-z
1/2-x,1/2-y,-z
1/2+x,1/2-y,z
loop_
_atom_site_type_symbol
_atom_site_label
_atom_site_fract_x
_atom_site_fract_y
_atom_site_fract_z
Si Si1 0.645238 0.822121 0.735241
Si Si2 0.498141 0.677960 0.366143
Si Si3 0.570152 0.322937 0.443163
Si Si4 0.585241 0.822098 0.186753
Si Si5 0.335147 0.321905 0.746996
Si Si6 0.195468 0.676406 0.624331
Si Si7 0.599030 0.174139 0.006023
Si Si8 0.166447 0.173979 0.078353
O O1 0.531551 0.759907 0.776094
O O2 0.726976 0.766195 0.752031
O O3 0.680622 0.761666 0.678232
O O4 0.646020 0.000000 0.733752
O O5 0.500916 0.500000 0.366423
O O6 0.538258 0.744653 0.403134
O O7 0.570910 0.735854 0.307794
O O8 0.381819 0.737160 0.389132
O O9 0.500000 0.251556 0.500000
O O10 0.552668 0.500000 0.446006
O O11 0.690429 0.283410 0.422186
O O12 0.659798 0.755058 0.206242
O O13 0.623664 0.769452 0.129550
O O14 0.589274 0.000000 0.187967
O O15 0.338521 0.500000 0.752185
O O16 0.172707 0.500000 0.628130
O O17 0.708666 0.200360 0.953680
O O18 0.585307 0.000000 0.022487
O O19 0.500000 0.226199 0.000000
O O20 0.604677 0.271152 0.049655
O O21 0.140415 0.000000 0.091624
#
# Coordination Sequence:
#
# PCOD8083618 Si02
#       8
#     8   8   8   8   8   8   8   8
#     4   9  18  33  53  74  99 139 182 215 257 319
#     4  10  19  32  53  78 103 132 172 222 270 317
#     4   9  18  33  54  78 104 138 179 220 265 325
#     4  11  22  36  54  79 112 144 179 223 270 321
#     4  10  19  34  54  75 100 137 181 222 264 315
#     4  10  18  33  55  76 101 136 178 216 261 323
#     4   9  19  38  63  85 109 147 190 224 264 317
#     4  10  21  37  57  84 116 146 180 226 272 315
#
# _framework density 18.723483999999999
#
# number of rings (size 3 to 8) (size 9 to 14) (size 15 to 20)
#    0.000    2.250    2.500    0.750    0.000    2.250 
#    0.000    7.500    0.000    0.750    0.000    0.000 
#    0.000    0.000    0.000    0.000    0.000    0.000 
#
# Total GULP energy -396801.353565 kJ/mol
# GULP energy per Si atom -12400.042299 kJ/mol
# Density = 1.868087 g / cm^3
# Si number density = 18.723484 Si / 1000 Ang^3
#
#
#
# Elastic Constant Matrix: (Units=GPa)
#
#
# Indices 1 2 3 4 5 6 
#
# 1 108.3613 15.9769 20.8418 0.0000 6.1881 0.0000
# 2 15.9769 29.0190 16.4247 0.0000 3.2443 0.0000
# 3 20.8418 16.4247 83.6548 0.0000 1.3501 0.0000
# 4 0.0000 0.0000 0.0000 16.0736 0.0000 -3.7451
# 5 6.1881 3.2443 1.3501 0.0000 24.8187 0.0000
# 6 0.0000 0.0000 0.0000 -3.7451 0.0000 26.8272
#
#
#
# Elastic Compliance Matrix: (Units=1/GPa)
#
#
# Indices 1 2 3 4 5 6 
#
# 1 0.010323 -0.004538 -0.001650 0.000000 -0.001891 0.000000
# 2 -0.004538 0.041309 -0.006917 0.000000 -0.003892 0.000000
# 3 -0.001650 -0.006917 0.013714 0.000000 0.000570 0.000000
# 4 0.000000 0.000000 0.000000 0.064305 0.000000 0.008977
# 5 -0.001891 -0.003892 0.000570 0.000000 0.041241 0.000000
# 6 0.000000 0.000000 0.000000 0.008977 0.000000 0.038529
#
#
# Mechanical properties :
#
#
# Convention : Reuss Voigt Hill
#
# Bulk Modulus (GPa) = 25.55274 36.39135 30.97204
# Shear Modulus (GPa) = 20.10641 24.73002 22.41822
#
# Velocity S-wave (km/s) = 3.28054 3.63823 3.46400
# Velocity P-wave (km/s) = 5.29399 6.09322 5.70761
#
# Compressibility (1/GPa) = 0.03913475
#
# Stress axis : x y z
#
# Youngs Moduli (GPa) = 96.87232 24.20793 72.91833
#
# Poissons Ratio (x) = 0.10985 0.12034
# Poissons Ratio (y) = 0.43960 0.50439
# Poissons Ratio (z) = 0.15987 0.16745
#
# Static dielectric constant tensor:
#      x y z
#    x 3.600690 0.000000 -0.032810 
#    y 0.000000 3.103410 0.000000 
#    z -0.032810 0.000000 3.512860 
# 
# 
# High freq. dielectric constant tensor:
#      x y z
#    x 1.739190 0.000000 0.000940 
#    y 0.000000 1.696630 0.000000 
#    z 0.000940 0.000000 1.728200 
# 
# From -- ./inp_files/375017.got.cif
#   From: 2010.06.25/outbox.cif.g09.slc.cpg/sg12_188_cif.got.tgz:375017.got - 2010.06.28 00:19:55.
