data_PCOD8083485
_publ_section_title
;
Structure prediction by ZEFSAII (Michael W. Deem and Ramdas Pophale) SiO2 
 PCOD8083485
Probable space group: C 2/M
;
_chemical_formula_sum "Si O2"
_cell_formula_units_Z 52
_cell_length_a 26.813895
_cell_length_b 11.946082
_cell_length_c 12.301084
_cell_angle_alpha 90.000000
_cell_angle_beta 133.973653
_cell_angle_gamma 90.000000
_cell_volume 2835.669657
_symmetry_space_group_name_H-M "C 2/M"
_symmetry_group_IT_number 12
_symmetry_cell_setting 'monoclinic'
loop_
_space_group_symop_operation_xyz
x,y,z
-x,y,-z
-x,-y,-z
x,-y,z
1/2+x,1/2+y,z
1/2-x,1/2+y,-z
1/2-x,1/2-y,-z
1/2+x,1/2-y,z
loop_
_atom_site_type_symbol
_atom_site_label
_atom_site_fract_x
_atom_site_fract_y
_atom_site_fract_z
Si Si1 0.060663 0.628315 0.824378
Si Si2 0.099732 0.629043 0.466165
Si Si3 0.614360 0.500000 0.408436
Si Si4 0.970872 0.000000 0.075536
Si Si5 0.329943 0.728017 0.604168
Si Si6 0.927865 0.230256 0.953770
Si Si7 0.418598 0.742138 0.351350
Si Si8 0.081922 0.000000 0.609140
O O1 0.082526 0.500000 0.848444
O O2 0.099906 0.693739 0.787432
O O3 0.979310 0.646649 0.687511
O O4 0.083802 0.671623 0.977223
O O5 0.117140 0.500000 0.513995
O O6 0.144503 0.672852 0.434143
O O7 0.118854 0.696814 0.604378
O O8 0.533916 0.500000 0.254260
O O9 0.654439 0.608094 0.425494
O O10 0.611081 0.500000 0.531974
O O11 0.926116 0.886660 0.019635
O O12 0.000000 0.000000 0.000000
O O13 0.250000 0.750000 0.500000
O O14 0.365483 0.734570 0.775164
O O15 0.000000 0.246580 0.000000
O O16 0.500000 0.743397 0.500000
O O17 0.390407 0.614756 0.294520
O O18 0.000000 0.000000 0.500000
#
# Coordination Sequence:
#
# PCOD8083485 Si02
#       8
#     8   8   4   4   8   8   8   4
#     4  10  20  33  55  81 117 151 185 233 286 350
#     4  10  19  34  53  79 111 149 188 232 281 341
#     4  12  20  40  58  88 125 153 192 255 304 346
#     4  10  18  32  62  82 106 148 184 248 310 335
#     4  12  25  38  56  84 118 158 196 237 294 359
#     4  11  20  36  57  84 113 151 196 243 300 349
#     4   9  18  31  50  84 113 144 184 233 296 344
#     4  10  20  28  56  90 118 143 184 249 315 358
#
# _framework density 18.337820000000001
#
# number of rings (size 3 to 8) (size 9 to 14) (size 15 to 20)
#    0.000    1.538    6.154    0.462    5.385    2.769 
#    0.000    0.000    0.000    0.923    0.000    0.000 
#    0.000    0.000    0.000    0.000    0.000    0.000 
#
# Total GULP energy -322347.287954 kJ/mol
# GULP energy per Si atom -12397.972614 kJ/mol
# Density = 1.829608 g / cm^3
# Si number density = 18.337820 Si / 1000 Ang^3
#
#
#
# Elastic Constant Matrix: (Units=GPa)
#
#
# Indices 1 2 3 4 5 6 
#
# 1 78.3164 69.3876 49.3315 0.0000 -15.7946 0.0000
# 2 69.3876 156.6654 52.3131 0.0000 -17.4548 0.0000
# 3 49.3315 52.3131 76.3298 0.0000 -5.0335 0.0000
# 4 0.0000 0.0000 0.0000 22.7669 0.0000 -14.4142
# 5 -15.7946 -17.4548 -5.0335 0.0000 26.6134 0.0000
# 6 0.0000 0.0000 0.0000 -14.4142 0.0000 25.9103
#
#
#
# Elastic Compliance Matrix: (Units=1/GPa)
#
#
# Indices 1 2 3 4 5 6 
#
# 1 0.030227 -0.007705 -0.013574 0.000000 0.010318 0.000000
# 2 -0.007705 0.010787 -0.002276 0.000000 0.002071 0.000000
# 3 -0.013574 -0.002276 0.023092 0.000000 -0.005181 0.000000
# 4 0.000000 0.000000 0.000000 0.067805 0.000000 0.037721
# 5 0.010318 0.002071 -0.005181 0.000000 0.044077 0.000000
# 6 0.000000 0.000000 0.000000 0.037721 0.000000 0.059579
#
#
# Mechanical properties :
#
#
# Convention : Reuss Voigt Hill
#
# Bulk Modulus (GPa) = 58.84291 72.59734 65.72013
# Shear Modulus (GPa) = 17.34047 24.41009 20.87528
#
# Velocity S-wave (km/s) = 3.07842 3.65243 3.37764
# Velocity P-wave (km/s) = 6.69279 7.58035 7.15036
#
# Compressibility (1/GPa) = 0.01699440
#
# Stress axis : x y z
#
# Youngs Moduli (GPa) = 33.08321 92.70820 43.30475
#
# Poissons Ratio (x) = 0.71435 0.58782
# Poissons Ratio (y) = 0.25492 0.09857
# Poissons Ratio (z) = 0.44907 0.21102
#
# Static dielectric constant tensor:
#      x y z
#    x 2.384090 0.000000 -0.114710 
#    y 0.000000 4.192890 0.000000 
#    z -0.114710 0.000000 3.020140 
# 
# 
# High freq. dielectric constant tensor:
#      x y z
#    x 1.692140 0.000000 -0.039330 
#    y 0.000000 1.735310 0.000000 
#    z -0.039330 0.000000 1.672750 
# 
# From -- ./inp_files/164820.got.cif
#   From: 2010.06.25/outbox.cif.g09.slc.cpg/sg12_83_cif.got.tgz:164820.got - 2010.06.28 00:19:55.
