data_PCOD8083009
_publ_section_title
;
Structure prediction by ZEFSAII (Michael W. Deem and Ramdas Pophale) SiO2 
 PCOD8083009
Probable space group: C 2/M
;
_chemical_formula_sum "Si O2"
_cell_formula_units_Z 64
_cell_length_a 24.219771
_cell_length_b 11.113916
_cell_length_c 12.745238
_cell_angle_alpha 90.000000
_cell_angle_beta 86.762151
_cell_angle_gamma 90.000000
_cell_volume 3425.242007
_symmetry_space_group_name_H-M "C 2/M"
_symmetry_group_IT_number 12
_symmetry_cell_setting 'monoclinic'
loop_
_space_group_symop_operation_xyz
x,y,z
-x,y,-z
-x,-y,-z
x,-y,z
1/2+x,1/2+y,z
1/2-x,1/2+y,-z
1/2-x,1/2-y,-z
1/2+x,1/2-y,z
loop_
_atom_site_type_symbol
_atom_site_label
_atom_site_fract_x
_atom_site_fract_y
_atom_site_fract_z
Si Si1 0.440551 0.638540 0.471546
Si Si2 0.688182 0.867190 0.205293
Si Si3 0.544970 0.135920 0.907283
Si Si4 0.667428 0.254043 0.417319
Si Si5 0.692866 0.704293 0.789908
Si Si6 0.781136 0.631687 0.402001
Si Si7 0.427810 0.635293 0.227397
Si Si8 0.833135 0.635791 0.021398
O O1 0.500000 0.692379 0.500000
O O2 0.437617 0.500000 0.504245
O O3 0.392309 0.703696 0.539995
O O4 0.432148 0.658137 0.349816
O O5 0.660190 0.787172 0.298054
O O6 0.754012 0.881084 0.217123
O O7 0.661768 0.000000 0.212550
O O8 0.675222 0.807652 0.093612
O O9 0.540731 0.249757 0.827750
O O10 0.602882 0.140313 0.958713
O O11 0.537413 0.000000 0.856952
O O12 0.500000 0.158600 0.000000
O O13 0.714638 0.356561 0.419469
O O14 0.689812 0.146160 0.488036
O O15 0.691063 0.777808 0.682112
O O16 0.636091 0.630559 0.802274
O O17 0.701112 0.790407 0.889274
O O18 0.794488 0.500000 0.357998
O O19 0.451802 0.500000 0.196840
O O20 0.809784 0.500000 0.024424
#
# Coordination Sequence:
#
# PCOD8083009 Si02
#       8
#     8   8   8   8   8   8   8   8
#     4  10  21  38  57  77 107 144 181 224 274 331
#     4  10  20  32  49  74 108 143 175 219 275 330
#     4   9  19  36  57  79 105 141 183 225 273 326
#     4  10  20  34  50  78 105 140 179 225 273 329
#     4  10  18  32  52  77 104 139 177 224 269 330
#     4  10  19  31  52  78 106 138 178 229 279 328
#     4  10  20  35  56  82 107 137 181 231 275 325
#     4   9  18  32  50  74 104 140 178 219 271 329
#
# _framework density 18.684812000000001
#
# number of rings (size 3 to 8) (size 9 to 14) (size 15 to 20)
#    0.000    2.250    1.250    1.875    0.000    1.750 
#    0.000    0.000    0.000   13.125    0.000    0.000 
#    0.000    0.000    0.000    0.000    0.000    0.000 
#
# Total GULP energy -396607.902781 kJ/mol
# GULP energy per Si atom -12393.996962 kJ/mol
# Density = 1.864228 g / cm^3
# Si number density = 18.684812 Si / 1000 Ang^3
#
#
#
# Elastic Constant Matrix: (Units=GPa)
#
#
# Indices 1 2 3 4 5 6 
#
# 1 68.9823 26.0730 24.4121 0.0000 -14.3657 0.0000
# 2 26.0730 96.2043 42.7167 0.0000 -10.5598 0.0000
# 3 24.4121 42.7167 118.2349 0.0000 0.4527 0.0000
# 4 0.0000 0.0000 0.0000 -0.0184 0.0000 20.8080
# 5 -14.3657 -10.5598 0.4527 0.0000 27.3371 0.0000
# 6 0.0000 0.0000 0.0000 20.8080 0.0000 -10.8475
#
#
#
# Elastic Compliance Matrix: (Units=1/GPa)
#
#
# Indices 1 2 3 4 5 6 
#
# 1 0.018335 -0.002773 -0.002817 0.000000 0.008610 0.000000
# 2 -0.002773 0.013480 -0.004312 0.000000 0.003821 0.000000
# 3 -0.002817 -0.004312 0.010610 0.000000 -0.003322 0.000000
# 4 0.000000 0.000000 0.000000 0.025065 0.000000 0.048081
# 5 0.008610 0.003821 -0.003322 0.000000 0.042636 0.000000
# 6 0.000000 0.000000 0.000000 0.048081 0.000000 0.000042
#
#
# Mechanical properties :
#
#
# Convention : Reuss Voigt Hill
#
# Bulk Modulus (GPa) = 44.20758 52.20279 48.20519
# Shear Modulus (GPa) = 36.36025 15.97557 26.16791
#
# Velocity S-wave (km/s) = 4.41611 2.92722 3.74637
# Velocity P-wave (km/s) = 7.05080 6.27886 6.67599
#
# Compressibility (1/GPa) = 0.02262055
#
# Stress axis : x y z
#
# Youngs Moduli (GPa) = 54.54197 74.18224 94.25092
#
# Poissons Ratio (x) = 0.20573 0.26547
# Poissons Ratio (y) = 0.15126 0.40644
# Poissons Ratio (z) = 0.15362 0.31990
#
# Static dielectric constant tensor:
#      x y z
#    x 3.393460 0.000000 0.040700 
#    y 0.000000 3.447660 0.000000 
#    z 0.040700 0.000000 3.481570 
# 
# 
# High freq. dielectric constant tensor:
#      x y z
#    x 1.712210 0.000000 0.000510 
#    y 0.000000 1.717920 0.000000 
#    z 0.000510 0.000000 1.729570 
# 
# From -- ./inp_files/174658.got.cif
#   From: 2010.06.25/outbox.cif.g09.slc.cpg/sg12_88_cif.got.tgz:174658.got - 2010.06.28 00:19:55.
