data_PCOD8083367
_publ_section_title
;
Structure prediction by ZEFSAII (Michael W. Deem and Ramdas Pophale) SiO2 
 PCOD8083367
Probable space group: C 2/M
;
_chemical_formula_sum "Si O2"
_cell_formula_units_Z 56
_cell_length_a 21.284955
_cell_length_b 14.850984
_cell_length_c 17.918964
_cell_angle_alpha 90.000000
_cell_angle_beta 148.439872
_cell_angle_gamma 90.000000
_cell_volume 2964.618585
_symmetry_space_group_name_H-M "C 2/M"
_symmetry_group_IT_number 12
_symmetry_cell_setting 'monoclinic'
loop_
_space_group_symop_operation_xyz
x,y,z
-x,y,-z
-x,-y,-z
x,-y,z
1/2+x,1/2+y,z
1/2-x,1/2+y,-z
1/2-x,1/2-y,-z
1/2+x,1/2-y,z
loop_
_atom_site_type_symbol
_atom_site_label
_atom_site_fract_x
_atom_site_fract_y
_atom_site_fract_z
Si Si1 0.004347 0.100821 0.628735
Si Si2 0.236851 0.827722 0.049070
Si Si3 0.066336 0.399538 0.838426
Si Si4 0.480809 0.400214 0.773744
Si Si5 0.738517 0.168307 0.140157
Si Si6 0.253035 0.605727 0.317045
Si Si7 0.854795 0.273309 0.663052
O O1 0.946233 0.111147 0.651868
O O2 0.120267 0.160808 0.734358
O O3 0.895958 0.125063 0.462615
O O4 0.049707 0.000000 0.659928
O O5 0.356327 0.888010 0.159875
O O6 0.220174 0.776367 0.111507
O O7 0.250000 0.750000 0.000000
O O8 0.123778 0.892053 0.923801
O O9 0.012489 0.500000 0.786329
O O10 0.958877 0.328130 0.726163
O O11 0.153844 0.386798 0.998121
O O12 0.443062 0.500000 0.764363
O O13 0.410459 0.322240 0.747869
O O14 0.703300 0.134852 0.186369
O O15 0.226363 0.500000 0.305656
O O16 0.185666 0.667542 0.308290
O O17 0.750000 0.250000 0.500000
#
# Coordination Sequence:
#
# PCOD8083367 Si02
#       7
#     8   8   8   8   8   8   8
#     4  10  18  32  56  87 117 148 185 228 283 347
#     4  10  18  34  59  87 113 145 188 240 289 330
#     4  11  21  36  61  90 117 149 190 240 292 337
#     4  11  20  37  62  84 110 149 197 245 285 332
#     4  11  20  35  58  87 124 150 183 235 293 346
#     4  11  24  37  55  87 124 159 186 226 292 356
#     4  12  24  39  56  81 118 156 197 236 278 347
#
# _framework density 18.889444999999998
#
# number of rings (size 3 to 8) (size 9 to 14) (size 15 to 20)
#    0.000    1.143    7.143    2.571    0.000    2.286 
#    0.000    1.429    0.000    2.571    0.000    1.000 
#    0.000    0.000    0.000    0.000    0.000    0.000 
#
# Total GULP energy -347043.331423 kJ/mol
# GULP energy per Si atom -12394.404694 kJ/mol
# Density = 1.884645 g / cm^3
# Si number density = 18.889445 Si / 1000 Ang^3
#
#
#
# Elastic Constant Matrix: (Units=GPa)
#
#
# Indices 1 2 3 4 5 6 
#
# 1 63.3569 44.6951 27.7055 0.0000 4.0537 0.0000
# 2 44.6951 140.9105 44.6314 0.0000 5.5529 0.0000
# 3 27.7055 44.6314 78.4640 0.0000 10.4731 0.0000
# 4 0.0000 0.0000 0.0000 26.3587 0.0000 1.4119
# 5 4.0537 5.5529 10.4731 0.0000 24.7033 0.0000
# 6 0.0000 0.0000 0.0000 1.4119 0.0000 26.5921
#
#
#
# Elastic Compliance Matrix: (Units=1/GPa)
#
#
# Indices 1 2 3 4 5 6 
#
# 1 0.021590 -0.005409 -0.004490 0.000000 -0.000423 0.000000
# 2 -0.005409 0.010012 -0.003819 0.000000 0.000256 0.000000
# 3 -0.004490 -0.003819 0.017267 0.000000 -0.005725 0.000000
# 4 0.000000 0.000000 0.000000 0.038046 0.000000 -0.002020
# 5 -0.000423 0.000256 -0.005725 0.000000 0.042919 0.000000
# 6 0.000000 0.000000 0.000000 -0.002020 0.000000 0.037712
#
#
# Mechanical properties :
#
#
# Convention : Reuss Voigt Hill
#
# Bulk Modulus (GPa) = 46.65962 57.42171 52.04066
# Shear Modulus (GPa) = 24.73682 26.57746 25.65714
#
# Velocity S-wave (km/s) = 3.62271 3.75507 3.68948
# Velocity P-wave (km/s) = 6.50029 7.01894 6.76459
#
# Compressibility (1/GPa) = 0.02143181
#
# Stress axis : x y z
#
# Youngs Moduli (GPa) = 46.31746 99.87974 57.91502
#
# Poissons Ratio (x) = 0.54028 0.26004
# Poissons Ratio (y) = 0.25054 0.22119
# Poissons Ratio (z) = 0.20797 0.38146
#
# Static dielectric constant tensor:
#      x y z
#    x 3.354100 0.000000 0.058390 
#    y 0.000000 3.764910 0.000000 
#    z 0.058390 0.000000 3.495300 
# 
# 
# High freq. dielectric constant tensor:
#      x y z
#    x 1.700700 0.000000 0.020420 
#    y 0.000000 1.737670 0.000000 
#    z 0.020420 0.000000 1.730480 
# 
# From -- ./inp_files/284576.got.cif
#   From: 2010.06.25/outbox.cif.g09.slc.cpg/sg12_143_cif.got.tgz:284576.got - 2010.06.28 00:19:55.
