data_PCOD8083554
_publ_section_title
;
Structure prediction by ZEFSAII (Michael W. Deem and Ramdas Pophale) SiO2 
 PCOD8083554
Probable space group: C 2/M
;
_chemical_formula_sum "Si O2"
_cell_formula_units_Z 52
_cell_length_a 11.485679
_cell_length_b 20.694181
_cell_length_c 13.085532
_cell_angle_alpha 90.000000
_cell_angle_beta 65.664086
_cell_angle_gamma 90.000000
_cell_volume 2833.895757
_symmetry_space_group_name_H-M "C 2/M"
_symmetry_group_IT_number 12
_symmetry_cell_setting 'monoclinic'
loop_
_space_group_symop_operation_xyz
x,y,z
-x,y,-z
-x,-y,-z
x,-y,z
1/2+x,1/2+y,z
1/2-x,1/2+y,-z
1/2-x,1/2-y,-z
1/2+x,1/2-y,z
loop_
_atom_site_type_symbol
_atom_site_label
_atom_site_fract_x
_atom_site_fract_y
_atom_site_fract_z
Si Si1 0.127368 0.640545 0.907898
Si Si2 0.242797 0.427800 0.671974
Si Si3 0.500000 0.637368 0.500000
Si Si4 0.360951 0.073269 0.505662
Si Si5 0.680528 0.316690 0.013755
Si Si6 0.405051 0.716235 0.158692
Si Si7 0.317100 0.693723 0.411909
O O1 0.180375 0.610681 0.785861
O O2 0.234518 0.630831 0.957195
O O3 0.090812 0.714003 0.895094
O O4 0.000000 0.606649 0.000000
O O5 0.263699 0.500000 0.702794
O O6 0.381474 0.403625 0.585241
O O7 0.140230 0.423686 0.616978
O O8 0.449479 0.680032 0.423310
O O9 0.500000 0.090076 0.500000
O O10 0.262842 0.128092 0.578408
O O11 0.319969 0.000000 0.555233
O O12 0.545806 0.312619 0.121073
O O13 0.750000 0.250000 0.000000
O O14 0.666999 0.331321 0.896811
O O15 0.338903 0.721478 0.291662
O O16 0.250000 0.750000 0.500000
#
# Coordination Sequence:
#
# PCOD8083554 Si02
#       7
#     8   8   4   8   8   8   8
#     4  11  20  34  52  80 111 142 183 229 288 341
#     4  10  21  37  59  80 107 150 195 240 282 339
#     4  10  21  40  54  82 115 146 184 230 296 346
#     4   9  20  40  58  79 115 160 198 227 286 362
#     4   9  17  33  50  73  98 144 183 214 272 344
#     4  10  18  33  53  75 108 143 181 221 282 341
#     4  11  23  35  55  90 119 145 186 246 292 334
#
# _framework density 18.349298999999998
#
# number of rings (size 3 to 8) (size 9 to 14) (size 15 to 20)
#    0.000    2.000    3.077    3.000    1.077    3.385 
#    0.000    0.000    0.000    0.923    0.000    3.231 
#    0.000    0.000    0.000    0.000    0.000    0.000 
#
# Total GULP energy -322134.746462 kJ/mol
# GULP energy per Si atom -12389.797941 kJ/mol
# Density = 1.830754 g / cm^3
# Si number density = 18.349299 Si / 1000 Ang^3
#
#
#
# Elastic Constant Matrix: (Units=GPa)
#
#
# Indices 1 2 3 4 5 6 
#
# 1 146.2898 36.1838 59.5551 0.0000 7.7097 0.0000
# 2 36.1838 56.6676 28.6128 0.0000 1.1514 0.0000
# 3 59.5551 28.6128 147.5670 0.0000 -1.8462 0.0000
# 4 0.0000 0.0000 0.0000 13.1373 0.0000 0.8637
# 5 7.7097 1.1514 -1.8462 0.0000 25.2036 0.0000
# 6 0.0000 0.0000 0.0000 0.8637 0.0000 16.3532
#
#
#
# Elastic Compliance Matrix: (Units=1/GPa)
#
#
# Indices 1 2 3 4 5 6 
#
# 1 0.009259 -0.004378 -0.002923 0.000000 -0.002846 0.000000
# 2 -0.004378 0.021667 -0.002432 0.000000 0.000171 0.000000
# 3 -0.002923 -0.002432 0.008448 0.000000 0.001624 0.000000
# 4 0.000000 0.000000 0.000000 0.076384 0.000000 -0.004034
# 5 -0.002846 0.000171 0.001624 0.000000 0.040659 0.000000
# 6 0.000000 0.000000 0.000000 -0.004034 0.000000 0.061363
#
#
# Mechanical properties :
#
#
# Convention : Reuss Voigt Hill
#
# Bulk Modulus (GPa) = 50.23398 66.58086 58.40742
# Shear Modulus (GPa) = 20.50165 26.01700 23.25932
#
# Velocity S-wave (km/s) = 3.34623 3.76955 3.56418
# Velocity P-wave (km/s) = 6.50889 7.43707 6.98841
#
# Compressibility (1/GPa) = 0.01990684
#
# Stress axis : x y z
#
# Youngs Moduli (GPa) = 108.00598 46.15351 118.36719
#
# Poissons Ratio (x) = 0.20206 0.34603
# Poissons Ratio (y) = 0.47286 0.28788
# Poissons Ratio (z) = 0.31574 0.11225
#
# Static dielectric constant tensor:
#      x y z
#    x 3.709290 0.000000 0.265860 
#    y 0.000000 3.270230 0.000000 
#    z 0.265860 0.000000 3.359460 
# 
# 
# High freq. dielectric constant tensor:
#      x y z
#    x 1.729230 0.000000 0.012160 
#    y 0.000000 1.681320 0.000000 
#    z 0.012160 0.000000 1.713060 
# 
# From -- ./inp_files/134792.got.cif
#   From: 2010.06.25/outbox.cif.g09.slc.cpg/sg12_68_cif.got.tgz:134792.got - 2010.06.28 00:19:55.
