data_PCOD8083643
_publ_section_title
;
Structure prediction by ZEFSAII (Michael W. Deem and Ramdas Pophale) SiO2 
 PCOD8083643
Probable space group: C 2/M
;
_chemical_formula_sum "Si O2"
_cell_formula_units_Z 56
_cell_length_a 25.146441
_cell_length_b 25.471627
_cell_length_c 15.528854
_cell_angle_alpha 90.000000
_cell_angle_beta 162.076910
_cell_angle_gamma 90.000000
_cell_volume 3060.953176
_symmetry_space_group_name_H-M "C 2/M"
_symmetry_group_IT_number 12
_symmetry_cell_setting 'monoclinic'
loop_
_space_group_symop_operation_xyz
x,y,z
-x,y,-z
-x,-y,-z
x,-y,z
1/2+x,1/2+y,z
1/2-x,1/2+y,-z
1/2-x,1/2-y,-z
1/2+x,1/2-y,z
loop_
_atom_site_type_symbol
_atom_site_label
_atom_site_fract_x
_atom_site_fract_y
_atom_site_fract_z
Si Si1 0.146621 0.897536 0.793242
Si Si2 0.400273 0.442844 0.548931
Si Si3 0.897046 0.557156 0.045705
Si Si4 0.861569 0.689438 0.223138
Si Si5 0.218658 0.839731 0.568045
Si Si6 0.480114 0.160269 0.829501
Si Si7 0.049198 0.750000 0.799198
O O1 0.286932 0.933073 0.961957
O O2 0.000000 0.876847 0.500000
O O3 0.063117 0.933074 0.738140
O O4 0.241101 0.848596 0.982204
O O5 0.426241 0.500000 0.634327
O O6 0.226817 0.444838 0.226816
O O7 0.383108 0.395608 0.591439
O O8 0.989932 0.500000 0.198018
O O9 0.033556 0.604392 0.241888
O O10 0.973901 0.725178 0.331075
O O11 0.000000 0.660967 0.500000
O O12 0.740447 0.725179 0.097620
O O13 0.297001 0.828789 0.594003
O O14 0.092033 0.794134 0.401447
O O15 0.369278 0.842877 0.869278
O O16 0.526795 0.205866 0.836208
#
# Coordination Sequence:
#
# PCOD8083643 Si02
#       7
#     8   8   8   8   8   8   8
#     4  10  18  33  55  80 110 142 175 220 275 327
#     4   9  17  30  51  79 107 136 173 219 271 324
#     4   9  17  30  51  79 107 136 173 219 271 324
#     4  11  23  34  54  82 107 142 183 224 270 323
#     4  10  20  33  51  77 107 139 178 223 266 312
#     4  10  20  33  51  77 107 139 178 223 266 312
#     4  11  21  36  52  72 107 147 178 220 268 327
#
# _framework density 18.294955000000002
#
# number of rings (size 3 to 8) (size 9 to 14) (size 15 to 20)
#    0.000    2.000    2.857    1.714    0.000    4.571 
#    0.000    2.857    0.000    1.714    0.000    0.000 
#    0.000    2.286    0.000    0.000    0.000    0.000 
#
# Total GULP energy -346992.100384 kJ/mol
# GULP energy per Si atom -12392.575014 kJ/mol
# Density = 1.825332 g / cm^3
# Si number density = 18.294955 Si / 1000 Ang^3
#
#
#
# Elastic Constant Matrix: (Units=GPa)
#
#
# Indices 1 2 3 4 5 6 
#
# 1 97.8862 53.4649 32.6225 0.0000 30.8373 0.0000
# 2 53.4649 149.3845 30.3920 0.0000 13.4607 0.0000
# 3 32.6225 30.3920 44.5402 -0.0002 0.2849 -0.0001
# 4 0.0000 0.0000 -0.0002 19.6578 0.0000 -4.2434
# 5 30.8373 13.4607 0.2849 0.0000 24.0305 0.0000
# 6 0.0000 0.0000 -0.0001 -4.2434 0.0000 12.3863
#
#
#
# Elastic Compliance Matrix: (Units=1/GPa)
#
#
# Indices 1 2 3 4 5 6 
#
# 1 0.030060 -0.003542 -0.019367 0.000000 -0.036361 0.000000
# 2 -0.003542 0.008660 -0.003313 0.000000 -0.000266 0.000000
# 3 -0.019367 -0.003313 0.038730 0.000001 0.026250 0.000001
# 4 0.000000 0.000000 0.000001 0.054933 0.000000 0.018819
# 5 -0.036361 -0.000266 0.026250 0.000000 0.088112 0.000001
# 6 0.000000 0.000000 0.000001 0.018819 0.000001 0.087182
#
#
# Mechanical properties :
#
#
# Convention : Reuss Voigt Hill
#
# Bulk Modulus (GPa) = 39.99261 58.30776 49.15019
# Shear Modulus (GPa) = 13.57017 22.90369 18.23693
#
# Velocity S-wave (km/s) = 2.72645 3.54208 3.16068
# Velocity P-wave (km/s) = 5.64081 6.97629 6.34379
#
# Compressibility (1/GPa) = 0.02500462
#
# Stress axis : x y z
#
# Youngs Moduli (GPa) = 33.26703 115.47578 25.82005
#
# Poissons Ratio (x) = 0.40899 0.50006
# Poissons Ratio (y) = 0.11783 0.08555
# Poissons Ratio (z) = 0.64429 0.38259
#
# Static dielectric constant tensor:
#      x y z
#    x 3.576250 0.000000 0.319300 
#    y 0.000000 3.721500 0.000000 
#    z 0.319300 0.000000 3.028980 
# 
# 
# High freq. dielectric constant tensor:
#      x y z
#    x 1.710350 0.000000 0.029490 
#    y 0.000000 1.721670 0.000000 
#    z 0.029490 0.000000 1.659810 
# 
# From -- ./inp_files/173973.got.cif
#   From: 2010.06.25/outbox.cif.g09.slc.cpg/sg12_87_cif.got.tgz:173973.got - 2010.06.28 00:19:55.
