data_PCOD8083380
_publ_section_title
;
Structure prediction by ZEFSAII (Michael W. Deem and Ramdas Pophale) SiO2 
 PCOD8083380
Probable space group: C 2/M
;
_chemical_formula_sum "Si O2"
_cell_formula_units_Z 64
_cell_length_a 18.643182
_cell_length_b 20.669642
_cell_length_c 9.242167
_cell_angle_alpha 90.000000
_cell_angle_beta 100.277099
_cell_angle_gamma 90.000000
_cell_volume 3504.311244
_symmetry_space_group_name_H-M "C 2/M"
_symmetry_group_IT_number 12
_symmetry_cell_setting 'monoclinic'
loop_
_space_group_symop_operation_xyz
x,y,z
-x,y,-z
-x,-y,-z
x,-y,z
1/2+x,1/2+y,z
1/2-x,1/2+y,-z
1/2-x,1/2-y,-z
1/2+x,1/2-y,z
loop_
_atom_site_type_symbol
_atom_site_label
_atom_site_fract_x
_atom_site_fract_y
_atom_site_fract_z
Si Si1 0.669274 0.745757 0.284603
Si Si2 0.596679 0.805272 0.850046
Si Si3 0.702809 0.576047 0.039022
Si Si4 0.679874 0.129116 0.125652
Si Si5 0.368451 0.925879 0.595443
Si Si6 0.214157 0.645524 0.673869
Si Si7 0.914519 0.822621 0.986439
Si Si8 0.960178 0.687364 0.622707
O O1 0.705057 0.801222 0.196584
O O2 0.734954 0.702913 0.371791
O O3 0.614704 0.699636 0.178598
O O4 0.618931 0.778692 0.388959
O O5 0.643552 0.821917 0.723982
O O6 0.510567 0.810112 0.783250
O O7 0.616602 0.856249 0.984076
O O8 0.608324 0.731285 0.903472
O O9 0.689824 0.500000 0.048494
O O10 0.742038 0.602792 0.195530
O O11 0.624762 0.610211 0.985463
O O12 0.752424 0.591983 0.918730
O O13 0.649985 0.083871 0.242215
O O14 0.304657 0.899917 0.467705
O O15 0.442954 0.887939 0.585513
O O16 0.382280 0.000000 0.566235
O O17 0.000000 0.834929 0.000000
O O18 0.000000 0.719635 0.500000
#
# Coordination Sequence:
#
# PCOD8083380 Si02
#       8
#     8   8   8   8   8   8   8   8
#     4   9  19  34  56  82 106 136 181 223 274 312
#     4  10  19  37  57  80 109 139 176 222 279 312
#     4  10  20  35  54  79 108 143 183 218 261 319
#     4   9  20  35  57  77 106 141 178 226 264 313
#     4  11  23  37  53  77 111 146 182 217 261 315
#     4  10  20  37  56  79 106 143 182 224 265 313
#     4  10  18  32  57  79 108 140 172 223 272 321
#     4  11  21  36  54  83 111 141 173 225 267 324
#
# _framework density 18.263217000000001
#
# number of rings (size 3 to 8) (size 9 to 14) (size 15 to 20)
#    0.000    2.000    2.500    1.500    0.000    5.500 
#    2.250    1.875    0.000    0.000    0.000    0.000 
#    0.000    8.000    0.000    0.000    0.000    0.000 
#
# Total GULP energy -396685.885619 kJ/mol
# GULP energy per Si atom -12396.433926 kJ/mol
# Density = 1.822165 g / cm^3
# Si number density = 18.263217 Si / 1000 Ang^3
#
#
#
# Elastic Constant Matrix: (Units=GPa)
#
#
# Indices 1 2 3 4 5 6 
#
# 1 81.5253 39.9998 21.5154 0.0000 -7.0995 0.0000
# 2 39.9998 109.8870 20.4564 0.0000 -3.7397 0.0000
# 3 21.5154 20.4564 71.0208 0.0000 -11.9156 0.0000
# 4 0.0000 0.0000 0.0000 19.9207 0.0000 2.7172
# 5 -7.0995 -3.7397 -11.9156 0.0000 26.6341 0.0000
# 6 0.0000 0.0000 0.0000 2.7172 0.0000 22.1944
#
#
#
# Elastic Compliance Matrix: (Units=1/GPa)
#
#
# Indices 1 2 3 4 5 6 
#
# 1 0.015735 -0.005108 -0.002932 0.000000 0.002165 0.000000
# 2 -0.005108 0.011274 -0.001798 0.000000 -0.000583 0.000000
# 3 -0.002932 -0.001798 0.016556 0.000000 0.006373 0.000000
# 4 0.000000 0.000000 0.000000 0.051052 0.000000 -0.006250
# 5 0.002165 -0.000583 0.006373 0.000000 0.040892 0.000000
# 6 0.000000 0.000000 0.000000 -0.006250 0.000000 0.045822
#
#
# Mechanical properties :
#
#
# Convention : Reuss Voigt Hill
#
# Bulk Modulus (GPa) = 41.86047 47.37513 44.61780
# Shear Modulus (GPa) = 23.92698 25.78062 24.85380
#
# Velocity S-wave (km/s) = 3.62348 3.76122 3.69299
# Velocity P-wave (km/s) = 6.36212 6.69768 6.53205
#
# Compressibility (1/GPa) = 0.02388889
#
# Stress axis : x y z
#
# Youngs Moduli (GPa) = 63.55364 88.69606 60.40221
#
# Poissons Ratio (x) = 0.45306 0.17711
# Poissons Ratio (y) = 0.32463 0.10859
# Poissons Ratio (z) = 0.18635 0.15945
#
# Static dielectric constant tensor:
#      x y z
#    x 3.371140 0.000000 0.049620 
#    y 0.000000 3.298240 0.000000 
#    z 0.049620 0.000000 3.353190 
# 
# 
# High freq. dielectric constant tensor:
#      x y z
#    x 1.705740 0.000000 0.003140 
#    y 0.000000 1.692610 0.000000 
#    z 0.003140 0.000000 1.711550 
# 
# From -- ./inp_files/77500.got.cif
#   From: 2010.06.25/outbox.cif.g09.slc.cpg/sg12_39_cif.got.tgz:77500.got - 2010.06.28 00:19:55.
