data_PCOD8083659
_publ_section_title
;
Structure prediction by ZEFSAII (Michael W. Deem and Ramdas Pophale) SiO2 
 PCOD8083659
Probable space group: C 2/M
;
_chemical_formula_sum "Si O2"
_cell_formula_units_Z 64
_cell_length_a 33.397429
_cell_length_b 8.701366
_cell_length_c 15.491520
_cell_angle_alpha 90.000000
_cell_angle_beta 134.957841
_cell_angle_gamma 90.000000
_cell_volume 3185.655659
_symmetry_space_group_name_H-M "C 2/M"
_symmetry_group_IT_number 12
_symmetry_cell_setting 'monoclinic'
loop_
_space_group_symop_operation_xyz
x,y,z
-x,y,-z
-x,-y,-z
x,-y,z
1/2+x,1/2+y,z
1/2-x,1/2+y,-z
1/2-x,1/2-y,-z
1/2+x,1/2-y,z
loop_
_atom_site_type_symbol
_atom_site_label
_atom_site_fract_x
_atom_site_fract_y
_atom_site_fract_z
Si Si1 0.763186 0.174606 0.897093
Si Si2 0.432931 0.677737 0.727615
Si Si3 0.753517 0.172318 0.684242
Si Si4 0.130972 0.816121 0.201353
Si Si5 0.124691 0.319451 0.865327
Si Si6 0.564381 0.322148 0.933177
Si Si7 0.641218 0.681550 0.718106
Si Si8 0.369808 0.817958 0.478260
O O1 0.777085 0.174762 0.817176
O O2 0.704482 0.256932 0.826331
O O3 0.761048 0.000000 0.928893
O O4 0.811485 0.268223 0.018581
O O5 0.418530 0.500000 0.688451
O O6 0.397170 0.744225 0.753650
O O7 0.498184 0.701400 0.848738
O O8 0.417312 0.774751 0.619353
O O9 0.804023 0.248368 0.704162
O O10 0.691598 0.252137 0.584522
O O11 0.745316 0.000000 0.638128
O O12 0.129904 0.000000 0.197374
O O13 0.095754 0.755193 0.065373
O O14 0.121983 0.500000 0.849592
O O15 0.082148 0.270314 0.875669
O O16 0.105207 0.240382 0.745636
O O17 0.579857 0.500000 0.941391
O O18 0.640630 0.500000 0.712987
O O19 0.613282 0.746629 0.588025
O O20 0.364812 0.000000 0.458176
#
# Coordination Sequence:
#
# PCOD8083659 Si02
#       8
#     8   8   8   8   8   8   8   8
#     4  10  18  33  55  83 120 156 188 228 282 342
#     4  10  21  36  59  86 111 148 198 243 286 341
#     4   8  15  29  54  83 112 148 187 227 277 331
#     4   9  16  32  59  88 114 144 189 241 289 339
#     4  12  23  35  54  84 117 151 191 234 286 346
#     4  10  20  37  59  84 114 150 192 242 292 338
#     4  11  22  37  58  84 114 149 191 238 284 338
#     4  10  21  38  57  80 116 157 194 234 283 341
#
# _framework density 20.090056000000001
#
# number of rings (size 3 to 8) (size 9 to 14) (size 15 to 20)
#    0.000    2.000    1.250    4.500    0.000    2.500 
#    0.000    1.250    0.000    5.250    0.000    0.000 
#    0.000    0.000    0.000    0.000    0.000    0.000 
#
# Total GULP energy -396754.407513 kJ/mol
# GULP energy per Si atom -12398.575235 kJ/mol
# Density = 2.004433 g / cm^3
# Si number density = 20.090056 Si / 1000 Ang^3
#
#
#
# Elastic Constant Matrix: (Units=GPa)
#
#
# Indices 1 2 3 4 5 6 
#
# 1 70.7597 18.7205 9.1940 0.0000 -23.1015 0.0000
# 2 18.7205 140.8868 57.0933 0.0000 -27.3270 0.0000
# 3 9.1940 57.0933 94.6011 0.0000 -25.9985 0.0000
# 4 0.0000 0.0000 0.0000 24.4077 0.0000 -0.1032
# 5 -23.1015 -27.3270 -25.9985 0.0000 30.1716 0.0000
# 6 0.0000 0.0000 0.0000 -0.1032 0.0000 23.1090
#
#
#
# Elastic Compliance Matrix: (Units=1/GPa)
#
#
# Indices 1 2 3 4 5 6 
#
# 1 0.019453 -0.000537 0.003136 0.000000 0.017111 0.000000
# 2 -0.000537 0.009960 -0.004707 0.000000 0.004554 0.000000
# 3 0.003136 -0.004707 0.016503 0.000000 0.012358 0.000000
# 4 0.000000 0.000000 0.000000 0.040972 0.000000 0.000183
# 5 0.017111 0.004554 0.012358 0.000000 0.061018 0.000000
# 6 0.000000 0.000000 0.000000 0.000183 0.000000 0.043274
#
#
# Mechanical properties :
#
#
# Convention : Reuss Voigt Hill
#
# Bulk Modulus (GPa) = 23.98104 52.91812 38.44958
# Shear Modulus (GPa) = 23.88950 30.28697 27.08823
#
# Velocity S-wave (km/s) = 3.45210 3.88694 3.67596
# Velocity P-wave (km/s) = 5.27750 6.82218 6.09894
#
# Compressibility (1/GPa) = 0.04169960
#
# Stress axis : x y z
#
# Youngs Moduli (GPa) = 51.40549 100.40003 60.59416
#
# Poissons Ratio (x) = 0.05389 -0.19001
# Poissons Ratio (y) = 0.02759 0.28525
# Poissons Ratio (z) = -0.16119 0.47263
#
# Static dielectric constant tensor:
#      x y z
#    x 3.902420 0.000000 -0.136590 
#    y 0.000000 3.369710 0.000000 
#    z -0.136590 0.000000 3.530810 
# 
# 
# High freq. dielectric constant tensor:
#      x y z
#    x 1.791730 0.000000 -0.010160 
#    y 0.000000 1.757230 0.000000 
#    z -0.010160 0.000000 1.773340 
# 
# From -- ./inp_files/250042.got.cif
#   From: 2010.06.25/outbox.cif.g09.slc.cpg/sg12_126_cif.got.tgz:250042.got - 2010.06.28 00:19:55.
