data_PCOD8083943
_publ_section_title
;
Structure prediction by ZEFSAII (Michael W. Deem and Ramdas Pophale) SiO2 
 PCOD8083943
Probable space group: C 2/M
;
_chemical_formula_sum "Si O2"
_cell_formula_units_Z 44
_cell_length_a 23.356435
_cell_length_b 13.661656
_cell_length_c 11.689927
_cell_angle_alpha 90.000000
_cell_angle_beta 45.167218
_cell_angle_gamma 90.000000
_cell_volume 2645.273008
_symmetry_space_group_name_H-M "C 2/M"
_symmetry_group_IT_number 12
_symmetry_cell_setting 'monoclinic'
loop_
_space_group_symop_operation_xyz
x,y,z
-x,y,-z
-x,-y,-z
x,-y,z
1/2+x,1/2+y,z
1/2-x,1/2+y,-z
1/2-x,1/2-y,-z
1/2+x,1/2-y,z
loop_
_atom_site_type_symbol
_atom_site_label
_atom_site_fract_x
_atom_site_fract_y
_atom_site_fract_z
Si Si1 0.092311 0.000000 0.908357
Si Si2 0.572717 0.500000 0.196609
Si Si3 0.959893 0.832542 0.443082
Si Si4 0.429586 0.000000 0.193256
Si Si5 0.251806 0.000000 0.371250
Si Si6 0.873290 0.684664 0.397499
Si Si7 0.700030 0.646194 0.629537
Si Si8 0.151250 0.000000 0.312153
O O1 0.135298 0.904399 0.800820
O O2 0.106192 0.000000 0.023220
O O3 0.000000 0.000000 0.000000
O O4 0.521458 0.400937 0.285872
O O5 0.649184 0.500000 0.176999
O O6 0.926243 0.745584 0.412216
O O7 0.890211 0.902245 0.585167
O O8 0.000000 0.784653 0.500000
O O9 0.430857 0.902984 0.271456
O O10 0.347076 0.000000 0.240423
O O11 0.500000 0.000000 0.000000
O O12 0.211383 0.093220 0.490780
O O13 0.237257 0.000000 0.254430
O O14 0.787617 0.646266 0.571389
O O15 0.839791 0.748320 0.337542
#
# Coordination Sequence:
#
# PCOD8083943 Si02
#       8
#     4   4   8   4   4   8   8   4
#     4  11  20  30  49  78 114 127 150 203 266 314
#     4   9  19  29  48  87 109 124 143 200 272 308
#     4   9  17  30  54  79  98 124 165 208 245 290
#     4  10  23  34  46  70 102 133 167 209 244 285
#     4   9  15  32  56  76  95 123 165 204 249 298
#     4  10  18  34  52  70  97 129 178 207 235 288
#     4   9  19  30  52  79  94 131 163 204 254 290
#     4   9  15  29  55  79 104 122 157 204 251 308
#
# _framework density 16.633444000000001
#
# number of rings (size 3 to 8) (size 9 to 14) (size 15 to 20)
#    0.000    2.545    1.818    2.727    2.545    2.182 
#    0.000    0.455    4.000    2.182    0.000    0.000 
#    0.000    0.000    0.000    0.000    0.000    0.000 
#
# Total GULP energy -272538.849862 kJ/mol
# GULP energy per Si atom -12388.129539 kJ/mol
# Density = 1.659559 g / cm^3
# Si number density = 16.633444 Si / 1000 Ang^3
#
#
#
# Elastic Constant Matrix: (Units=GPa)
#
#
# Indices 1 2 3 4 5 6 
#
# 1 134.5632 45.0922 47.5156 0.0000 6.2510 0.0000
# 2 45.0922 104.1384 41.8031 0.0000 1.4826 0.0000
# 3 47.5156 41.8031 100.8167 0.0000 3.8450 0.0000
# 4 0.0000 0.0000 0.0000 19.6354 0.0000 -2.8520
# 5 6.2510 1.4826 3.8450 0.0000 17.0333 0.0000
# 6 0.0000 0.0000 0.0000 -2.8520 0.0000 32.6536
#
#
#
# Elastic Compliance Matrix: (Units=1/GPa)
#
#
# Indices 1 2 3 4 5 6 
#
# 1 0.009656 -0.002828 -0.003281 0.000000 -0.002557 0.000000
# 2 -0.002828 0.012348 -0.003819 0.000000 0.000825 0.000000
# 3 -0.003281 -0.003819 0.013103 0.000000 -0.001421 0.000000
# 4 0.000000 0.000000 0.000000 0.051583 0.000000 0.004505
# 5 -0.002557 0.000825 -0.001421 0.000000 0.059896 0.000000
# 6 0.000000 0.000000 0.000000 0.004505 0.000000 0.031018
#
#
# Mechanical properties :
#
#
# Convention : Reuss Voigt Hill
#
# Bulk Modulus (GPa) = 65.56386 67.59334 66.57860
# Shear Modulus (GPa) = 24.68597 27.53827 26.11212
#
# Velocity S-wave (km/s) = 3.85660 4.07332 3.96644
# Velocity P-wave (km/s) = 7.70283 7.92766 7.81605
#
# Compressibility (1/GPa) = 0.01525231
#
# Stress axis : x y z
#
# Youngs Moduli (GPa) = 103.55819 80.98314 76.31800
#
# Poissons Ratio (x) = 0.22900 0.25041
# Poissons Ratio (y) = 0.29284 0.29145
# Poissons Ratio (z) = 0.33978 0.30926
#
# Static dielectric constant tensor:
#      x y z
#    x 3.288070 0.000000 -0.098880 
#    y 0.000000 3.225750 0.000000 
#    z -0.098880 0.000000 2.887000 
# 
# 
# High freq. dielectric constant tensor:
#      x y z
#    x 1.638830 0.000000 -0.009510 
#    y 0.000000 1.643960 0.000000 
#    z -0.009510 0.000000 1.609080 
# 
# From -- ./inp_files/167104.got.cif
#   From: 2010.06.25/outbox.cif.g09.slc.cpg/sg12_84_cif.got.tgz:167104.got - 2010.06.28 00:19:55.
