data_PCOD8083374
_publ_section_title
;
Structure prediction by ZEFSAII (Michael W. Deem and Ramdas Pophale) SiO2 
 PCOD8083374
Probable space group: C 2/M
;
_chemical_formula_sum "Si O2"
_cell_formula_units_Z 60
_cell_length_a 14.219635
_cell_length_b 9.431280
_cell_length_c 23.965662
_cell_angle_alpha 90.000000
_cell_angle_beta 71.489775
_cell_angle_gamma 90.000000
_cell_volume 3047.748743
_symmetry_space_group_name_H-M "C 2/M"
_symmetry_group_IT_number 12
_symmetry_cell_setting 'monoclinic'
loop_
_space_group_symop_operation_xyz
x,y,z
-x,y,-z
-x,-y,-z
x,-y,z
1/2+x,1/2+y,z
1/2-x,1/2+y,-z
1/2-x,1/2-y,-z
1/2+x,1/2-y,z
loop_
_atom_site_type_symbol
_atom_site_label
_atom_site_fract_x
_atom_site_fract_y
_atom_site_fract_z
Si Si1 0.308825 0.840203 0.598799
Si Si2 0.639283 0.661461 0.889331
Si Si3 0.898504 0.161029 0.410382
Si Si4 0.150061 0.659001 0.204885
Si Si5 0.500000 0.237500 0.500000
Si Si6 0.517166 0.157199 0.124382
Si Si7 0.339854 0.161604 0.006101
Si Si8 0.900976 0.830231 0.678607
O O1 0.212711 0.776966 0.581887
O O2 0.411045 0.852599 0.544078
O O3 0.325125 0.735286 0.647658
O O4 0.286893 0.000000 0.624140
O O5 0.619249 0.500000 0.911870
O O6 0.741143 0.677334 0.838734
O O7 0.561603 0.716558 0.858456
O O8 0.624243 0.764962 0.944348
O O9 0.938459 0.171500 0.466241
O O10 0.986023 0.223924 0.354491
O O11 0.886179 0.000000 0.397257
O O12 0.133250 0.500000 0.232005
O O13 0.083704 0.690350 0.164466
O O14 0.129131 0.775846 0.255243
O O15 0.469380 0.000000 0.138720
O O16 0.575152 0.164571 0.055522
O O17 0.307308 0.000000 0.024811
O O18 0.250000 0.250000 0.000000
O O19 0.892264 0.000000 0.676930
#
# Coordination Sequence:
#
# PCOD8083374 Si02
#       8
#     8   8   8   8   4   8   8   8
#     4  10  20  36  57  84 118 154 188 229 282 334
#     4  11  23  39  59  87 116 149 192 235 288 353
#     4   9  19  35  56  82 117 154 187 230 283 332
#     4  10  22  42  61  80 114 151 186 237 295 343
#     4  10  18  32  56  90 119 150 191 232 271 332
#     4  10  22  40  59  84 117 152 188 233 292 348
#     4  11  21  37  60  85 118 154 189 234 289 349
#     4  10  22  39  58  82 109 145 196 240 280 335
#
# _framework density 19.686661000000001
#
# number of rings (size 3 to 8) (size 9 to 14) (size 15 to 20)
#    0.000    1.867    1.333    2.400    0.000    5.867 
#    0.000    8.000    0.000    0.000    0.000    0.000 
#    0.000    0.000    0.000    0.000    0.000    0.000 
#
# Total GULP energy -371725.721199 kJ/mol
# GULP energy per Si atom -12390.857373 kJ/mol
# Density = 1.964185 g / cm^3
# Si number density = 19.686661 Si / 1000 Ang^3
#
#
#
# Elastic Constant Matrix: (Units=GPa)
#
#
# Indices 1 2 3 4 5 6 
#
# 1 152.8644 64.2433 50.4219 0.0000 7.9200 0.0000
# 2 64.2433 118.0859 53.9415 0.0000 4.0403 0.0000
# 3 50.4219 53.9415 94.2110 0.0000 24.1308 0.0000
# 4 0.0000 0.0000 0.0000 33.7128 0.0000 -12.4020
# 5 7.9200 4.0403 24.1308 0.0000 14.3971 0.0000
# 6 0.0000 0.0000 0.0000 -12.4020 0.0000 178.2141
#
#
#
# Elastic Compliance Matrix: (Units=1/GPa)
#
#
# Indices 1 2 3 4 5 6 
#
# 1 0.008978 -0.003497 -0.003136 0.000000 0.001298 0.000000
# 2 -0.003497 0.014595 -0.010388 0.000000 0.015240 0.000000
# 3 -0.003136 -0.010388 0.029880 0.000000 -0.045441 0.000000
# 4 0.000000 0.000000 0.000000 0.030442 0.000000 0.002118
# 5 0.001298 0.015240 -0.045441 0.000000 0.140631 0.000000
# 6 0.000000 0.000000 0.000000 0.002118 0.000000 0.005759
#
#
# Mechanical properties :
#
#
# Convention : Reuss Voigt Hill
#
# Bulk Modulus (GPa) = 51.51590 78.04164 64.77877
# Shear Modulus (GPa) = 18.46415 58.36843 38.41629
#
# Velocity S-wave (km/s) = 3.06584 5.45097 4.42224
# Velocity P-wave (km/s) = 6.22553 8.90760 7.68449
#
# Compressibility (1/GPa) = 0.01941148
#
# Stress axis : x y z
#
# Youngs Moduli (GPa) = 111.38019 68.51813 33.46769
#
# Poissons Ratio (x) = 0.23958 0.10494
# Poissons Ratio (y) = 0.38945 0.34767
# Poissons Ratio (z) = 0.34924 0.71179
#
# Static dielectric constant tensor:
#      x y z
#    x 4.013800 0.000000 0.025630 
#    y 0.000000 13.053460 0.000000 
#    z 0.025630 0.000000 3.428950 
# 
# 
# High freq. dielectric constant tensor:
#      x y z
#    x 1.783480 0.000000 0.004160 
#    y 0.000000 1.763050 0.000000 
#    z 0.004160 0.000000 1.758840 
# 
# From -- ./inp_files/338632.got.cif
#   From: 2010.06.25/outbox.cif.g09.slc.cpg/sg12_170_cif.got.tgz:338632.got - 2010.06.28 00:19:55.
