data_PCOD8083559
_publ_section_title
;
Structure prediction by ZEFSAII (Michael W. Deem and Ramdas Pophale) SiO2 
 PCOD8083559
Probable space group: C 2/M
;
_chemical_formula_sum "Si O2"
_cell_formula_units_Z 48
_cell_length_a 10.342671
_cell_length_b 27.648247
_cell_length_c 9.092931
_cell_angle_alpha 90.000000
_cell_angle_beta 120.141297
_cell_angle_gamma 90.000000
_cell_volume 2248.613046
_symmetry_space_group_name_H-M "C 2/M"
_symmetry_group_IT_number 12
_symmetry_cell_setting 'monoclinic'
loop_
_space_group_symop_operation_xyz
x,y,z
-x,y,-z
-x,-y,-z
x,-y,z
1/2+x,1/2+y,z
1/2-x,1/2+y,-z
1/2-x,1/2-y,-z
1/2+x,1/2-y,z
loop_
_atom_site_type_symbol
_atom_site_label
_atom_site_fract_x
_atom_site_fract_y
_atom_site_fract_z
Si Si1 0.222821 0.352891 0.351531
Si Si2 0.836152 0.359043 0.361832
Si Si3 0.926425 0.291627 0.175963
Si Si4 0.354141 0.406524 0.985823
Si Si5 0.331581 0.054388 0.856353
Si Si6 0.640607 0.313020 0.837482
O O1 0.263930 0.351263 0.548227
O O2 0.206038 0.408861 0.295708
O O3 0.355922 0.329438 0.331573
O O4 0.072258 0.323261 0.233162
O O5 0.850532 0.307451 0.287358
O O6 0.764559 0.398166 0.212226
O O7 0.000000 0.379020 0.500000
O O8 0.963426 0.234269 0.203730
O O9 0.813135 0.301245 0.977647
O O10 0.500000 0.432844 0.000000
O O11 0.276901 0.438719 0.065739
O O12 0.416520 0.356103 0.090786
O O13 0.309707 0.000000 0.784219
O O14 0.500000 0.064204 0.000000
#
# Coordination Sequence:
#
# PCOD8083559 Si02
#       6
#     8   8   8   8   8   8
#     4  10  18  33  53  76 111 145 186 240 282 326
#     4   9  18  33  55  80 113 151 188 234 286 332
#     4   9  17  29  48  74 105 145 190 226 267 327
#     4  10  21  38  58  83 116 149 187 236 287 339
#     4  10  20  37  62  86 110 150 198 236 280 343
#     4   9  18  30  48  74 106 148 185 219 271 336
#
# _framework density 21.346491
#
# number of rings (size 3 to 8) (size 9 to 14) (size 15 to 20)
#    0.000    2.500    0.000    4.500    0.000    5.000 
#    0.000    7.500    0.000    8.000    0.000    0.000 
#    0.000    0.000    0.000    0.000    0.000    0.000 
#
# Total GULP energy -297518.171473 kJ/mol
# GULP energy per Si atom -12396.590478 kJ/mol
# Density = 2.129791 g / cm^3
# Si number density = 21.346491 Si / 1000 Ang^3
#
#
#
# Elastic Constant Matrix: (Units=GPa)
#
#
# Indices 1 2 3 4 5 6 
#
# 1 79.7481 16.9826 18.2379 0.0000 -25.3303 0.0000
# 2 16.9826 99.9709 15.6701 0.0000 -6.4414 0.0000
# 3 18.2379 15.6701 86.9146 0.0000 -27.2460 0.0000
# 4 0.0000 0.0000 0.0000 10.4794 0.0000 -5.2453
# 5 -25.3303 -6.4414 -27.2460 0.0000 37.6159 0.0000
# 6 0.0000 0.0000 0.0000 -5.2453 0.0000 6.2464
#
#
#
# Elastic Compliance Matrix: (Units=1/GPa)
#
#
# Indices 1 2 3 4 5 6 
#
# 1 0.016383 -0.002137 0.000377 0.000000 0.010939 0.000000
# 2 -0.002137 0.010581 -0.001737 0.000000 -0.000885 0.000000
# 3 0.000377 -0.001737 0.015171 0.000000 0.010945 0.000000
# 4 0.000000 0.000000 0.000000 0.164617 0.000000 0.138236
# 5 0.010939 -0.000885 0.010945 0.000000 0.041727 0.000000
# 6 0.000000 0.000000 0.000000 0.138236 0.000000 0.276176
#
#
# Mechanical properties :
#
#
# Convention : Reuss Voigt Hill
#
# Bulk Modulus (GPa) = 28.45746 40.93499 34.69622
# Shear Modulus (GPa) = 9.20196 25.25121 17.22659
#
# Velocity S-wave (km/s) = 2.07849 3.44309 2.84385
# Velocity P-wave (km/s) = 4.37268 5.91816 5.20312
#
# Compressibility (1/GPa) = 0.03514017
#
# Stress axis : x y z
#
# Youngs Moduli (GPa) = 61.03876 94.50750 65.91726
#
# Poissons Ratio (x) = 0.20199 -0.02483
# Poissons Ratio (y) = 0.13046 0.11448
# Poissons Ratio (z) = -0.02300 0.16413
#
# Static dielectric constant tensor:
#      x y z
#    x 3.775120 0.000000 -0.306860 
#    y 0.000000 3.640510 0.000000 
#    z -0.306860 0.000000 3.817940 
# 
# 
# High freq. dielectric constant tensor:
#      x y z
#    x 1.837830 0.000000 -0.020540 
#    y 0.000000 1.808560 0.000000 
#    z -0.020540 0.000000 1.829770 
# 
# From -- ./inp_files/52437.got.cif
#   From: 2010.06.25/outbox.cif.g09.slc.cpg/sg12_27_cif.got.tgz:52437.got - 2010.06.28 00:19:55.
