data_PCOD8083190
_publ_section_title
;
Structure prediction by ZEFSAII (Michael W. Deem and Ramdas Pophale) SiO2 
 PCOD8083190
Probable space group: C 2/M
;
_chemical_formula_sum "Si O2"
_cell_formula_units_Z 64
_cell_length_a 9.274742
_cell_length_b 19.242464
_cell_length_c 24.116129
_cell_angle_alpha 90.000000
_cell_angle_beta 51.542681
_cell_angle_gamma 90.000000
_cell_volume 3370.323810
_symmetry_space_group_name_H-M "C 2/M"
_symmetry_group_IT_number 12
_symmetry_cell_setting 'monoclinic'
loop_
_space_group_symop_operation_xyz
x,y,z
-x,y,-z
-x,-y,-z
x,-y,z
1/2+x,1/2+y,z
1/2-x,1/2+y,-z
1/2-x,1/2-y,-z
1/2+x,1/2-y,z
loop_
_atom_site_type_symbol
_atom_site_label
_atom_site_fract_x
_atom_site_fract_y
_atom_site_fract_z
Si Si1 0.002335 0.661372 0.863774
Si Si2 0.819109 0.681234 0.010996
Si Si3 0.666318 0.919292 0.729367
Si Si4 0.855493 0.794196 0.842734
Si Si5 0.695326 0.690539 0.685709
Si Si6 0.799974 0.922035 0.522175
Si Si7 0.909629 0.080073 0.372301
Si Si8 0.427732 0.825945 0.345788
O O1 0.075205 0.596700 0.810644
O O2 0.175652 0.703638 0.847044
O O3 0.888444 0.713971 0.851979
O O4 0.874031 0.631017 0.945646
O O5 0.673786 0.657694 0.093868
O O6 0.750000 0.750000 0.000000
O O7 0.000000 0.703040 0.000000
O O8 0.552448 0.880073 0.709156
O O9 0.878475 0.894235 0.676811
O O10 0.652264 0.000000 0.719948
O O11 0.026539 0.822462 0.767577
O O12 0.708076 0.623086 0.643856
O O13 0.678275 0.758287 0.651158
O O14 0.874404 0.698628 0.680584
O O15 0.812527 0.907285 0.454113
O O16 0.675761 0.862352 0.578442
O O17 0.000000 0.917186 0.500000
O O18 0.720302 0.000000 0.552144
O O19 0.902137 0.000000 0.356136
#
# Coordination Sequence:
#
# PCOD8083190 Si02
#       8
#     8   8   8   8   8   8   8   8
#     4  10  18  32  55  83 115 146 189 234 284 341
#     4   8  16  28  48  79 112 144 183 228 276 338
#     4  11  21  37  60  84 113 153 196 238 287 346
#     4  10  18  32  54  82 118 147 183 232 288 333
#     4  12  24  39  60  88 120 153 186 246 289 340
#     4  10  21  41  66  85 113 154 195 237 284 348
#     4  10  22  41  63  85 113 155 195 233 289 348
#     4  12  25  39  59  88 118 149 196 239 295 341
#
# _framework density 18.989273000000001
#
# number of rings (size 3 to 8) (size 9 to 14) (size 15 to 20)
#    0.000    1.625    3.750    1.875    0.000    2.000 
#    0.000    1.250    0.000    4.125    0.000    0.875 
#    0.000    0.000    0.000    0.000    0.000    0.000 
#
# Total GULP energy -396549.582463 kJ/mol
# GULP energy per Si atom -12392.174452 kJ/mol
# Density = 1.894605 g / cm^3
# Si number density = 18.989273 Si / 1000 Ang^3
#
#
#
# Elastic Constant Matrix: (Units=GPa)
#
#
# Indices 1 2 3 4 5 6 
#
# 1 82.6185 35.6988 12.9287 -0.0010 8.7483 0.0001
# 2 35.6988 73.5472 40.5193 -0.0006 7.9403 0.0003
# 3 12.9287 40.5193 127.3566 -0.0020 10.5775 0.0011
# 4 -0.0010 -0.0006 -0.0020 24.2908 0.0010 3.8199
# 5 8.7483 7.9403 10.5775 0.0010 23.8827 -0.0002
# 6 0.0001 0.0003 0.0011 3.8199 -0.0002 25.6091
#
#
#
# Elastic Compliance Matrix: (Units=1/GPa)
#
#
# Indices 1 2 3 4 5 6 
#
# 1 0.015718 -0.007908 0.001225 0.000001 -0.003671 0.000000
# 2 -0.007908 0.020716 -0.005665 0.000000 -0.001482 0.000000
# 3 0.001225 -0.005665 0.009770 0.000001 -0.002892 -0.000001
# 4 0.000001 0.000000 0.000001 0.042157 -0.000002 -0.006288
# 5 -0.003671 -0.001482 -0.002892 -0.000002 0.044990 0.000001
# 6 0.000000 0.000000 -0.000001 -0.006288 0.000001 0.039987
#
#
# Mechanical properties :
#
#
# Convention : Reuss Voigt Hill
#
# Bulk Modulus (GPa) = 46.49311 51.31287 48.90299
# Shear Modulus (GPa) = 24.36623 27.71490 26.04057
#
# Velocity S-wave (km/s) = 3.58601 3.82449 3.70717
# Velocity P-wave (km/s) = 6.45623 6.82517 6.64326
#
# Compressibility (1/GPa) = 0.02150856
#
# Stress axis : x y z
#
# Youngs Moduli (GPa) = 63.62248 48.27160 102.35189
#
# Poissons Ratio (x) = 0.38172 -0.12540
# Poissons Ratio (y) = 0.50312 0.57984
# Poissons Ratio (z) = -0.07795 0.27346
#
# Static dielectric constant tensor:
#      x y z
#    x 3.517730 0.000000 0.199820 
#    y 0.000000 3.205050 0.000000 
#    z 0.199820 0.000000 3.980670 
# 
# 
# High freq. dielectric constant tensor:
#      x y z
#    x 1.740670 0.000000 0.016210 
#    y 0.000000 1.699900 0.000000 
#    z 0.016210 0.000000 1.760140 
# 
# From -- ./inp_files/333727.got.cif
#   From: 2010.06.25/outbox.cif.g09.slc.cpg/sg12_167_cif.got.tgz:333727.got - 2010.06.28 00:19:55.
