data_PCOD8083379
_publ_section_title
;
Structure prediction by ZEFSAII (Michael W. Deem and Ramdas Pophale) SiO2 
 PCOD8083379
Probable space group: C 2/M
;
_chemical_formula_sum "Si O2"
_cell_formula_units_Z 56
_cell_length_a 19.044832
_cell_length_b 18.041331
_cell_length_c 11.180828
_cell_angle_alpha 90.000000
_cell_angle_beta 52.028890
_cell_angle_gamma 90.000000
_cell_volume 3028.466891
_symmetry_space_group_name_H-M "C 2/M"
_symmetry_group_IT_number 12
_symmetry_cell_setting 'monoclinic'
loop_
_space_group_symop_operation_xyz
x,y,z
-x,y,-z
-x,-y,-z
x,-y,z
1/2+x,1/2+y,z
1/2-x,1/2+y,-z
1/2-x,1/2-y,-z
1/2+x,1/2-y,z
loop_
_atom_site_type_symbol
_atom_site_label
_atom_site_fract_x
_atom_site_fract_y
_atom_site_fract_z
Si Si1 0.509763 0.810431 0.122697
Si Si2 0.062412 0.082247 0.539472
Si Si3 0.792714 0.728013 0.080072
Si Si4 0.389734 0.914136 0.364980
Si Si5 0.877862 0.196704 0.359751
Si Si6 0.782945 0.310288 0.622146
Si Si7 0.231727 0.416752 0.740060
O O1 0.487807 0.879474 0.234175
O O2 0.429952 0.752978 0.222163
O O3 0.500000 0.842708 0.000000
O O4 0.601183 0.766836 0.050644
O O5 0.052607 0.135966 0.663451
O O6 0.164786 0.081576 0.396726
O O7 0.000000 0.114259 0.500000
O O8 0.029064 0.000000 0.609228
O O9 0.747781 0.790115 0.212201
O O10 0.780831 0.643605 0.141242
O O11 0.750000 0.750000 0.000000
O O12 0.353448 0.876990 0.526842
O O13 0.324164 0.895921 0.321038
O O14 0.400757 0.000000 0.378603
O O15 0.825884 0.235548 0.523915
O O16 0.804244 0.159481 0.353932
O O17 0.202839 0.500000 0.813542
#
# Coordination Sequence:
#
# PCOD8083379 Si02
#       7
#     8   8   8   8   8   8   8
#     4  11  21  35  55  87 119 147 190 242 294 345
#     4  10  20  32  52  82 112 144 185 236 291 341
#     4  12  24  38  55  84 120 162 195 233 294 358
#     4  10  20  36  64  92 113 146 194 251 301 345
#     4  10  18  32  57  78 111 146 186 242 287 333
#     4  10  18  35  56  82 111 146 195 236 279 349
#     4  10  19  35  57  84 112 141 188 244 294 342
#
# _framework density 18.491204
#
# number of rings (size 3 to 8) (size 9 to 14) (size 15 to 20)
#    0.000    1.571    5.714    0.857    2.000    0.857 
#    0.000    2.857    0.000    2.143    0.000    0.000 
#    0.000    0.000    0.000    0.000    0.000    0.000 
#
# Total GULP energy -346893.767901 kJ/mol
# GULP energy per Si atom -12389.063139 kJ/mol
# Density = 1.844912 g / cm^3
# Si number density = 18.491204 Si / 1000 Ang^3
#
#
#
# Elastic Constant Matrix: (Units=GPa)
#
#
# Indices 1 2 3 4 5 6 
#
# 1 64.3670 22.3950 35.2591 0.0000 4.7464 0.0000
# 2 22.3950 100.0773 46.3067 0.0000 15.9414 0.0000
# 3 35.2591 46.3067 107.6342 0.0000 -0.6192 0.0000
# 4 0.0000 0.0000 0.0000 20.5109 0.0000 4.1304
# 5 4.7464 15.9414 -0.6192 0.0000 26.5863 0.0000
# 6 0.0000 0.0000 0.0000 4.1304 0.0000 24.5109
#
#
#
# Elastic Compliance Matrix: (Units=1/GPa)
#
#
# Indices 1 2 3 4 5 6 
#
# 1 0.019364 -0.001160 -0.005861 0.000000 -0.002898 0.000000
# 2 -0.001160 0.014300 -0.005821 0.000000 -0.008503 0.000000
# 3 -0.005861 -0.005821 0.013743 0.000000 0.004857 0.000000
# 4 0.000000 0.000000 0.000000 0.050467 0.000000 -0.008504
# 5 -0.002898 -0.008503 0.004857 0.000000 0.043342 0.000000
# 6 0.000000 0.000000 0.000000 -0.008504 0.000000 0.042231
#
#
# Mechanical properties :
#
#
# Convention : Reuss Voigt Hill
#
# Bulk Modulus (GPa) = 46.03423 53.33336 49.68380
# Shear Modulus (GPa) = 23.10845 25.52946 24.31895
#
# Velocity S-wave (km/s) = 3.53894 3.71971 3.63045
# Velocity P-wave (km/s) = 6.45353 6.88139 6.67089
#
# Compressibility (1/GPa) = 0.02172296
#
# Stress axis : x y z
#
# Youngs Moduli (GPa) = 51.64326 69.93178 72.76431
#
# Poissons Ratio (x) = 0.08109 0.42647
# Poissons Ratio (y) = 0.05988 0.42357
# Poissons Ratio (z) = 0.30268 0.40708
#
# Static dielectric constant tensor:
#      x y z
#    x 3.413980 0.000000 -0.330150 
#    y 0.000000 3.618900 0.000000 
#    z -0.330150 0.000000 3.553360 
# 
# 
# High freq. dielectric constant tensor:
#      x y z
#    x 1.699170 0.000000 -0.019960 
#    y 0.000000 1.714330 0.000000 
#    z -0.019960 0.000000 1.708240 
# 
# From -- ./inp_files/158209.got.cif
#   From: 2010.06.25/outbox.cif.g09.slc.cpg/sg12_80_cif.got.tgz:158209.got - 2010.06.28 00:19:55.
