data_PCOD8083254
_publ_section_title
;
Structure prediction by ZEFSAII (Michael W. Deem and Ramdas Pophale) SiO2 
 PCOD8083254
Probable space group: C 2/M
;
_chemical_formula_sum "Si O2"
_cell_formula_units_Z 48
_cell_length_a 11.818562
_cell_length_b 24.284196
_cell_length_c 8.800220
_cell_angle_alpha 90.000000
_cell_angle_beta 86.122790
_cell_angle_gamma 90.000000
_cell_volume 2519.920082
_symmetry_space_group_name_H-M "C 2/M"
_symmetry_group_IT_number 12
_symmetry_cell_setting 'monoclinic'
loop_
_space_group_symop_operation_xyz
x,y,z
-x,y,-z
-x,-y,-z
x,-y,z
1/2+x,1/2+y,z
1/2-x,1/2+y,-z
1/2-x,1/2-y,-z
1/2+x,1/2-y,z
loop_
_atom_site_type_symbol
_atom_site_label
_atom_site_fract_x
_atom_site_fract_y
_atom_site_fract_z
Si Si1 0.861167 0.216386 0.276375
Si Si2 0.676500 0.935225 0.201338
Si Si3 0.500000 0.119366 0.000000
Si Si4 0.692779 0.144240 0.463009
Si Si5 0.000000 0.727998 0.500000
Si Si6 0.626075 0.629818 0.973167
Si Si7 0.294270 0.834196 0.204089
O O1 0.807479 0.171993 0.394837
O O2 0.973352 0.235767 0.354011
O O3 0.889447 0.186709 0.116717
O O4 0.782776 0.269666 0.247540
O O5 0.663873 0.910880 0.372130
O O6 0.793032 0.913817 0.116728
O O7 0.683403 0.000000 0.214802
O O8 0.567103 0.918891 0.112250
O O9 0.408783 0.157556 0.095075
O O10 0.600568 0.189989 0.433785
O O11 0.698418 0.130088 0.641408
O O12 0.500000 0.603619 0.000000
O O13 0.681686 0.645369 0.129369
#
# Coordination Sequence:
#
# PCOD8083254 Si02
#       7
#     8   8   4   8   4   8   8
#     4  10  21  32  54  81 115 153 181 221 271 334
#     4  10  21  41  60  80 110 145 189 240 281 323
#     4  10  21  36  60  88 110 146 177 232 286 340
#     4  10  21  36  54  84 110 148 190 224 278 326
#     4  10  18  32  55  80 117 144 172 226 272 332
#     4  10  23  35  55  84 112 151 192 225 271 336
#     4  10  20  37  55  83 121 145 182 229 277 337
#
# _framework density 19.048221999999999
#
# number of rings (size 3 to 8) (size 9 to 14) (size 15 to 20)
#    0.000    2.000    0.000    4.750    5.833    0.333 
#    0.000    7.083    0.000    1.000    0.000    0.000 
#    0.000    0.000    0.000    0.000    0.000    0.000 
#
# Total GULP energy -297549.885718 kJ/mol
# GULP energy per Si atom -12397.911905 kJ/mol
# Density = 1.900487 g / cm^3
# Si number density = 19.048222 Si / 1000 Ang^3
#
#
#
# Elastic Constant Matrix: (Units=GPa)
#
#
# Indices 1 2 3 4 5 6 
#
# 1 108.2072 23.0609 44.6673 0.0000 18.6613 0.0000
# 2 23.0609 102.9663 49.7298 0.0000 18.6566 0.0000
# 3 44.6673 49.7298 138.9003 0.0000 21.1073 0.0000
# 4 0.0000 0.0000 0.0000 20.5567 0.0000 0.9485
# 5 18.6613 18.6566 21.1073 0.0000 29.9283 0.0000
# 6 0.0000 0.0000 0.0000 0.9485 0.0000 17.8695
#
#
#
# Elastic Compliance Matrix: (Units=1/GPa)
#
#
# Indices 1 2 3 4 5 6 
#
# 1 0.011298 -0.000300 -0.002782 0.000000 -0.004896 0.000000
# 2 -0.000300 0.012422 -0.003587 0.000000 -0.005027 0.000000
# 3 -0.002782 -0.003587 0.009828 0.000000 -0.002961 0.000000
# 4 0.000000 0.000000 0.000000 0.048765 0.000000 -0.002588
# 5 -0.004896 -0.005027 -0.002961 0.000000 0.041688 0.000000
# 6 0.000000 0.000000 0.000000 -0.002588 0.000000 0.056099
#
#
# Mechanical properties :
#
#
# Convention : Reuss Voigt Hill
#
# Bulk Modulus (GPa) = 49.47797 64.99885 57.23841
# Shear Modulus (GPa) = 24.97807 29.17861 27.07834
#
# Velocity S-wave (km/s) = 3.62513 3.91810 3.77446
# Velocity P-wave (km/s) = 6.59951 7.39365 7.00784
#
# Compressibility (1/GPa) = 0.02021101
#
# Stress axis : x y z
#
# Youngs Moduli (GPa) = 88.51031 80.49955 101.74757
#
# Poissons Ratio (x) = 0.02412 0.28306
# Poissons Ratio (y) = 0.02653 0.36500
# Poissons Ratio (z) = 0.24623 0.28877
#
# Static dielectric constant tensor:
#      x y z
#    x 3.763810 0.000000 0.053970 
#    y 0.000000 3.175370 0.000000 
#    z 0.053970 0.000000 3.704490 
# 
# 
# High freq. dielectric constant tensor:
#      x y z
#    x 1.743150 0.000000 0.006810 
#    y 0.000000 1.709570 0.000000 
#    z 0.006810 0.000000 1.754960 
# 
# From -- ./inp_files/50759.got.cif
#   From: 2010.06.25/outbox.cif.g09.slc.cpg/sg12_26_cif.got.tgz:50759.got - 2010.06.28 00:19:55.
