data_PCOD8083237
_publ_section_title
;
Structure prediction by ZEFSAII (Michael W. Deem and Ramdas Pophale) SiO2 
 PCOD8083237
Probable space group: C 2/M
;
_chemical_formula_sum "Si O2"
_cell_formula_units_Z 64
_cell_length_a 14.613802
_cell_length_b 8.388844
_cell_length_c 25.898578
_cell_angle_alpha 90.000000
_cell_angle_beta 92.210378
_cell_angle_gamma 90.000000
_cell_volume 3172.619563
_symmetry_space_group_name_H-M "C 2/M"
_symmetry_group_IT_number 12
_symmetry_cell_setting 'monoclinic'
loop_
_space_group_symop_operation_xyz
x,y,z
-x,y,-z
-x,-y,-z
x,-y,z
1/2+x,1/2+y,z
1/2-x,1/2+y,-z
1/2-x,1/2-y,-z
1/2+x,1/2-y,z
loop_
_atom_site_type_symbol
_atom_site_label
_atom_site_fract_x
_atom_site_fract_y
_atom_site_fract_z
Si Si1 0.402778 0.186717 0.132166
Si Si2 0.890722 0.812638 0.864500
Si Si3 0.586698 0.684572 0.384595
Si Si4 0.757636 0.183647 0.682537
Si Si5 0.265388 0.685136 0.208304
Si Si6 0.749155 0.186952 0.057445
Si Si7 0.886377 0.183952 0.393944
Si Si8 0.149246 0.812403 0.493840
O O1 0.509023 0.234601 0.134385
O O2 0.353889 0.229819 0.185218
O O3 0.346954 0.274386 0.085488
O O4 0.394942 0.000000 0.122265
O O5 0.830774 0.754062 0.814580
O O6 0.835933 0.769072 0.915227
O O7 0.904281 0.000000 0.861151
O O8 0.613745 0.500000 0.389530
O O9 0.648196 0.754453 0.339476
O O10 0.481932 0.708664 0.366548
O O11 0.605114 0.764865 0.441239
O O12 0.729754 0.290386 0.730453
O O13 0.684000 0.199789 0.635343
O O14 0.765189 0.000000 0.700190
O O15 0.270504 0.500000 0.194274
O O16 0.732159 0.000000 0.058048
O O17 0.750000 0.250000 0.000000
O O18 0.901821 0.235404 0.454106
O O19 0.853275 0.000000 0.389858
O O20 0.250000 0.750000 0.500000
O O21 0.145903 0.000000 0.488150
#
# Coordination Sequence:
#
# PCOD8083237 Si02
#       8
#     8   8   8   8   8   8   8   8
#     4  11  22  40  64  92 122 159 204 250 301 356
#     4  11  22  40  64  92 123 161 204 248 299 356
#     4   9  19  35  55  78 107 143 181 221 277 341
#     4  11  22  38  57  80 112 145 182 234 293 349
#     4  11  23  41  62  86 116 153 198 249 300 354
#     4  11  22  39  61  92 130 169 209 254 302 351
#     4  10  20  35  56  80 106 141 185 228 275 342
#     4  10  18  32  55  79 105 140 179 223 275 338
#
# _framework density 20.172604
#
# number of rings (size 3 to 8) (size 9 to 14) (size 15 to 20)
#    0.000    1.500    1.250    6.750    0.000    3.000 
#    0.000    8.125    0.000    1.500    0.000    0.000 
#    0.000    0.000    0.000    0.000    0.000    0.000 
#
# Total GULP energy -396749.638191 kJ/mol
# GULP energy per Si atom -12398.426193 kJ/mol
# Density = 2.012669 g / cm^3
# Si number density = 20.172604 Si / 1000 Ang^3
#
#
#
# Elastic Constant Matrix: (Units=GPa)
#
#
# Indices 1 2 3 4 5 6 
#
# 1 115.0946 8.0495 21.3559 0.0000 -16.7063 0.0000
# 2 8.0495 62.0535 14.4286 0.0000 -0.0169 0.0000
# 3 21.3559 14.4286 92.6289 0.0000 -17.8605 0.0000
# 4 0.0000 0.0000 0.0000 27.8084 0.0000 2.9768
# 5 -16.7063 -0.0169 -17.8605 0.0000 18.0031 0.0000
# 6 0.0000 0.0000 0.0000 2.9768 0.0000 31.3925
#
#
#
# Elastic Compliance Matrix: (Units=1/GPa)
#
#
# Indices 1 2 3 4 5 6 
#
# 1 0.010159 -0.001219 -0.000414 0.000000 0.009016 0.000000
# 2 -0.001219 0.017015 -0.003196 0.000000 -0.004286 0.000000
# 3 -0.000414 -0.003196 0.013991 0.000000 0.013493 0.000000
# 4 0.000000 0.000000 0.000000 0.036329 0.000000 -0.003445
# 5 0.009016 -0.004286 0.013493 0.000000 0.077294 0.000000
# 6 0.000000 0.000000 0.000000 -0.003445 0.000000 0.032181
#
#
# Mechanical properties :
#
#
# Convention : Reuss Voigt Hill
#
# Bulk Modulus (GPa) = 31.73862 39.71611 35.72737
# Shear Modulus (GPa) = 24.13949 30.50366 27.32158
#
# Velocity S-wave (km/s) = 3.46301 3.89283 3.68420
# Velocity P-wave (km/s) = 5.63539 6.31953 5.98724
#
# Compressibility (1/GPa) = 0.03150735
#
# Stress axis : x y z
#
# Youngs Moduli (GPa) = 98.43285 58.77105 71.47646
#
# Poissons Ratio (x) = 0.07165 0.02959
# Poissons Ratio (y) = 0.12000 0.22842
# Poissons Ratio (z) = 0.04075 0.18782
#
# Static dielectric constant tensor:
#      x y z
#    x 3.731420 0.000000 -0.163020 
#    y 0.000000 3.594620 0.000000 
#    z -0.163020 0.000000 3.767580 
# 
# 
# High freq. dielectric constant tensor:
#      x y z
#    x 1.793410 0.000000 -0.008100 
#    y 0.000000 1.781170 0.000000 
#    z -0.008100 0.000000 1.789800 
# 
# From -- ./inp_files/338813.got.cif
#   From: 2010.06.25/outbox.cif.g09.slc.cpg/sg12_170_cif.got.tgz:338813.got - 2010.06.28 00:19:55.
