data_PCOD8083108
_publ_section_title
;
Structure prediction by ZEFSAII (Michael W. Deem and Ramdas Pophale) SiO2 
 PCOD8083108
Probable space group: C 2/M
;
_chemical_formula_sum "Si O2"
_cell_formula_units_Z 64
_cell_length_a 28.064809
_cell_length_b 9.361744
_cell_length_c 23.012005
_cell_angle_alpha 90.000000
_cell_angle_beta 149.721394
_cell_angle_gamma 90.000000
_cell_volume 3048.460923
_symmetry_space_group_name_H-M "C 2/M"
_symmetry_group_IT_number 12
_symmetry_cell_setting 'monoclinic'
loop_
_space_group_symop_operation_xyz
x,y,z
-x,y,-z
-x,-y,-z
x,-y,z
1/2+x,1/2+y,z
1/2-x,1/2+y,-z
1/2-x,1/2-y,-z
1/2+x,1/2-y,z
loop_
_atom_site_type_symbol
_atom_site_label
_atom_site_fract_x
_atom_site_fract_y
_atom_site_fract_z
Si Si1 0.769081 0.331405 0.794552
Si Si2 0.765655 0.665336 0.457043
Si Si3 0.970094 0.331088 0.640802
Si Si4 0.873884 0.340945 0.280037
Si Si5 0.778847 0.845079 0.977671
Si Si6 0.151617 0.833406 0.224195
Si Si7 0.475956 0.158219 0.057314
Si Si8 0.056283 0.658788 0.851663
O O1 0.752589 0.500000 0.769281
O O2 0.675483 0.267272 0.727236
O O3 0.774824 0.252273 0.738635
O O4 0.865932 0.298349 0.931834
O O5 0.776300 0.500000 0.486047
O O6 0.750000 0.750000 0.500000
O O7 0.861036 0.717344 0.524202
O O8 0.680709 0.688066 0.322177
O O9 0.980006 0.500000 0.650478
O O10 0.028652 0.275338 0.645591
O O11 0.008836 0.274815 0.744134
O O12 0.890184 0.500000 0.325368
O O13 0.807632 0.362068 0.155619
O O14 0.865251 0.764021 0.039515
O O15 0.812480 0.000000 0.034846
O O16 0.750000 0.750000 0.000000
O O17 0.047056 0.769442 0.101725
O O18 0.152084 0.000000 0.207583
O O19 0.508903 0.151582 0.159819
O O20 0.492181 0.000000 0.047533
O O21 0.096849 0.500000 0.880277
#
# Coordination Sequence:
#
# PCOD8083108 Si02
#       8
#     8   8   8   8   8   8   8   8
#     4  11  23  39  60  85 116 155 197 238 290 350
#     4  10  22  42  67  91 117 150 191 239 289 342
#     4   9  18  35  59  84 114 154 195 235 283 342
#     4  10  20  35  56  82 115 155 196 238 287 340
#     4  11  20  30  48  76 114 155 192 230 279 339
#     4  11  24  40  60  87 117 150 194 244 294 343
#     4  10  21  36  58  86 117 156 198 237 287 351
#     4  10  18  32  53  81 115 151 190 231 282 340
#
# _framework density 20.994198999999998
#
# number of rings (size 3 to 8) (size 9 to 14) (size 15 to 20)
#    0.000    1.750    2.500    2.250    0.000    5.500 
#    0.000    1.875    0.000    3.750    0.000    0.000 
#    0.000    0.000    0.000    0.000    0.000    0.000 
#
# Total GULP energy -396448.823056 kJ/mol
# GULP energy per Si atom -12389.025720 kJ/mol
# Density = 2.094642 g / cm^3
# Si number density = 20.994199 Si / 1000 Ang^3
#
#
#
# Elastic Constant Matrix: (Units=GPa)
#
#
# Indices 1 2 3 4 5 6 
#
# 1 124.1430 53.6781 23.5746 0.0000 10.0533 0.0000
# 2 53.6781 113.6012 26.7095 0.0000 5.9167 0.0000
# 3 23.5746 26.7095 53.7779 0.0000 13.5279 0.0000
# 4 0.0000 0.0000 0.0000 19.8379 0.0000 -0.1179
# 5 10.0533 5.9167 13.5279 0.0000 36.2679 0.0000
# 6 0.0000 0.0000 0.0000 -0.1179 0.0000 33.1779
#
#
#
# Elastic Compliance Matrix: (Units=1/GPa)
#
#
# Indices 1 2 3 4 5 6 
#
# 1 0.010455 -0.004385 -0.002049 0.000000 -0.001419 0.000000
# 2 -0.004385 0.011807 -0.004153 0.000000 0.000838 0.000000
# 3 -0.002049 -0.004153 0.023442 0.000000 -0.007498 0.000000
# 4 0.000000 0.000000 0.000000 0.050410 0.000000 0.000179
# 5 -0.001419 0.000838 -0.007498 0.000000 0.030626 0.000000
# 6 0.000000 0.000000 0.000000 0.000179 0.000000 0.030141
#
#
# Mechanical properties :
#
#
# Convention : Reuss Voigt Hill
#
# Bulk Modulus (GPa) = 40.76348 55.49406 48.12877
# Shear Modulus (GPa) = 26.84842 30.36074 28.60458
#
# Velocity S-wave (km/s) = 3.57998 3.80695 3.69521
# Velocity P-wave (km/s) = 6.04541 6.76862 6.41722
#
# Compressibility (1/GPa) = 0.02453176
#
# Stress axis : x y z
#
# Youngs Moduli (GPa) = 95.64824 84.69354 42.65850
#
# Poissons Ratio (x) = 0.37134 0.08739
# Poissons Ratio (y) = 0.41938 0.17716
# Poissons Ratio (z) = 0.19595 0.35174
#
# Static dielectric constant tensor:
#      x y z
#    x 3.894970 0.000000 0.062040 
#    y 0.000000 3.449730 0.000000 
#    z 0.062040 0.000000 3.483140 
# 
# 
# High freq. dielectric constant tensor:
#      x y z
#    x 1.835070 0.000000 0.002100 
#    y 0.000000 1.807240 0.000000 
#    z 0.002100 0.000000 1.796940 
# 
# From -- ./inp_files/353518.got.cif
#   From: 2010.06.25/outbox.cif.g09.slc.cpg/sg12_177_cif.got.tgz:353518.got - 2010.06.28 00:19:55.
