data_PCOD8083855
_publ_section_title
;
Structure prediction by ZEFSAII (Michael W. Deem and Ramdas Pophale) SiO2 
 PCOD8083855
Probable space group: C 2/M
;
_chemical_formula_sum "Si O2"
_cell_formula_units_Z 64
_cell_length_a 15.367629
_cell_length_b 9.178009
_cell_length_c 23.707900
_cell_angle_alpha 90.000000
_cell_angle_beta 90.789981
_cell_angle_gamma 90.000000
_cell_volume 3343.544839
_symmetry_space_group_name_H-M "C 2/M"
_symmetry_group_IT_number 12
_symmetry_cell_setting 'monoclinic'
loop_
_space_group_symop_operation_xyz
x,y,z
-x,y,-z
-x,-y,-z
x,-y,z
1/2+x,1/2+y,z
1/2-x,1/2+y,-z
1/2-x,1/2-y,-z
1/2+x,1/2-y,z
loop_
_atom_site_type_symbol
_atom_site_label
_atom_site_fract_x
_atom_site_fract_y
_atom_site_fract_z
Si Si1 0.759917 0.172773 0.440833
Si Si2 0.084062 0.828522 0.131695
Si Si3 0.752862 0.828857 0.940942
Si Si4 0.155530 0.329081 0.746995
Si Si5 0.850260 0.172290 0.745942
Si Si6 0.099610 0.332428 0.361737
Si Si7 0.593639 0.167481 0.624348
Si Si8 0.088462 0.671856 0.864489
O O1 0.750000 0.250000 0.500000
O O2 0.677307 0.220989 0.402685
O O3 0.848701 0.226555 0.413002
O O4 0.763778 0.000000 0.449207
O O5 0.161639 0.777495 0.091769
O O6 0.105878 0.779690 0.195422
O O7 0.996613 0.748810 0.111024
O O8 0.069968 0.000000 0.127616
O O9 0.669273 0.783297 0.903963
O O10 0.754608 0.000000 0.951479
O O11 0.750000 0.750000 0.000000
O O12 0.165121 0.500000 0.756711
O O13 0.252436 0.263410 0.743458
O O14 0.103200 0.289601 0.690133
O O15 0.106029 0.266496 0.801368
O O16 0.903899 0.240607 0.695323
O O17 0.850427 0.000000 0.738410
O O18 0.112686 0.500000 0.344982
O O19 0.007496 0.310803 0.393093
O O20 0.623249 0.000000 0.614775
O O21 0.072884 0.500000 0.864482
#
# Coordination Sequence:
#
# PCOD8083855 Si02
#       8
#     8   8   8   8   8   8   8   8
#     4  11  24  41  59  82 113 148 190 237 280 326
#     4  10  21  37  57  84 116 147 182 230 284 332
#     4  10  22  40  59  79 110 150 192 237 283 334
#     4   9  16  31  58  85 110 145 182 218 270 336
#     4  10  18  33  59  86 114 149 184 221 275 340
#     4  10  22  38  58  87 118 146 183 233 282 328
#     4  10  20  37  61  85 112 148 184 223 278 337
#     4  10  20  37  60  84 112 149 191 230 275 337
#
# _framework density 19.141361
#
# number of rings (size 3 to 8) (size 9 to 14) (size 15 to 20)
#    0.000    2.000    2.500    1.125    0.000    4.500 
#    0.000    6.250    0.000    0.000    0.000    0.000 
#    0.000    0.000    0.000    0.000    0.000    0.000 
#
# Total GULP energy -396875.295549 kJ/mol
# GULP energy per Si atom -12402.352986 kJ/mol
# Density = 1.909779 g / cm^3
# Si number density = 19.141361 Si / 1000 Ang^3
#
#
#
# Elastic Constant Matrix: (Units=GPa)
#
#
# Indices 1 2 3 4 5 6 
#
# 1 143.4056 40.1883 56.9408 0.0000 -14.8254 0.0000
# 2 40.1883 43.3181 49.7430 0.0000 -8.2915 0.0000
# 3 56.9408 49.7430 136.7305 0.0000 -14.3660 0.0000
# 4 0.0000 0.0000 0.0000 33.4234 0.0000 -3.2399
# 5 -14.8254 -8.2915 -14.3660 0.0000 13.4920 0.0000
# 6 0.0000 0.0000 0.0000 -3.2399 0.0000 32.2862
#
#
#
# Elastic Compliance Matrix: (Units=1/GPa)
#
#
# Indices 1 2 3 4 5 6 
#
# 1 0.009897 -0.006970 -0.001006 0.000000 0.005520 0.000000
# 2 -0.006970 0.045830 -0.013079 0.000000 0.006579 0.000000
# 3 -0.001006 -0.013079 0.012982 0.000000 0.004681 0.000000
# 4 0.000000 0.000000 0.000000 0.030213 0.000000 0.003032
# 5 0.005520 0.006579 0.004681 0.000000 0.089211 0.000000
# 6 0.000000 0.000000 0.000000 0.003032 0.000000 0.031277
#
#
# Mechanical properties :
#
#
# Convention : Reuss Voigt Hill
#
# Bulk Modulus (GPa) = 37.59503 68.57759 53.08631
# Shear Modulus (GPa) = 18.49206 27.61245 23.05225
#
# Velocity S-wave (km/s) = 3.11155 3.80222 3.47409
# Velocity P-wave (km/s) = 5.70897 7.42836 6.62468
#
# Compressibility (1/GPa) = 0.02659926
#
# Stress axis : x y z
#
# Youngs Moduli (GPa) = 101.04557 21.81988 77.02716
#
# Poissons Ratio (x) = 0.15209 0.07746
# Poissons Ratio (y) = 0.70429 1.00744
# Poissons Ratio (z) = 0.10161 0.28538
#
# Static dielectric constant tensor:
#      x y z
#    x 3.923890 0.000000 -0.271790 
#    y 0.000000 3.226510 0.000000 
#    z -0.271790 0.000000 3.759950 
# 
# 
# High freq. dielectric constant tensor:
#      x y z
#    x 1.760070 0.000000 -0.000450 
#    y 0.000000 1.721630 0.000000 
#    z -0.000450 0.000000 1.742980 
# 
# From -- ./inp_files/338668.got.cif
#   From: 2010.06.25/outbox.cif.g09.slc.cpg/sg12_170_cif.got.tgz:338668.got - 2010.06.28 00:19:55.
