data_PCOD8083727
_publ_section_title
;
Structure prediction by ZEFSAII (Michael W. Deem and Ramdas Pophale) SiO2 
 PCOD8083727
Probable space group: C 2/M
;
_chemical_formula_sum "Si O2"
_cell_formula_units_Z 56
_cell_length_a 9.137208
_cell_length_b 18.714909
_cell_length_c 21.831674
_cell_angle_alpha 90.000000
_cell_angle_beta 48.169912
_cell_angle_gamma 90.000000
_cell_volume 2781.748836
_symmetry_space_group_name_H-M "C 2/M"
_symmetry_group_IT_number 12
_symmetry_cell_setting 'monoclinic'
loop_
_space_group_symop_operation_xyz
x,y,z
-x,y,-z
-x,-y,-z
x,-y,z
1/2+x,1/2+y,z
1/2-x,1/2+y,-z
1/2-x,1/2-y,-z
1/2+x,1/2-y,z
loop_
_atom_site_type_symbol
_atom_site_label
_atom_site_fract_x
_atom_site_fract_y
_atom_site_fract_z
Si Si1 0.158602 0.080406 0.694432
Si Si2 0.393904 0.799862 0.815664
Si Si3 0.758242 0.679608 0.370610
Si Si4 0.311387 0.678233 0.014377
Si Si5 0.018902 0.158861 0.844135
Si Si6 0.118755 0.417003 0.561298
Si Si7 0.632043 0.676393 0.594437
O O1 0.072651 0.092445 0.786207
O O2 0.388798 0.097136 0.631960
O O3 0.054926 0.134035 0.675664
O O4 0.113622 0.000000 0.686691
O O5 0.594246 0.824385 0.727959
O O6 0.351233 0.848071 0.889968
O O7 0.217016 0.806202 0.816586
O O8 0.409937 0.717974 0.833113
O O9 0.778148 0.607259 0.404291
O O10 0.539162 0.685907 0.406983
O O11 0.796784 0.745378 0.405790
O O12 0.500000 0.699127 0.000000
O O13 0.250000 0.750000 0.000000
O O14 0.376815 0.627620 0.938742
O O15 0.167666 0.500000 0.535645
O O16 0.193356 0.370461 0.483292
#
# Coordination Sequence:
#
# PCOD8083727 Si02
#       7
#     8   8   8   8   8   8   8
#     4  11  23  40  61  82 114 157 197 240 292 347
#     4  10  18  33  56  87 117 145 182 234 287 337
#     4  12  23  39  63  88 118 150 193 244 291 343
#     4   8  16  28  51  82 116 144 176 227 281 339
#     4  10  18  34  56  85 119 145 189 231 286 345
#     4  11  25  44  61  82 116 157 196 240 293 348
#     4  12  25  40  60  88 116 150 199 247 292 342
#
# _framework density 20.131219999999999
#
# number of rings (size 3 to 8) (size 9 to 14) (size 15 to 20)
#    0.000    1.429    2.857    3.429    0.000    4.000 
#    0.000    0.000    0.000    4.714    0.000    1.000 
#    0.000    0.000    0.000    0.000    0.000    0.000 
#
# Total GULP energy -346984.579646 kJ/mol
# GULP energy per Si atom -12392.306416 kJ/mol
# Density = 2.008540 g / cm^3
# Si number density = 20.131220 Si / 1000 Ang^3
#
#
#
# Elastic Constant Matrix: (Units=GPa)
#
#
# Indices 1 2 3 4 5 6 
#
# 1 70.5375 22.8362 -3.9362 0.0001 12.7260 0.0016
# 2 22.8362 62.2999 26.0821 0.0008 2.8406 0.0007
# 3 -3.9362 26.0821 134.0510 0.0028 13.2754 -0.0003
# 4 0.0001 0.0008 0.0028 18.5670 -0.0010 -2.7344
# 5 12.7260 2.8406 13.2754 -0.0010 26.1640 -0.0006
# 6 0.0016 0.0007 -0.0003 -2.7344 -0.0006 16.8746
#
#
#
# Elastic Compliance Matrix: (Units=1/GPa)
#
#
# Indices 1 2 3 4 5 6 
#
# 1 0.018561 -0.007612 0.002988 -0.000001 -0.009718 -0.000002
# 2 -0.007612 0.020597 -0.004608 0.000000 0.003804 0.000000
# 3 0.002988 -0.004608 0.008990 -0.000002 -0.005515 0.000000
# 4 -0.000001 0.000000 -0.000002 0.055176 0.000004 0.008941
# 5 -0.009718 0.003804 -0.005515 0.000004 0.045332 0.000003
# 6 -0.000002 0.000000 0.000000 0.008941 0.000003 0.060710
#
#
# Mechanical properties :
#
#
# Convention : Reuss Voigt Hill
#
# Bulk Modulus (GPa) = 33.68545 39.65029 36.66787
# Shear Modulus (GPa) = 21.03283 27.11486 24.07384
#
# Velocity S-wave (km/s) = 3.23582 3.67400 3.46185
# Velocity P-wave (km/s) = 5.54346 6.14300 5.85091
#
# Compressibility (1/GPa) = 0.02968641
#
# Stress axis : x y z
#
# Youngs Moduli (GPa) = 53.87613 48.55059 111.23136
#
# Poissons Ratio (x) = 0.36955 -0.33240
# Poissons Ratio (y) = 0.41009 0.51253
# Poissons Ratio (z) = -0.16100 0.22371
#
# Static dielectric constant tensor:
#      x y z
#    x 3.759880 -0.000020 0.134840 
#    y -0.000020 3.297780 0.000050 
#    z 0.134840 0.000050 4.713030 
# 
# 
# High freq. dielectric constant tensor:
#      x y z
#    x 1.789250 0.000000 0.016950 
#    y 0.000000 1.738430 0.000000 
#    z 0.016950 0.000000 1.816250 
# 
# From -- ./inp_files/301664.got.cif
#   From: 2010.06.25/outbox.cif.g09.slc.cpg/sg12_151_cif.got.tgz:301664.got - 2010.06.28 00:19:55.
