data_PCOD8083205
_publ_section_title
;
Structure prediction by ZEFSAII (Michael W. Deem and Ramdas Pophale) SiO2 
 PCOD8083205
Probable space group: C 2/M
;
_chemical_formula_sum "Si O2"
_cell_formula_units_Z 56
_cell_length_a 25.215989
_cell_length_b 20.989115
_cell_length_c 11.399191
_cell_angle_alpha 90.000000
_cell_angle_beta 33.826301
_cell_angle_gamma 90.000000
_cell_volume 3358.516226
_symmetry_space_group_name_H-M "C 2/M"
_symmetry_group_IT_number 12
_symmetry_cell_setting 'monoclinic'
loop_
_space_group_symop_operation_xyz
x,y,z
-x,y,-z
-x,-y,-z
x,-y,z
1/2+x,1/2+y,z
1/2-x,1/2+y,-z
1/2-x,1/2-y,-z
1/2+x,1/2-y,z
loop_
_atom_site_type_symbol
_atom_site_label
_atom_site_fract_x
_atom_site_fract_y
_atom_site_fract_z
Si Si1 0.844353 0.426581 0.743088
Si Si2 0.934474 0.741403 0.888814
Si Si3 0.759731 0.202868 0.093150
Si Si4 0.582113 0.931065 0.927420
Si Si5 0.352695 0.754648 0.473361
Si Si6 0.030862 0.602934 0.268856
Si Si7 0.682976 0.815917 0.691492
O O1 0.806573 0.500000 0.791457
O O2 0.761219 0.372096 0.896521
O O3 0.897506 0.426103 0.768914
O O4 0.920587 0.406131 0.504871
O O5 0.945570 0.677136 0.792447
O O6 0.039547 0.770867 0.712165
O O7 0.868346 0.791381 0.939915
O O8 0.888317 0.727851 0.100484
O O9 0.687418 0.227495 0.325770
O O10 0.750000 0.250000 0.000000
O O11 0.676045 0.888699 0.745401
O O12 0.606682 0.000000 0.830312
O O13 0.500000 0.897930 0.000000
O O14 0.546280 0.937797 0.124923
O O15 0.345022 0.813185 0.394969
O O16 0.292182 0.700298 0.518261
#
# Coordination Sequence:
#
# PCOD8083205 Si02
#       7
#     8   8   8   8   8   8   8
#     4  11  21  33  51  74 105 139 174 214 262 315
#     4  10  18  32  55  75 105 133 172 214 250 306
#     4  11  22  34  50  76 103 138 178 213 258 301
#     4  10  19  30  48  75 106 134 162 204 256 316
#     4  10  19  34  52  73 102 133 167 218 254 301
#     4  10  18  33  51  74 104 136 170 207 262 315
#     4   9  19  32  51  76 101 133 168 201 262 311
#
# _framework density 16.674030999999999
#
# number of rings (size 3 to 8) (size 9 to 14) (size 15 to 20)
#    0.000    1.857    2.857    3.857    0.000    0.571 
#    0.000    0.000    0.000    0.857    0.000    1.000 
#    0.000    6.857    0.000    0.000    0.000    0.000 
#
# Total GULP energy -346970.921307 kJ/mol
# GULP energy per Si atom -12391.818618 kJ/mol
# Density = 1.663608 g / cm^3
# Si number density = 16.674031 Si / 1000 Ang^3
#
#
#
# Elastic Constant Matrix: (Units=GPa)
#
#
# Indices 1 2 3 4 5 6 
#
# 1 86.0454 34.1794 52.3767 0.0000 -2.9113 0.0000
# 2 34.1794 101.5727 39.0119 0.0000 -8.9802 0.0000
# 3 52.3767 39.0119 87.7045 0.0000 -5.8890 0.0000
# 4 0.0000 0.0000 0.0000 14.6792 0.0000 -3.3899
# 5 -2.9113 -8.9802 -5.8890 0.0000 40.2814 0.0000
# 6 0.0000 0.0000 0.0000 -3.3899 0.0000 17.2028
#
#
#
# Elastic Compliance Matrix: (Units=1/GPa)
#
#
# Indices 1 2 3 4 5 6 
#
# 1 0.018759 -0.002475 -0.010147 0.000000 -0.000680 0.000000
# 2 -0.002475 0.012345 -0.003878 0.000000 0.002006 0.000000
# 3 -0.010147 -0.003878 0.019269 0.000000 0.001219 0.000000
# 4 0.000000 0.000000 0.000000 0.071372 0.000000 0.014064
# 5 -0.000680 0.002006 0.001219 0.000000 0.025402 0.000000
# 6 0.000000 0.000000 0.000000 0.014064 0.000000 0.060901
#
#
# Mechanical properties :
#
#
# Convention : Reuss Voigt Hill
#
# Bulk Modulus (GPa) = 57.56700 58.49540 58.03120
# Shear Modulus (GPa) = 20.25611 24.41632 22.33621
#
# Velocity S-wave (km/s) = 3.48922 3.83081 3.66400
# Velocity P-wave (km/s) = 7.12971 7.39762 7.26490
#
# Compressibility (1/GPa) = 0.01737106
#
# Stress axis : x y z
#
# Youngs Moduli (GPa) = 53.30857 81.00437 51.89724
#
# Poissons Ratio (x) = 0.20049 0.52662
# Poissons Ratio (y) = 0.13194 0.20128
# Poissons Ratio (z) = 0.54094 0.31417
#
# Static dielectric constant tensor:
#      x y z
#    x 3.273610 0.000000 0.085440 
#    y 0.000000 3.068720 0.000000 
#    z 0.085440 0.000000 3.198950 
# 
# 
# High freq. dielectric constant tensor:
#      x y z
#    x 1.652960 0.000000 0.018460 
#    y 0.000000 1.621500 0.000000 
#    z 0.018460 0.000000 1.631150 
# 
# From -- ./inp_files/184576.got.cif
#   From: 2010.06.25/outbox.cif.g09.slc.cpg/sg12_93_cif.got.tgz:184576.got - 2010.06.28 00:19:55.
