data_PCOD8083362
_publ_section_title
;
Structure prediction by ZEFSAII (Michael W. Deem and Ramdas Pophale) SiO2 
 PCOD8083362
Probable space group: C 2/M
;
_chemical_formula_sum "Si O2"
_cell_formula_units_Z 36
_cell_length_a 29.973872
_cell_length_b 14.470827
_cell_length_c 10.287705
_cell_angle_alpha 90.000000
_cell_angle_beta 27.212590
_cell_angle_gamma 90.000000
_cell_volume 2040.561045
_symmetry_space_group_name_H-M "C 2/M"
_symmetry_group_IT_number 12
_symmetry_cell_setting 'monoclinic'
loop_
_space_group_symop_operation_xyz
x,y,z
-x,y,-z
-x,-y,-z
x,-y,z
1/2+x,1/2+y,z
1/2-x,1/2+y,-z
1/2-x,1/2-y,-z
1/2+x,1/2-y,z
loop_
_atom_site_type_symbol
_atom_site_label
_atom_site_fract_x
_atom_site_fract_y
_atom_site_fract_z
Si Si1 0.209950 0.698723 0.727864
Si Si2 0.978059 0.799368 0.701107
Si Si3 0.730167 0.500000 0.477139
Si Si4 0.686650 0.302889 0.270731
Si Si5 0.932845 0.000000 0.888586
Si Si6 0.854189 0.000000 0.574832
O O1 0.250000 0.750000 0.500000
O O2 0.202929 0.590568 0.709955
O O3 0.278883 0.722700 0.673107
O O4 0.101265 0.731778 0.034066
O O5 0.000000 0.764682 0.500000
O O6 0.071896 0.783096 0.549690
O O7 0.937382 0.904951 0.794113
O O8 0.654386 0.500000 0.556823
O O9 0.667272 0.500000 0.771574
O O10 0.698362 0.413165 0.219977
O O11 0.750000 0.250000 0.000000
O O12 0.029511 0.000000 0.723483
#
# Coordination Sequence:
#
# PCOD8083362 Si02
#       6
#     8   8   4   8   4   4
#     4  11  22  38  59  85 115 153 188 235 286 341
#     4  11  21  36  59  87 116 149 192 233 290 338
#     4  10  19  35  55  82 116 148 189 232 287 336
#     4  10  20  37  57  83 117 149 189 234 283 337
#     4  10  18  32  56  86 114 140 185 251 285 327
#     4   8  19  31  54  84 112 142 192 233 285 329
#
# _framework density 17.642206000000002
#
# number of rings (size 3 to 8) (size 9 to 14) (size 15 to 20)
#    0.000    1.778    4.444    0.667    0.000    0.889 
#    0.000    2.778    0.000    1.333    0.000    0.000 
#    0.000    0.000    0.000    0.000    0.000    0.000 
#
# Total GULP energy -223088.104486 kJ/mol
# GULP energy per Si atom -12393.783583 kJ/mol
# Density = 1.760205 g / cm^3
# Si number density = 17.642206 Si / 1000 Ang^3
#
#
#
# Elastic Constant Matrix: (Units=GPa)
#
#
# Indices 1 2 3 4 5 6 
#
# 1 102.9846 48.2067 53.7711 0.0000 1.4594 0.0000
# 2 48.2067 115.2059 71.6641 0.0000 -0.0870 0.0000
# 3 53.7711 71.6641 136.8558 0.0000 7.0910 0.0000
# 4 0.0000 0.0000 0.0000 35.9762 0.0000 0.3794
# 5 1.4594 -0.0870 7.0910 0.0000 30.3925 0.0000
# 6 0.0000 0.0000 0.0000 0.3794 0.0000 25.4083
#
#
#
# Elastic Compliance Matrix: (Units=1/GPa)
#
#
# Indices 1 2 3 4 5 6 
#
# 1 0.013041 -0.003359 -0.003373 0.000000 0.000151 0.000000
# 2 -0.003359 0.013819 -0.005999 0.000000 0.001601 0.000000
# 3 -0.003373 -0.005999 0.011910 0.000000 -0.002634 0.000000
# 4 0.000000 0.000000 0.000000 0.027800 0.000000 -0.000415
# 5 0.000151 0.001601 -0.002634 0.000000 0.033515 0.000000
# 6 0.000000 0.000000 0.000000 -0.000415 0.000000 0.039363
#
#
# Mechanical properties :
#
#
# Convention : Reuss Voigt Hill
#
# Bulk Modulus (GPa) = 75.14247 78.03667 76.58957
# Shear Modulus (GPa) = 29.52512 30.44904 29.98708
#
# Velocity S-wave (km/s) = 4.09534 4.15893 4.12726
# Velocity P-wave (km/s) = 8.06519 8.20921 8.13752
#
# Compressibility (1/GPa) = 0.01330805
#
# Stress axis : x y z
#
# Youngs Moduli (GPa) = 76.67873 72.36592 83.96101
#
# Poissons Ratio (x) = 0.24306 0.28321
# Poissons Ratio (y) = 0.25754 0.50371
# Poissons Ratio (z) = 0.25864 0.43415
#
# Static dielectric constant tensor:
#      x y z
#    x 3.292950 0.000000 0.125300 
#    y 0.000000 3.655520 0.000000 
#    z 0.125300 0.000000 2.633880 
# 
# 
# High freq. dielectric constant tensor:
#      x y z
#    x 1.681950 0.000000 0.004830 
#    y 0.000000 1.686860 0.000000 
#    z 0.004830 0.000000 1.675680 
# 
# From -- ./inp_files/58377.got.cif
#   From: 2010.06.25/outbox.cif.g09.slc.cpg/sg12_30_cif.got.tgz:58377.got - 2010.06.28 00:19:55.
