data_PCOD8083850
_publ_section_title
;
Structure prediction by ZEFSAII (Michael W. Deem and Ramdas Pophale) SiO2 
 PCOD8083850
Probable space group: C 2/M
;
_chemical_formula_sum "Si O2"
_cell_formula_units_Z 64
_cell_length_a 22.532819
_cell_length_b 17.395039
_cell_length_c 18.737756
_cell_angle_alpha 90.000000
_cell_angle_beta 153.377399
_cell_angle_gamma 90.000000
_cell_volume 3291.128644
_symmetry_space_group_name_H-M "C 2/M"
_symmetry_group_IT_number 12
_symmetry_cell_setting 'monoclinic'
loop_
_space_group_symop_operation_xyz
x,y,z
-x,y,-z
-x,-y,-z
x,-y,z
1/2+x,1/2+y,z
1/2-x,1/2+y,-z
1/2-x,1/2-y,-z
1/2+x,1/2-y,z
loop_
_atom_site_type_symbol
_atom_site_label
_atom_site_fract_x
_atom_site_fract_y
_atom_site_fract_z
Si Si1 0.513961 0.911026 0.595245
Si Si2 0.232217 0.165921 0.070737
Si Si3 0.271281 0.910992 0.431707
Si Si4 0.860453 0.090837 0.325199
Si Si5 0.869154 0.591209 0.823605
Si Si6 0.729432 0.156142 0.049153
Si Si7 0.494756 0.408328 0.077303
Si Si8 0.935052 0.408714 0.738820
O O1 0.500000 0.882016 0.500000
O O2 0.620617 0.861029 0.751701
O O3 0.368999 0.897715 0.471067
O O4 0.557904 0.000000 0.647113
O O5 0.225082 0.256820 0.071027
O O6 0.205698 0.144488 0.959340
O O7 0.128574 0.127283 0.013137
O O8 0.128102 0.875777 0.258489
O O9 0.338577 0.873994 0.574349
O O10 0.248821 0.000000 0.423010
O O11 0.754472 0.126271 0.266661
O O12 0.823860 0.110415 0.204702
O O13 0.000000 0.126780 0.500000
O O14 0.864766 0.000000 0.337017
O O15 0.870420 0.500000 0.832574
O O16 0.864916 0.615992 0.736800
O O17 0.000000 0.626412 0.000000
O O18 0.580855 0.125104 0.889660
O O19 0.482920 0.500000 0.069026
O O20 0.500000 0.382543 0.000000
O O21 0.951141 0.500000 0.748820
#
# Coordination Sequence:
#
# PCOD8083850 Si02
#       8
#     8   8   8   8   8   8   8   8
#     4  10  19  34  61  89 109 144 196 246 296 351
#     4  11  24  39  58  83 120 159 197 235 290 354
#     4   9  18  32  56  87 112 139 185 241 292 341
#     4  10  21  37  59  88 118 148 192 245 293 340
#     4   9  16  29  53  81 107 140 181 232 284 329
#     4  11  23  39  57  81 121 160 198 241 287 342
#     4  10  21  40  62  87 120 150 187 248 305 351
#     4  10  18  33  59  85 112 148 195 243 283 333
#
# _framework density 19.446217000000001
#
# number of rings (size 3 to 8) (size 9 to 14) (size 15 to 20)
#    0.000    2.000    2.500    1.500    0.000    5.000 
#    2.250    3.125    0.000    0.000    0.000    0.000 
#    0.000    0.000    0.000    0.000    0.000    0.000 
#
# Total GULP energy -396736.909540 kJ/mol
# GULP energy per Si atom -12398.028423 kJ/mol
# Density = 1.940196 g / cm^3
# Si number density = 19.446217 Si / 1000 Ang^3
#
#
#
# Elastic Constant Matrix: (Units=GPa)
#
#
# Indices 1 2 3 4 5 6 
#
# 1 114.7054 17.4288 38.5449 -0.0006 -5.9075 0.0007
# 2 17.4288 32.6971 15.6904 0.0000 0.9893 0.0010
# 3 38.5449 15.6904 132.0552 -0.0005 -2.0550 0.0009
# 4 -0.0006 0.0000 -0.0005 4.3775 -0.0014 -3.2739
# 5 -5.9075 0.9893 -2.0550 -0.0014 36.0105 0.0005
# 6 0.0007 0.0010 0.0009 -3.2739 0.0005 16.5506
#
#
#
# Elastic Compliance Matrix: (Units=1/GPa)
#
#
# Indices 1 2 3 4 5 6 
#
# 1 0.010293 -0.004356 -0.002461 0.000002 0.001668 0.000000
# 2 -0.004356 0.034321 -0.002835 -0.000003 -0.001819 -0.000002
# 3 -0.002461 -0.002835 0.008630 0.000001 0.000167 0.000000
# 4 0.000002 -0.000003 0.000001 0.268104 0.000010 0.053034
# 5 0.001668 -0.001819 0.000167 0.000010 0.028103 0.000001
# 6 0.000000 -0.000002 0.000000 0.053034 0.000001 0.070911
#
#
# Mechanical properties :
#
#
# Convention : Reuss Voigt Hill
#
# Bulk Modulus (GPa) = 29.46296 46.97622 38.21959
# Shear Modulus (GPa) = 11.08699 25.24062 18.16381
#
# Velocity S-wave (km/s) = 2.39034 3.60664 3.05954
# Velocity P-wave (km/s) = 4.77517 6.44618 5.67254
#
# Compressibility (1/GPa) = 0.03394092
#
# Stress axis : x y z
#
# Youngs Moduli (GPa) = 97.15673 29.13662 115.87140
#
# Poissons Ratio (x) = 0.12692 0.28513
# Poissons Ratio (y) = 0.42322 0.32847
# Poissons Ratio (z) = 0.23908 0.08260
#
# Static dielectric constant tensor:
#      x y z
#    x 3.816570 0.000000 -0.119510 
#    y 0.000000 3.183880 0.000000 
#    z -0.119510 0.000000 3.838130 
# 
# 
# High freq. dielectric constant tensor:
#      x y z
#    x 1.773100 0.000000 -0.006450 
#    y 0.000000 1.716140 0.000000 
#    z -0.006450 0.000000 1.768030 
# 
# From -- ./inp_files/285247.got.cif
#   From: 2010.06.25/outbox.cif.g09.slc.cpg/sg12_143_cif.got.tgz:285247.got - 2010.06.28 00:19:55.
