data_PCOD8083169
_publ_section_title
;
Structure prediction by ZEFSAII (Michael W. Deem and Ramdas Pophale) SiO2 
 PCOD8083169
Probable space group: C 2/M
;
_chemical_formula_sum "Si O2"
_cell_formula_units_Z 56
_cell_length_a 24.371580
_cell_length_b 13.479620
_cell_length_c 29.426108
_cell_angle_alpha 90.000000
_cell_angle_beta 162.682492
_cell_angle_gamma 90.000000
_cell_volume 2877.559276
_symmetry_space_group_name_H-M "C 2/M"
_symmetry_group_IT_number 12
_symmetry_cell_setting 'monoclinic'
loop_
_space_group_symop_operation_xyz
x,y,z
-x,y,-z
-x,-y,-z
x,-y,z
1/2+x,1/2+y,z
1/2-x,1/2+y,-z
1/2-x,1/2-y,-z
1/2+x,1/2-y,z
loop_
_atom_site_type_symbol
_atom_site_label
_atom_site_fract_x
_atom_site_fract_y
_atom_site_fract_z
Si Si1 0.799385 0.388291 0.947375
Si Si2 0.104383 0.608083 0.757479
Si Si3 0.486456 0.750098 0.236438
Si Si4 0.295291 0.231433 0.856877
Si Si5 0.458233 0.268410 0.519811
Si Si6 0.108386 0.611724 0.256300
Si Si7 0.716717 0.108097 0.563537
O O1 0.723099 0.500000 0.893251
O O2 0.696146 0.314597 0.900554
O O3 0.771522 0.360606 0.872583
O O4 0.015262 0.382954 0.132523
O O5 0.172084 0.500000 0.829840
O O6 0.993551 0.671403 0.707075
O O7 0.275491 0.669086 0.871690
O O8 0.968412 0.587586 0.609258
O O9 0.486143 0.814619 0.190512
O O10 0.652704 0.671700 0.366213
O O11 0.142824 0.222802 0.696379
O O12 0.500000 0.231143 0.000000
O O13 0.500000 0.268321 0.500000
O O14 0.324046 0.360544 0.424953
O O15 0.339631 0.168950 0.435908
O O16 0.096132 0.500000 0.266158
O O17 0.803324 0.000000 0.645324
#
# Coordination Sequence:
#
# PCOD8083169 Si02
#       7
#     8   8   8   8   8   8   8
#     4  10  21  36  55  80 110 143 177 216 263 314
#     4   9  18  32  51  78 111 144 178 217 263 315
#     4  10  18  32  54  80 109 142 179 218 259 308
#     4  10  21  37  57  79 105 139 178 222 269 316
#     4  10  21  37  57  79 105 139 178 222 269 316
#     4  10  21  36  55  80 110 143 177 216 263 314
#     4   9  18  32  51  78 111 144 178 217 263 315
#
# _framework density 19.460937000000001
#
# number of rings (size 3 to 8) (size 9 to 14) (size 15 to 20)
#    0.000    2.286    0.000    2.571    0.000    2.857 
#    0.000    0.000    0.000   16.286    0.000    0.000 
#    0.000    0.000    0.000    0.000    0.000    0.000 
#
# Total GULP energy -346920.048542 kJ/mol
# GULP energy per Si atom -12390.001734 kJ/mol
# Density = 1.941664 g / cm^3
# Si number density = 19.460937 Si / 1000 Ang^3
#
#
#
# Elastic Constant Matrix: (Units=GPa)
#
#
# Indices 1 2 3 4 5 6 
#
# 1 121.3801 59.2339 48.5773 -0.0006 9.0347 -0.0092
# 2 59.2339 158.0117 44.9735 -0.1015 7.9348 -0.0061
# 3 48.5773 44.9735 91.4041 -0.2600 7.5336 0.0212
# 4 -0.0006 -0.1015 -0.2600 20.1843 -0.0181 -2.4350
# 5 9.0347 7.9348 7.5336 -0.0181 29.2015 0.0159
# 6 -0.0092 -0.0061 0.0212 -2.4350 0.0159 16.0918
#
#
#
# Elastic Compliance Matrix: (Units=1/GPa)
#
#
# Indices 1 2 3 4 5 6 
#
# 1 0.011651 -0.002979 -0.004593 -0.000075 -0.001610 0.000002
# 2 -0.002979 0.008155 -0.002373 0.000011 -0.000682 0.000007
# 3 -0.004593 -0.002373 0.014692 0.000176 -0.001724 0.000005
# 4 -0.000075 0.000011 0.000176 0.050467 0.000002 0.007636
# 5 -0.001610 -0.000682 -0.001724 0.000002 0.035373 -0.000033
# 6 0.000002 0.000007 0.000005 0.007636 -0.000033 0.063299
#
#
# Mechanical properties :
#
#
# Convention : Reuss Voigt Hill
#
# Bulk Modulus (GPa) = 68.46388 75.15172 71.80780
# Shear Modulus (GPa) = 23.99271 27.62961 25.81116
#
# Velocity S-wave (km/s) = 3.51503 3.77204 3.64580
# Velocity P-wave (km/s) = 7.19239 7.59418 7.39601
#
# Compressibility (1/GPa) = 0.01460624
#
# Stress axis : x y z
#
# Youngs Moduli (GPa) = 85.83204 122.62198 68.06505
#
# Poissons Ratio (x) = 0.36533 0.31265
# Poissons Ratio (y) = 0.25572 0.16152
# Poissons Ratio (z) = 0.39426 0.29098
#
# Static dielectric constant tensor:
#      x y z
#    x 3.447520 -0.000010 0.035970 
#    y -0.000010 4.252200 -0.000100 
#    z 0.035970 -0.000100 3.384590 
# 
# 
# High freq. dielectric constant tensor:
#      x y z
#    x 1.749380 0.000000 0.003780 
#    y 0.000000 1.772930 -0.000020 
#    z 0.003780 -0.000020 1.742610 
# 
# From -- ./inp_files/382912.got.cif
#   From: 2010.06.25/outbox.cif.g09.slc.cpg/sg12_192_cif.got.tgz:382912.got - 2010.06.28 00:19:55.
