data_PCOD8083649
_publ_section_title
;
Structure prediction by ZEFSAII (Michael W. Deem and Ramdas Pophale) SiO2 
 PCOD8083649
Probable space group: C 2/M
;
_chemical_formula_sum "Si O2"
_cell_formula_units_Z 56
_cell_length_a 18.410577
_cell_length_b 18.588816
_cell_length_c 9.125572
_cell_angle_alpha 90.000000
_cell_angle_beta 69.532923
_cell_angle_gamma 90.000000
_cell_volume 2925.903997
_symmetry_space_group_name_H-M "C 2/M"
_symmetry_group_IT_number 12
_symmetry_cell_setting 'monoclinic'
loop_
_space_group_symop_operation_xyz
x,y,z
-x,y,-z
-x,-y,-z
x,-y,z
1/2+x,1/2+y,z
1/2-x,1/2+y,-z
1/2-x,1/2-y,-z
1/2+x,1/2-y,z
loop_
_atom_site_type_symbol
_atom_site_label
_atom_site_fract_x
_atom_site_fract_y
_atom_site_fract_z
Si Si1 0.913007 0.708717 0.575151
Si Si2 0.287037 0.818173 0.891111
Si Si3 0.232684 0.583950 0.839973
Si Si4 0.312650 0.167334 0.386998
Si Si5 0.899447 0.130080 0.642379
Si Si6 0.179880 0.175770 0.699663
Si Si7 0.047390 0.919232 0.684407
O O1 0.871153 0.699051 0.761500
O O2 0.870807 0.661517 0.481093
O O3 0.910565 0.794129 0.548684
O O4 0.000000 0.679746 0.500000
O O5 0.229132 0.847639 0.806525
O O6 0.250000 0.750000 0.000000
O O7 0.306051 0.882931 0.988487
O O8 0.242268 0.500000 0.852202
O O9 0.181182 0.601388 0.731906
O O10 0.315585 0.623234 0.771912
O O11 0.225317 0.164952 0.513385
O O12 0.332589 0.238546 0.278681
O O13 0.913232 0.072363 0.503837
O O14 0.962772 0.118033 0.727106
O O15 0.100614 0.129717 0.754118
O O16 0.040123 0.000000 0.755520
#
# Coordination Sequence:
#
# PCOD8083649 Si02
#       7
#     8   8   8   8   8   8   8
#     4  11  20  38  66  92 117 153 204 253 298 353
#     4  11  22  38  61  87 122 160 199 252 301 349
#     4  12  23  38  60  88 121 160 200 245 307 364
#     4  10  18  34  58  85 110 148 208 253 289 341
#     4  11  18  32  56  88 125 159 191 231 288 361
#     4  10  18  33  55  81 116 162 202 245 280 337
#     4  11  20  30  50  89 130 161 191 231 284 354
#
# _framework density 19.139384
#
# number of rings (size 3 to 8) (size 9 to 14) (size 15 to 20)
#    0.000    1.143    7.143    2.571    0.000    0.571 
#    0.000    3.571    0.000    4.286    0.000    0.000 
#    0.000    0.000    0.000    0.000    0.000    0.000 
#
# Total GULP energy -347092.516341 kJ/mol
# GULP energy per Si atom -12396.161298 kJ/mol
# Density = 1.909582 g / cm^3
# Si number density = 19.139384 Si / 1000 Ang^3
#
#
#
# Elastic Constant Matrix: (Units=GPa)
#
#
# Indices 1 2 3 4 5 6 
#
# 1 107.0111 38.1742 38.7942 0.0000 -4.3142 0.0000
# 2 38.1742 58.4440 23.9237 0.0000 7.9285 0.0000
# 3 38.7942 23.9237 87.9446 0.0000 1.3758 0.0000
# 4 0.0000 0.0000 0.0000 22.1015 0.0000 4.2609
# 5 -4.3142 7.9285 1.3758 0.0000 26.4764 0.0000
# 6 0.0000 0.0000 0.0000 4.2609 0.0000 23.0831
#
#
#
# Elastic Compliance Matrix: (Units=1/GPa)
#
#
# Indices 1 2 3 4 5 6 
#
# 1 0.013878 -0.008092 -0.003997 0.000000 0.004892 0.000000
# 2 -0.008092 0.024807 -0.003044 0.000000 -0.008589 0.000000
# 3 -0.003997 -0.003044 0.013969 0.000000 -0.000466 0.000000
# 4 0.000000 0.000000 0.000000 0.046915 0.000000 -0.008660
# 5 0.004892 -0.008589 -0.000466 0.000000 0.041163 0.000000
# 6 0.000000 0.000000 0.000000 -0.008660 0.000000 0.044920
#
#
# Mechanical properties :
#
#
# Convention : Reuss Voigt Hill
#
# Bulk Modulus (GPa) = 44.66786 50.57601 47.62193
# Shear Modulus (GPa) = 22.38311 24.49938 23.44125
#
# Velocity S-wave (km/s) = 3.42347 3.58166 3.50346
# Velocity P-wave (km/s) = 6.24626 6.60203 6.42661
#
# Compressibility (1/GPa) = 0.02238746
#
# Stress axis : x y z
#
# Youngs Moduli (GPa) = 72.05749 40.31053 71.58499
#
# Poissons Ratio (x) = 0.32620 0.28613
# Poissons Ratio (y) = 0.58310 0.21793
# Poissons Ratio (z) = 0.28801 0.12272
#
# Static dielectric constant tensor:
#      x y z
#    x 3.533080 0.000000 0.030390 
#    y 0.000000 3.233110 0.000000 
#    z 0.030390 0.000000 3.388510 
# 
# 
# High freq. dielectric constant tensor:
#      x y z
#    x 1.739560 0.000000 0.011870 
#    y 0.000000 1.720910 0.000000 
#    z 0.011870 0.000000 1.727060 
# 
# From -- ./inp_files/75853.got.cif
#   From: 2010.06.25/outbox.cif.g09.slc.cpg/sg12_38_cif.got.tgz:75853.got - 2010.06.28 00:19:55.
