data_PCOD8083773
_publ_section_title
;
Structure prediction by ZEFSAII (Michael W. Deem and Ramdas Pophale) SiO2 
 PCOD8083773
Probable space group: C 2/M
;
_chemical_formula_sum "Si O2"
_cell_formula_units_Z 44
_cell_length_a 10.958204
_cell_length_b 23.586757
_cell_length_c 9.369702
_cell_angle_alpha 90.000000
_cell_angle_beta 65.335980
_cell_angle_gamma 90.000000
_cell_volume 2200.835427
_symmetry_space_group_name_H-M "C 2/M"
_symmetry_group_IT_number 12
_symmetry_cell_setting 'monoclinic'
loop_
_space_group_symop_operation_xyz
x,y,z
-x,y,-z
-x,-y,-z
x,-y,z
1/2+x,1/2+y,z
1/2-x,1/2+y,-z
1/2-x,1/2-y,-z
1/2+x,1/2-y,z
loop_
_atom_site_type_symbol
_atom_site_label
_atom_site_fract_x
_atom_site_fract_y
_atom_site_fract_z
Si Si1 0.436287 0.717875 0.178974
Si Si2 0.946836 0.088135 0.177122
Si Si3 0.228900 0.500000 0.344588
Si Si4 0.373498 0.000000 0.910434
Si Si5 0.164849 0.500000 0.689336
Si Si6 0.223724 0.911994 0.170342
Si Si7 0.788840 0.779982 0.833959
O O1 0.398948 0.652385 0.182777
O O2 0.292410 0.751215 0.260128
O O3 0.546466 0.726618 0.253887
O O4 0.500000 0.739928 0.000000
O O5 0.065013 0.080169 0.232534
O O6 0.820109 0.055401 0.298030
O O7 0.000000 0.064039 0.000000
O O8 0.131224 0.500000 0.258500
O O9 0.141164 0.500000 0.532030
O O10 0.533576 0.000000 0.856061
O O11 0.303741 0.056741 0.003769
O O12 0.241982 0.442069 0.696005
O O13 0.257401 0.845508 0.146050
O O14 0.750000 0.750000 0.000000
#
# Coordination Sequence:
#
# PCOD8083773 Si02
#       7
#     8   8   4   4   4   8   8
#     4   8  16  28  46  79 114 135 174 224 274 327
#     4  10  18  33  57  85 106 138 190 233 270 325
#     4  12  22  36  58  77 110 151 182 229 286 333
#     4  11  22  37  57  77 110 150 188 225 272 335
#     4  11  26  38  49  82 117 146 184 223 289 337
#     4  10  20  37  58  84 111 141 184 236 272 322
#     4   9  17  29  51  83 114 138 174 230 279 320
#
# _framework density 19.992408000000001
#
# number of rings (size 3 to 8) (size 9 to 14) (size 15 to 20)
#    0.000    2.182    1.818    3.818    0.000    5.818 
#    0.000    0.000    0.000    1.091    0.000    0.000 
#    0.000    0.000    0.000    0.000    0.000    0.000 
#
# Total GULP energy -272559.785162 kJ/mol
# GULP energy per Si atom -12389.081144 kJ/mol
# Density = 1.994690 g / cm^3
# Si number density = 19.992408 Si / 1000 Ang^3
#
#
#
# Elastic Constant Matrix: (Units=GPa)
#
#
# Indices 1 2 3 4 5 6 
#
# 1 108.6553 52.4562 -2.5161 0.0000 -1.0994 0.0000
# 2 52.4562 124.3563 10.3851 0.0000 0.9860 0.0000
# 3 -2.5161 10.3851 49.6188 0.0000 8.1587 0.0000
# 4 0.0000 0.0000 0.0000 5.7889 0.0000 1.5613
# 5 -1.0994 0.9860 8.1587 0.0000 23.9377 0.0000
# 6 0.0000 0.0000 0.0000 1.5613 0.0000 32.6335
#
#
#
# Elastic Compliance Matrix: (Units=1/GPa)
#
#
# Indices 1 2 3 4 5 6 
#
# 1 0.011690 -0.005068 0.001622 0.000000 0.000193 0.000000
# 2 -0.005068 0.010383 -0.002459 0.000000 0.000178 0.000000
# 3 0.001622 -0.002459 0.021952 0.000000 -0.007306 0.000000
# 4 0.000000 0.000000 0.000000 0.175003 0.000000 -0.008373
# 5 0.000193 0.000178 -0.007306 0.000000 0.044267 0.000000
# 6 0.000000 0.000000 0.000000 -0.008373 0.000000 0.031044
#
#
# Mechanical properties :
#
#
# Convention : Reuss Voigt Hill
#
# Bulk Modulus (GPa) = 31.04277 44.80899 37.92588
# Shear Modulus (GPa) = 15.77848 27.29236 21.53542
#
# Velocity S-wave (km/s) = 2.81236 3.69878 3.28560
# Velocity P-wave (km/s) = 5.10948 6.37989 5.77970
#
# Compressibility (1/GPa) = 0.03221362
#
# Stress axis : x y z
#
# Youngs Moduli (GPa) = 85.54631 96.31011 45.55398
#
# Poissons Ratio (x) = 0.48809 -0.07388
# Poissons Ratio (y) = 0.43354 0.11203
# Poissons Ratio (z) = -0.13873 0.23686
#
# Static dielectric constant tensor:
#      x y z
#    x 4.330980 0.000000 0.107820 
#    y 0.000000 3.677200 0.000000 
#    z 0.107820 0.000000 3.010000 
# 
# 
# High freq. dielectric constant tensor:
#      x y z
#    x 1.805180 0.000000 0.006780 
#    y 0.000000 1.783090 0.000000 
#    z 0.006780 0.000000 1.715750 
# 
# From -- ./inp_files/50536.got.cif
#   From: 2010.06.25/outbox.cif.g09.slc.cpg/sg12_26_cif.got.tgz:50536.got - 2010.06.28 00:19:55.
