data_PCOD8083985
_publ_section_title
;
Structure prediction by ZEFSAII (Michael W. Deem and Ramdas Pophale) SiO2 
 PCOD8083985
Probable space group: C 2/M
;
_chemical_formula_sum "Si O2"
_cell_formula_units_Z 40
_cell_length_a 13.956451
_cell_length_b 17.892125
_cell_length_c 8.116264
_cell_angle_alpha 90.000000
_cell_angle_beta 115.699605
_cell_angle_gamma 90.000000
_cell_volume 1826.234065
_symmetry_space_group_name_H-M "C 2/M"
_symmetry_group_IT_number 12
_symmetry_cell_setting 'monoclinic'
loop_
_space_group_symop_operation_xyz
x,y,z
-x,y,-z
-x,-y,-z
x,-y,z
1/2+x,1/2+y,z
1/2-x,1/2+y,-z
1/2-x,1/2-y,-z
1/2+x,1/2-y,z
loop_
_atom_site_type_symbol
_atom_site_label
_atom_site_fract_x
_atom_site_fract_y
_atom_site_fract_z
Si Si1 0.871425 0.913539 0.518887
Si Si2 0.720997 0.085169 0.962421
Si Si3 0.569344 0.348943 0.781898
Si Si4 0.461768 0.181954 0.287356
Si Si5 0.856224 0.583861 0.721562
O O1 0.896766 0.862643 0.380668
O O2 0.747229 0.901833 0.473057
O O3 0.952444 0.887099 0.724087
O O4 0.890939 0.000000 0.486463
O O5 0.644728 0.132576 0.787080
O O6 0.718820 0.000000 0.900365
O O7 0.841626 0.115212 0.033128
O O8 0.680033 0.093403 0.117915
O O9 0.562602 0.261116 0.815385
O O10 0.500000 0.194317 0.500000
O O11 0.552114 0.142069 0.247444
O O12 0.900631 0.500000 0.725194
#
# Coordination Sequence:
#
# PCOD8083985 Si02
#       5
#     8   8   8   8   8
#     4   9  16  33  60  83 107 142 191 238 268 316
#     4  10  21  39  62  81 106 149 199 235 262 322
#     4  10  18  34  54  86 114 138 181 233 287 325
#     4  12  23  35  53  87 123 148 172 227 297 341
#     4   9  20  37  59  83 107 148 198 232 264 323
#
# _framework density 21.902996999999999
#
# number of rings (size 3 to 8) (size 9 to 14) (size 15 to 20)
#    0.000    2.000    2.000    5.400    0.000    4.000 
#    0.000    0.000    0.000    0.000    0.000    4.200 
#    0.000    0.000    0.000    0.000    0.000    0.000 
#
# Total GULP energy -247945.723877 kJ/mol
# GULP energy per Si atom -12397.286194 kJ/mol
# Density = 2.185315 g / cm^3
# Si number density = 21.902997 Si / 1000 Ang^3
#
#
#
# Elastic Constant Matrix: (Units=GPa)
#
#
# Indices 1 2 3 4 5 6 
#
# 1 56.4598 47.5222 24.3671 0.0000 31.8570 0.0000
# 2 47.5222 171.2378 28.2719 0.0000 29.5069 0.0000
# 3 24.3671 28.2719 56.3291 0.0000 40.7332 0.0000
# 4 0.0000 0.0000 0.0000 33.9399 0.0000 15.5812
# 5 31.8570 29.5069 40.7332 0.0000 43.5049 0.0000
# 6 0.0000 0.0000 0.0000 15.5812 0.0000 14.6276
#
#
#
# Elastic Compliance Matrix: (Units=1/GPa)
#
#
# Indices 1 2 3 4 5 6 
#
# 1 0.037058 -0.006399 0.011350 0.000000 -0.033423 0.000000
# 2 -0.006399 0.007719 -0.002194 0.000000 0.001505 0.000000
# 3 0.011350 -0.002194 0.058457 0.000000 -0.061556 0.000000
# 4 0.000000 0.000000 0.000000 0.057660 0.000000 -0.061419
# 5 -0.033423 0.001505 -0.061556 0.000000 0.104074 0.000000
# 6 0.000000 0.000000 0.000000 -0.061419 0.000000 0.133788
#
#
# Mechanical properties :
#
#
# Convention : Reuss Voigt Hill
#
# Bulk Modulus (GPa) = 9.19562 53.81658 31.50610
# Shear Modulus (GPa) = 11.64170 30.67216 21.15693
#
# Velocity S-wave (km/s) = 2.30795 3.74620 3.11133
# Velocity P-wave (km/s) = 3.36298 6.58299 5.22712
#
# Compressibility (1/GPa) = 0.10874740
#
# Stress axis : x y z
#
# Youngs Moduli (GPa) = 26.98472 129.55667 17.10660
#
# Poissons Ratio (x) = 0.82904 -0.19417
# Poissons Ratio (y) = 0.17268 0.03754
# Poissons Ratio (z) = -0.30629 0.28430
#
# Static dielectric constant tensor:
#      x y z
#    x 3.997700 0.000000 0.821120 
#    y 0.000000 3.955140 0.000000 
#    z 0.821120 0.000000 4.061900 
# 
# 
# High freq. dielectric constant tensor:
#      x y z
#    x 1.846000 0.000000 0.049130 
#    y 0.000000 1.867800 0.000000 
#    z 0.049130 0.000000 1.844100 
# 
# From -- ./inp_files/61390.got.cif
#   From: 2010.06.25/outbox.cif.g09.slc.cpg/sg12_31_cif.got.tgz:61390.got - 2010.06.28 00:19:55.
