data_PCOD8083678
_publ_section_title
;
Structure prediction by ZEFSAII (Michael W. Deem and Ramdas Pophale) SiO2 
 PCOD8083678
Probable space group: C 2/M
;
_chemical_formula_sum "Si O2"
_cell_formula_units_Z 56
_cell_length_a 27.505560
_cell_length_b 13.940696
_cell_length_c 11.690352
_cell_angle_alpha 90.000000
_cell_angle_beta 38.769954
_cell_angle_gamma 90.000000
_cell_volume 2806.998361
_symmetry_space_group_name_H-M "C 2/M"
_symmetry_group_IT_number 12
_symmetry_cell_setting 'monoclinic'
loop_
_space_group_symop_operation_xyz
x,y,z
-x,y,-z
-x,-y,-z
x,-y,z
1/2+x,1/2+y,z
1/2-x,1/2+y,-z
1/2-x,1/2-y,-z
1/2+x,1/2-y,z
loop_
_atom_site_type_symbol
_atom_site_label
_atom_site_fract_x
_atom_site_fract_y
_atom_site_fract_z
Si Si1 0.464100 0.109510 0.442934
Si Si2 0.527851 0.198938 0.118650
Si Si3 0.768915 0.164959 0.342284
Si Si4 0.812530 0.272193 0.724851
Si Si5 0.698468 0.610580 0.083644
Si Si6 0.601518 0.603063 0.044230
Si Si7 0.128677 0.684849 0.729774
O O1 0.500000 0.126291 0.500000
O O2 0.530737 0.136060 0.228219
O O3 0.395752 0.183519 0.544428
O O4 0.436484 0.000000 0.476509
O O5 0.548444 0.310307 0.099949
O O6 0.441560 0.201318 0.227511
O O7 0.590808 0.148149 0.918421
O O8 0.735168 0.237513 0.306183
O O9 0.824618 0.217030 0.331656
O O10 0.694837 0.117626 0.547111
O O11 0.821239 0.089716 0.176697
O O12 0.821312 0.166336 0.762796
O O13 0.774465 0.343876 0.886779
O O14 0.715471 0.500000 0.082446
O O15 0.625973 0.621370 0.130453
O O16 0.557474 0.500000 0.116521
#
# Coordination Sequence:
#
# PCOD8083678 Si02
#       7
#     8   8   8   8   8   8   8
#     4  11  23  37  55  80 108 142 186 228 275 339
#     4  10  19  36  57  81 115 150 180 226 285 326
#     4   9  17  33  56  80 106 147 189 227 276 322
#     4  10  18  33  56  78 109 150 182 228 279 328
#     4   9  18  32  54  84 112 143 186 229 276 330
#     4   9  18  33  56  85 114 147 187 228 274 339
#     4   9  18  34  57  81 110 148 185 231 273 324
#
# _framework density 19.950136000000001
#
# number of rings (size 3 to 8) (size 9 to 14) (size 15 to 20)
#    0.000    2.429    1.429    1.286    0.000    1.714 
#    0.000    8.571    0.000   11.143    0.000    0.000 
#    0.000    0.000    0.000    0.000    0.000    0.000 
#
# Total GULP energy -346881.890329 kJ/mol
# GULP energy per Si atom -12388.638940 kJ/mol
# Density = 1.990473 g / cm^3
# Si number density = 19.950136 Si / 1000 Ang^3
#
#
#
# Elastic Constant Matrix: (Units=GPa)
#
#
# Indices 1 2 3 4 5 6 
#
# 1 65.2600 22.5905 37.7352 0.0000 13.8836 0.0000
# 2 22.5905 77.5703 22.8254 0.0000 11.6666 0.0000
# 3 37.7352 22.8254 107.3426 0.0000 12.8102 0.0000
# 4 0.0000 0.0000 0.0000 13.8115 0.0000 -5.6154
# 5 13.8836 11.6666 12.8102 0.0000 32.2868 0.0000
# 6 0.0000 0.0000 0.0000 -5.6154 0.0000 8.1364
#
#
#
# Elastic Compliance Matrix: (Units=1/GPa)
#
#
# Indices 1 2 3 4 5 6 
#
# 1 0.021216 -0.003582 -0.006049 0.000000 -0.005429 0.000000
# 2 -0.003582 0.014867 -0.001517 0.000000 -0.003230 0.000000
# 3 -0.006049 -0.001517 0.011955 0.000000 -0.001594 0.000000
# 4 0.000000 0.000000 0.000000 0.100644 0.000000 0.069459
# 5 -0.005429 -0.003230 -0.001594 0.000000 0.035107 0.000000
# 6 0.000000 0.000000 0.000000 0.069459 0.000000 0.170841
#
#
# Mechanical properties :
#
#
# Convention : Reuss Voigt Hill
#
# Bulk Modulus (GPa) = 38.84577 46.27500 42.56039
# Shear Modulus (GPa) = 12.97001 21.98173 17.47587
#
# Velocity S-wave (km/s) = 2.55251 3.32299 2.96290
# Velocity P-wave (km/s) = 5.31044 6.16187 5.75193
#
# Compressibility (1/GPa) = 0.02574283
#
# Stress axis : x y z
#
# Youngs Moduli (GPa) = 47.13480 67.26398 83.64675
#
# Poissons Ratio (x) = 0.24096 0.50595
# Poissons Ratio (y) = 0.16885 0.12685
# Poissons Ratio (z) = 0.28510 0.10201
#
# Static dielectric constant tensor:
#      x y z
#    x 3.658750 0.000000 0.202540 
#    y 0.000000 3.270080 0.000000 
#    z 0.202540 0.000000 4.001120 
# 
# 
# High freq. dielectric constant tensor:
#      x y z
#    x 1.780790 0.000000 0.011410 
#    y 0.000000 1.740020 0.000000 
#    z 0.011410 0.000000 1.788750 
# 
# From -- ./inp_files/183479.got.cif
#   From: 2010.06.25/outbox.cif.g09.slc.cpg/sg12_92_cif.got.tgz:183479.got - 2010.06.28 00:19:55.
