data_PCOD8083922
_publ_section_title
;
Structure prediction by ZEFSAII (Michael W. Deem and Ramdas Pophale) SiO2 
 PCOD8083922
Probable space group: C 2/M
;
_chemical_formula_sum "Si O2"
_cell_formula_units_Z 40
_cell_length_a 16.967654
_cell_length_b 16.944211
_cell_length_c 14.448668
_cell_angle_alpha 90.000000
_cell_angle_beta 155.671686
_cell_angle_gamma 90.000000
_cell_volume 1711.318974
_symmetry_space_group_name_H-M "C 2/M"
_symmetry_group_IT_number 12
_symmetry_cell_setting 'monoclinic'
loop_
_space_group_symop_operation_xyz
x,y,z
-x,y,-z
-x,-y,-z
x,-y,z
1/2+x,1/2+y,z
1/2-x,1/2+y,-z
1/2-x,1/2-y,-z
1/2+x,1/2-y,z
loop_
_atom_site_type_symbol
_atom_site_label
_atom_site_fract_x
_atom_site_fract_y
_atom_site_fract_z
Si Si1 0.842610 0.199311 0.398054
Si Si2 0.163414 0.412332 0.343555
Si Si3 0.721211 0.138545 0.732049
Si Si4 0.969897 0.729357 0.223700
Si Si5 0.557935 0.375281 0.210955
O O1 0.706036 0.130808 0.291275
O O2 0.738003 0.266352 0.223663
O O3 0.000000 0.157561 0.500000
O O4 0.938847 0.253873 0.579484
O O5 0.081821 0.500000 0.236717
O O6 0.363598 0.421720 0.615292
O O7 0.008295 0.361746 0.236221
O O8 0.500000 0.114040 0.500000
O O9 0.808321 0.102253 0.731998
O O10 0.837707 0.104689 0.946331
O O11 0.072625 0.782673 0.255087
O O12 0.750000 0.750000 0.000000
#
# Coordination Sequence:
#
# PCOD8083922 Si02
#       5
#     8   8   8   8   8
#     4  10  19  37  64  93 119 161 220 270 306 366
#     4  11  23  41  60  92 139 169 201 261 335 394
#     4  10  18  33  63  98 121 151 222 277 303 351
#     4  11  20  38  63  89 120 168 227 263 305 376
#     4  10  20  36  62  91 122 166 217 262 311 372
#
# _framework density 23.373784000000001
#
# number of rings (size 3 to 8) (size 9 to 14) (size 15 to 20)
#    0.000    1.600    4.000    3.600    0.000    0.400 
#    0.000    6.000    0.000   11.400    0.000    0.000 
#    0.000    0.000    0.000    0.000    0.000    0.000 
#
# Total GULP energy -247798.267042 kJ/mol
# GULP energy per Si atom -12389.913352 kJ/mol
# Density = 2.332058 g / cm^3
# Si number density = 23.373784 Si / 1000 Ang^3
#
#
#
# Elastic Constant Matrix: (Units=GPa)
#
#
# Indices 1 2 3 4 5 6 
#
# 1 99.9755 24.3806 16.8128 0.0000 20.1368 0.0000
# 2 24.3806 115.3026 4.5981 0.0000 25.6316 0.0000
# 3 16.8128 4.5981 100.2278 0.0000 22.3839 0.0000
# 4 0.0000 0.0000 0.0000 10.7237 0.0000 2.8228
# 5 20.1368 25.6316 22.3839 0.0000 25.9984 0.0000
# 6 0.0000 0.0000 0.0000 2.8228 0.0000 10.5469
#
#
#
# Elastic Compliance Matrix: (Units=1/GPa)
#
#
# Indices 1 2 3 4 5 6 
#
# 1 0.011884 -0.000608 -0.000054 0.000000 -0.008558 0.000000
# 2 -0.000608 0.011624 0.002504 0.000000 -0.013145 0.000000
# 3 -0.000054 0.002504 0.012893 0.000000 -0.013527 0.000000
# 4 0.000000 0.000000 0.000000 0.100320 0.000000 -0.026850
# 5 -0.008558 -0.013145 -0.013527 0.000000 0.069698 0.000000
# 6 0.000000 0.000000 0.000000 -0.026850 0.000000 0.102001
#
#
# Mechanical properties :
#
#
# Convention : Reuss Voigt Hill
#
# Bulk Modulus (GPa) = 24.94776 45.23207 35.08992
# Shear Modulus (GPa) = 15.71852 27.43475 21.57664
#
# Velocity S-wave (km/s) = 2.59604 3.42971 3.04157
# Velocity P-wave (km/s) = 4.43650 5.92262 5.23259
#
# Compressibility (1/GPa) = 0.04008376
#
# Stress axis : x y z
#
# Youngs Moduli (GPa) = 84.14937 86.03168 77.56440
#
# Poissons Ratio (x) = 0.05232 0.00421
# Poissons Ratio (y) = 0.05118 -0.19425
# Poissons Ratio (z) = 0.00456 -0.21546
#
# Static dielectric constant tensor:
#      x y z
#    x 4.424180 0.000000 -0.131090 
#    y 0.000000 3.720680 0.000000 
#    z -0.131090 0.000000 4.326030 
# 
# 
# High freq. dielectric constant tensor:
#      x y z
#    x 1.933570 0.000000 -0.003760 
#    y 0.000000 1.873300 0.000000 
#    z -0.003760 0.000000 1.919110 
# 
# From -- ./inp_files/285054.got.cif
#   From: 2010.06.25/outbox.cif.g09.slc.cpg/sg12_143_cif.got.tgz:285054.got - 2010.06.28 00:19:55.
