data_PCOD8083126
_publ_section_title
;
Structure prediction by ZEFSAII (Michael W. Deem and Ramdas Pophale) SiO2 
 PCOD8083126
Probable space group: C 2/M
;
_chemical_formula_sum "Si O2"
_cell_formula_units_Z 64
_cell_length_a 14.758076
_cell_length_b 9.344768
_cell_length_c 29.723728
_cell_angle_alpha 90.000000
_cell_angle_beta 60.913909
_cell_angle_gamma 90.000000
_cell_volume 3582.271048
_symmetry_space_group_name_H-M "C 2/M"
_symmetry_group_IT_number 12
_symmetry_cell_setting 'monoclinic'
loop_
_space_group_symop_operation_xyz
x,y,z
-x,y,-z
-x,-y,-z
x,-y,z
1/2+x,1/2+y,z
1/2-x,1/2+y,-z
1/2-x,1/2-y,-z
1/2+x,1/2-y,z
loop_
_atom_site_type_symbol
_atom_site_label
_atom_site_fract_x
_atom_site_fract_y
_atom_site_fract_z
Si Si1 0.802476 0.331347 0.377210
Si Si2 0.424547 0.832423 0.808494
Si Si3 0.929706 0.168770 0.556547
Si Si4 0.187152 0.665551 0.073147
Si Si5 0.654591 0.169513 0.733278
Si Si6 0.987934 0.831323 0.368614
Si Si7 0.843994 0.168756 0.745848
Si Si8 0.889466 0.332152 0.006122
O O1 0.823980 0.500000 0.374154
O O2 0.689391 0.290901 0.422957
O O3 0.817176 0.272740 0.322960
O O4 0.879708 0.249107 0.391080
O O5 0.386990 0.796515 0.867560
O O6 0.541985 0.775640 0.775626
O O7 0.352577 0.749095 0.790946
O O8 0.417641 0.000000 0.799285
O O9 0.961965 0.227085 0.597552
O O10 0.000000 0.237576 0.500000
O O11 0.944629 0.000000 0.553254
O O12 0.219231 0.500000 0.064748
O O13 0.120551 0.704265 0.044595
O O14 0.293460 0.753774 0.053397
O O15 0.738566 0.226251 0.748592
O O16 0.660752 0.000000 0.730935
O O17 0.060938 0.789022 0.309357
O O18 0.969032 0.000000 0.374610
O O19 0.840584 0.000000 0.755525
O O20 0.877839 0.500000 0.018319
O O21 0.000000 0.278368 0.000000
#
# Coordination Sequence:
#
# PCOD8083126 Si02
#       8
#     8   8   8   8   8   8   8   8
#     4  10  18  32  54  75  96 130 171 204 248 309
#     4  10  20  34  51  74 106 137 167 206 253 302
#     4   9  18  33  53  75 100 132 170 210 253 307
#     4   9  19  34  51  76 108 137 165 206 257 302
#     4   9  17  31  51  72  96 132 171 204 244 301
#     4  10  19  32  51  75 101 128 165 213 257 297
#     4  10  19  32  51  74  98 131 173 212 249 295
#     4   9  18  34  57  80 101 132 175 213 247 292
#
# _framework density 17.865762
#
# number of rings (size 3 to 8) (size 9 to 14) (size 15 to 20)
#    0.000    2.500    2.500    0.000    0.000    2.250 
#    0.000    4.375    0.000    0.750    0.000    0.000 
#    0.000    0.000    0.000    0.000    0.000    0.000 
#
# Total GULP energy -396779.504406 kJ/mol
# GULP energy per Si atom -12399.359513 kJ/mol
# Density = 1.782510 g / cm^3
# Si number density = 17.865762 Si / 1000 Ang^3
#
#
#
# Elastic Constant Matrix: (Units=GPa)
#
#
# Indices 1 2 3 4 5 6 
#
# 1 117.9214 28.4029 25.1036 0.0000 -4.6715 0.0000
# 2 28.4029 25.5085 22.9775 0.0000 -0.6352 0.0000
# 3 25.1036 22.9775 91.4550 0.0000 -7.2199 0.0000
# 4 0.0000 0.0000 0.0000 15.3774 0.0000 -2.2097
# 5 -4.6715 -0.6352 -7.2199 0.0000 26.1287 0.0000
# 6 0.0000 0.0000 0.0000 -2.2097 0.0000 29.7238
#
#
#
# Elastic Compliance Matrix: (Units=1/GPa)
#
#
# Indices 1 2 3 4 5 6 
#
# 1 0.011674 -0.013180 0.000252 0.000000 0.001836 0.000000
# 2 -0.013180 0.065690 -0.013235 0.000000 -0.004417 0.000000
# 3 0.000252 -0.013235 0.014485 0.000000 0.003726 0.000000
# 4 0.000000 0.000000 0.000000 0.065733 0.000000 0.004887
# 5 0.001836 -0.004417 0.003726 0.000000 0.039523 0.000000
# 6 0.000000 0.000000 0.000000 0.004887 0.000000 0.034006
#
#
# Mechanical properties :
#
#
# Convention : Reuss Voigt Hill
#
# Bulk Modulus (GPa) = 25.30213 43.09478 34.19846
# Shear Modulus (GPa) = 16.85720 24.80604 20.83162
#
# Velocity S-wave (km/s) = 3.07505 3.73026 3.41839
# Velocity P-wave (km/s) = 5.17697 6.53658 5.89610
#
# Compressibility (1/GPa) = 0.03952236
#
# Stress axis : x y z
#
# Youngs Moduli (GPa) = 85.66179 15.22313 69.03909
#
# Poissons Ratio (x) = 0.20063 -0.01739
# Poissons Ratio (y) = 1.12899 0.91374
# Poissons Ratio (z) = -0.02158 0.20148
#
# Static dielectric constant tensor:
#      x y z
#    x 3.447730 0.000000 -0.013230 
#    y 0.000000 2.972240 0.000000 
#    z -0.013230 0.000000 3.392990 
# 
# 
# High freq. dielectric constant tensor:
#      x y z
#    x 1.701930 0.000000 -0.000510 
#    y 0.000000 1.657110 0.000000 
#    z -0.000510 0.000000 1.693010 
# 
# From -- ./inp_files/335246.got.cif
#   From: 2010.06.25/outbox.cif.g09.slc.cpg/sg12_168_cif.got.tgz:335246.got - 2010.06.28 00:19:55.
