data_PCOD8083856
_publ_section_title
;
Structure prediction by ZEFSAII (Michael W. Deem and Ramdas Pophale) SiO2 
 PCOD8083856
Probable space group: C 2/M
;
_chemical_formula_sum "Si O2"
_cell_formula_units_Z 44
_cell_length_a 10.960022
_cell_length_b 20.381537
_cell_length_c 12.805467
_cell_angle_alpha 90.000000
_cell_angle_beta 53.691368
_cell_angle_gamma 90.000000
_cell_volume 2305.112391
_symmetry_space_group_name_H-M "C 2/M"
_symmetry_group_IT_number 12
_symmetry_cell_setting 'monoclinic'
loop_
_space_group_symop_operation_xyz
x,y,z
-x,y,-z
-x,-y,-z
x,-y,z
1/2+x,1/2+y,z
1/2-x,1/2+y,-z
1/2-x,1/2-y,-z
1/2+x,1/2-y,z
loop_
_atom_site_type_symbol
_atom_site_label
_atom_site_fract_x
_atom_site_fract_y
_atom_site_fract_z
Si Si1 0.608791 0.817383 0.167176
Si Si2 0.171399 0.331210 0.371508
Si Si3 0.723268 0.189198 0.698432
Si Si4 0.500000 0.395819 0.500000
Si Si5 0.321869 0.670307 0.877816
Si Si6 0.423090 0.573072 0.314017
O O1 0.678524 0.837155 0.242659
O O2 0.435885 0.841395 0.256448
O O3 0.599687 0.740304 0.141343
O O4 0.709342 0.852053 0.027279
O O5 0.254716 0.263019 0.355657
O O6 0.262208 0.390450 0.380373
O O7 0.000000 0.331168 0.500000
O O8 0.853498 0.148951 0.577973
O O9 0.727639 0.180248 0.820297
O O10 0.526195 0.437528 0.591182
O O11 0.448672 0.614430 0.809863
O O12 0.410602 0.500000 0.271935
#
# Coordination Sequence:
#
# PCOD8083856 Si02
#       6
#     8   8   8   4   8   8
#     4  10  19  34  56  84 116 141 182 240 293 333
#     4  11  22  34  55  86 119 150 183 232 288 335
#     4  10  18  33  59  86 115 140 183 244 290 328
#     4  10  21  36  62  86 107 150 190 238 286 322
#     4   9  20  34  55  84 110 148 190 233 280 329
#     4  11  23  40  57  80 117 156 194 224 270 345
#
# _framework density 19.088007000000001
#
# number of rings (size 3 to 8) (size 9 to 14) (size 15 to 20)
#    0.000    1.818    2.727    1.909    0.000    2.545 
#    0.000    1.818    0.000   10.909    0.000    0.000 
#    0.000    0.000    0.000    0.000    0.000    0.000 
#
# Total GULP energy -272729.215247 kJ/mol
# GULP energy per Si atom -12396.782511 kJ/mol
# Density = 1.904456 g / cm^3
# Si number density = 19.088007 Si / 1000 Ang^3
#
#
#
# Elastic Constant Matrix: (Units=GPa)
#
#
# Indices 1 2 3 4 5 6 
#
# 1 70.4906 26.3824 35.1899 0.0000 -19.3024 0.0000
# 2 26.3824 84.5419 34.3834 0.0000 -2.6393 0.0000
# 3 35.1899 34.3834 119.6808 0.0000 -12.4552 0.0000
# 4 0.0000 0.0000 0.0000 -21.9008 0.0000 10.5649
# 5 -19.3024 -2.6393 -12.4552 0.0000 29.6190 0.0000
# 6 0.0000 0.0000 0.0000 10.5649 0.0000 12.6762
#
#
#
# Elastic Compliance Matrix: (Units=1/GPa)
#
#
# Indices 1 2 3 4 5 6 
#
# 1 0.020951 -0.004714 -0.003586 0.000000 0.011726 0.000000
# 2 -0.004714 0.014459 -0.003089 0.000000 -0.003082 0.000000
# 3 -0.003586 -0.003089 0.010484 0.000000 0.001797 0.000000
# 4 0.000000 0.000000 0.000000 -0.032567 0.000000 0.027143
# 5 0.011726 -0.003082 0.001797 0.000000 0.041885 0.000000
# 6 0.000000 0.000000 0.000000 0.027143 0.000000 0.056266
#
#
# Mechanical properties :
#
#
# Convention : Reuss Voigt Hill
#
# Bulk Modulus (GPa) = 43.25576 51.84720 47.55148
# Shear Modulus (GPa) = 35.22066 15.99606 25.60836
#
# Velocity S-wave (km/s) = 4.30021 2.89799 3.66675
# Velocity P-wave (km/s) = 6.88231 6.19830 6.54924
#
# Compressibility (1/GPa) = 0.02311831
#
# Stress axis : x y z
#
# Youngs Moduli (GPa) = 47.72932 69.15888 95.38061
#
# Poissons Ratio (x) = 0.32600 0.34202
# Poissons Ratio (y) = 0.22498 0.29462
# Poissons Ratio (z) = 0.17115 0.21362
#
# Static dielectric constant tensor:
#      x y z
#    x 3.323210 0.000000 0.035980 
#    y 0.000000 3.132720 0.000000 
#    z 0.035980 0.000000 3.554950 
# 
# 
# High freq. dielectric constant tensor:
#      x y z
#    x 1.749090 0.000000 -0.001710 
#    y 0.000000 1.703460 0.000000 
#    z -0.001710 0.000000 1.753510 
# 
# From -- ./inp_files/207545.got.cif
#   From: 2010.06.25/outbox.cif.g09.slc.cpg/sg12_104_cif.got.tgz:207545.got - 2010.06.28 00:19:55.
