data_PCOD8083887
_publ_section_title
;
Structure prediction by ZEFSAII (Michael W. Deem and Ramdas Pophale) SiO2 
 PCOD8083887
Probable space group: C 2/M
;
_chemical_formula_sum "Si O2"
_cell_formula_units_Z 56
_cell_length_a 20.790496
_cell_length_b 24.615844
_cell_length_c 11.484678
_cell_angle_alpha 90.000000
_cell_angle_beta 149.114570
_cell_angle_gamma 90.000000
_cell_volume 3017.096197
_symmetry_space_group_name_H-M "C 2/M"
_symmetry_group_IT_number 12
_symmetry_cell_setting 'monoclinic'
loop_
_space_group_symop_operation_xyz
x,y,z
-x,y,-z
-x,-y,-z
x,-y,z
1/2+x,1/2+y,z
1/2-x,1/2+y,-z
1/2-x,1/2-y,-z
1/2+x,1/2-y,z
loop_
_atom_site_type_symbol
_atom_site_label
_atom_site_fract_x
_atom_site_fract_y
_atom_site_fract_z
Si Si1 0.694444 0.500000 0.256462
Si Si2 0.874074 0.688415 0.434840
Si Si3 0.647940 0.846060 0.849861
Si Si4 0.809803 0.095202 0.429056
Si Si5 0.410478 0.937876 0.075250
Si Si6 0.634925 0.307148 0.650743
Si Si7 0.961171 0.000000 0.749451
Si Si8 0.323423 0.103791 0.537749
O O1 0.614981 0.500000 0.250128
O O2 0.777263 0.554259 0.384763
O O3 0.608563 0.500000 0.007250
O O4 0.831057 0.653123 0.255848
O O5 0.829417 0.750372 0.354822
O O6 0.809941 0.660016 0.446024
O O7 0.024131 0.689266 0.683542
O O8 0.629286 0.907372 0.867666
O O9 0.764095 0.817548 0.092450
O O10 0.861610 0.147384 0.443131
O O11 0.758090 0.112680 0.474160
O O12 0.925780 0.053622 0.621052
O O13 0.699273 0.065111 0.189335
O O14 0.531990 0.909222 0.207212
O O15 0.438380 0.000000 0.150309
O O16 0.500000 0.305169 0.500000
#
# Coordination Sequence:
#
# PCOD8083887 Si02
#       8
#     4   8   8   8   8   8   4   8
#     4   9  18  33  51  76 111 152 178 203 256 337
#     4  10  20  37  58  79 111 144 176 230 273 318
#     4   9  20  37  55  84 107 139 185 226 262 319
#     4  10  21  35  57  83 111 141 180 229 266 326
#     4  10  18  33  60  86 111 140 174 223 276 322
#     4  11  22  37  60  79 102 149 189 221 273 322
#     4   9  18  35  52  73 113 147 178 213 258 315
#     4  10  20  34  55  87 111 140 181 218 280 324
#
# _framework density 18.560891999999999
#
# number of rings (size 3 to 8) (size 9 to 14) (size 15 to 20)
#    0.000    2.143    2.857    0.857    0.000    2.286 
#    1.286    1.786    0.000    0.000    0.000    0.000 
#    0.000    0.000    0.000    0.000    0.000    0.000 
#
# Total GULP energy -347197.985560 kJ/mol
# GULP energy per Si atom -12399.928056 kJ/mol
# Density = 1.851865 g / cm^3
# Si number density = 18.560892 Si / 1000 Ang^3
#
#
#
# Elastic Constant Matrix: (Units=GPa)
#
#
# Indices 1 2 3 4 5 6 
#
# 1 65.2851 53.8506 25.8797 0.0000 -13.4429 0.0000
# 2 53.8506 120.0949 35.7949 0.0000 -11.7842 0.0000
# 3 25.8797 35.7949 110.2766 0.0000 -7.6689 0.0000
# 4 0.0000 0.0000 0.0000 25.6509 0.0000 -1.3385
# 5 -13.4429 -11.7842 -7.6689 0.0000 19.5173 0.0000
# 6 0.0000 0.0000 0.0000 -1.3385 0.0000 24.8815
#
#
#
# Elastic Compliance Matrix: (Units=1/GPa)
#
#
# Indices 1 2 3 4 5 6 
#
# 1 0.027124 -0.010375 -0.002194 0.000000 0.011556 0.000000
# 2 -0.010375 0.013590 -0.001956 0.000000 0.000291 0.000000
# 3 -0.002194 -0.001956 0.010313 0.000000 0.001359 0.000000
# 4 0.000000 0.000000 0.000000 0.039095 0.000000 0.002103
# 5 0.011556 0.000291 0.001359 0.000000 0.059906 0.000000
# 6 0.000000 0.000000 0.000000 0.002103 0.000000 0.040304
#
#
# Mechanical properties :
#
#
# Convention : Reuss Voigt Hill
#
# Bulk Modulus (GPa) = 45.50272 58.52300 52.01286
# Shear Modulus (GPa) = 22.05478 26.01870 24.03674
#
# Velocity S-wave (km/s) = 3.45082 3.74813 3.60254
# Velocity P-wave (km/s) = 6.35973 7.09436 6.73707
#
# Compressibility (1/GPa) = 0.02197671
#
# Stress axis : x y z
#
# Youngs Moduli (GPa) = 36.86718 73.58126 96.96826
#
# Poissons Ratio (x) = 0.76338 0.21279
# Poissons Ratio (y) = 0.38248 0.18971
# Poissons Ratio (z) = 0.08090 0.14395
#
# Static dielectric constant tensor:
#      x y z
#    x 3.161910 0.000000 -0.048380 
#    y 0.000000 3.444120 0.000000 
#    z -0.048380 0.000000 3.623900 
# 
# 
# High freq. dielectric constant tensor:
#      x y z
#    x 1.696000 0.000000 -0.003220 
#    y 0.000000 1.722360 0.000000 
#    z -0.003220 0.000000 1.732520 
# 
# From -- ./inp_files/178337.got.cif
#   From: 2010.06.25/outbox.cif.g09.slc.cpg/sg12_90_cif.got.tgz:178337.got - 2010.06.28 00:19:55.
