data_PCOD8083948
_publ_section_title
;
Structure prediction by ZEFSAII (Michael W. Deem and Ramdas Pophale) SiO2 
 PCOD8083948
Probable space group: C 2/M
;
_chemical_formula_sum "Si O2"
_cell_formula_units_Z 40
_cell_length_a 8.849280
_cell_length_b 18.422549
_cell_length_c 14.473037
_cell_angle_alpha 90.000000
_cell_angle_beta 112.403634
_cell_angle_gamma 90.000000
_cell_volume 2181.396013
_symmetry_space_group_name_H-M "C 2/M"
_symmetry_group_IT_number 12
_symmetry_cell_setting 'monoclinic'
loop_
_space_group_symop_operation_xyz
x,y,z
-x,y,-z
-x,-y,-z
x,-y,z
1/2+x,1/2+y,z
1/2-x,1/2+y,-z
1/2-x,1/2-y,-z
1/2+x,1/2-y,z
loop_
_atom_site_type_symbol
_atom_site_label
_atom_site_fract_x
_atom_site_fract_y
_atom_site_fract_z
Si Si1 0.435348 0.176904 0.703547
Si Si2 0.358445 0.416682 0.399717
Si Si3 0.070393 0.916214 0.797634
Si Si4 0.797586 0.808581 0.759744
Si Si5 0.129994 0.677231 0.110910
O O1 0.305558 0.128577 0.617213
O O2 0.609895 0.171440 0.694174
O O3 0.371730 0.260539 0.692580
O O4 0.450741 0.146849 0.812920
O O5 0.500000 0.387722 0.500000
O O6 0.317843 0.500000 0.411859
O O7 0.417868 0.405276 0.309237
O O8 0.900475 0.882281 0.794028
O O9 0.218513 0.874006 0.882230
O O10 0.075231 0.000000 0.828102
O O11 0.804642 0.759712 0.855617
O O12 0.000000 0.676462 0.000000
#
# Coordination Sequence:
#
# PCOD8083948 Si02
#       5
#     8   8   8   8   8
#     4   9  18  32  53  76 105 134 178 215 258 308
#     4   9  18  35  56  77 105 143 178 211 263 321
#     4  10  20  35  54  78 110 140 172 223 268 306
#     4  10  18  34  52  78 107 135 179 215 262 315
#     4   9  18  34  57  79 101 144 180 214 258 322
#
# _framework density 18.336880000000001
#
# number of rings (size 3 to 8) (size 9 to 14) (size 15 to 20)
#    1.200    1.400    2.000    0.000    0.000    4.400 
#    0.000    5.000    0.000    7.800    0.000    0.000 
#    0.000    0.000    0.000    0.000    0.000    0.000 
#
# Total GULP energy -247888.304143 kJ/mol
# GULP energy per Si atom -12394.415207 kJ/mol
# Density = 1.829514 g / cm^3
# Si number density = 18.336880 Si / 1000 Ang^3
#
#
#
# Elastic Constant Matrix: (Units=GPa)
#
#
# Indices 1 2 3 4 5 6 
#
# 1 117.8954 58.2238 26.6096 0.0000 41.4757 0.0000
# 2 58.2238 116.7600 36.9517 0.0000 27.3503 0.0000
# 3 26.6096 36.9517 95.4466 0.0000 34.8321 0.0000
# 4 0.0000 0.0000 0.0000 17.7463 0.0000 8.4427
# 5 41.4757 27.3503 34.8321 0.0000 29.8210 0.0000
# 6 0.0000 0.0000 0.0000 8.4427 0.0000 33.9068
#
#
#
# Elastic Compliance Matrix: (Units=1/GPa)
#
#
# Indices 1 2 3 4 5 6 
#
# 1 0.021687 -0.005273 0.009130 0.000000 -0.035990 0.000000
# 2 -0.005273 0.012245 -0.003222 0.000000 -0.000133 0.000000
# 3 0.009130 -0.003222 0.022196 0.000000 -0.035668 0.000000
# 4 0.000000 0.000000 0.000000 0.063922 0.000000 -0.015916
# 5 -0.035990 -0.000133 -0.035668 0.000000 0.125373 0.000000
# 6 0.000000 0.000000 0.000000 -0.015916 0.000000 0.033456
#
#
# Mechanical properties :
#
#
# Convention : Reuss Voigt Hill
#
# Bulk Modulus (GPa) = 17.42267 63.74136 40.58201
# Shear Modulus (GPa) = 16.84964 30.18261 23.51613
#
# Velocity S-wave (km/s) = 3.03461 4.06150 3.58502
# Velocity P-wave (km/s) = 4.66911 7.53864 6.27024
#
# Compressibility (1/GPa) = 0.05739650
#
# Stress axis : x y z
#
# Youngs Moduli (GPa) = 46.11015 81.66606 45.05349
#
# Poissons Ratio (x) = 0.43066 -0.41132
# Poissons Ratio (y) = 0.24316 0.14516
# Poissons Ratio (z) = -0.42097 0.26312
#
# Static dielectric constant tensor:
#      x y z
#    x 3.156300 0.000000 0.194530 
#    y 0.000000 3.343900 0.000000 
#    z 0.194530 0.000000 3.083560 
# 
# 
# High freq. dielectric constant tensor:
#      x y z
#    x 1.699280 0.000000 0.025540 
#    y 0.000000 1.703120 0.000000 
#    z 0.025540 0.000000 1.683940 
# 
# From -- ./inp_files/196281.got.cif
#   From: 2010.06.25/outbox.cif.g09.slc.cpg/sg12_99_cif.got.tgz:196281.got - 2010.06.28 00:19:55.
