data_PCOD8083917
_publ_section_title
;
Structure prediction by ZEFSAII (Michael W. Deem and Ramdas Pophale) SiO2 
 PCOD8083917
Probable space group: C 2/M
;
_chemical_formula_sum "Si O2"
_cell_formula_units_Z 36
_cell_length_a 14.210886
_cell_length_b 17.844625
_cell_length_c 8.521433
_cell_angle_alpha 90.000000
_cell_angle_beta 118.977135
_cell_angle_gamma 90.000000
_cell_volume 1890.412141
_symmetry_space_group_name_H-M "C 2/M"
_symmetry_group_IT_number 12
_symmetry_cell_setting 'monoclinic'
loop_
_space_group_symop_operation_xyz
x,y,z
-x,y,-z
-x,-y,-z
x,-y,z
1/2+x,1/2+y,z
1/2-x,1/2+y,-z
1/2-x,1/2-y,-z
1/2+x,1/2-y,z
loop_
_atom_site_type_symbol
_atom_site_label
_atom_site_fract_x
_atom_site_fract_y
_atom_site_fract_z
Si Si1 0.792142 0.798308 0.888926
Si Si2 0.601160 0.810512 0.495396
Si Si3 0.679551 0.587937 0.841422
Si Si4 0.000000 0.166285 0.500000
Si Si5 0.113390 0.657832 0.154409
O O1 0.703178 0.818128 0.689074
O O2 0.882627 0.746781 0.881460
O O3 0.750000 0.750000 0.000000
O O4 0.834186 0.875985 0.996158
O O5 0.500000 0.850665 0.500000
O O6 0.571996 0.721742 0.447346
O O7 0.622581 0.851806 0.349037
O O8 0.678993 0.500000 0.862809
O O9 0.576979 0.612760 0.659454
O O10 0.790056 0.612293 0.846861
O O11 0.000000 0.625607 0.000000
#
# Coordination Sequence:
#
# PCOD8083917 Si02
#       5
#     8   8   8   4   8
#     4  10  18  35  55  83 113 146 195 238 278 333
#     4  10  18  33  62  91 107 142 194 251 289 317
#     4  11  23  38  56  83 123 160 184 227 296 354
#     4  10  19  36  62  84 109 148 192 242 281 332
#     4  11  20  35  61  89 113 145 197 245 281 339
#
# _framework density 19.043468000000001
#
# number of rings (size 3 to 8) (size 9 to 14) (size 15 to 20)
#    0.667    0.889    4.444    5.000    0.000    0.444 
#    0.000    1.111    0.000    4.667    0.000    0.000 
#    0.000    0.000    0.000    0.000    0.000    0.000 
#
# Total GULP energy -223046.417064 kJ/mol
# GULP energy per Si atom -12391.467615 kJ/mol
# Density = 1.900012 g / cm^3
# Si number density = 19.043468 Si / 1000 Ang^3
#
#
#
# Elastic Constant Matrix: (Units=GPa)
#
#
# Indices 1 2 3 4 5 6 
#
# 1 39.3962 6.8935 30.2990 0.0000 10.2737 0.0000
# 2 6.8935 90.6415 27.9787 0.0000 10.7324 0.0000
# 3 30.2990 27.9787 143.9566 0.0000 18.9031 0.0000
# 4 0.0000 0.0000 0.0000 15.5805 0.0000 0.6554
# 5 10.2737 10.7324 18.9031 0.0000 40.0194 0.0000
# 6 0.0000 0.0000 0.0000 0.6554 0.0000 14.3688
#
#
#
# Elastic Compliance Matrix: (Units=1/GPa)
#
#
# Indices 1 2 3 4 5 6 
#
# 1 0.031286 0.000067 -0.005907 0.000000 -0.005259 0.000000
# 2 0.000067 0.011922 -0.002035 0.000000 -0.002253 0.000000
# 3 -0.005907 -0.002035 0.008864 0.000000 -0.002125 0.000000
# 4 0.000000 0.000000 0.000000 0.064306 0.000000 -0.002933
# 5 -0.005259 -0.002253 -0.002125 0.000000 0.027946 0.000000
# 6 0.000000 0.000000 0.000000 -0.002933 0.000000 0.069729
#
#
# Mechanical properties :
#
#
# Convention : Reuss Voigt Hill
#
# Bulk Modulus (GPa) = 27.53206 44.92630 36.22918
# Shear Modulus (GPa) = 20.66857 27.91528 24.29193
#
# Velocity S-wave (km/s) = 3.29802 3.83282 3.57543
# Velocity P-wave (km/s) = 5.38437 6.57496 6.00922
#
# Compressibility (1/GPa) = 0.03632129
#
# Stress axis : x y z
#
# Youngs Moduli (GPa) = 31.96297 83.87546 112.81010
#
# Poissons Ratio (x) = -0.00560 0.66640
# Poissons Ratio (y) = -0.00213 0.22961
# Poissons Ratio (z) = 0.18881 0.17072
#
# Static dielectric constant tensor:
#      x y z
#    x 3.441970 0.000000 0.050620 
#    y 0.000000 3.321760 0.000000 
#    z 0.050620 0.000000 3.539290 
# 
# 
# High freq. dielectric constant tensor:
#      x y z
#    x 1.735220 0.000000 0.008860 
#    y 0.000000 1.697900 0.000000 
#    z 0.008860 0.000000 1.758500 
# 
# From -- ./inp_files/74758.got.cif
#   From: 2010.06.25/outbox.cif.g09.slc.cpg/sg12_38_cif.got.tgz:74758.got - 2010.06.28 00:19:55.
