data_PCOD8083209
_publ_section_title
;
Structure prediction by ZEFSAII (Michael W. Deem and Ramdas Pophale) SiO2 
 PCOD8083209
Probable space group: C 2/M
;
_chemical_formula_sum "Si O2"
_cell_formula_units_Z 56
_cell_length_a 20.175774
_cell_length_b 9.106052
_cell_length_c 19.527086
_cell_angle_alpha 90.000000
_cell_angle_beta 57.440933
_cell_angle_gamma 90.000000
_cell_volume 3023.718851
_symmetry_space_group_name_H-M "C 2/M"
_symmetry_group_IT_number 12
_symmetry_cell_setting 'monoclinic'
loop_
_space_group_symop_operation_xyz
x,y,z
-x,y,-z
-x,-y,-z
x,-y,z
1/2+x,1/2+y,z
1/2-x,1/2+y,-z
1/2-x,1/2-y,-z
1/2+x,1/2-y,z
loop_
_atom_site_type_symbol
_atom_site_label
_atom_site_fract_x
_atom_site_fract_y
_atom_site_fract_z
Si Si1 0.827672 0.672561 0.983174
Si Si2 0.862287 0.674615 0.253911
Si Si3 0.204163 0.327229 0.849941
Si Si4 0.464692 0.826042 0.806529
Si Si5 0.414198 0.325840 0.564412
Si Si6 0.264519 0.674441 0.564020
Si Si7 0.120809 0.826326 0.263557
O O1 0.813882 0.500000 0.982733
O O2 0.903566 0.725898 0.898935
O O3 0.750000 0.750000 0.000000
O O4 0.842527 0.714169 0.054757
O O5 0.861626 0.500000 0.250861
O O6 0.836996 0.742228 0.194229
O O7 0.802389 0.728186 0.345808
O O8 0.949450 0.732976 0.220984
O O9 0.207326 0.500000 0.836506
O O10 0.293567 0.271294 0.808202
O O11 0.444223 0.753142 0.745848
O O12 0.463619 0.000000 0.798490
O O13 0.500000 0.258703 0.500000
O O14 0.417504 0.500000 0.560733
O O15 0.349173 0.272448 0.545802
O O16 0.389654 0.272508 0.653079
O O17 0.261808 0.500000 0.556121
O O18 0.250000 0.750000 0.500000
O O19 0.109677 0.000000 0.262186
#
# Coordination Sequence:
#
# PCOD8083209 Si02
#       7
#     8   8   8   8   8   8   8
#     4  10  19  31  50  77 103 129 166 210 253 295
#     4   9  18  34  52  72 103 137 168 203 249 302
#     4   9  16  30  53  74  94 130 174 207 240 291
#     4  10  21  33  49  77 108 134 162 206 259 303
#     4   9  18  32  52  78 101 127 171 216 247 286
#     4  10  20  35  54  75 102 134 166 206 254 300
#     4  10  18  32  55  76  98 134 174 208 243 294
#
# _framework density 18.520240999999999
#
# number of rings (size 3 to 8) (size 9 to 14) (size 15 to 20)
#    0.000    2.429    2.857    0.000    2.000    0.571 
#    0.000    3.571    0.000    3.429    0.000    2.000 
#    0.000    0.000    0.000    0.000    0.000    0.000 
#
# Total GULP energy -347145.104714 kJ/mol
# GULP energy per Si atom -12398.039454 kJ/mol
# Density = 1.847809 g / cm^3
# Si number density = 18.520241 Si / 1000 Ang^3
#
#
#
# Elastic Constant Matrix: (Units=GPa)
#
#
# Indices 1 2 3 4 5 6 
#
# 1 175.3050 24.9651 82.4840 0.0001 4.7895 0.0006
# 2 24.9651 15.9952 21.8361 0.0003 2.8722 0.0017
# 3 82.4840 21.8361 130.7365 0.0000 6.1415 -0.0001
# 4 0.0001 0.0003 0.0000 17.5620 -0.0001 4.3496
# 5 4.7895 2.8722 6.1415 -0.0001 39.9705 0.0000
# 6 0.0006 0.0017 -0.0001 4.3496 0.0000 23.4443
#
#
#
# Elastic Compliance Matrix: (Units=1/GPa)
#
#
# Indices 1 2 3 4 5 6 
#
# 1 0.008841 -0.008036 -0.004244 0.000000 0.000170 0.000000
# 2 -0.008036 0.088856 -0.009586 0.000000 -0.003949 -0.000006
# 3 -0.004244 -0.009586 0.011957 0.000000 -0.000640 0.000001
# 4 0.000000 0.000000 0.000000 0.059684 0.000000 -0.011073
# 5 0.000170 -0.003949 -0.000640 0.000000 0.025380 0.000000
# 6 0.000000 -0.000006 0.000001 -0.011073 0.000000 0.044709
#
#
# Mechanical properties :
#
#
# Convention : Reuss Voigt Hill
#
# Bulk Modulus (GPa) = 15.16900 64.51191 39.84045
# Shear Modulus (GPa) = 16.38640 29.04545 22.71592
#
# Velocity S-wave (km/s) = 2.97776 3.96448 3.50601
# Velocity P-wave (km/s) = 4.47560 7.47429 6.16019
#
# Compressibility (1/GPa) = 0.06592394
#
# Stress axis : x y z
#
# Youngs Moduli (GPa) = 113.11243 11.25419 83.62994
#
# Poissons Ratio (x) = 0.09044 0.35489
# Poissons Ratio (y) = 0.90895 0.80164
# Poissons Ratio (z) = 0.48001 0.10788
#
# Static dielectric constant tensor:
#      x y z
#    x 3.664010 0.000000 -0.034580 
#    y 0.000000 2.876240 0.000000 
#    z -0.034580 0.000000 3.686500 
# 
# 
# High freq. dielectric constant tensor:
#      x y z
#    x 1.729110 0.000000 0.003920 
#    y 0.000000 1.661600 0.000000 
#    z 0.003920 0.000000 1.734010 
# 
# From -- ./inp_files/276386.got.cif
#   From: 2010.06.25/outbox.cif.g09.slc.cpg/sg12_139_cif.got.tgz:276386.got - 2010.06.28 00:19:55.
