data_PCOD8083132
_publ_section_title
;
Structure prediction by ZEFSAII (Michael W. Deem and Ramdas Pophale) SiO2 
 PCOD8083132
Probable space group: C 2/M
;
_chemical_formula_sum "Si O2"
_cell_formula_units_Z 64
_cell_length_a 15.423925
_cell_length_b 23.011110
_cell_length_c 15.255883
_cell_angle_alpha 90.000000
_cell_angle_beta 140.483472
_cell_angle_gamma 90.000000
_cell_volume 3445.341538
_symmetry_space_group_name_H-M "C 2/M"
_symmetry_group_IT_number 12
_symmetry_cell_setting 'monoclinic'
loop_
_space_group_symop_operation_xyz
x,y,z
-x,y,-z
-x,-y,-z
x,-y,z
1/2+x,1/2+y,z
1/2-x,1/2+y,-z
1/2-x,1/2-y,-z
1/2+x,1/2-y,z
loop_
_atom_site_type_symbol
_atom_site_label
_atom_site_fract_x
_atom_site_fract_y
_atom_site_fract_z
Si Si1 0.217876 0.434096 0.487963
Si Si2 0.198740 0.854492 0.596512
Si Si3 0.903157 0.146885 0.296653
Si Si4 0.484237 0.433261 0.209760
Si Si5 0.444629 0.160631 0.554737
Si Si6 0.796654 0.233299 0.688265
Si Si7 0.810102 0.730375 0.198486
Si Si8 0.948845 0.168830 0.059016
O O1 0.173272 0.500000 0.440590
O O2 0.243679 0.409223 0.410892
O O3 0.353073 0.428539 0.652777
O O4 0.091346 0.402858 0.436446
O O5 0.188001 0.871526 0.690728
O O6 0.301508 0.800430 0.662534
O O7 0.052297 0.834219 0.445999
O O8 0.908362 0.091830 0.236419
O O9 0.840744 0.202628 0.196577
O O10 0.438701 0.500000 0.161088
O O11 0.437418 0.396117 0.088909
O O12 0.500000 0.153948 0.500000
O O13 0.305040 0.197396 0.453098
O O14 0.555315 0.190850 0.703810
O O15 0.738747 0.230152 0.740276
O O16 0.946823 0.205870 0.799833
O O17 0.694434 0.702672 0.046454
O O18 0.000000 0.163061 0.000000
#
# Coordination Sequence:
#
# PCOD8083132 Si02
#       8
#     8   8   8   8   8   8   8   8
#     4  10  21  34  50  76 105 138 182 216 247 305
#     4   9  17  31  54  79 106 136 166 212 267 312
#     4   9  17  32  53  79 107 133 168 216 263 309
#     4  10  21  35  51  73 103 143 184 212 247 305
#     4  10  18  32  54  76 104 137 169 214 265 307
#     4   9  16  31  53  80 105 133 170 208 263 320
#     4   9  18  31  52  81 108 132 166 214 265 314
#     4  10  20  34  53  78 108 138 172 215 258 306
#
# _framework density 18.575807000000001
#
# number of rings (size 3 to 8) (size 9 to 14) (size 15 to 20)
#    0.000    2.500    2.500    0.000    0.000    3.000 
#    0.000    3.125    0.000    0.000    0.000    0.000 
#    0.000    7.000    0.000    0.000    0.000    0.000 
#
# Total GULP energy -396797.049441 kJ/mol
# GULP energy per Si atom -12399.907795 kJ/mol
# Density = 1.853353 g / cm^3
# Si number density = 18.575807 Si / 1000 Ang^3
#
#
#
# Elastic Constant Matrix: (Units=GPa)
#
#
# Indices 1 2 3 4 5 6 
#
# 1 39.6970 19.4201 19.9094 0.0000 5.7221 0.0000
# 2 19.4201 113.7736 37.0978 0.0000 10.0493 0.0000
# 3 19.9094 37.0978 82.6078 0.0000 15.3122 0.0000
# 4 0.0000 0.0000 0.0000 26.3187 0.0000 -1.5899
# 5 5.7221 10.0493 15.3122 0.0000 20.2826 0.0000
# 6 0.0000 0.0000 0.0000 -1.5899 0.0000 31.1435
#
#
#
# Elastic Compliance Matrix: (Units=1/GPa)
#
#
# Indices 1 2 3 4 5 6 
#
# 1 0.029759 -0.003116 -0.005235 0.000000 -0.002899 0.000000
# 2 -0.003116 0.010685 -0.003754 0.000000 -0.001581 0.000000
# 3 -0.005235 -0.003754 0.016783 0.000000 -0.009333 0.000000
# 4 0.000000 0.000000 0.000000 0.038113 0.000000 0.001946
# 5 -0.002899 -0.001581 -0.009333 0.000000 0.057950 0.000000
# 6 0.000000 0.000000 0.000000 0.001946 0.000000 0.032209
#
#
# Mechanical properties :
#
#
# Convention : Reuss Voigt Hill
#
# Bulk Modulus (GPa) = 30.28937 43.21478 36.75207
# Shear Modulus (GPa) = 22.65345 26.19239 24.42292
#
# Velocity S-wave (km/s) = 3.49594 3.75911 3.62991
# Velocity P-wave (km/s) = 5.71285 6.49274 6.11524
#
# Compressibility (1/GPa) = 0.03301489
#
# Stress axis : x y z
#
# Youngs Moduli (GPa) = 33.60332 93.58794 59.58337
#
# Poissons Ratio (x) = 0.29166 0.31194
# Poissons Ratio (y) = 0.10472 0.22370
# Poissons Ratio (z) = 0.17592 0.35137
#
# Static dielectric constant tensor:
#      x y z
#    x 3.324610 0.000000 0.053980 
#    y 0.000000 3.354090 0.000000 
#    z 0.053980 0.000000 3.380670 
# 
# 
# High freq. dielectric constant tensor:
#      x y z
#    x 1.718910 0.000000 -0.005560 
#    y 0.000000 1.712530 0.000000 
#    z -0.005560 0.000000 1.696570 
# 
# From -- ./inp_files/218509.got.cif
#   From: 2010.06.25/outbox.cif.g09.slc.cpg/sg12_110_cif.got.tgz:218509.got - 2010.06.28 00:19:55.
