data_PCOD8083078
_publ_section_title
;
Structure prediction by ZEFSAII (Michael W. Deem and Ramdas Pophale) SiO2 
 PCOD8083078
Probable space group: C 2/M
;
_chemical_formula_sum "Si O2"
_cell_formula_units_Z 48
_cell_length_a 29.189586
_cell_length_b 22.966739
_cell_length_c 12.577219
_cell_angle_alpha 90.000000
_cell_angle_beta 18.972615
_cell_angle_gamma 90.000000
_cell_volume 2741.261723
_symmetry_space_group_name_H-M "C 2/M"
_symmetry_group_IT_number 12
_symmetry_cell_setting 'monoclinic'
loop_
_space_group_symop_operation_xyz
x,y,z
-x,y,-z
-x,-y,-z
x,-y,z
1/2+x,1/2+y,z
1/2-x,1/2+y,-z
1/2-x,1/2-y,-z
1/2+x,1/2-y,z
loop_
_atom_site_type_symbol
_atom_site_label
_atom_site_fract_x
_atom_site_fract_y
_atom_site_fract_z
Si Si1 0.797723 0.373545 0.231121
Si Si2 0.489271 0.648670 0.825558
Si Si3 0.562189 0.433846 0.479136
Si Si4 0.897801 0.263189 0.123986
Si Si5 0.349835 0.562401 0.274596
Si Si6 0.122743 0.433229 0.155267
O O1 0.640560 0.351860 0.549778
O O2 0.895286 0.323256 0.065025
O O3 0.775742 0.423805 0.367056
O O4 0.877718 0.397719 0.953059
O O5 0.498228 0.618124 0.690817
O O6 0.440562 0.715650 0.939597
O O7 0.364026 0.613429 0.158205
O O8 0.500000 0.424543 0.500000
O O9 0.527049 0.500000 0.598646
O O10 0.730172 0.426525 0.105671
O O11 0.750000 0.250000 0.500000
O O12 0.000000 0.265788 0.000000
O O13 0.312536 0.500000 0.303296
O O14 0.500000 0.556429 0.000000
O O15 0.090728 0.500000 0.196974
O O16 0.000000 0.407760 0.500000
#
# Coordination Sequence:
#
# PCOD8083078 Si02
#       6
#     8   8   8   8   8   8
#     4  10  19  33  53  77 104 138 178 215 261 319
#     4  10  18  32  53  77 105 137 177 216 262 316
#     4   9  18  34  56  81 107 136 173 220 268 310
#     4  12  21  37  55  77 108 144 178 218 266 316
#     4   9  15  25  47  78 103 126 167 217 260 308
#     4   9  18  35  57  79 106 140 175 214 264 319
#
# _framework density 17.510185
#
# number of rings (size 3 to 8) (size 9 to 14) (size 15 to 20)
#    0.000    2.167    3.333    1.500    0.000    4.000 
#    3.000    0.833    0.000    6.000    0.000    0.000 
#    0.000    0.000    0.000    0.000    0.000    0.000 
#
# Total GULP energy -297389.792469 kJ/mol
# GULP energy per Si atom -12391.241353 kJ/mol
# Density = 1.747033 g / cm^3
# Si number density = 17.510185 Si / 1000 Ang^3
#
#
#
# Elastic Constant Matrix: (Units=GPa)
#
#
# Indices 1 2 3 4 5 6 
#
# 1 99.3774 55.7966 49.8713 0.0013 7.8564 -0.0006
# 2 55.7966 121.1900 48.3773 -0.0045 10.7262 -0.0003
# 3 49.8713 48.3773 98.5011 -0.0090 23.8569 0.0026
# 4 0.0013 -0.0045 -0.0090 9.9212 0.0008 10.1545
# 5 7.8564 10.7262 23.8569 0.0008 25.9872 0.0005
# 6 -0.0006 -0.0003 0.0026 10.1545 0.0005 30.5235
#
#
#
# Elastic Compliance Matrix: (Units=1/GPa)
#
#
# Indices 1 2 3 4 5 6 
#
# 1 0.015794 -0.005043 -0.006259 -0.000017 0.003053 0.000006
# 2 -0.005043 0.011879 -0.003167 0.000004 -0.000471 -0.000001
# 3 -0.006259 -0.003167 0.018133 0.000028 -0.013448 -0.000011
# 4 -0.000017 0.000004 0.000028 0.152833 -0.000027 -0.050844
# 5 0.003053 -0.000471 -0.013448 -0.000027 0.050098 0.000009
# 6 0.000006 -0.000001 -0.000011 -0.050844 0.000009 0.049676
#
#
# Mechanical properties :
#
#
# Convention : Reuss Voigt Hill
#
# Bulk Modulus (GPa) = 59.28144 69.68434 64.48289
# Shear Modulus (GPa) = 15.01618 24.28794 19.65206
#
# Velocity S-wave (km/s) = 2.93160 3.72839 3.35374
# Velocity P-wave (km/s) = 6.73706 7.64312 7.20435
#
# Compressibility (1/GPa) = 0.01686869
#
# Stress axis : x y z
#
# Youngs Moduli (GPa) = 63.31562 84.17990 55.14698
#
# Poissons Ratio (x) = 0.42455 0.34516
# Poissons Ratio (y) = 0.31932 0.17464
# Poissons Ratio (z) = 0.39628 0.26658
#
# Static dielectric constant tensor:
#      x y z
#    x 3.036470 -0.000010 0.144530 
#    y -0.000010 3.566180 0.000020 
#    z 0.144530 0.000020 3.196540 
# 
# 
# High freq. dielectric constant tensor:
#      x y z
#    x 1.653530 0.000000 0.012100 
#    y 0.000000 1.679100 0.000000 
#    z 0.012100 0.000000 1.667560 
# 
# From -- ./inp_files/185015.got.cif
#   From: 2010.06.25/outbox.cif.g09.slc.cpg/sg12_93_cif.got.tgz:185015.got - 2010.06.28 00:19:55.
