data_PCOD8083445
_publ_section_title
;
Structure prediction by ZEFSAII (Michael W. Deem and Ramdas Pophale) SiO2 
 PCOD8083445
Probable space group: C 2/M
;
_chemical_formula_sum "Si O2"
_cell_formula_units_Z 64
_cell_length_a 17.824255
_cell_length_b 21.212482
_cell_length_c 9.494206
_cell_angle_alpha 90.000000
_cell_angle_beta 85.602503
_cell_angle_gamma 90.000000
_cell_volume 3579.160057
_symmetry_space_group_name_H-M "C 2/M"
_symmetry_group_IT_number 12
_symmetry_cell_setting 'monoclinic'
loop_
_space_group_symop_operation_xyz
x,y,z
-x,y,-z
-x,-y,-z
x,-y,z
1/2+x,1/2+y,z
1/2-x,1/2+y,-z
1/2-x,1/2-y,-z
1/2+x,1/2-y,z
loop_
_atom_site_type_symbol
_atom_site_label
_atom_site_fract_x
_atom_site_fract_y
_atom_site_fract_z
Si Si1 0.311153 0.626670 0.241592
Si Si2 0.697781 0.221599 0.127754
Si Si3 0.816203 0.068748 0.958738
Si Si4 0.196031 0.926503 0.449441
Si Si5 0.677598 0.929383 0.783511
Si Si6 0.035455 0.194371 0.844559
Si Si7 0.421946 0.170559 0.067553
Si Si8 0.385024 0.661623 0.750674
O O1 0.246353 0.677829 0.223382
O O2 0.297605 0.594307 0.391835
O O3 0.394219 0.654461 0.216883
O O4 0.305085 0.571928 0.126923
O O5 0.667395 0.276723 0.233529
O O6 0.750000 0.250000 0.000000
O O7 0.630172 0.184654 0.060741
O O8 0.735114 0.080317 0.902844
O O9 0.873671 0.121476 0.895863
O O10 0.847332 0.000000 0.911428
O O11 0.278094 0.916468 0.368304
O O12 0.134934 0.882132 0.380001
O O13 0.171498 0.000000 0.439500
O O14 0.611911 0.879030 0.816390
O O15 0.643507 0.000000 0.788615
O O16 0.061691 0.266513 0.846539
O O17 0.971676 0.183670 0.734246
O O18 0.000000 0.174245 0.000000
O O19 0.500000 0.141595 0.000000
#
# Coordination Sequence:
#
# PCOD8083445 Si02
#       8
#     8   8   8   8   8   8   8   8
#     4  12  22  35  60  87 117 153 202 241 293 346
#     4  12  18  33  60  89 117 151 190 252 293 343
#     4  10  18  32  58  85 110 149 203 240 278 339
#     4  10  24  43  60  82 122 161 199 242 286 345
#     4   9  19  37  60  85 116 156 193 242 292 347
#     4  11  20  35  57  87 121 154 187 251 299 346
#     4  11  19  34  60  94 121 147 188 250 304 343
#     4  11  20  38  57  81 119 158 194 234 301 345
#
# _framework density 17.881291000000001
#
# number of rings (size 3 to 8) (size 9 to 14) (size 15 to 20)
#    0.000    1.250    7.500    2.250    0.000    1.250 
#    0.000    3.750    0.000    0.750    0.000    1.750 
#    0.000    0.000    0.000    0.000    0.000    0.000 
#
# Total GULP energy -396698.137595 kJ/mol
# GULP energy per Si atom -12396.816800 kJ/mol
# Density = 1.784059 g / cm^3
# Si number density = 17.881291 Si / 1000 Ang^3
#
#
#
# Elastic Constant Matrix: (Units=GPa)
#
#
# Indices 1 2 3 4 5 6 
#
# 1 102.4174 46.5743 34.9850 0.0000 -5.1870 0.0000
# 2 46.5743 92.3312 38.4840 0.0000 -3.3067 0.0000
# 3 34.9850 38.4840 114.6048 0.0000 -0.1984 0.0000
# 4 0.0000 0.0000 0.0000 29.3735 0.0000 -0.6982
# 5 -5.1870 -3.3067 -0.1984 0.0000 18.8433 0.0000
# 6 0.0000 0.0000 0.0000 -0.6982 0.0000 24.5432
#
#
#
# Elastic Compliance Matrix: (Units=1/GPa)
#
#
# Indices 1 2 3 4 5 6 
#
# 1 0.013205 -0.005685 -0.002118 0.000000 0.002615 0.000000
# 2 -0.005685 0.015129 -0.003343 0.000000 0.001055 0.000000
# 3 -0.002118 -0.003343 0.010493 0.000000 -0.001059 0.000000
# 4 0.000000 0.000000 0.000000 0.034067 0.000000 0.000969
# 5 0.002615 0.001055 -0.001059 0.000000 0.053963 0.000000
# 6 0.000000 0.000000 0.000000 0.000969 0.000000 0.040772
#
#
# Mechanical properties :
#
#
# Convention : Reuss Voigt Hill
#
# Bulk Modulus (GPa) = 60.47353 61.04890 60.76121
# Shear Modulus (GPa) = 25.58426 27.17264 26.37845
#
# Velocity S-wave (km/s) = 3.78667 3.90245 3.84500
# Velocity P-wave (km/s) = 7.28089 7.38382 7.33254
#
# Compressibility (1/GPa) = 0.01653616
#
# Stress axis : x y z
#
# Youngs Moduli (GPa) = 75.72981 66.09693 95.30265
#
# Poissons Ratio (x) = 0.37573 0.20181
# Poissons Ratio (y) = 0.43049 0.31862
# Poissons Ratio (z) = 0.16037 0.22098
#
# Static dielectric constant tensor:
#      x y z
#    x 3.434760 0.000000 0.018900 
#    y 0.000000 3.482630 0.000000 
#    z 0.018900 0.000000 3.149060 
# 
# 
# High freq. dielectric constant tensor:
#      x y z
#    x 1.686300 0.000000 0.000390 
#    y 0.000000 1.700970 0.000000 
#    z 0.000390 0.000000 1.669880 
# 
# From -- ./inp_files/77537.got.cif
#   From: 2010.06.25/outbox.cif.g09.slc.cpg/sg12_39_cif.got.tgz:77537.got - 2010.06.28 00:19:55.
