data_PCOD8083640
_publ_section_title
;
Structure prediction by ZEFSAII (Michael W. Deem and Ramdas Pophale) SiO2 
 PCOD8083640
Probable space group: C 2/M
;
_chemical_formula_sum "Si O2"
_cell_formula_units_Z 56
_cell_length_a 19.260904
_cell_length_b 8.967997
_cell_length_c 24.104389
_cell_angle_alpha 90.000000
_cell_angle_beta 131.760792
_cell_angle_gamma 90.000000
_cell_volume 3105.756847
_symmetry_space_group_name_H-M "C 2/M"
_symmetry_group_IT_number 12
_symmetry_cell_setting 'monoclinic'
loop_
_space_group_symop_operation_xyz
x,y,z
-x,y,-z
-x,-y,-z
x,-y,z
1/2+x,1/2+y,z
1/2-x,1/2+y,-z
1/2-x,1/2-y,-z
1/2+x,1/2-y,z
loop_
_atom_site_type_symbol
_atom_site_label
_atom_site_fract_x
_atom_site_fract_y
_atom_site_fract_z
Si Si1 0.690015 0.174263 0.740564
Si Si2 0.953444 0.823783 0.060492
Si Si3 0.810822 0.828110 0.700939
Si Si4 0.638281 0.324306 0.098214
Si Si5 0.186073 0.171564 0.421773
Si Si6 0.476830 0.323479 0.295217
Si Si7 0.004658 0.323701 0.809078
O O1 0.726875 0.205964 0.698161
O O2 0.765060 0.236302 0.825295
O O3 0.595709 0.267265 0.697416
O O4 0.669307 0.000000 0.738522
O O5 0.051544 0.765145 0.088023
O O6 0.933414 0.734926 0.106456
O O7 0.954725 0.000000 0.072960
O O8 0.873310 0.781771 0.972844
O O9 0.775538 0.795895 0.619778
O O10 0.898349 0.725728 0.762219
O O11 0.844270 0.000000 0.724251
O O12 0.636476 0.500000 0.104265
O O13 0.250000 0.250000 0.500000
O O14 0.079514 0.227564 0.369347
O O15 0.190954 0.000000 0.439204
O O16 0.471784 0.500000 0.285152
O O17 0.452746 0.247267 0.223830
O O18 0.011743 0.500000 0.808501
#
# Coordination Sequence:
#
# PCOD8083640 Si02
#       7
#     8   8   8   8   8   8   8
#     4  10  18  33  55  80 106 135 175 219 257 306
#     4   9  15  29  50  73 101 137 177 218 265 310
#     4   9  18  34  56  79 106 139 173 210 256 309
#     4   8  15  27  50  76 100 136 177 214 261 312
#     4   9  19  36  58  81 104 134 170 208 252 305
#     4  10  22  38  54  75 106 141 172 209 262 316
#     4  11  20  31  50  77 103 135 181 225 260 303
#
# _framework density 18.031032
#
# number of rings (size 3 to 8) (size 9 to 14) (size 15 to 20)
#    0.000    2.571    1.429    3.429    0.000    3.429 
#    0.000    3.571    0.000    4.286    0.000    0.000 
#    0.000    0.000    0.000    0.000    0.000    0.000 
#
# Total GULP energy -347124.362447 kJ/mol
# GULP energy per Si atom -12397.298659 kJ/mol
# Density = 1.798999 g / cm^3
# Si number density = 18.031032 Si / 1000 Ang^3
#
#
#
# Elastic Constant Matrix: (Units=GPa)
#
#
# Indices 1 2 3 4 5 6 
#
# 1 109.8315 36.8922 51.8825 0.0000 -2.5475 0.0000
# 2 36.8922 64.8258 32.4763 0.0000 -3.7888 0.0000
# 3 51.8825 32.4763 118.7219 0.0000 -10.6186 0.0000
# 4 0.0000 0.0000 0.0000 26.6584 0.0000 -1.5447
# 5 -2.5475 -3.7888 -10.6186 0.0000 21.2647 0.0000
# 6 0.0000 0.0000 0.0000 -1.5447 0.0000 26.8758
#
#
#
# Elastic Compliance Matrix: (Units=1/GPa)
#
#
# Indices 1 2 3 4 5 6 
#
# 1 0.012878 -0.005250 -0.004331 0.000000 -0.001555 0.000000
# 2 -0.005250 0.020028 -0.003058 0.000000 0.001413 0.000000
# 3 -0.004331 -0.003058 0.011574 0.000000 0.004716 0.000000
# 4 0.000000 0.000000 0.000000 0.037637 0.000000 0.002163
# 5 -0.001555 0.001413 0.004716 0.000000 0.049446 0.000000
# 6 0.000000 0.000000 0.000000 0.002163 0.000000 0.037333
#
#
# Mechanical properties :
#
#
# Convention : Reuss Voigt Hill
#
# Bulk Modulus (GPa) = 52.07666 59.54237 55.80951
# Shear Modulus (GPa) = 24.92832 26.43500 25.68166
#
# Velocity S-wave (km/s) = 3.72226 3.83310 3.77809
# Velocity P-wave (km/s) = 6.88608 7.25838 7.07468
#
# Compressibility (1/GPa) = 0.01920246
#
# Stress axis : x y z
#
# Youngs Moduli (GPa) = 77.65127 49.92913 86.40104
#
# Poissons Ratio (x) = 0.26214 0.37418
# Poissons Ratio (y) = 0.40768 0.26422
# Poissons Ratio (z) = 0.33629 0.15269
#
# Static dielectric constant tensor:
#      x y z
#    x 3.288950 0.000000 -0.125580 
#    y 0.000000 3.088810 0.000000 
#    z -0.125580 0.000000 3.448900 
# 
# 
# High freq. dielectric constant tensor:
#      x y z
#    x 1.685920 0.000000 -0.015810 
#    y 0.000000 1.678230 0.000000 
#    z -0.015810 0.000000 1.691960 
# 
# From -- ./inp_files/280170.got.cif
#   From: 2010.06.25/outbox.cif.g09.slc.cpg/sg12_141_cif.got.tgz:280170.got - 2010.06.28 00:19:55.
