data_PCOD8083589
_publ_section_title
;
Structure prediction by ZEFSAII (Michael W. Deem and Ramdas Pophale) SiO2 
 PCOD8083589
Probable space group: C 2/M
;
_chemical_formula_sum "Si O2"
_cell_formula_units_Z 56
_cell_length_a 25.223366
_cell_length_b 8.580768
_cell_length_c 22.250529
_cell_angle_alpha 90.000000
_cell_angle_beta 139.321521
_cell_angle_gamma 90.000000
_cell_volume 3139.011853
_symmetry_space_group_name_H-M "C 2/M"
_symmetry_group_IT_number 12
_symmetry_cell_setting 'monoclinic'
loop_
_space_group_symop_operation_xyz
x,y,z
-x,y,-z
-x,-y,-z
x,-y,z
1/2+x,1/2+y,z
1/2-x,1/2+y,-z
1/2-x,1/2-y,-z
1/2+x,1/2-y,z
loop_
_atom_site_type_symbol
_atom_site_label
_atom_site_fract_x
_atom_site_fract_y
_atom_site_fract_z
Si Si1 0.500712 0.816868 0.090391
Si Si2 0.582729 0.184068 0.411015
Si Si3 0.544367 0.816329 0.599406
Si Si4 0.763923 0.815458 0.393315
Si Si5 0.715055 0.683155 0.724394
Si Si6 0.910567 0.315414 0.717249
Si Si7 0.121575 0.818058 0.099996
O O1 0.521868 0.761292 0.176303
O O2 0.578253 0.779802 0.115301
O O3 0.482972 0.000000 0.071874
O O4 0.421071 0.723776 0.000122
O O5 0.510828 0.241459 0.392654
O O6 0.668296 0.254861 0.503325
O O7 0.562958 0.241034 0.326275
O O8 0.591257 0.000000 0.422312
O O9 0.500000 0.766032 0.500000
O O10 0.628847 0.726561 0.678876
O O11 0.560807 0.000000 0.614861
O O12 0.782035 0.755307 0.341613
O O13 0.677618 0.746116 0.340931
O O14 0.764260 0.000000 0.394854
O O15 0.730096 0.500000 0.741434
O O16 0.784298 0.770329 0.822292
O O17 0.903243 0.500000 0.713220
O O18 0.111425 0.000000 0.104325
#
# Coordination Sequence:
#
# PCOD8083589 Si02
#       7
#     8   8   8   8   8   8   8
#     4  10  18  33  54  76 106 138 171 208 254 310
#     4  10  20  34  52  73 103 141 177 210 254 303
#     4  10  20  34  51  75 104 137 174 216 260 301
#     4  10  19  32  49  74 105 135 173 212 253 303
#     4  11  21  34  54  76 102 138 174 213 258 305
#     4   9  18  33  52  75 104 139 174 209 250 306
#     4  11  21  33  51  79 108 133 168 212 262 310
#
# _framework density 17.840008000000001
#
# number of rings (size 3 to 8) (size 9 to 14) (size 15 to 20)
#    0.000    1.857    2.857    3.429    0.000    1.429 
#    0.000    1.429    0.000    0.857    0.000    0.000 
#    0.000    0.000    0.000    0.000    0.000    0.000 
#
# Total GULP energy -347247.009015 kJ/mol
# GULP energy per Si atom -12401.678893 kJ/mol
# Density = 1.779940 g / cm^3
# Si number density = 17.840008 Si / 1000 Ang^3
#
#
#
# Elastic Constant Matrix: (Units=GPa)
#
#
# Indices 1 2 3 4 5 6 
#
# 1 113.6738 14.1466 63.6410 0.0000 -11.5018 0.0000
# 2 14.1466 39.0874 24.9373 0.0000 -1.2726 0.0000
# 3 63.6410 24.9373 146.5742 0.0000 -8.8409 0.0000
# 4 0.0000 0.0000 0.0000 29.5167 0.0000 5.7546
# 5 -11.5018 -1.2726 -8.8409 0.0000 28.4771 0.0000
# 6 0.0000 0.0000 0.0000 5.7546 0.0000 13.5992
#
#
#
# Elastic Compliance Matrix: (Units=1/GPa)
#
#
# Indices 1 2 3 4 5 6 
#
# 1 0.011960 -0.001161 -0.004797 0.000000 0.003290 0.000000
# 2 -0.001161 0.028813 -0.004432 0.000000 -0.000557 0.000000
# 3 -0.004797 -0.004432 0.009712 0.000000 0.000880 0.000000
# 4 0.000000 0.000000 0.000000 0.036925 0.000000 -0.015625
# 5 0.003290 -0.000557 0.000880 0.000000 0.036693 0.000000
# 6 0.000000 0.000000 0.000000 -0.015625 0.000000 0.080146
#
#
# Mechanical properties :
#
#
# Convention : Reuss Voigt Hill
#
# Bulk Modulus (GPa) = 33.66303 56.08723 44.87513
# Shear Modulus (GPa) = 21.28287 27.42595 24.35441
#
# Velocity S-wave (km/s) = 3.45771 3.92513 3.69881
# Velocity P-wave (km/s) = 5.90350 7.21453 6.59169
#
# Compressibility (1/GPa) = 0.02970618
#
# Stress axis : x y z
#
# Youngs Moduli (GPa) = 83.61163 34.70644 102.96210
#
# Poissons Ratio (x) = 0.04030 0.49391
# Poissons Ratio (y) = 0.09708 0.45628
# Poissons Ratio (z) = 0.40108 0.15380
#
# Static dielectric constant tensor:
#      x y z
#    x 3.338740 0.000000 -0.127110 
#    y 0.000000 3.102970 0.000000 
#    z -0.127110 0.000000 3.474000 
# 
# 
# High freq. dielectric constant tensor:
#      x y z
#    x 1.668640 0.000000 -0.001770 
#    y 0.000000 1.679300 0.000000 
#    z -0.001770 0.000000 1.696850 
# 
# From -- ./inp_files/348639.got.cif
#   From: 2010.06.25/outbox.cif.g09.slc.cpg/sg12_175_cif.got.tgz:348639.got - 2010.06.28 00:19:55.
