data_PCOD8083232
_publ_section_title
;
Structure prediction by ZEFSAII (Michael W. Deem and Ramdas Pophale) SiO2 
 PCOD8083232
Probable space group: C 2/M
;
_chemical_formula_sum "Si O2"
_cell_formula_units_Z 64
_cell_length_a 20.552004
_cell_length_b 9.204939
_cell_length_c 26.123094
_cell_angle_alpha 90.000000
_cell_angle_beta 134.633273
_cell_angle_gamma 90.000000
_cell_volume 3516.792397
_symmetry_space_group_name_H-M "C 2/M"
_symmetry_group_IT_number 12
_symmetry_cell_setting 'monoclinic'
loop_
_space_group_symop_operation_xyz
x,y,z
-x,y,-z
-x,-y,-z
x,-y,z
1/2+x,1/2+y,z
1/2-x,1/2+y,-z
1/2-x,1/2-y,-z
1/2+x,1/2-y,z
loop_
_atom_site_type_symbol
_atom_site_label
_atom_site_fract_x
_atom_site_fract_y
_atom_site_fract_z
Si Si1 0.898920 0.828308 0.451237
Si Si2 0.855796 0.830950 0.841008
Si Si3 0.051288 0.827563 0.912455
Si Si4 0.185930 0.827926 0.700987
Si Si5 0.388151 0.328606 0.164739
Si Si6 0.476451 0.670937 0.317407
Si Si7 0.160660 0.172818 0.470861
Si Si8 0.800892 0.168904 0.925278
O O1 0.835084 0.781294 0.368830
O O2 0.854312 0.773767 0.479248
O O3 0.000000 0.760017 0.500000
O O4 0.909495 0.000000 0.459167
O O5 0.780384 0.744486 0.768179
O O6 0.848300 0.803438 0.897179
O O7 0.953554 0.768406 0.877014
O O8 0.845119 0.000000 0.821730
O O9 0.070690 0.771025 0.865834
O O10 0.050053 0.000000 0.914391
O O11 0.130816 0.769439 0.993716
O O12 0.105052 0.765797 0.692442
O O13 0.195614 0.000000 0.712502
O O14 0.371708 0.500000 0.154195
O O15 0.459241 0.285589 0.248867
O O16 0.292040 0.256417 0.123127
O O17 0.476390 0.500000 0.325610
O O18 0.574776 0.730028 0.389739
O O19 0.250000 0.250000 0.500000
O O20 0.172488 0.000000 0.473450
O O21 0.778899 0.000000 0.921728
#
# Coordination Sequence:
#
# PCOD8083232 Si02
#       8
#     8   8   8   8   8   8   8   8
#     4   9  16  30  55  78  96 130 176 210 239 291
#     4  10  20  34  52  75 103 136 170 207 255 308
#     4   9  19  34  51  72 102 138 172 205 249 309
#     4  10  18  32  55  79 100 128 173 219 251 290
#     4  10  19  33  54  77 100 132 173 211 251 302
#     4   9  17  31  53  75  99 132 168 205 248 301
#     4  10  20  35  54  79 107 136 169 206 252 302
#     4  10  19  33  53  75 100 134 173 211 251 300
#
# _framework density 18.198401
#
# number of rings (size 3 to 8) (size 9 to 14) (size 15 to 20)
#    0.000    2.375    2.500    0.750    0.000    2.500 
#    0.000    4.375    0.000    2.250    0.000    0.000 
#    0.000    0.000    0.000    0.000    0.000    0.000 
#
# Total GULP energy -396790.186112 kJ/mol
# GULP energy per Si atom -12399.693316 kJ/mol
# Density = 1.815698 g / cm^3
# Si number density = 18.198401 Si / 1000 Ang^3
#
#
#
# Elastic Constant Matrix: (Units=GPa)
#
#
# Indices 1 2 3 4 5 6 
#
# 1 120.6839 29.8719 60.8254 0.0000 -5.9230 0.0000
# 2 29.8719 24.6382 33.4862 0.0000 -0.6223 0.0000
# 3 60.8254 33.4862 153.5922 0.0000 -8.8792 0.0000
# 4 0.0000 0.0000 0.0000 23.5291 0.0000 6.3441
# 5 -5.9230 -0.6223 -8.8792 0.0000 35.7619 0.0000
# 6 0.0000 0.0000 0.0000 6.3441 0.0000 23.6314
#
#
#
# Elastic Compliance Matrix: (Units=1/GPa)
#
#
# Indices 1 2 3 4 5 6 
#
# 1 0.012453 -0.012030 -0.002234 0.000000 0.001299 0.000000
# 2 -0.012030 0.069462 -0.010577 0.000000 -0.003410 0.000000
# 3 -0.002234 -0.010577 0.009810 0.000000 0.001882 0.000000
# 4 0.000000 0.000000 0.000000 0.045817 0.000000 -0.012300
# 5 0.001299 -0.003410 0.001882 0.000000 0.028586 0.000000
# 6 0.000000 0.000000 0.000000 -0.012300 0.000000 0.045619
#
#
# Mechanical properties :
#
#
# Convention : Reuss Voigt Hill
#
# Bulk Modulus (GPa) = 23.78468 60.80903 42.29686
# Shear Modulus (GPa) = 18.15253 28.23320 23.19286
#
# Velocity S-wave (km/s) = 3.16172 3.94307 3.57381
# Velocity P-wave (km/s) = 5.14068 7.36325 6.34996
#
# Compressibility (1/GPa) = 0.04204387
#
# Stress axis : x y z
#
# Youngs Moduli (GPa) = 80.29932 14.39633 101.93383
#
# Poissons Ratio (x) = 0.17318 0.22772
# Poissons Ratio (y) = 0.96598 1.07818
# Poissons Ratio (z) = 0.17939 0.15227
#
# Static dielectric constant tensor:
#      x y z
#    x 3.506970 0.000000 -0.142890 
#    y 0.000000 2.915110 0.000000 
#    z -0.142890 0.000000 3.672620 
# 
# 
# High freq. dielectric constant tensor:
#      x y z
#    x 1.713000 0.000000 -0.005310 
#    y 0.000000 1.656790 0.000000 
#    z -0.005310 0.000000 1.723550 
# 
# From -- ./inp_files/343084.got.cif
#   From: 2010.06.25/outbox.cif.g09.slc.cpg/sg12_172_cif.got.tgz:343084.got - 2010.06.28 00:19:55.
