data_PCOD8083570
_publ_section_title
;
Structure prediction by ZEFSAII (Michael W. Deem and Ramdas Pophale) SiO2 
 PCOD8083570
Probable space group: C 2/M
;
_chemical_formula_sum "Si O2"
_cell_formula_units_Z 48
_cell_length_a 15.323910
_cell_length_b 22.848008
_cell_length_c 11.681621
_cell_angle_alpha 90.000000
_cell_angle_beta 141.733900
_cell_angle_gamma 90.000000
_cell_volume 2532.983514
_symmetry_space_group_name_H-M "C 2/M"
_symmetry_group_IT_number 12
_symmetry_cell_setting 'monoclinic'
loop_
_space_group_symop_operation_xyz
x,y,z
-x,y,-z
-x,-y,-z
x,-y,z
1/2+x,1/2+y,z
1/2-x,1/2+y,-z
1/2-x,1/2-y,-z
1/2+x,1/2-y,z
loop_
_atom_site_type_symbol
_atom_site_label
_atom_site_fract_x
_atom_site_fract_y
_atom_site_fract_z
Si Si1 0.287410 0.065120 0.228081
Si Si2 0.740282 0.312140 0.115515
Si Si3 0.980788 0.264226 0.225719
Si Si4 0.429541 0.064356 0.614098
Si Si5 0.397794 0.144839 0.798898
Si Si6 0.350256 0.280510 0.402821
O O1 0.192069 0.121750 0.100150
O O2 0.338896 0.078690 0.408724
O O3 0.409120 0.065950 0.258556
O O4 0.214055 0.000000 0.147303
O O5 0.890683 0.312430 0.204304
O O6 0.761437 0.269154 0.245125
O O7 0.618540 0.290666 0.905195
O O8 0.034106 0.292691 0.163558
O O9 0.116825 0.243233 0.436578
O O10 0.388755 0.106679 0.675442
O O11 0.392099 0.000000 0.621350
O O12 0.241943 0.159561 0.687132
O O13 0.500000 0.115375 0.000000
O O14 0.500000 0.296168 0.500000
#
# Coordination Sequence:
#
# PCOD8083570 Si02
#       6
#     8   8   8   8   8   8
#     4   9  17  32  56  82 109 143 186 233 282 326
#     4  10  18  33  53  81 113 144 184 225 279 327
#     4  10  20  32  51  77 114 150 180 224 275 331
#     4   9  19  33  53  81 109 145 188 234 280 322
#     4  12  21  35  54  82 114 146 190 225 273 342
#     4  10  22  35  53  79 114 151 182 228 282 329
#
# _framework density 18.949985999999999
#
# number of rings (size 3 to 8) (size 9 to 14) (size 15 to 20)
#    0.000    2.000    3.333    2.500    4.667    0.333 
#    0.000    0.000    0.000    1.500    0.000    4.667 
#    0.000    0.000    0.000    0.000    0.000    0.000 
#
# Total GULP energy -297388.502305 kJ/mol
# GULP energy per Si atom -12391.187596 kJ/mol
# Density = 1.890686 g / cm^3
# Si number density = 18.949986 Si / 1000 Ang^3
#
#
#
# Elastic Constant Matrix: (Units=GPa)
#
#
# Indices 1 2 3 4 5 6 
#
# 1 69.7483 36.8369 18.5429 0.0000 -8.1400 0.0000
# 2 36.8369 109.0004 30.7395 0.0000 -9.4577 0.0000
# 3 18.5429 30.7395 68.0520 0.0000 -12.9860 0.0000
# 4 0.0000 0.0000 0.0000 20.0265 0.0000 -8.1642
# 5 -8.1400 -9.4577 -12.9860 0.0000 21.1574 0.0000
# 6 0.0000 0.0000 0.0000 -8.1642 0.0000 28.0971
#
#
#
# Elastic Compliance Matrix: (Units=1/GPa)
#
#
# Indices 1 2 3 4 5 6 
#
# 1 0.018015 -0.005261 -0.001878 0.000000 0.003426 0.000000
# 2 -0.005261 0.012127 -0.003847 0.000000 0.001036 0.000000
# 3 -0.001878 -0.003847 0.018664 0.000000 0.009013 0.000000
# 4 0.000000 0.000000 0.000000 0.056644 0.000000 0.016459
# 5 0.003426 0.001036 0.009013 0.000000 0.054578 0.000000
# 6 0.000000 0.000000 0.000000 0.016459 0.000000 0.040373
#
#
# Mechanical properties :
#
#
# Convention : Reuss Voigt Hill
#
# Bulk Modulus (GPa) = 37.26664 46.55992 41.91328
# Shear Modulus (GPa) = 21.61516 24.56826 23.09171
#
# Velocity S-wave (km/s) = 3.38100 3.60457 3.49458
# Velocity P-wave (km/s) = 5.91186 6.47666 6.20069
#
# Compressibility (1/GPa) = 0.02683365
#
# Stress axis : x y z
#
# Youngs Moduli (GPa) = 55.50864 82.46064 53.57906
#
# Poissons Ratio (x) = 0.43385 0.10064
# Poissons Ratio (y) = 0.29204 0.20610
# Poissons Ratio (z) = 0.10427 0.31719
#
# Static dielectric constant tensor:
#      x y z
#    x 3.383050 0.000000 -0.138570 
#    y 0.000000 3.508480 0.000000 
#    z -0.138570 0.000000 3.342220 
# 
# 
# High freq. dielectric constant tensor:
#      x y z
#    x 1.726930 0.000000 -0.021360 
#    y 0.000000 1.721290 0.000000 
#    z -0.021360 0.000000 1.720800 
# 
# From -- ./inp_files/147996.got.cif
#   From: 2010.06.25/outbox.cif.g09.slc.cpg/sg12_74_cif.got.tgz:147996.got - 2010.06.28 00:19:55.
