data_PCOD8083146
_publ_section_title
;
Structure prediction by ZEFSAII (Michael W. Deem and Ramdas Pophale) SiO2 
 PCOD8083146
Probable space group: C 2/M
;
_chemical_formula_sum "Si O2"
_cell_formula_units_Z 48
_cell_length_a 10.707943
_cell_length_b 14.184801
_cell_length_c 15.433794
_cell_angle_alpha 90.000000
_cell_angle_beta 77.548033
_cell_angle_gamma 90.000000
_cell_volume 2289.096313
_symmetry_space_group_name_H-M "C 2/M"
_symmetry_group_IT_number 12
_symmetry_cell_setting 'monoclinic'
loop_
_space_group_symop_operation_xyz
x,y,z
-x,y,-z
-x,-y,-z
x,-y,z
1/2+x,1/2+y,z
1/2-x,1/2+y,-z
1/2-x,1/2-y,-z
1/2+x,1/2-y,z
loop_
_atom_site_type_symbol
_atom_site_label
_atom_site_fract_x
_atom_site_fract_y
_atom_site_fract_z
Si Si1 0.137289 0.399105 0.838696
Si Si2 0.299522 0.604949 0.982257
Si Si3 0.403418 0.223814 0.888730
Si Si4 0.411936 0.795736 0.691118
Si Si5 0.684218 0.000000 0.535221
Si Si6 0.296405 0.828392 0.354877
Si Si7 0.894837 0.500000 0.638016
O O1 0.064742 0.500000 0.844978
O O2 0.243106 0.403808 0.895298
O O3 0.199075 0.382051 0.736598
O O4 0.042748 0.317507 0.881344
O O5 0.347185 0.500000 0.005012
O O6 0.409587 0.682430 0.948033
O O7 0.201420 0.647223 0.066288
O O8 0.379183 0.245845 0.790802
O O9 0.563527 0.781350 0.646015
O O10 0.319676 0.747350 0.633170
O O11 0.376651 0.906904 0.698851
O O12 0.744499 0.904032 0.565674
O O13 0.536138 0.000000 0.579840
O O14 0.703750 0.000000 0.428522
#
# Coordination Sequence:
#
# PCOD8083146 Si02
#       7
#     8   8   8   8   4   8   4
#     4  10  18  32  54  78 101 140 187 236 267 321
#     4  10  20  33  51  75 107 142 183 236 275 325
#     4  10  20  31  51  79 105 139 187 231 274 317
#     4  10  21  36  58  82 113 147 186 228 276 332
#     4   9  18  36  61  88 110 144 187 227 271 337
#     4  10  19  35  58  85 111 146 183 231 276 328
#     4   9  20  36  59  86 116 143 182 229 279 331
#
# _framework density 20.968972999999998
#
# number of rings (size 3 to 8) (size 9 to 14) (size 15 to 20)
#    0.000    2.167    2.500    1.000    4.667    2.000 
#    0.000    0.833    5.500   10.000    0.000    0.000 
#    0.000    0.000    0.000    0.000    0.000    0.000 
#
# Total GULP energy -297368.144335 kJ/mol
# GULP energy per Si atom -12390.339347 kJ/mol
# Density = 2.092125 g / cm^3
# Si number density = 20.968973 Si / 1000 Ang^3
#
#
#
# Elastic Constant Matrix: (Units=GPa)
#
#
# Indices 1 2 3 4 5 6 
#
# 1 72.4215 29.1065 5.6893 0.0000 17.2664 0.0000
# 2 29.1065 113.1279 -3.5752 0.0000 4.5765 0.0000
# 3 5.6893 -3.5752 30.6127 0.0000 1.0765 0.0000
# 4 0.0000 0.0000 0.0000 25.6027 0.0000 9.2826
# 5 17.2664 4.5765 1.0765 0.0000 14.9278 0.0000
# 6 0.0000 0.0000 0.0000 9.2826 0.0000 12.5503
#
#
#
# Elastic Compliance Matrix: (Units=1/GPa)
#
#
# Indices 1 2 3 4 5 6 
#
# 1 0.021524 -0.004718 -0.003736 0.000000 -0.023181 0.000000
# 2 -0.004718 0.010025 0.001969 0.000000 0.002242 0.000000
# 3 -0.003736 0.001969 0.033545 0.000000 0.001299 0.000000
# 4 0.000000 0.000000 0.000000 0.053370 0.000000 -0.039474
# 5 -0.023181 0.002242 0.001299 0.000000 0.093020 0.000000
# 6 0.000000 0.000000 0.000000 -0.039474 0.000000 0.108876
#
#
# Mechanical properties :
#
#
# Convention : Reuss Voigt Hill
#
# Bulk Modulus (GPa) = 19.18536 30.95593 25.07064
# Shear Modulus (GPa) = 14.25696 22.94559 18.60128
#
# Velocity S-wave (km/s) = 2.61033 3.31156 2.98163
# Velocity P-wave (km/s) = 4.27251 5.42371 4.88216
#
# Compressibility (1/GPa) = 0.05212309
#
# Stress axis : x y z
#
# Youngs Moduli (GPa) = 46.45877 99.75025 29.81084
#
# Poissons Ratio (x) = 0.47065 0.11138
# Poissons Ratio (y) = 0.21921 -0.05869
# Poissons Ratio (z) = 0.17358 -0.19639
#
# Static dielectric constant tensor:
#      x y z
#    x 3.524410 0.000000 0.285370 
#    y 0.000000 4.474580 0.000000 
#    z 0.285370 0.000000 3.769840 
# 
# 
# High freq. dielectric constant tensor:
#      x y z
#    x 1.788310 0.000000 0.022380 
#    y 0.000000 1.829710 0.000000 
#    z 0.022380 0.000000 1.815260 
# 
# From -- ./inp_files/204411.got.cif
#   From: 2010.06.25/outbox.cif.g09.slc.cpg/sg12_103_cif.got.tgz:204411.got - 2010.06.28 00:19:55.
