data_PCOD8083053
_publ_section_title
;
Structure prediction by ZEFSAII (Michael W. Deem and Ramdas Pophale) SiO2 
 PCOD8083053
Probable space group: C 2/M
;
_chemical_formula_sum "Si O2"
_cell_formula_units_Z 64
_cell_length_a 29.163787
_cell_length_b 13.118985
_cell_length_c 17.651429
_cell_angle_alpha 90.000000
_cell_angle_beta 31.544692
_cell_angle_gamma 90.000000
_cell_volume 3533.144883
_symmetry_space_group_name_H-M "C 2/M"
_symmetry_group_IT_number 12
_symmetry_cell_setting 'monoclinic'
loop_
_space_group_symop_operation_xyz
x,y,z
-x,y,-z
-x,-y,-z
x,-y,z
1/2+x,1/2+y,z
1/2-x,1/2+y,-z
1/2-x,1/2-y,-z
1/2+x,1/2-y,z
loop_
_atom_site_type_symbol
_atom_site_label
_atom_site_fract_x
_atom_site_fract_y
_atom_site_fract_z
Si Si1 0.583871 0.885735 0.216215
Si Si2 0.052387 0.196737 0.349882
Si Si3 0.758524 0.117859 0.888285
Si Si4 0.041768 0.884027 0.660092
Si Si5 0.655494 0.120022 0.884222
Si Si6 0.731167 0.311967 0.409851
Si Si7 0.693141 0.116745 0.544773
Si Si8 0.996875 0.691427 0.193408
O O1 0.542910 0.814413 0.338534
O O2 0.525082 0.879944 0.223616
O O3 0.581072 0.000000 0.251830
O O4 0.683030 0.852865 0.054944
O O5 0.155018 0.180514 0.216544
O O6 0.000000 0.174516 0.500000
O O7 0.014876 0.124906 0.336728
O O8 0.726177 0.144517 0.849553
O O9 0.782142 0.000000 0.861640
O O10 0.141561 0.854032 0.499533
O O11 0.005519 0.809768 0.776992
O O12 0.035118 0.000000 0.698635
O O13 0.689322 0.164151 0.757715
O O14 0.636998 0.000000 0.904245
O O15 0.565110 0.178812 0.028884
O O16 0.726381 0.189748 0.429832
O O17 0.744695 0.370153 0.470145
O O18 0.596259 0.152526 0.705424
O O19 0.695770 0.000000 0.513032
#
# Coordination Sequence:
#
# PCOD8083053 Si02
#       8
#     8   8   8   8   8   8   8   8
#     4   9  18  34  51  66  93 130 161 193 240 291
#     4  11  21  30  47  74  98 122 160 205 239 282
#     4   9  18  32  50  69  92 126 160 194 240 288
#     4  10  20  35  51  69  99 133 162 197 243 293
#     4  10  18  32  53  75 101 127 158 205 250 283
#     4  10  21  33  51  77 100 130 165 197 241 292
#     4  10  19  34  53  73 101 132 164 199 237 288
#     4   9  19  33  52  76  96 124 165 202 243 292
#
# _framework density 18.114173999999998
#
# number of rings (size 3 to 8) (size 9 to 14) (size 15 to 20)
#    0.000    2.250    0.000    4.500    0.000    2.750 
#    0.000    1.875    0.000    2.250    0.000    5.250 
#    0.000    0.000    0.000    0.000    0.000    0.000 
#
# Total GULP energy -396842.333912 kJ/mol
# GULP energy per Si atom -12401.322935 kJ/mol
# Density = 1.807294 g / cm^3
# Si number density = 18.114174 Si / 1000 Ang^3
#
#
#
# Elastic Constant Matrix: (Units=GPa)
#
#
# Indices 1 2 3 4 5 6 
#
# 1 45.0514 22.5884 16.7197 0.0000 -7.6334 0.0000
# 2 22.5884 125.4253 39.7725 0.0000 7.3190 0.0000
# 3 16.7197 39.7725 78.6134 0.0000 0.8696 0.0000
# 4 0.0000 0.0000 0.0000 18.8769 0.0000 -1.7653
# 5 -7.6334 7.3190 0.8696 0.0000 24.1245 0.0000
# 6 0.0000 0.0000 0.0000 -1.7653 0.0000 17.0299
#
#
#
# Elastic Compliance Matrix: (Units=1/GPa)
#
#
# Indices 1 2 3 4 5 6 
#
# 1 0.027495 -0.004353 -0.003758 0.000000 0.010156 0.000000
# 2 -0.004353 0.010366 -0.004270 0.000000 -0.004368 0.000000
# 3 -0.003758 -0.004270 0.015685 0.000000 -0.000459 0.000000
# 4 0.000000 0.000000 0.000000 0.053493 0.000000 0.005545
# 5 0.010156 -0.004368 -0.000459 0.000000 0.046007 0.000000
# 6 0.000000 0.000000 0.000000 0.005545 0.000000 0.059295
#
#
# Mechanical properties :
#
#
# Convention : Reuss Voigt Hill
#
# Bulk Modulus (GPa) = 34.74138 45.25015 39.99577
# Shear Modulus (GPa) = 20.26779 23.34023 21.80401
#
# Velocity S-wave (km/s) = 3.34861 3.59347 3.47320
# Velocity P-wave (km/s) = 5.84566 6.50016 6.18158
#
# Compressibility (1/GPa) = 0.02878412
#
# Stress axis : x y z
#
# Youngs Moduli (GPa) = 36.37072 96.47152 63.75432
#
# Poissons Ratio (x) = 0.41990 0.23958
# Poissons Ratio (y) = 0.15831 0.27225
# Poissons Ratio (z) = 0.13668 0.41196
#
# Static dielectric constant tensor:
#      x y z
#    x 3.266960 0.000000 -0.168610 
#    y 0.000000 3.341640 0.000000 
#    z -0.168610 0.000000 3.307740 
# 
# 
# High freq. dielectric constant tensor:
#      x y z
#    x 1.698750 0.000000 -0.019140 
#    y 0.000000 1.700520 0.000000 
#    z -0.019140 0.000000 1.690970 
# 
# From -- ./inp_files/283335.got.cif
#   From: 2010.06.25/outbox.cif.g09.slc.cpg/sg12_142_cif.got.tgz:283335.got - 2010.06.28 00:19:55.
