data_PCOD8083690
_publ_section_title
;
Structure prediction by ZEFSAII (Michael W. Deem and Ramdas Pophale) SiO2 
 PCOD8083690
Probable space group: C 2/M
;
_chemical_formula_sum "Si O2"
_cell_formula_units_Z 56
_cell_length_a 21.285308
_cell_length_b 8.725158
_cell_length_c 31.531584
_cell_angle_alpha 90.000000
_cell_angle_beta 150.779411
_cell_angle_gamma 90.000000
_cell_volume 2858.729461
_symmetry_space_group_name_H-M "C 2/M"
_symmetry_group_IT_number 12
_symmetry_cell_setting 'monoclinic'
loop_
_space_group_symop_operation_xyz
x,y,z
-x,y,-z
-x,-y,-z
x,-y,z
1/2+x,1/2+y,z
1/2-x,1/2+y,-z
1/2-x,1/2-y,-z
1/2+x,1/2-y,z
loop_
_atom_site_type_symbol
_atom_site_label
_atom_site_fract_x
_atom_site_fract_y
_atom_site_fract_z
Si Si1 0.392355 0.319898 0.088762
Si Si2 0.592632 0.319522 0.275805
Si Si3 0.807680 0.679928 0.883332
Si Si4 0.524722 0.319193 0.705394
Si Si5 0.623613 0.817352 0.547101
Si Si6 0.367582 0.180061 0.543765
Si Si7 0.010360 0.680706 0.936444
O O1 0.373170 0.500000 0.082759
O O2 0.478058 0.251786 0.178550
O O3 0.478378 0.279855 0.099004
O O4 0.250000 0.250000 0.000000
O O5 0.586267 0.500000 0.266028
O O6 0.569721 0.276553 0.311546
O O7 0.738986 0.262789 0.351256
O O8 0.812349 0.500000 0.892299
O O9 0.664393 0.743103 0.800415
O O10 0.873040 0.719610 0.876780
O O11 0.882587 0.745641 0.967981
O O12 0.523525 0.500000 0.695223
O O13 0.492895 0.228064 0.643889
O O14 0.500000 0.750628 0.500000
O O15 0.618020 0.755720 0.495485
O O16 0.617454 0.000000 0.543735
O O17 0.250000 0.250000 0.500000
O O18 0.347692 0.000000 0.530460
O O19 0.026004 0.500000 0.935622
#
# Coordination Sequence:
#
# PCOD8083690 Si02
#       7
#     8   8   8   8   8   8   8
#     4  11  22  35  54  78 107 143 184 227 276 328
#     4   9  18  33  53  76 104 144 183 218 265 331
#     4   8  16  31  55  79 103 144 184 218 263 330
#     4  10  18  33  56  80 106 139 183 224 267 323
#     4   9  18  34  56  81 108 141 182 223 266 324
#     4  11  21  35  57  82 107 139 178 226 276 325
#     4   9  17  34  55  76 105 142 186 223 264 321
#
# _framework density 19.589122
#
# number of rings (size 3 to 8) (size 9 to 14) (size 15 to 20)
#    0.000    2.429    1.429    2.571    0.000    3.429 
#    0.000    7.143    0.000    1.714    0.000    0.000 
#    0.000    0.000    0.000    0.000    0.000    0.000 
#
# Total GULP energy -346971.691927 kJ/mol
# GULP energy per Si atom -12391.846140 kJ/mol
# Density = 1.954454 g / cm^3
# Si number density = 19.589122 Si / 1000 Ang^3
#
#
#
# Elastic Constant Matrix: (Units=GPa)
#
#
# Indices 1 2 3 4 5 6 
#
# 1 121.5539 19.4154 62.1519 -0.0007 2.3779 0.0012
# 2 19.4154 28.9793 17.0919 -0.0021 -2.4855 0.0034
# 3 62.1519 17.0919 135.0412 -0.0003 6.1887 0.0005
# 4 -0.0007 -0.0021 -0.0003 23.3333 0.0003 -3.6717
# 5 2.3779 -2.4855 6.1887 0.0003 39.8192 -0.0005
# 6 0.0012 0.0034 0.0005 -3.6717 -0.0005 25.2539
#
#
#
# Elastic Compliance Matrix: (Units=1/GPa)
#
#
# Indices 1 2 3 4 5 6 
#
# 1 0.011370 -0.004930 -0.004596 0.000000 -0.000272 0.000000
# 2 -0.004930 0.039808 -0.002918 0.000003 0.003233 -0.000005
# 3 -0.004596 -0.002918 0.009957 0.000000 -0.001455 0.000000
# 4 0.000000 0.000003 0.000000 0.043861 0.000000 0.006377
# 5 -0.000272 0.003233 -0.001455 0.000000 0.025558 0.000000
# 6 0.000000 -0.000005 0.000000 0.006377 0.000000 0.040525
#
#
# Mechanical properties :
#
#
# Convention : Reuss Voigt Hill
#
# Bulk Modulus (GPa) = 27.58864 53.65476 40.62170
# Shear Modulus (GPa) = 24.03289 30.14231 27.08760
#
# Velocity S-wave (km/s) = 3.50644 3.92692 3.72262
# Velocity P-wave (km/s) = 5.52338 6.92896 6.26571
#
# Compressibility (1/GPa) = 0.03624681
#
# Stress axis : x y z
#
# Youngs Moduli (GPa) = 87.95259 25.12034 100.43594
#
# Poissons Ratio (x) = 0.12384 0.46165
# Poissons Ratio (y) = 0.43359 0.29304
# Poissons Ratio (z) = 0.40427 0.07329
#
# Static dielectric constant tensor:
#      x y z
#    x 4.158960 -0.000010 -2.194730 
#    y -0.000010 3.202790 0.000040 
#    z -2.194730 0.000040 17.953320 
# 
# 
# High freq. dielectric constant tensor:
#      x y z
#    x 1.768250 0.000000 0.003500 
#    y 0.000000 1.710180 0.000000 
#    z 0.003500 0.000000 1.777900 
# 
# From -- ./inp_files/380774.got.cif
#   From: 2010.06.25/outbox.cif.g09.slc.cpg/sg12_191_cif.got.tgz:380774.got - 2010.06.28 00:19:55.
