data_PCOD8083318
_publ_section_title
;
Structure prediction by ZEFSAII (Michael W. Deem and Ramdas Pophale) SiO2 
 PCOD8083318
Probable space group: C 2/M
;
_chemical_formula_sum "Si O2"
_cell_formula_units_Z 56
_cell_length_a 9.471219
_cell_length_b 23.768120
_cell_length_c 14.028673
_cell_angle_alpha 90.000000
_cell_angle_beta 104.975575
_cell_angle_gamma 90.000000
_cell_volume 3050.778281
_symmetry_space_group_name_H-M "C 2/M"
_symmetry_group_IT_number 12
_symmetry_cell_setting 'monoclinic'
loop_
_space_group_symop_operation_xyz
x,y,z
-x,y,-z
-x,-y,-z
x,-y,z
1/2+x,1/2+y,z
1/2-x,1/2+y,-z
1/2-x,1/2-y,-z
1/2+x,1/2-y,z
loop_
_atom_site_type_symbol
_atom_site_label
_atom_site_fract_x
_atom_site_fract_y
_atom_site_fract_z
Si Si1 0.490540 0.848143 0.608944
Si Si2 0.044648 0.064445 0.356149
Si Si3 0.793450 0.858033 0.746869
Si Si4 0.838161 0.833361 0.961014
Si Si5 0.767023 0.065207 0.427033
Si Si6 0.950336 0.742831 0.753825
Si Si7 0.235136 0.285042 0.119080
O O1 0.500000 0.833961 0.500000
O O2 0.642275 0.874427 0.671133
O O3 0.370629 0.894969 0.611512
O O4 0.460413 0.788721 0.655068
O O5 0.080239 0.100466 0.268420
O O6 0.155328 0.080352 0.460141
O O7 0.879495 0.076950 0.360464
O O8 0.062826 0.000000 0.330756
O O9 0.767451 0.864027 0.856816
O O10 0.839621 0.795056 0.726098
O O11 0.848655 0.766577 0.945615
O O12 0.750888 0.837681 0.047119
O O13 0.000000 0.858489 0.000000
O O14 0.717442 0.000000 0.418127
O O15 0.873609 0.698100 0.813512
O O16 0.106551 0.764506 0.816495
#
# Coordination Sequence:
#
# PCOD8083318 Si02
#       7
#     8   8   8   8   8   8   8
#     4  12  24  38  52  83 122 157 186 226 278 342
#     4   9  19  39  62  85 108 142 194 241 280 333
#     4  11  22  37  54  86 116 151 190 229 284 341
#     4  10  18  32  56  80 106 142 189 240 279 320
#     4   9  20  38  62  83 106 148 196 237 279 325
#     4  11  22  38  53  82 118 155 194 225 279 342
#     4  10  19  35  54  76 107 149 190 243 273 322
#
# _framework density 18.355969999999999
#
# number of rings (size 3 to 8) (size 9 to 14) (size 15 to 20)
#    0.000    1.714    7.143    0.857    2.000    1.429 
#    2.571    0.000    0.000    0.429    0.000    1.000 
#    0.000    4.571    0.000    0.000    0.000    0.000 
#
# Total GULP energy -347005.072208 kJ/mol
# GULP energy per Si atom -12393.038293 kJ/mol
# Density = 1.831419 g / cm^3
# Si number density = 18.355970 Si / 1000 Ang^3
#
#
#
# Elastic Constant Matrix: (Units=GPa)
#
#
# Indices 1 2 3 4 5 6 
#
# 1 99.6677 32.8803 54.4242 0.0000 -10.1769 0.0000
# 2 32.8803 57.1328 34.1013 0.0000 -10.1084 0.0000
# 3 54.4242 34.1013 117.4071 0.0000 -15.6287 0.0000
# 4 0.0000 0.0000 0.0000 18.1589 0.0000 -2.4830
# 5 -10.1769 -10.1084 -15.6287 0.0000 38.5552 0.0000
# 6 0.0000 0.0000 0.0000 -2.4830 0.0000 28.5039
#
#
#
# Elastic Compliance Matrix: (Units=1/GPa)
#
#
# Indices 1 2 3 4 5 6 
#
# 1 0.014653 -0.005253 -0.005217 0.000000 0.000376 0.000000
# 2 -0.005253 0.023445 -0.003954 0.000000 0.003157 0.000000
# 3 -0.005217 -0.003954 0.012434 0.000000 0.002626 0.000000
# 4 0.000000 0.000000 0.000000 0.055733 0.000000 0.004855
# 5 0.000376 0.003157 0.002626 0.000000 0.027928 0.000000
# 6 0.000000 0.000000 0.000000 0.004855 0.000000 0.035506
#
#
# Mechanical properties :
#
#
# Convention : Reuss Voigt Hill
#
# Bulk Modulus (GPa) = 46.11683 57.44658 51.78171
# Shear Modulus (GPa) = 24.29829 27.23040 25.76435
#
# Velocity S-wave (km/s) = 3.64225 3.85575 3.75052
# Velocity P-wave (km/s) = 6.54723 7.15446 6.85757
#
# Compressibility (1/GPa) = 0.02168406
#
# Stress axis : x y z
#
# Youngs Moduli (GPa) = 68.24409 42.65293 80.42571
#
# Poissons Ratio (x) = 0.22404 0.41957
# Poissons Ratio (y) = 0.35847 0.31804
# Poissons Ratio (z) = 0.35602 0.16867
#
# Static dielectric constant tensor:
#      x y z
#    x 3.726060 0.000000 -0.289790 
#    y 0.000000 2.975250 0.000000 
#    z -0.289790 0.000000 3.536720 
# 
# 
# High freq. dielectric constant tensor:
#      x y z
#    x 1.730530 0.000000 -0.008080 
#    y 0.000000 1.657810 0.000000 
#    z -0.008080 0.000000 1.712050 
# 
# From -- ./inp_files/198535.got.cif
#   From: 2010.06.25/outbox.cif.g09.slc.cpg/sg12_100_cif.got.tgz:198535.got - 2010.06.28 00:19:55.
