data_PCOD8083682
_publ_section_title
;
Structure prediction by ZEFSAII (Michael W. Deem and Ramdas Pophale) SiO2 
 PCOD8083682
Probable space group: C 2/M
;
_chemical_formula_sum "Si O2"
_cell_formula_units_Z 32
_cell_length_a 8.810072
_cell_length_b 32.789789
_cell_length_c 7.894181
_cell_angle_alpha 90.000000
_cell_angle_beta 127.928380
_cell_angle_gamma 90.000000
_cell_volume 1798.791780
_symmetry_space_group_name_H-M "C 2/M"
_symmetry_group_IT_number 12
_symmetry_cell_setting 'monoclinic'
loop_
_space_group_symop_operation_xyz
x,y,z
-x,y,-z
-x,-y,-z
x,-y,z
1/2+x,1/2+y,z
1/2-x,1/2+y,-z
1/2-x,1/2-y,-z
1/2+x,1/2-y,z
loop_
_atom_site_type_symbol
_atom_site_label
_atom_site_fract_x
_atom_site_fract_y
_atom_site_fract_z
Si Si1 0.659320 0.000000 0.469153
Si Si2 0.419135 0.289839 0.272754
Si Si3 0.000000 0.867519 0.500000
Si Si4 0.188762 0.568015 0.219203
Si Si5 0.927956 0.000000 0.258009
Si Si6 0.500000 0.758035 0.000000
O O1 0.500000 0.000000 0.500000
O O2 0.628565 0.960208 0.334147
O O3 0.871253 0.000000 0.709173
O O4 0.500000 0.268081 0.500000
O O5 0.479210 0.337910 0.320832
O O6 0.519167 0.270412 0.178119
O O7 0.187554 0.286217 0.109410
O O8 0.811263 0.895250 0.381168
O O9 0.303465 0.541430 0.153587
O O10 0.000000 0.586216 0.000000
O O11 0.000000 0.000000 0.500000
#
# Coordination Sequence:
#
# PCOD8083682 Si02
#       6
#     4   8   4   8   4   4
#     4  10  18  33  56  79 103 143 182 224 266 309
#     4   9  21  33  61  80 110 142 183 225 276 324
#     4  10  20  33  54  80 108 140 178 230 278 315
#     4  10  18  35  56  73 104 146 184 213 267 333
#     4   8  14  31  54  69  97 142 178 208 257 321
#     4  10  18  40  56  84 106 146 190 222 262 350
#
# _framework density 17.789719999999999
#
# number of rings (size 3 to 8) (size 9 to 14) (size 15 to 20)
#    0.750    2.000    3.750    2.250    1.750    0.000 
#    0.000    5.000    0.000    0.000    0.000    0.000 
#    0.000    0.000    0.000    0.000    0.000    0.000 
#
# Total GULP energy -198208.744641 kJ/mol
# GULP energy per Si atom -12388.046540 kJ/mol
# Density = 1.774923 g / cm^3
# Si number density = 17.789720 Si / 1000 Ang^3
#
#
#
# Elastic Constant Matrix: (Units=GPa)
#
#
# Indices 1 2 3 4 5 6 
#
# 1 111.3275 39.0563 40.7907 0.0000 8.9234 0.0000
# 2 39.0563 116.1505 50.2429 0.0000 5.0494 0.0000
# 3 40.7907 50.2429 101.9197 0.0000 15.3908 0.0000
# 4 0.0000 0.0000 0.0000 17.0045 0.0000 -2.7278
# 5 8.9234 5.0494 15.3908 0.0000 35.5137 0.0000
# 6 0.0000 0.0000 0.0000 -2.7278 0.0000 0.5548
#
#
#
# Elastic Compliance Matrix: (Units=1/GPa)
#
#
# Indices 1 2 3 4 5 6 
#
# 1 0.011020 -0.002315 -0.003104 0.000000 -0.001095 0.000000
# 2 -0.002315 0.011453 -0.004881 0.000000 0.001068 0.000000
# 3 -0.003104 -0.004881 0.014164 0.000000 -0.004665 0.000000
# 4 0.000000 0.000000 0.000000 0.278410 0.000000 1.368933
# 5 -0.001095 0.001068 -0.004665 0.000000 0.030303 0.000000
# 6 0.000000 0.000000 0.000000 1.368933 0.000000 8.533507
#
#
# Mechanical properties :
#
#
# Convention : Reuss Voigt Hill
#
# Bulk Modulus (GPa) = 62.35355 65.50862 63.93108
# Shear Modulus (GPa) = 0.56149 23.90177 12.23163
#
# Velocity S-wave (km/s) = 0.56242 3.66945 2.62500
# Velocity P-wave (km/s) = 5.96223 7.40655 6.72329
#
# Compressibility (1/GPa) = 0.01603758
#
# Stress axis : x y z
#
# Youngs Moduli (GPa) = 90.74650 87.31516 70.60079
#
# Poissons Ratio (x) = 0.20216 0.21912
# Poissons Ratio (y) = 0.21011 0.34457
# Poissons Ratio (z) = 0.28165 0.42614
#
# Static dielectric constant tensor:
#      x y z
#    x 3.484560 0.000000 0.463700 
#    y 0.000000 3.185710 0.000000 
#    z 0.463700 0.000000 3.459730 
# 
# 
# High freq. dielectric constant tensor:
#      x y z
#    x 1.667630 0.000000 0.029930 
#    y 0.000000 1.671650 0.000000 
#    z 0.029930 0.000000 1.691740 
# 
# From -- ./inp_files/40743.got.cif
#   From: 2010.06.25/outbox.cif.g09.slc.cpg/sg12_21_cif.got.tgz:40743.got - 2010.06.28 00:19:55.
