data_PCOD8083446
_publ_section_title
;
Structure prediction by ZEFSAII (Michael W. Deem and Ramdas Pophale) SiO2 
 PCOD8083446
Probable space group: C 2/M
;
_chemical_formula_sum "Si O2"
_cell_formula_units_Z 40
_cell_length_a 16.714770
_cell_length_b 21.098763
_cell_length_c 10.450954
_cell_angle_alpha 90.000000
_cell_angle_beta 33.315368
_cell_angle_gamma 90.000000
_cell_volume 2024.328609
_symmetry_space_group_name_H-M "C 2/M"
_symmetry_group_IT_number 12
_symmetry_cell_setting 'monoclinic'
loop_
_space_group_symop_operation_xyz
x,y,z
-x,y,-z
-x,-y,-z
x,-y,z
1/2+x,1/2+y,z
1/2-x,1/2+y,-z
1/2-x,1/2-y,-z
1/2+x,1/2-y,z
loop_
_atom_site_type_symbol
_atom_site_label
_atom_site_fract_x
_atom_site_fract_y
_atom_site_fract_z
Si Si1 0.669211 0.000000 0.257074
Si Si2 0.128847 0.369180 0.224121
Si Si3 0.008990 0.331194 0.849804
Si Si4 0.343397 0.500000 0.274468
Si Si5 0.885905 0.193301 0.000442
Si Si6 0.323994 0.360583 0.359879
O O1 0.500000 0.000000 0.500000
O O2 0.714510 0.936013 0.122762
O O3 0.724641 0.000000 0.324934
O O4 0.063672 0.369522 0.168871
O O5 0.000000 0.359888 0.500000
O O6 0.251918 0.314823 0.079927
O O7 0.918292 0.266349 0.985891
O O8 0.180371 0.323004 0.594853
O O9 0.000000 0.366549 0.000000
O O10 0.315875 0.436527 0.394346
O O11 0.500000 0.500000 0.000000
O O12 0.037648 0.164405 0.743138
O O13 0.845113 0.154565 0.182101
#
# Coordination Sequence:
#
# PCOD8083446 Si02
#       6
#     4   8   8   4   8   8
#     4  10  18  32  58  85 118 149 196 259 298 340
#     4  11  21  39  60  91 118 159 208 256 302 358
#     4  12  25  39  59  88 130 166 200 245 310 371
#     4  12  18  36  66  97 118 147 206 265 301 348
#     4  11  21  38  63  89 124 155 203 256 303 360
#     4  11  21  38  63  94 122 155 205 255 309 350
#
# _framework density 19.759637999999999
#
# number of rings (size 3 to 8) (size 9 to 14) (size 15 to 20)
#    0.000    0.800    8.000    2.400    0.000    0.000 
#    0.000    3.000    0.000    0.000    0.000    4.200 
#    0.000    0.000    0.000    0.000    0.000    0.000 
#
# Total GULP energy -247850.402360 kJ/mol
# GULP energy per Si atom -12392.520118 kJ/mol
# Density = 1.971466 g / cm^3
# Si number density = 19.759638 Si / 1000 Ang^3
#
#
#
# Elastic Constant Matrix: (Units=GPa)
#
#
# Indices 1 2 3 4 5 6 
#
# 1 113.5341 -0.1094 39.5292 0.0065 -6.2207 -0.0056
# 2 -0.1094 69.1867 7.0584 0.0045 6.3981 -0.0032
# 3 39.5292 7.0584 82.1687 0.0050 -18.3793 0.0003
# 4 0.0065 0.0045 0.0050 19.1651 -0.0055 -12.1116
# 5 -6.2207 6.3981 -18.3793 -0.0055 32.9624 0.0032
# 6 -0.0056 -0.0032 0.0003 -12.1116 0.0032 10.6144
#
#
#
# Elastic Compliance Matrix: (Units=1/GPa)
#
#
# Indices 1 2 3 4 5 6 
#
# 1 0.010637 0.000678 -0.005434 0.000005 -0.001154 0.000012
# 2 0.000678 0.015109 -0.002572 -0.000001 -0.004239 0.000005
# 3 -0.005434 -0.002572 0.017009 -0.000013 0.008958 -0.000022
# 4 0.000005 -0.000001 -0.000013 0.187088 0.000004 0.213478
# 5 -0.001154 -0.004239 0.008958 0.000004 0.035937 -0.000008
# 6 0.000012 0.000005 -0.000022 0.213478 -0.000008 0.337803
#
#
# Mechanical properties :
#
#
# Convention : Reuss Voigt Hill
#
# Bulk Modulus (GPa) = 35.58830 39.76065 37.67447
# Shear Modulus (GPa) = 7.96679 27.10912 17.53796
#
# Velocity S-wave (km/s) = 2.01013 3.70800 2.98243
# Velocity P-wave (km/s) = 4.84120 6.20469 5.56486
#
# Compressibility (1/GPa) = 0.02809912
#
# Stress axis : x y z
#
# Youngs Moduli (GPa) = 94.01000 66.18511 58.79390
#
# Poissons Ratio (x) = -0.04486 0.31946
# Poissons Ratio (y) = -0.06372 0.15123
# Poissons Ratio (z) = 0.51081 0.17024
#
# Static dielectric constant tensor:
#      x y z
#    x 3.685490 0.000110 -0.376370 
#    y 0.000110 2.952680 -0.000170 
#    z -0.376370 -0.000170 3.655980 
# 
# 
# High freq. dielectric constant tensor:
#      x y z
#    x 1.762460 0.000000 -0.038850 
#    y 0.000000 1.770680 0.000000 
#    z -0.038850 0.000000 1.753080 
# 
# From -- ./inp_files/159417.got.cif
#   From: 2010.06.25/outbox.cif.g09.slc.cpg/sg12_80_cif.got.tgz:159417.got - 2010.06.28 00:19:55.
