data_PCOD8083796
_publ_section_title
;
Structure prediction by ZEFSAII (Michael W. Deem and Ramdas Pophale) SiO2 
 PCOD8083796
Probable space group: C 2/M
;
_chemical_formula_sum "Si O2"
_cell_formula_units_Z 44
_cell_length_a 11.951447
_cell_length_b 23.700226
_cell_length_c 10.270921
_cell_angle_alpha 90.000000
_cell_angle_beta 56.278733
_cell_angle_gamma 90.000000
_cell_volume 2419.770584
_symmetry_space_group_name_H-M "C 2/M"
_symmetry_group_IT_number 12
_symmetry_cell_setting 'monoclinic'
loop_
_space_group_symop_operation_xyz
x,y,z
-x,y,-z
-x,-y,-z
x,-y,z
1/2+x,1/2+y,z
1/2-x,1/2+y,-z
1/2-x,1/2-y,-z
1/2+x,1/2-y,z
loop_
_atom_site_type_symbol
_atom_site_label
_atom_site_fract_x
_atom_site_fract_y
_atom_site_fract_z
Si Si1 0.751428 0.223075 0.207361
Si Si2 0.159700 0.562486 0.891345
Si Si3 0.854444 0.064166 0.528456
Si Si4 0.906265 0.830685 0.345507
Si Si5 0.786823 0.166909 0.917080
Si Si6 0.500000 0.255195 0.500000
O O1 0.843772 0.204343 0.267323
O O2 0.780939 0.286833 0.136347
O O3 0.594387 0.216941 0.347820
O O4 0.777877 0.181527 0.073082
O O5 0.204333 0.500000 0.907859
O O6 0.229091 0.574618 0.706646
O O7 0.211827 0.607783 0.959265
O O8 0.000000 0.567254 0.000000
O O9 0.835491 0.108948 0.421986
O O10 0.000000 0.075963 0.500000
O O11 0.850076 0.000000 0.476984
O O12 0.896426 0.792617 0.481684
O O13 0.060353 0.842620 0.218088
#
# Coordination Sequence:
#
# PCOD8083796 Si02
#       6
#     8   8   8   8   8   4
#     4  10  22  34  53  78 112 146 181 222 275 331
#     4  10  21  36  57  83 109 141 182 227 273 322
#     4  10  18  33  58  81 105 141 181 224 269 319
#     4  11  19  35  55  81 107 140 186 231 268 322
#     4  10  21  37  53  78 109 147 181 226 272 325
#     4  10  20  34  51  78 107 144 182 224 272 326
#
# _framework density 18.183541999999999
#
# number of rings (size 3 to 8) (size 9 to 14) (size 15 to 20)
#    0.000    1.818    2.727    2.182    0.000    5.818 
#    0.000    0.909    0.000    2.182    0.000    5.091 
#    0.000    0.000    0.000    0.000    0.000    0.000 
#
# Total GULP energy -272683.134585 kJ/mol
# GULP energy per Si atom -12394.687936 kJ/mol
# Density = 1.814216 g / cm^3
# Si number density = 18.183542 Si / 1000 Ang^3
#
#
#
# Elastic Constant Matrix: (Units=GPa)
#
#
# Indices 1 2 3 4 5 6 
#
# 1 72.1073 52.8160 32.3490 0.0000 10.4083 0.0000
# 2 52.8160 112.7227 48.7851 0.0000 7.8849 0.0000
# 3 32.3490 48.7851 100.9479 0.0000 -0.7473 0.0000
# 4 0.0000 0.0000 0.0000 35.9413 0.0000 -5.1854
# 5 10.4083 7.8849 -0.7473 0.0000 36.9433 0.0000
# 6 0.0000 0.0000 0.0000 -5.1854 0.0000 26.5444
#
#
#
# Elastic Compliance Matrix: (Units=1/GPa)
#
#
# Indices 1 2 3 4 5 6 
#
# 1 0.022324 -0.008900 -0.002886 0.000000 -0.004448 0.000000
# 2 -0.008900 0.015002 -0.004404 0.000000 -0.000784 0.000000
# 3 -0.002886 -0.004404 0.012974 0.000000 0.002015 0.000000
# 4 0.000000 0.000000 0.000000 0.028630 0.000000 0.005593
# 5 -0.004448 -0.000784 0.002015 0.000000 0.028530 0.000000
# 6 0.000000 0.000000 0.000000 0.005593 0.000000 0.038765
#
#
# Mechanical properties :
#
#
# Convention : Reuss Voigt Hill
#
# Bulk Modulus (GPa) = 55.79985 61.51978 58.65982
# Shear Modulus (GPa) = 27.08900 30.00764 28.54832
#
# Velocity S-wave (km/s) = 3.86392 4.06675 3.96663
# Velocity P-wave (km/s) = 7.11759 7.48047 7.30129
#
# Compressibility (1/GPa) = 0.01792119
#
# Stress axis : x y z
#
# Youngs Moduli (GPa) = 44.79576 66.65769 77.07722
#
# Poissons Ratio (x) = 0.59323 0.22242
# Poissons Ratio (y) = 0.39867 0.33944
# Poissons Ratio (z) = 0.12926 0.29355
#
# Static dielectric constant tensor:
#      x y z
#    x 3.117470 0.000000 -0.178790 
#    y 0.000000 3.566310 0.000000 
#    z -0.178790 0.000000 3.536420 
# 
# 
# High freq. dielectric constant tensor:
#      x y z
#    x 1.673560 0.000000 -0.020890 
#    y 0.000000 1.707760 0.000000 
#    z -0.020890 0.000000 1.719530 
# 
# From -- ./inp_files/51220.got.cif
#   From: 2010.06.25/outbox.cif.g09.slc.cpg/sg12_26_cif.got.tgz:51220.got - 2010.06.28 00:19:55.
