data_PCOD8083259
_publ_section_title
;
Structure prediction by ZEFSAII (Michael W. Deem and Ramdas Pophale) SiO2 
 PCOD8083259
Probable space group: C 2/M
;
_chemical_formula_sum "Si O2"
_cell_formula_units_Z 48
_cell_length_a 15.262071
_cell_length_b 8.891315
_cell_length_c 28.189617
_cell_angle_alpha 90.000000
_cell_angle_beta 142.294394
_cell_angle_gamma 90.000000
_cell_volume 2339.587436
_symmetry_space_group_name_H-M "C 2/M"
_symmetry_group_IT_number 12
_symmetry_cell_setting 'monoclinic'
loop_
_space_group_symop_operation_xyz
x,y,z
-x,y,-z
-x,-y,-z
x,-y,z
1/2+x,1/2+y,z
1/2-x,1/2+y,-z
1/2-x,1/2-y,-z
1/2+x,1/2-y,z
loop_
_atom_site_type_symbol
_atom_site_label
_atom_site_fract_x
_atom_site_fract_y
_atom_site_fract_z
Si Si1 0.378047 0.175498 0.691056
Si Si2 0.356016 0.329598 0.839287
Si Si3 0.171461 0.329581 0.854949
Si Si4 0.592836 0.831044 0.992321
Si Si5 0.167954 0.174994 0.681996
Si Si6 0.876177 0.321580 0.583755
O O1 0.515087 0.243702 0.777864
O O2 0.231953 0.205520 0.657005
O O3 0.364549 0.242841 0.632415
O O4 0.411693 0.000000 0.700162
O O5 0.367044 0.500000 0.824910
O O6 0.258163 0.322927 0.843461
O O7 0.514797 0.268432 0.918809
O O8 0.287404 0.222116 0.770792
O O9 0.160082 0.500000 0.868703
O O10 0.249782 0.235014 0.929576
O O11 0.609176 0.000000 0.980197
O O12 0.500000 0.826474 0.000000
O O13 0.026946 0.274716 0.625890
O O14 0.130339 0.000000 0.672993
O O15 0.861490 0.500000 0.575867
O O16 0.750000 0.250000 0.500000
#
# Coordination Sequence:
#
# PCOD8083259 Si02
#       6
#     8   8   8   8   8   8
#     4   9  20  39  62  86 119 159 196 233 289 358
#     4  10  18  32  55  81 114 157 200 243 291 348
#     4   9  16  32  55  78 108 155 201 238 286 349
#     4   9  17  28  46  79 116 150 194 250 297 337
#     4  11  22  38  62  91 119 154 196 242 291 345
#     4  11  23  44  67  91 120 154 192 235 290 353
#
# _framework density 20.516437
#
# number of rings (size 3 to 8) (size 9 to 14) (size 15 to 20)
#    0.000    2.167    1.667    2.000    0.000    3.333 
#    0.000    9.167    0.000    0.000    0.000    0.000 
#    0.000    0.000    0.000    0.000    0.000    0.000 
#
# Total GULP energy -297617.793944 kJ/mol
# GULP energy per Si atom -12400.741414 kJ/mol
# Density = 2.046974 g / cm^3
# Si number density = 20.516437 Si / 1000 Ang^3
#
#
#
# Elastic Constant Matrix: (Units=GPa)
#
#
# Indices 1 2 3 4 5 6 
#
# 1 75.2413 29.2714 50.3210 0.0000 10.9094 0.0000
# 2 29.2714 83.2908 36.1388 0.0000 3.1761 0.0000
# 3 50.3210 36.1388 154.9698 0.0000 12.0675 0.0000
# 4 0.0000 0.0000 0.0000 40.3436 0.0000 3.9055
# 5 10.9094 3.1761 12.0675 0.0000 5.5636 0.0000
# 6 0.0000 0.0000 0.0000 3.9055 0.0000 21.1330
#
#
#
# Elastic Compliance Matrix: (Units=1/GPa)
#
#
# Indices 1 2 3 4 5 6 
#
# 1 0.022485 -0.005105 -0.003495 0.000000 -0.033595 0.000000
# 2 -0.005105 0.014522 -0.002241 0.000000 0.006581 0.000000
# 3 -0.003495 -0.002241 0.008997 0.000000 -0.011382 0.000000
# 4 0.000000 0.000000 0.000000 0.025239 0.000000 -0.004664
# 5 -0.033595 0.006581 -0.011382 0.000000 0.266543 0.000000
# 6 0.000000 0.000000 0.000000 -0.004664 0.000000 0.048181
#
#
# Mechanical properties :
#
#
# Convention : Reuss Voigt Hill
#
# Bulk Modulus (GPa) = 41.11562 60.55158 50.83360
# Shear Modulus (GPa) = 12.02634 26.59277 19.30956
#
# Velocity S-wave (km/s) = 2.42374 3.60414 3.07119
# Velocity P-wave (km/s) = 5.28361 6.84818 6.11613
#
# Compressibility (1/GPa) = 0.02432166
#
# Stress axis : x y z
#
# Youngs Moduli (GPa) = 44.47486 68.86290 111.15291
#
# Poissons Ratio (x) = 0.35151 0.38844
# Poissons Ratio (y) = 0.22702 0.24913
# Poissons Ratio (z) = 0.15543 0.15435
#
# Static dielectric constant tensor:
#      x y z
#    x 3.672570 0.000000 0.074030 
#    y 0.000000 3.659630 0.000000 
#    z 0.074030 0.000000 3.880580 
# 
# 
# High freq. dielectric constant tensor:
#      x y z
#    x 1.790180 0.000000 0.004650 
#    y 0.000000 1.790170 0.000000 
#    z 0.004650 0.000000 1.807650 
# 
# From -- ./inp_files/360255.got.cif
#   From: 2010.06.25/outbox.cif.g09.slc.cpg/sg12_181_cif.got.tgz:360255.got - 2010.06.28 00:19:55.
