data_PCOD8083139
_publ_section_title
;
Structure prediction by ZEFSAII (Michael W. Deem and Ramdas Pophale) SiO2 
 PCOD8083139
Probable space group: C 2/M
;
_chemical_formula_sum "Si O2"
_cell_formula_units_Z 56
_cell_length_a 29.528468
_cell_length_b 9.227112
_cell_length_c 21.605295
_cell_angle_alpha 90.000000
_cell_angle_beta 30.828023
_cell_angle_gamma 90.000000
_cell_volume 3016.680744
_symmetry_space_group_name_H-M "C 2/M"
_symmetry_group_IT_number 12
_symmetry_cell_setting 'monoclinic'
loop_
_space_group_symop_operation_xyz
x,y,z
-x,y,-z
-x,-y,-z
x,-y,z
1/2+x,1/2+y,z
1/2-x,1/2+y,-z
1/2-x,1/2-y,-z
1/2+x,1/2-y,z
loop_
_atom_site_type_symbol
_atom_site_label
_atom_site_fract_x
_atom_site_fract_y
_atom_site_fract_z
Si Si1 0.437592 0.835649 0.340133
Si Si2 0.386222 0.331105 0.847706
Si Si3 0.971764 0.836524 0.962678
Si Si4 0.774187 0.828273 0.194450
Si Si5 0.624903 0.166627 0.720396
Si Si6 0.778122 0.330230 0.610494
Si Si7 0.219519 0.330997 0.126377
O O1 0.520080 0.728700 0.240132
O O2 0.375409 0.816331 0.353262
O O3 0.376846 0.798323 0.470712
O O4 0.473473 0.000000 0.302114
O O5 0.395486 0.500000 0.824148
O O6 0.357399 0.256521 0.817472
O O7 0.315052 0.296957 0.984558
O O8 0.033573 0.731541 0.851653
O O9 0.975945 0.000000 0.930024
O O10 0.000000 0.840272 0.000000
O O11 0.873871 0.768714 0.073504
O O12 0.727250 0.772785 0.312352
O O13 0.720377 0.778009 0.196795
O O14 0.779924 0.000000 0.188852
O O15 0.708102 0.249755 0.649949
O O16 0.631040 0.000000 0.733661
O O17 0.754968 0.500000 0.633818
O O18 0.196946 0.500000 0.147100
#
# Coordination Sequence:
#
# PCOD8083139 Si02
#       7
#     8   8   8   8   8   8   8
#     4  10  22  37  54  76 105 142 181 220 262 311
#     4  10  20  35  57  82 106 133 170 216 267 319
#     4  10  18  32  54  77 104 139 177 217 256 305
#     4   9  17  32  55  80 102 134 179 219 257 304
#     4  11  22  34  50  78 111 141 175 219 271 315
#     4  10  20  37  56  74 102 143 187 221 252 306
#     4   9  18  34  57  82 107 132 166 215 267 318
#
# _framework density 18.56345
#
# number of rings (size 3 to 8) (size 9 to 14) (size 15 to 20)
#    0.000    2.143    1.429    2.143    0.000    3.714 
#    0.000    2.143    0.000    4.286    0.000    0.000 
#    0.000    0.000    0.000    0.000    0.000    0.000 
#
# Total GULP energy -347230.945504 kJ/mol
# GULP energy per Si atom -12401.105197 kJ/mol
# Density = 1.852120 g / cm^3
# Si number density = 18.563450 Si / 1000 Ang^3
#
#
#
# Elastic Constant Matrix: (Units=GPa)
#
#
# Indices 1 2 3 4 5 6 
#
# 1 105.4042 39.4264 33.9999 -0.0033 8.7622 0.0019
# 2 39.4264 68.0822 36.2616 0.0043 2.0020 -0.0025
# 3 33.9999 36.2616 73.2998 0.0044 8.9233 -0.0010
# 4 -0.0033 0.0043 0.0044 25.4326 -0.0002 -1.5095
# 5 8.7622 2.0020 8.9233 -0.0002 20.4905 -0.0034
# 6 0.0019 -0.0025 -0.0010 -1.5095 -0.0034 32.9929
#
#
#
# Elastic Compliance Matrix: (Units=1/GPa)
#
#
# Indices 1 2 3 4 5 6 
#
# 1 0.012862 -0.005982 -0.002543 0.000003 -0.003808 -0.000002
# 2 -0.005982 0.022845 -0.009046 -0.000003 0.004265 0.000002
# 3 -0.002543 -0.009046 0.020124 -0.000002 -0.006793 -0.000001
# 4 0.000003 -0.000003 -0.000002 0.039427 0.000001 0.001804
# 5 -0.003808 0.004265 -0.006793 0.000001 0.052973 0.000006
# 6 -0.000002 0.000002 -0.000001 0.001804 0.000006 0.030392
#
#
# Mechanical properties :
#
#
# Convention : Reuss Voigt Hill
#
# Bulk Modulus (GPa) = 48.33496 51.79578 50.06537
# Shear Modulus (GPa) = 22.65931 24.92310 23.79120
#
# Velocity S-wave (km/s) = 3.49756 3.66811 3.58385
# Velocity P-wave (km/s) = 6.51189 6.77515 6.64483
#
# Compressibility (1/GPa) = 0.02068896
#
# Stress axis : x y z
#
# Youngs Moduli (GPa) = 77.75079 43.77377 49.69145
#
# Poissons Ratio (x) = 0.26184 0.12637
# Poissons Ratio (y) = 0.46508 0.44951
# Poissons Ratio (z) = 0.19773 0.39598
#
# Static dielectric constant tensor:
#      x y z
#    x 3.554510 -0.000010 0.261860 
#    y -0.000010 3.302150 -0.000010 
#    z 0.261860 -0.000010 3.551930 
# 
# 
# High freq. dielectric constant tensor:
#      x y z
#    x 1.724200 0.000000 0.007970 
#    y 0.000000 1.703560 0.000000 
#    z 0.007970 0.000000 1.713840 
# 
# From -- ./inp_files/329442.got.cif
#   From: 2010.06.25/outbox.cif.g09.slc.cpg/sg12_165_cif.got.tgz:329442.got - 2010.06.28 00:19:55.
