data_PCOD8083463
_publ_section_title
;
Structure prediction by ZEFSAII (Michael W. Deem and Ramdas Pophale) SiO2 
 PCOD8083463
Probable space group: C 2/M
;
_chemical_formula_sum "Si O2"
_cell_formula_units_Z 56
_cell_length_a 11.109226
_cell_length_b 19.862386
_cell_length_c 13.156242
_cell_angle_alpha 90.000000
_cell_angle_beta 103.882236
_cell_angle_gamma 90.000000
_cell_volume 2818.206268
_symmetry_space_group_name_H-M "C 2/M"
_symmetry_group_IT_number 12
_symmetry_cell_setting 'monoclinic'
loop_
_space_group_symop_operation_xyz
x,y,z
-x,y,-z
-x,-y,-z
x,-y,z
1/2+x,1/2+y,z
1/2-x,1/2+y,-z
1/2-x,1/2-y,-z
1/2+x,1/2-y,z
loop_
_atom_site_type_symbol
_atom_site_label
_atom_site_fract_x
_atom_site_fract_y
_atom_site_fract_z
Si Si1 0.910426 0.308190 0.721775
Si Si2 0.665466 0.705341 0.568503
Si Si3 0.088538 0.642805 0.605273
Si Si4 0.689911 0.422173 0.246612
Si Si5 0.039793 0.169041 0.338682
Si Si6 0.637690 0.180963 0.064421
Si Si7 0.854636 0.839490 0.958574
O O1 0.808259 0.309596 0.612602
O O2 0.957182 0.230505 0.742744
O O3 0.857088 0.337829 0.815513
O O4 0.020186 0.353933 0.700865
O O5 0.629400 0.782517 0.581116
O O6 0.639445 0.684874 0.447648
O O7 0.592301 0.659660 0.634892
O O8 0.201363 0.592899 0.650588
O O9 0.000000 0.611691 0.500000
O O10 0.681450 0.500000 0.216996
O O11 0.566400 0.398787 0.281578
O O12 0.705309 0.379610 0.147118
O O13 0.650419 0.260680 0.060007
O O14 0.500000 0.157612 0.000000
O O15 0.756287 0.145983 0.031938
O O16 0.000000 0.862927 0.000000
#
# Coordination Sequence:
#
# PCOD8083463 Si02
#       7
#     8   8   8   8   8   8   8
#     4  11  18  30  60  87 120 144 182 248 307 350
#     4  10  18  32  58  92 120 145 183 253 305 344
#     4  11  20  34  58  90 123 153 194 237 302 361
#     4  12  25  40  57  80 122 166 202 233 280 367
#     4  10  19  33  54  90 115 149 187 235 301 345
#     4  10  20  34  57  93 123 138 183 265 322 350
#     4  10  22  38  59  84 116 153 200 249 306 357
#
# _framework density 19.870795999999999
#
# number of rings (size 3 to 8) (size 9 to 14) (size 15 to 20)
#    0.000    1.429    5.714    2.143    2.000    2.857 
#    0.000    1.429    0.000    4.714    0.000    0.000 
#    0.000    0.000    0.000    0.000    0.000    0.000 
#
# Total GULP energy -346910.606941 kJ/mol
# GULP energy per Si atom -12389.664534 kJ/mol
# Density = 1.982557 g / cm^3
# Si number density = 19.870796 Si / 1000 Ang^3
#
#
#
# Elastic Constant Matrix: (Units=GPa)
#
#
# Indices 1 2 3 4 5 6 
#
# 1 101.2531 24.3362 16.1829 0.0000 -15.1532 0.0000
# 2 24.3362 35.8346 16.6539 0.0000 -3.9607 0.0000
# 3 16.1829 16.6539 64.6642 0.0000 -15.1771 0.0000
# 4 0.0000 0.0000 0.0000 11.4454 0.0000 -2.0553
# 5 -15.1532 -3.9607 -15.1771 0.0000 40.6142 0.0000
# 6 0.0000 0.0000 0.0000 -2.0553 0.0000 9.3135
#
#
#
# Elastic Compliance Matrix: (Units=1/GPa)
#
#
# Indices 1 2 3 4 5 6 
#
# 1 0.012369 -0.007902 -0.000173 0.000000 0.003779 0.000000
# 2 -0.007902 0.036748 -0.008043 0.000000 -0.002370 0.000000
# 3 -0.000173 -0.008043 0.019051 0.000000 0.006270 0.000000
# 4 0.000000 0.000000 0.000000 0.090976 0.000000 0.020077
# 5 0.003779 -0.002370 0.006270 0.000000 0.028144 0.000000
# 6 0.000000 0.000000 0.000000 0.020077 0.000000 0.111802
#
#
# Mechanical properties :
#
#
# Convention : Reuss Voigt Hill
#
# Bulk Modulus (GPa) = 27.83047 35.12197 31.47622
# Shear Modulus (GPa) = 14.56438 21.91321 18.23879
#
# Velocity S-wave (km/s) = 2.71025 3.32442 3.03292
# Velocity P-wave (km/s) = 4.88160 5.69643 5.30468
#
# Compressibility (1/GPa) = 0.03593184
#
# Stress axis : x y z
#
# Youngs Moduli (GPa) = 80.84902 27.21220 52.49079
#
# Poissons Ratio (x) = 0.21502 0.00910
# Poissons Ratio (y) = 0.63884 0.42219
# Poissons Ratio (z) = 0.01401 0.21887
#
# Static dielectric constant tensor:
#      x y z
#    x 4.176950 0.000000 -0.086450 
#    y 0.000000 2.941730 0.000000 
#    z -0.086450 0.000000 3.738720 
# 
# 
# High freq. dielectric constant tensor:
#      x y z
#    x 1.801190 0.000000 -0.012570 
#    y 0.000000 1.689760 0.000000 
#    z -0.012570 0.000000 1.785510 
# 
# From -- ./inp_files/133980.got.cif
#   From: 2010.06.25/outbox.cif.g09.slc.cpg/sg12_67_cif.got.tgz:133980.got - 2010.06.28 00:19:55.
