data_PCOD8083017
_publ_section_title
;
Structure prediction by ZEFSAII (Michael W. Deem and Ramdas Pophale) SiO2 
 PCOD8083017
Probable space group: C 2/M
;
_chemical_formula_sum "Si O2"
_cell_formula_units_Z 56
_cell_length_a 20.052467
_cell_length_b 8.814848
_cell_length_c 30.052278
_cell_angle_alpha 90.000000
_cell_angle_beta 33.725535
_cell_angle_gamma 90.000000
_cell_volume 2949.316247
_symmetry_space_group_name_H-M "C 2/M"
_symmetry_group_IT_number 12
_symmetry_cell_setting 'monoclinic'
loop_
_space_group_symop_operation_xyz
x,y,z
-x,y,-z
-x,-y,-z
x,-y,z
1/2+x,1/2+y,z
1/2-x,1/2+y,-z
1/2-x,1/2-y,-z
1/2+x,1/2-y,z
loop_
_atom_site_type_symbol
_atom_site_label
_atom_site_fract_x
_atom_site_fract_y
_atom_site_fract_z
Si Si1 0.294837 0.676621 0.583295
Si Si2 0.702992 0.179562 0.324416
Si Si3 0.969075 0.822826 0.166802
Si Si4 0.547711 0.822109 0.673365
Si Si5 0.187388 0.822067 0.992428
Si Si6 0.980557 0.821670 0.403655
Si Si7 0.121558 0.179732 0.165755
O O1 0.305893 0.500000 0.589644
O O2 0.326013 0.775805 0.608908
O O3 0.162513 0.718109 0.639662
O O4 0.390830 0.722756 0.492912
O O5 0.835058 0.243957 0.237749
O O6 0.612396 0.259473 0.341028
O O7 0.692049 0.000000 0.324817
O O8 0.044382 0.790622 0.079390
O O9 0.038158 0.757154 0.171748
O O10 0.957883 0.000000 0.181760
O O11 0.570605 0.755517 0.612076
O O12 0.429430 0.745837 0.760077
O O13 0.526986 0.000000 0.681073
O O14 0.213979 0.000000 0.975795
O O15 0.250000 0.750000 0.000000
O O16 0.242409 0.742796 0.917837
O O17 0.986194 0.000000 0.392911
O O18 0.126731 0.000000 0.165649
#
# Coordination Sequence:
#
# PCOD8083017 Si02
#       7
#     8   8   8   8   8   8   8
#     4  10  22  39  58  81 109 141 183 232 280 326
#     4  11  21  36  58  83 111 146 186 226 269 325
#     4   8  16  30  50  77 109 141 176 219 268 316
#     4  11  22  37  58  83 108 142 187 230 273 330
#     4   9  16  28  47  76 110 142 177 222 271 320
#     4  11  24  40  55  77 112 149 182 227 281 328
#     4  10  18  32  52  79 111 144 178 220 275 327
#
# _framework density 18.987449999999999
#
# number of rings (size 3 to 8) (size 9 to 14) (size 15 to 20)
#    0.000    2.000    1.429    3.857    0.000    3.429 
#    0.000    2.143    0.000    0.857    0.000    6.000 
#    0.000    0.000    0.000    0.000    0.000    0.000 
#
# Total GULP energy -347156.906974 kJ/mol
# GULP energy per Si atom -12398.460963 kJ/mol
# Density = 1.894423 g / cm^3
# Si number density = 18.987450 Si / 1000 Ang^3
#
#
#
# Elastic Constant Matrix: (Units=GPa)
#
#
# Indices 1 2 3 4 5 6 
#
# 1 35.5407 18.0339 7.0589 0.0035 3.3280 0.0426
# 2 18.0339 79.6797 34.0079 -0.0380 -1.0634 -0.0277
# 3 7.0589 34.0079 114.8311 0.0191 -5.8947 -0.0053
# 4 0.0035 -0.0380 0.0191 32.8059 -0.0122 4.1627
# 5 3.3280 -1.0634 -5.8947 -0.0122 7.8769 0.0053
# 6 0.0426 -0.0277 -0.0053 4.1627 0.0053 28.2191
#
#
#
# Elastic Compliance Matrix: (Units=1/GPa)
#
#
# Indices 1 2 3 4 5 6 
#
# 1 0.033552 -0.007531 -0.000636 -0.000011 -0.015669 -0.000054
# 2 -0.007531 0.016069 -0.004182 0.000020 0.002222 0.000023
# 3 -0.000636 -0.004182 0.010369 -0.000008 0.007464 -0.000001
# 4 -0.000011 0.000020 -0.000008 0.031064 0.000052 -0.004582
# 5 -0.015669 0.002222 0.007464 0.000052 0.139460 -0.000007
# 6 -0.000054 0.000023 -0.000001 -0.004582 -0.000007 0.036113
#
#
# Mechanical properties :
#
#
# Convention : Reuss Voigt Hill
#
# Bulk Modulus (GPa) = 28.33578 38.69477 33.51528
# Shear Modulus (GPa) = 16.49672 25.17709 20.83690
#
# Velocity S-wave (km/s) = 2.95078 3.64536 3.31630
# Velocity P-wave (km/s) = 5.15415 6.17589 5.68801
#
# Compressibility (1/GPa) = 0.03529107
#
# Stress axis : x y z
#
# Youngs Moduli (GPa) = 29.80452 62.23001 96.43901
#
# Poissons Ratio (x) = 0.46868 0.06137
# Poissons Ratio (y) = 0.22447 0.40331
# Poissons Ratio (z) = 0.01897 0.26025
#
# Static dielectric constant tensor:
#      x y z
#    x 3.180840 -0.000060 -0.115490 
#    y -0.000060 3.420130 0.000070 
#    z -0.115490 0.000070 4.029140 
# 
# 
# High freq. dielectric constant tensor:
#      x y z
#    x 1.697110 0.000000 -0.001680 
#    y 0.000000 1.737140 0.000010 
#    z -0.001680 0.000010 1.760510 
# 
# From -- ./inp_files/275181.got.cif
#   From: 2010.06.25/outbox.cif.g09.slc.cpg/sg12_138_cif.got.tgz:275181.got - 2010.06.28 00:19:55.
