data_PCOD8083826
_publ_section_title
;
Structure prediction by ZEFSAII (Michael W. Deem and Ramdas Pophale) SiO2 
 PCOD8083826
Probable space group: C 2/M
;
_chemical_formula_sum "Si O2"
_cell_formula_units_Z 64
_cell_length_a 24.865840
_cell_length_b 8.883879
_cell_length_c 14.914726
_cell_angle_alpha 90.000000
_cell_angle_beta 89.161150
_cell_angle_gamma 90.000000
_cell_volume 3294.386137
_symmetry_space_group_name_H-M "C 2/M"
_symmetry_group_IT_number 12
_symmetry_cell_setting 'monoclinic'
loop_
_space_group_symop_operation_xyz
x,y,z
-x,y,-z
-x,-y,-z
x,-y,z
1/2+x,1/2+y,z
1/2-x,1/2+y,-z
1/2-x,1/2-y,-z
1/2+x,1/2-y,z
loop_
_atom_site_type_symbol
_atom_site_label
_atom_site_fract_x
_atom_site_fract_y
_atom_site_fract_z
Si Si1 0.391057 0.828831 0.666354
Si Si2 0.056673 0.332892 0.044090
Si Si3 0.439604 0.821406 0.485678
Si Si4 0.489135 0.171290 0.779971
Si Si5 0.809328 0.178599 0.802652
Si Si6 0.698246 0.678977 0.809295
Si Si7 0.841958 0.176725 0.999121
Si Si8 0.099961 0.320077 0.706687
O O1 0.395948 0.773244 0.563395
O O2 0.454038 0.820428 0.691453
O O3 0.354312 0.723632 0.729036
O O4 0.369381 0.000000 0.675402
O O5 0.082294 0.500000 0.053389
O O6 0.045875 0.251302 0.140308
O O7 0.097282 0.231827 0.986132
O O8 0.000000 0.341989 0.000000
O O9 0.500000 0.753012 0.500000
O O10 0.411887 0.766156 0.394415
O O11 0.445415 0.000000 0.484726
O O12 0.548293 0.239458 0.764183
O O13 0.497881 0.000000 0.811892
O O14 0.753854 0.253193 0.772153
O O15 0.803701 0.000000 0.802948
O O16 0.821910 0.240716 0.903231
O O17 0.698690 0.500000 0.802411
O O18 0.691479 0.733299 0.913466
O O19 0.652107 0.741044 0.745497
O O20 0.840829 0.000000 0.995858
O O21 0.106454 0.500000 0.712088
#
# Coordination Sequence:
#
# PCOD8083826 Si02
#       8
#     8   8   8   8   8   8   8   8
#     4  10  18  33  58  87 116 147 183 227 277 329
#     4  10  19  30  48  78 114 151 188 223 266 326
#     4   9  16  30  58  91 118 147 186 228 273 331
#     4   9  16  28  51  81 113 147 182 221 268 324
#     4  11  23  40  60  83 110 146 193 239 281 331
#     4  11  24  41  58  80 111 149 190 235 288 338
#     4  10  22  38  56  80 110 144 187 235 283 333
#     4  10  19  35  59  87 117 149 188 233 277 329
#
# _framework density 19.426988000000001
#
# number of rings (size 3 to 8) (size 9 to 14) (size 15 to 20)
#    0.000    2.000    2.500    1.875    0.000    2.750 
#    0.000    2.500    0.000    0.750    0.000    0.000 
#    0.000    0.000    0.000    0.000    0.000    0.000 
#
# Total GULP energy -396555.540262 kJ/mol
# GULP energy per Si atom -12392.360633 kJ/mol
# Density = 1.938277 g / cm^3
# Si number density = 19.426988 Si / 1000 Ang^3
#
#
#
# Elastic Constant Matrix: (Units=GPa)
#
#
# Indices 1 2 3 4 5 6 
#
# 1 118.1174 29.0234 46.1481 0.0000 -0.4021 0.0000
# 2 29.0234 31.5007 29.7668 0.0000 1.0516 0.0000
# 3 46.1481 29.7668 110.5168 0.0000 -4.8128 0.0000
# 4 0.0000 0.0000 0.0000 21.6435 0.0000 -4.5766
# 5 -0.4021 1.0516 -4.8128 0.0000 22.0309 0.0000
# 6 0.0000 0.0000 0.0000 -4.5766 0.0000 -6.2300
#
#
#
# Elastic Compliance Matrix: (Units=1/GPa)
#
#
# Indices 1 2 3 4 5 6 
#
# 1 0.011478 -0.008113 -0.002606 0.000000 0.000027 0.000000
# 2 -0.008113 0.048782 -0.009954 0.000000 -0.004651 0.000000
# 3 -0.002606 -0.009954 0.012960 0.000000 0.003259 0.000000
# 4 0.000000 0.000000 0.000000 0.039991 0.000000 -0.029378
# 5 0.000027 -0.004651 0.003259 0.000000 0.046325 0.000000
# 6 0.000000 0.000000 0.000000 -0.029378 0.000000 -0.138932
#
#
# Mechanical properties :
#
#
# Convention : Reuss Voigt Hill
#
# Bulk Modulus (GPa) = 31.37500 52.22351 41.79925
# Shear Modulus (GPa) = 68.89406 17.83531 43.36469
#
# Velocity S-wave (km/s) = 5.96155 3.03325 4.72973
# Velocity P-wave (km/s) = 7.97321 6.26161 7.16868
#
# Compressibility (1/GPa) = 0.03187251
#
# Stress axis : x y z
#
# Youngs Moduli (GPa) = 87.12182 20.49949 77.16305
#
# Poissons Ratio (x) = 0.16632 0.20112
# Poissons Ratio (y) = 0.70686 0.76805
# Poissons Ratio (z) = 0.22708 0.20404
#
# Static dielectric constant tensor:
#      x y z
#    x 3.437190 0.000000 -0.062510 
#    y 0.000000 3.165900 0.000000 
#    z -0.062510 0.000000 4.054130 
# 
# 
# High freq. dielectric constant tensor:
#      x y z
#    x 1.754380 0.000000 -0.007080 
#    y 0.000000 1.715990 0.000000 
#    z -0.007080 0.000000 1.766140 
# 
# From -- ./inp_files/238610.got.cif
#   From: 2010.06.25/outbox.cif.g09.slc.cpg/sg12_120_cif.got.tgz:238610.got - 2010.06.28 00:19:55.
