data_PCOD8083924
_publ_section_title
;
Structure prediction by ZEFSAII (Michael W. Deem and Ramdas Pophale) SiO2 
 PCOD8083924
Probable space group: C 2/M
;
_chemical_formula_sum "Si O2"
_cell_formula_units_Z 56
_cell_length_a 20.795784
_cell_length_b 18.982576
_cell_length_c 9.614834
_cell_angle_alpha 90.000000
_cell_angle_beta 50.757220
_cell_angle_gamma 90.000000
_cell_volume 2939.531798
_symmetry_space_group_name_H-M "C 2/M"
_symmetry_group_IT_number 12
_symmetry_cell_setting 'monoclinic'
loop_
_space_group_symop_operation_xyz
x,y,z
-x,y,-z
-x,-y,-z
x,-y,z
1/2+x,1/2+y,z
1/2-x,1/2+y,-z
1/2-x,1/2-y,-z
1/2+x,1/2-y,z
loop_
_atom_site_type_symbol
_atom_site_label
_atom_site_fract_x
_atom_site_fract_y
_atom_site_fract_z
Si Si1 0.835084 0.579746 0.516803
Si Si2 0.331785 0.821148 0.032531
Si Si3 0.755124 0.581979 0.909804
Si Si4 0.240593 0.175117 0.442798
Si Si5 0.112012 0.168313 0.002073
Si Si6 0.568623 0.695735 0.745117
Si Si7 0.013446 0.354526 0.826552
O O1 0.814915 0.500000 0.512856
O O2 0.822924 0.596229 0.696710
O O3 0.766071 0.619610 0.523486
O O4 0.929860 0.595282 0.344616
O O5 0.272579 0.862299 0.007868
O O6 0.336789 0.736377 0.009764
O O7 0.423490 0.851328 0.880039
O O8 0.297558 0.838101 0.232164
O O9 0.756976 0.500000 0.956840
O O10 0.662914 0.599260 0.977373
O O11 0.250000 0.250000 0.500000
O O12 0.141797 0.170597 0.540058
O O13 0.018257 0.164154 0.192462
O O14 0.098191 0.170380 0.856120
O O15 0.560158 0.779847 0.769701
O O16 0.000000 0.384657 0.000000
#
# Coordination Sequence:
#
# PCOD8083924 Si02
#       7
#     8   8   8   8   8   8   8
#     4  11  23  36  56  86 122 161 200 240 289 353
#     4  11  22  36  63  88 118 156 197 240 301 358
#     4  11  25  42  56  82 126 168 199 234 292 357
#     4  12  18  36  64  90 115 149 195 251 300 342
#     4  10  18  37  61  89 115 150 195 247 294 352
#     4  10  18  33  65  95 116 138 194 258 303 340
#     4  11  18  37  59  92 119 149 192 252 303 345
#
# _framework density 19.050651999999999
#
# number of rings (size 3 to 8) (size 9 to 14) (size 15 to 20)
#    0.000    1.143    8.571    0.429    0.000    2.000 
#    0.000    4.286    0.000    0.857    0.000    0.000 
#    0.000    0.000    0.000    0.000    0.000    0.000 
#
# Total GULP energy -347037.455188 kJ/mol
# GULP energy per Si atom -12394.194828 kJ/mol
# Density = 1.900729 g / cm^3
# Si number density = 19.050652 Si / 1000 Ang^3
#
#
#
# Elastic Constant Matrix: (Units=GPa)
#
#
# Indices 1 2 3 4 5 6 
#
# 1 79.4976 36.4436 26.6678 0.0000 -6.6873 0.0000
# 2 36.4436 67.9559 36.7630 0.0000 3.8587 0.0000
# 3 26.6678 36.7630 78.6634 0.0000 -13.9938 0.0000
# 4 0.0000 0.0000 0.0000 20.5190 0.0000 -1.2959
# 5 -6.6873 3.8587 -13.9938 0.0000 31.8070 0.0000
# 6 0.0000 0.0000 0.0000 -1.2959 0.0000 17.8371
#
#
#
# Elastic Compliance Matrix: (Units=1/GPa)
#
#
# Indices 1 2 3 4 5 6 
#
# 1 0.017421 -0.009127 -0.000859 0.000000 0.004392 0.000000
# 2 -0.009127 0.026019 -0.010815 0.000000 -0.009834 0.000000
# 3 -0.000859 -0.010815 0.019810 0.000000 0.009847 0.000000
# 4 0.000000 0.000000 0.000000 0.048960 0.000000 0.003557
# 5 0.004392 -0.009834 0.009847 0.000000 0.037888 0.000000
# 6 0.000000 0.000000 0.000000 0.003557 0.000000 0.056321
#
#
# Mechanical properties :
#
#
# Convention : Reuss Voigt Hill
#
# Bulk Modulus (GPa) = 46.19538 47.31842 46.75690
# Shear Modulus (GPa) = 19.58959 22.44880 21.01919
#
# Velocity S-wave (km/s) = 3.21017 3.43647 3.32525
# Velocity P-wave (km/s) = 6.16779 6.37479 6.27214
#
# Compressibility (1/GPa) = 0.02164718
#
# Stress axis : x y z
#
# Youngs Moduli (GPa) = 57.40303 38.43289 50.48008
#
# Poissons Ratio (x) = 0.35078 0.04336
# Poissons Ratio (y) = 0.52392 0.54595
# Poissons Ratio (z) = 0.04931 0.41566
#
# Static dielectric constant tensor:
#      x y z
#    x 3.879630 0.000000 -0.184500 
#    y 0.000000 3.248440 0.000000 
#    z -0.184500 0.000000 4.271420 
# 
# 
# High freq. dielectric constant tensor:
#      x y z
#    x 1.736800 0.000000 -0.025720 
#    y 0.000000 1.718960 0.000000 
#    z -0.025720 0.000000 1.740380 
# 
# From -- ./inp_files/98040.got.cif
#   From: 2010.06.25/outbox.cif.g09.slc.cpg/sg12_50_cif.got.tgz:98040.got - 2010.06.28 00:19:55.
