data_PCOD8083015
_publ_section_title
;
Structure prediction by ZEFSAII (Michael W. Deem and Ramdas Pophale) SiO2 
 PCOD8083015
Probable space group: C 2/M
;
_chemical_formula_sum "Si O2"
_cell_formula_units_Z 32
_cell_length_a 6.214780
_cell_length_b 33.550508
_cell_length_c 5.507295
_cell_angle_alpha 90.000000
_cell_angle_beta 77.683771
_cell_angle_gamma 90.000000
_cell_volume 1121.892339
_symmetry_space_group_name_H-M "C 2/M"
_symmetry_group_IT_number 12
_symmetry_cell_setting 'monoclinic'
loop_
_space_group_symop_operation_xyz
x,y,z
-x,y,-z
-x,-y,-z
x,-y,z
1/2+x,1/2+y,z
1/2-x,1/2+y,-z
1/2-x,1/2-y,-z
1/2+x,1/2-y,z
loop_
_atom_site_type_symbol
_atom_site_label
_atom_site_fract_x
_atom_site_fract_y
_atom_site_fract_z
Si Si1 0.250985 0.046528 0.677394
Si Si2 0.747282 0.670001 0.070070
Si Si3 0.257400 0.577167 0.825429
Si Si4 0.749116 0.796512 0.441842
O O1 0.357067 0.067827 0.410158
O O2 0.996292 0.057658 0.753510
O O3 0.281281 0.000000 0.629325
O O4 0.366696 0.059276 0.905639
O O5 0.641584 0.686602 0.839351
O O6 0.724478 0.623162 0.110043
O O7 0.631400 0.687915 0.340466
O O8 0.000000 0.684386 0.000000
O O9 0.500000 0.813274 0.500000
O O10 0.750000 0.750000 0.500000
#
# Coordination Sequence:
#
# PCOD8083015 Si02
#       4
#     8   8   8   8
#     4  10  19  33  54  77 113 146 174 230 284 316
#     4  10  21  37  58  77 111 145 179 227 277 323
#     4  10  18  32  52  79 104 138 186 213 272 324
#     4  10  21  40  58  81 109 148 182 224 283 338
#
# _framework density 28.523235
#
# number of rings (size 3 to 8) (size 9 to 14) (size 15 to 20)
#    0.000    2.000    0.000    6.000    0.000    0.000 
#   13.500    0.000    0.000    8.250    0.000    0.000 
#    0.000    0.000    0.000    0.000    0.000    0.000 
#
# Total GULP energy -198309.761621 kJ/mol
# GULP energy per Si atom -12394.360101 kJ/mol
# Density = 2.845832 g / cm^3
# Si number density = 28.523235 Si / 1000 Ang^3
#
#
#
# Elastic Constant Matrix: (Units=GPa)
#
#
# Indices 1 2 3 4 5 6 
#
# 1 97.8233 15.2407 132.8763 0.0000 15.3322 0.0000
# 2 15.2407 210.7593 126.5045 0.0000 -1.9568 0.0000
# 3 132.8763 126.5045 383.5483 0.0000 5.0700 0.0000
# 4 0.0000 0.0000 0.0000 70.4215 0.0000 2.0585
# 5 15.3322 -1.9568 5.0700 0.0000 77.0523 0.0000
# 6 0.0000 0.0000 0.0000 2.0585 0.0000 27.8788
#
#
#
# Elastic Compliance Matrix: (Units=1/GPa)
#
#
# Indices 1 2 3 4 5 6 
#
# 1 0.022336 0.003696 -0.008907 0.000000 -0.003765 0.000000
# 2 0.003696 0.006534 -0.003431 0.000000 -0.000344 0.000000
# 3 -0.008907 -0.003431 0.006808 0.000000 0.001237 0.000000
# 4 0.000000 0.000000 0.000000 0.014231 0.000000 -0.001051
# 5 -0.003765 -0.000344 0.001237 0.000000 0.013637 0.000000
# 6 0.000000 0.000000 0.000000 -0.001051 0.000000 0.035947
#
#
# Mechanical properties :
#
#
# Convention : Reuss Voigt Hill
#
# Bulk Modulus (GPa) = 54.36600 137.93044 96.14822
# Shear Modulus (GPa) = 40.68067 62.90449 51.79258
#
# Velocity S-wave (km/s) = 3.78064 4.70124 4.26585
# Velocity P-wave (km/s) = 6.17732 8.82786 7.61874
#
# Compressibility (1/GPa) = 0.01839385
#
# Stress axis : x y z
#
# Youngs Moduli (GPa) = 44.77098 153.05359 146.87724
#
# Poissons Ratio (x) = -0.56575 1.30830
# Poissons Ratio (y) = -0.16549 0.50394
# Poissons Ratio (z) = 0.39880 0.52513
#
# Static dielectric constant tensor:
#      x y z
#    x 6.021540 0.000000 0.031380 
#    y 0.000000 4.655830 0.000000 
#    z 0.031380 0.000000 7.581600 
# 
# 
# High freq. dielectric constant tensor:
#      x y z
#    x 2.250880 0.000000 -0.002180 
#    y 0.000000 2.118720 0.000000 
#    z -0.002180 0.000000 2.228330 
# 
# From -- ./inp_files/3837.got.cif
#   From: 2010.06.25/outbox.cif.g09.slc.cpg/sg12_2_cif.got.tgz:3837.got - 2010.06.28 00:19:55.
