data_PCOD8083321
_publ_section_title
;
Structure prediction by ZEFSAII (Michael W. Deem and Ramdas Pophale) SiO2 
 PCOD8083321
Probable space group: C 2/M
;
_chemical_formula_sum "Si O2"
_cell_formula_units_Z 64
_cell_length_a 28.627736
_cell_length_b 8.891595
_cell_length_c 15.414691
_cell_angle_alpha 90.000000
_cell_angle_beta 57.422743
_cell_angle_gamma 90.000000
_cell_volume 3306.412768
_symmetry_space_group_name_H-M "C 2/M"
_symmetry_group_IT_number 12
_symmetry_cell_setting 'monoclinic'
loop_
_space_group_symop_operation_xyz
x,y,z
-x,y,-z
-x,-y,-z
x,-y,z
1/2+x,1/2+y,z
1/2-x,1/2+y,-z
1/2-x,1/2-y,-z
1/2+x,1/2-y,z
loop_
_atom_site_type_symbol
_atom_site_label
_atom_site_fract_x
_atom_site_fract_y
_atom_site_fract_z
Si Si1 0.632830 0.824476 0.717543
Si Si2 0.863512 0.676659 0.480892
Si Si3 0.563337 0.322544 0.936656
Si Si4 0.636483 0.823339 0.207909
Si Si5 0.244540 0.171480 0.858165
Si Si6 0.562277 0.179817 0.437718
Si Si7 0.244535 0.171480 0.652758
Si Si8 0.132835 0.324473 0.016783
O O1 0.614786 0.785729 0.637164
O O2 0.592295 0.736459 0.821377
O O3 0.696095 0.777112 0.666703
O O4 0.627375 0.000000 0.743152
O O5 0.859049 0.500000 0.501191
O O6 0.906530 0.743396 0.507997
O O7 0.801516 0.740200 0.557404
O O8 0.568770 0.500000 0.931223
O O9 0.592307 0.263535 0.993996
O O10 0.500000 0.268043 0.000000
O O11 0.698478 0.759800 0.160447
O O12 0.593462 0.756610 0.321049
O O13 0.640943 0.000000 0.219274
O O14 0.614786 0.785711 0.133250
O O15 0.247480 0.178679 0.752518
O O16 0.196102 0.277111 0.941101
O O17 0.233956 0.000000 0.899624
O O18 0.500000 0.244318 0.500000
O O19 0.561210 0.000000 0.438788
O O20 0.233949 0.000000 0.632469
O O21 0.127382 0.500000 0.002090
#
# Coordination Sequence:
#
# PCOD8083321 Si02
#       8
#     8   8   8   8   8   8   8   8
#     4  11  22  35  56  86 117 140 175 232 284 326
#     4   9  18  32  51  81 115 148 181 220 272 325
#     4  11  25  44  61  76 102 147 196 231 272 337
#     4   9  18  32  51  81 115 148 181 220 272 325
#     4  10  18  32  56  80 112 152 186 217 262 330
#     4   9  16  29  50  75 106 143 182 219 262 323
#     4  10  18  32  56  80 112 152 186 217 262 330
#     4  11  22  35  56  86 117 140 175 232 284 326
#
# _framework density 19.356325999999999
#
# number of rings (size 3 to 8) (size 9 to 14) (size 15 to 20)
#    0.000    2.000    2.500    1.875    0.000    2.000 
#    0.000    3.750    0.000    0.000    0.000    0.000 
#    0.000    7.000    0.000    0.000    0.000    0.000 
#
# Total GULP energy -396815.049008 kJ/mol
# GULP energy per Si atom -12400.470281 kJ/mol
# Density = 1.931227 g / cm^3
# Si number density = 19.356326 Si / 1000 Ang^3
#
#
#
# Elastic Constant Matrix: (Units=GPa)
#
#
# Indices 1 2 3 4 5 6 
#
# 1 137.8997 28.6340 100.8073 0.0000 -18.8046 0.0000
# 2 28.6340 32.5789 27.8332 0.0000 -0.7101 0.0002
# 3 100.8073 27.8332 124.0080 0.0000 6.6607 0.0000
# 4 0.0000 0.0000 0.0000 -8.2414 0.0000 39.5569
# 5 -18.8046 -0.7101 6.6607 0.0000 29.7810 0.0000
# 6 0.0000 0.0002 0.0000 39.5569 0.0000 -53.9301
#
#
#
# Elastic Compliance Matrix: (Units=1/GPa)
#
#
# Indices 1 2 3 4 5 6 
#
# 1 0.028293 -0.004534 -0.023214 0.000000 0.022949 0.000000
# 2 -0.004534 0.038943 -0.005012 0.000000 -0.000813 0.000000
# 3 -0.023214 -0.005012 0.029205 0.000000 -0.021309 0.000000
# 4 0.000000 0.000000 0.000000 0.048140 0.000000 0.035310
# 5 0.022949 -0.000813 -0.021309 0.000000 0.052815 0.000000
# 6 0.000000 0.000000 0.000000 0.035310 0.000000 0.007357
#
#
# Mechanical properties :
#
#
# Convention : Reuss Voigt Hill
#
# Bulk Modulus (GPa) = 32.34023 67.67064 50.00544
# Shear Modulus (GPa) = 17.82034 2.66934 10.24484
#
# Velocity S-wave (km/s) = 3.03751 1.17561 2.30310
# Velocity P-wave (km/s) = 5.38944 6.07282 5.74130
#
# Compressibility (1/GPa) = 0.03092124
#
# Stress axis : x y z
#
# Youngs Moduli (GPa) = 35.34500 25.67837 34.24123
#
# Poissons Ratio (x) = 0.11642 0.79489
# Poissons Ratio (y) = 0.16024 0.17160
# Poissons Ratio (z) = 0.82051 0.12869
#
# Static dielectric constant tensor:
#      x y z
#    x 3.720020 0.000000 0.010840 
#    y 0.000000 3.277490 0.000000 
#    z 0.010840 0.000000 3.732660 
# 
# 
# High freq. dielectric constant tensor:
#      x y z
#    x 1.759500 0.000000 0.006380 
#    y 0.000000 1.713730 0.000000 
#    z 0.006380 0.000000 1.766880 
# 
# From -- ./inp_files/249062.got.cif
#   From: 2010.06.25/outbox.cif.g09.slc.cpg/sg12_125_cif.got.tgz:249062.got - 2010.06.28 00:19:55.
