data_PCOD8083052
_publ_section_title
;
Structure prediction by ZEFSAII (Michael W. Deem and Ramdas Pophale) SiO2 
 PCOD8083052
Probable space group: C 2/M
;
_chemical_formula_sum "Si O2"
_cell_formula_units_Z 48
_cell_length_a 13.231116
_cell_length_b 17.485445
_cell_length_c 21.257596
_cell_angle_alpha 90.000000
_cell_angle_beta 144.758342
_cell_angle_gamma 90.000000
_cell_volume 2837.807369
_symmetry_space_group_name_H-M "C 2/M"
_symmetry_group_IT_number 12
_symmetry_cell_setting 'monoclinic'
loop_
_space_group_symop_operation_xyz
x,y,z
-x,y,-z
-x,-y,-z
x,-y,z
1/2+x,1/2+y,z
1/2-x,1/2+y,-z
1/2-x,1/2-y,-z
1/2+x,1/2-y,z
loop_
_atom_site_type_symbol
_atom_site_label
_atom_site_fract_x
_atom_site_fract_y
_atom_site_fract_z
Si Si1 0.083026 0.765880 0.478305
Si Si2 0.027137 0.586422 0.221813
Si Si3 0.882260 0.313466 0.039727
Si Si4 0.388616 0.586423 0.339630
Si Si5 0.022536 0.294851 0.321653
Si Si6 0.765004 0.322451 0.845594
O O1 0.001978 0.705334 0.386857
O O2 0.288735 0.756146 0.592898
O O3 0.000000 0.739349 0.500000
O O4 0.038093 0.853605 0.435781
O O5 0.962637 0.500000 0.194035
O O6 0.231913 0.593144 0.309949
O O7 0.003949 0.623222 0.279109
O O8 0.906731 0.624947 0.107257
O O9 0.074443 0.284388 0.113520
O O10 0.750000 0.250000 0.000000
O O11 0.808972 0.352173 0.938276
O O12 0.465264 0.500000 0.378229
O O13 0.314150 0.605694 0.232544
O O14 0.877153 0.242827 0.215485
#
# Coordination Sequence:
#
# PCOD8083052 Si02
#       6
#     8   8   8   8   8   8
#     4  10  19  31  50  74 100 133 171 203 246 297
#     4  10  19  31  50  77 105 132 163 207 257 299
#     4  10  18  32  53  75 100 131 170 206 248 301
#     4   9  18  31  48  75 108 133 157 200 260 308
#     4  10  19  32  48  73 103 130 168 208 242 297
#     4   9  19  31  50  76 101 134 166 203 250 297
#
# _framework density 16.914467999999999
#
# number of rings (size 3 to 8) (size 9 to 14) (size 15 to 20)
#    0.000    2.333    3.333    0.000    0.000    1.667 
#    0.000    3.333    0.000    2.500    0.000    7.000 
#    0.000    0.000    0.000    0.000    0.000    0.000 
#
# Total GULP energy -297346.084879 kJ/mol
# GULP energy per Si atom -12389.420203 kJ/mol
# Density = 1.687597 g / cm^3
# Si number density = 16.914468 Si / 1000 Ang^3
#
#
#
# Elastic Constant Matrix: (Units=GPa)
#
#
# Indices 1 2 3 4 5 6 
#
# 1 92.9800 53.7914 43.5947 -0.0004 -26.7786 -0.0001
# 2 53.7914 98.0163 38.2221 -0.0002 -9.1937 -0.0001
# 3 43.5947 38.2221 89.2756 -0.0016 -9.0059 -0.0006
# 4 -0.0004 -0.0002 -0.0016 21.5737 -0.0006 -1.6567
# 5 -26.7786 -9.1937 -9.0059 -0.0006 31.7025 -0.0001
# 6 -0.0001 -0.0001 -0.0006 -1.6567 -0.0001 23.5695
#
#
#
# Elastic Compliance Matrix: (Units=1/GPa)
#
#
# Indices 1 2 3 4 5 6 
#
# 1 0.023078 -0.008933 -0.005909 0.000000 0.015225 0.000000
# 2 -0.008933 0.015845 -0.002800 0.000000 -0.003746 0.000000
# 3 -0.005909 -0.002800 0.015134 0.000001 -0.001504 0.000000
# 4 0.000000 0.000000 0.000001 0.046604 0.000001 0.003276
# 5 0.015225 -0.003746 -0.001504 0.000001 0.042890 0.000000
# 6 0.000000 0.000000 0.000000 0.003276 0.000000 0.042658
#
#
# Mechanical properties :
#
#
# Convention : Reuss Voigt Hill
#
# Bulk Modulus (GPa) = 53.26624 61.27647 57.27135
# Shear Modulus (GPa) = 21.95382 25.01338 23.48360
#
# Velocity S-wave (km/s) = 3.60659 3.84971 3.73013
# Velocity P-wave (km/s) = 6.99308 7.48774 7.24463
#
# Compressibility (1/GPa) = 0.01877362
#
# Stress axis : x y z
#
# Youngs Moduli (GPa) = 43.33065 63.11046 66.07778
#
# Poissons Ratio (x) = 0.56377 0.39046
# Poissons Ratio (y) = 0.38708 0.18499
# Poissons Ratio (z) = 0.25605 0.17669
#
# Static dielectric constant tensor:
#      x y z
#    x 3.325880 0.000000 -0.123970 
#    y 0.000000 2.918260 0.000000 
#    z -0.123970 0.000000 3.385720 
# 
# 
# High freq. dielectric constant tensor:
#      x y z
#    x 1.650490 0.000000 -0.014880 
#    y 0.000000 1.613370 0.000000 
#    z -0.014880 0.000000 1.671310 
# 
# From -- ./inp_files/184146.got.cif
#   From: 2010.06.25/outbox.cif.g09.slc.cpg/sg12_93_cif.got.tgz:184146.got - 2010.06.28 00:19:55.
