data_PCOD8083951
_publ_section_title
;
Structure prediction by ZEFSAII (Michael W. Deem and Ramdas Pophale) SiO2 
 PCOD8083951
Probable space group: C 2/M
;
_chemical_formula_sum "Si O2"
_cell_formula_units_Z 56
_cell_length_a 11.740724
_cell_length_b 20.552112
_cell_length_c 20.060208
_cell_angle_alpha 90.000000
_cell_angle_beta 136.987868
_cell_angle_gamma 90.000000
_cell_volume 3301.936309
_symmetry_space_group_name_H-M "C 2/M"
_symmetry_group_IT_number 12
_symmetry_cell_setting 'monoclinic'
loop_
_space_group_symop_operation_xyz
x,y,z
-x,y,-z
-x,-y,-z
x,-y,z
1/2+x,1/2+y,z
1/2-x,1/2+y,-z
1/2-x,1/2-y,-z
1/2+x,1/2-y,z
loop_
_atom_site_type_symbol
_atom_site_label
_atom_site_fract_x
_atom_site_fract_y
_atom_site_fract_z
Si Si1 0.460266 0.694245 0.108763
Si Si2 0.016943 0.369632 0.577508
Si Si3 0.397375 0.654067 0.230297
Si Si4 0.838522 0.300391 0.238927
Si Si5 0.568550 0.076665 0.101076
Si Si6 0.718246 0.426370 0.391510
Si Si7 0.141779 0.334882 0.900614
O O1 0.406494 0.661623 0.154872
O O2 0.650554 0.678103 0.174099
O O3 0.439931 0.771921 0.099830
O O4 0.340616 0.664347 0.000449
O O5 0.036719 0.326156 0.650954
O O6 0.179518 0.416000 0.634626
O O7 0.000000 0.327441 0.500000
O O8 0.845856 0.412460 0.508283
O O9 0.361541 0.723300 0.248397
O O10 0.251324 0.605700 0.188724
O O11 0.566531 0.624051 0.331610
O O12 0.891311 0.333552 0.192354
O O13 0.445388 0.101889 0.106051
O O14 0.579342 0.000000 0.112762
O O15 0.500000 0.098596 0.000000
O O16 0.650709 0.500000 0.365775
#
# Coordination Sequence:
#
# PCOD8083951 Si02
#       7
#     8   8   8   8   8   8   8
#     4  10  18  34  52  82 114 141 181 228 266 324
#     4   8  18  35  56  81 107 134 178 233 282 322
#     4  11  20  32  59  82 109 143 186 222 275 321
#     4  11  20  33  57  86 111 137 178 236 284 320
#     4  11  22  37  54  77 115 155 188 215 253 325
#     4   9  18  35  56  79 101 138 186 224 266 326
#     4  10  21  32  56  79 113 151 180 217 274 318
#
# _framework density 16.959745000000002
#
# number of rings (size 3 to 8) (size 9 to 14) (size 15 to 20)
#    0.857    1.000    4.286    1.714    0.000    0.571 
#    0.000    1.429    0.000    0.857    0.000    2.000 
#    0.000    0.000    0.000    0.000    0.000    0.000 
#
# Total GULP energy -347020.957406 kJ/mol
# GULP energy per Si atom -12393.605622 kJ/mol
# Density = 1.692114 g / cm^3
# Si number density = 16.959745 Si / 1000 Ang^3
#
#
#
# Elastic Constant Matrix: (Units=GPa)
#
#
# Indices 1 2 3 4 5 6 
#
# 1 64.2886 43.5892 40.0865 0.0000 -2.4721 0.0000
# 2 43.5892 75.7389 44.3934 0.0000 -1.6410 0.0000
# 3 40.0865 44.3934 99.2115 -0.0001 -1.9236 0.0000
# 4 0.0000 0.0000 -0.0001 22.9956 -0.0001 -0.3484
# 5 -2.4721 -1.6410 -1.9236 -0.0001 29.0156 0.0000
# 6 0.0000 0.0000 0.0000 -0.3484 0.0000 19.5146
#
#
#
# Elastic Compliance Matrix: (Units=1/GPa)
#
#
# Indices 1 2 3 4 5 6 
#
# 1 0.027584 -0.012646 -0.005462 0.000000 0.001273 0.000000
# 2 -0.012646 0.023702 -0.005498 0.000000 -0.000101 0.000000
# 3 -0.005462 -0.005498 0.014750 0.000000 0.000202 0.000000
# 4 0.000000 0.000000 0.000000 0.043498 0.000000 0.000777
# 5 0.001273 -0.000101 0.000202 0.000000 0.034580 0.000000
# 6 0.000000 0.000000 0.000000 0.000777 0.000000 0.051257
#
#
# Mechanical properties :
#
#
# Convention : Reuss Voigt Hill
#
# Bulk Modulus (GPa) = 53.12347 55.04192 54.08270
# Shear Modulus (GPa) = 20.09173 21.71648 20.90411
#
# Velocity S-wave (km/s) = 3.44564 3.58225 3.51461
# Velocity P-wave (km/s) = 6.87177 7.04521 6.95903
#
# Compressibility (1/GPa) = 0.01882407
#
# Stress axis : x y z
#
# Youngs Moduli (GPa) = 36.25306 42.19123 67.79465
#
# Poissons Ratio (x) = 0.53355 0.37029
# Poissons Ratio (y) = 0.45846 0.37273
# Poissons Ratio (z) = 0.19801 0.23196
#
# Static dielectric constant tensor:
#      x y z
#    x 3.006020 0.000000 0.096550 
#    y 0.000000 2.946910 0.000000 
#    z 0.096550 0.000000 3.165650 
# 
# 
# High freq. dielectric constant tensor:
#      x y z
#    x 1.641620 0.000000 0.015300 
#    y 0.000000 1.635180 0.000000 
#    z 0.015300 0.000000 1.655330 
# 
# From -- ./inp_files/306653.got.cif
#   From: 2010.06.25/outbox.cif.g09.slc.cpg/sg12_154_cif.got.tgz:306653.got - 2010.06.28 00:19:55.
