data_PCOD8083809
_publ_section_title
;
Structure prediction by ZEFSAII (Michael W. Deem and Ramdas Pophale) SiO2 
 PCOD8083809
Probable space group: C 2/M
;
_chemical_formula_sum "Si O2"
_cell_formula_units_Z 56
_cell_length_a 26.191850
_cell_length_b 17.820897
_cell_length_c 9.393653
_cell_angle_alpha 90.000000
_cell_angle_beta 136.359474
_cell_angle_gamma 90.000000
_cell_volume 3025.952828
_symmetry_space_group_name_H-M "C 2/M"
_symmetry_group_IT_number 12
_symmetry_cell_setting 'monoclinic'
loop_
_space_group_symop_operation_xyz
x,y,z
-x,y,-z
-x,-y,-z
x,-y,z
1/2+x,1/2+y,z
1/2-x,1/2+y,-z
1/2-x,1/2-y,-z
1/2+x,1/2-y,z
loop_
_atom_site_type_symbol
_atom_site_label
_atom_site_fract_x
_atom_site_fract_y
_atom_site_fract_z
Si Si1 0.623404 0.227483 0.885050
Si Si2 0.533966 0.305169 0.919371
Si Si3 0.763370 0.677862 0.211066
Si Si4 0.187669 0.918186 0.604203
Si Si5 0.816780 0.417572 0.064836
Si Si6 0.666170 0.589425 0.236072
Si Si7 0.394344 0.713091 0.442568
O O1 0.588364 0.241249 0.968722
O O2 0.616476 0.139109 0.836869
O O3 0.582671 0.271686 0.674612
O O4 0.709046 0.254147 0.055752
O O5 0.467043 0.307511 0.675822
O O6 0.500000 0.280490 0.000000
O O7 0.582899 0.381737 0.028370
O O8 0.769313 0.616037 0.099326
O O9 0.729894 0.633083 0.277870
O O10 0.843638 0.717479 0.401973
O O11 0.182791 0.888468 0.432768
O O12 0.150020 0.863850 0.640786
O O13 0.149005 0.000000 0.533166
O O14 0.271539 0.924743 0.826523
O O15 0.847070 0.500000 0.169303
O O16 0.669966 0.500000 0.216301
#
# Coordination Sequence:
#
# PCOD8083809 Si02
#       7
#     8   8   8   8   8   8   8
#     4  10  20  36  55  79 110 139 180 233 271 318
#     4  11  23  35  54  79 108 150 184 220 266 327
#     4  10  19  34  58  80 108 141 185 229 269 320
#     4  10  19  31  52  80 111 140 176 219 266 318
#     4  10  18  33  58  84 107 137 178 227 278 323
#     4  10  22  37  53  79 116 152 182 222 270 323
#     4  11  19  36  53  80 109 142 181 226 273 316
#
# _framework density 18.506565999999999
#
# number of rings (size 3 to 8) (size 9 to 14) (size 15 to 20)
#    0.000    1.714    4.286    1.714    0.000    2.571 
#    0.000    0.000    0.000   10.714    0.000    0.000 
#    0.000    0.000    0.000    0.000    0.000    0.000 
#
# Total GULP energy -346867.381559 kJ/mol
# GULP energy per Si atom -12388.120770 kJ/mol
# Density = 1.846444 g / cm^3
# Si number density = 18.506566 Si / 1000 Ang^3
#
#
#
# Elastic Constant Matrix: (Units=GPa)
#
#
# Indices 1 2 3 4 5 6 
#
# 1 101.2354 50.6156 15.0649 0.0000 -9.9404 0.0000
# 2 50.6156 121.6065 17.4677 0.0000 -12.8473 0.0000
# 3 15.0649 17.4677 68.7165 0.0000 -10.0265 0.0000
# 4 0.0000 0.0000 0.0000 23.2028 0.0000 -4.2805
# 5 -9.9404 -12.8473 -10.0265 0.0000 19.2177 0.0000
# 6 0.0000 0.0000 0.0000 -4.2805 0.0000 18.5105
#
#
#
# Elastic Compliance Matrix: (Units=1/GPa)
#
#
# Indices 1 2 3 4 5 6 
#
# 1 0.012744 -0.004848 -0.001161 0.000000 0.002745 0.000000
# 2 -0.004848 0.010837 -0.001083 0.000000 0.004172 0.000000
# 3 -0.001161 -0.001083 0.016116 0.000000 0.007083 0.000000
# 4 0.000000 0.000000 0.000000 0.045019 0.000000 0.010410
# 5 0.002745 0.004172 0.007083 0.000000 0.059940 0.000000
# 6 0.000000 0.000000 0.000000 0.010410 0.000000 0.056431
#
#
# Mechanical properties :
#
#
# Convention : Reuss Voigt Hill
#
# Bulk Modulus (GPa) = 39.19497 50.87277 45.03387
# Shear Modulus (GPa) = 22.34383 26.08022 24.21202
#
# Velocity S-wave (km/s) = 3.47846 3.75806 3.62096
# Velocity P-wave (km/s) = 6.11210 6.81024 6.47060
#
# Compressibility (1/GPa) = 0.02551348
#
# Stress axis : x y z
#
# Youngs Moduli (GPa) = 78.46836 92.27381 62.05002
#
# Poissons Ratio (x) = 0.44730 0.07204
# Poissons Ratio (y) = 0.38038 0.06722
# Poissons Ratio (z) = 0.09111 0.09996
#
# Static dielectric constant tensor:
#      x y z
#    x 3.537710 0.000000 -0.095390 
#    y 0.000000 3.563630 0.000000 
#    z -0.095390 0.000000 3.391360 
# 
# 
# High freq. dielectric constant tensor:
#      x y z
#    x 1.711370 0.000000 -0.014550 
#    y 0.000000 1.717110 0.000000 
#    z -0.014550 0.000000 1.709280 
# 
# From -- ./inp_files/98075.got.cif
#   From: 2010.06.25/outbox.cif.g09.slc.cpg/sg12_50_cif.got.tgz:98075.got - 2010.06.28 00:19:55.
