data_PCOD8083285
_publ_section_title
;
Structure prediction by ZEFSAII (Michael W. Deem and Ramdas Pophale) SiO2 
 PCOD8083285
Probable space group: C 2/M
;
_chemical_formula_sum "Si O2"
_cell_formula_units_Z 56
_cell_length_a 10.539895
_cell_length_b 21.151729
_cell_length_c 11.991396
_cell_angle_alpha 90.000000
_cell_angle_beta 101.321239
_cell_angle_gamma 90.000000
_cell_volume 2621.308190
_symmetry_space_group_name_H-M "C 2/M"
_symmetry_group_IT_number 12
_symmetry_cell_setting 'monoclinic'
loop_
_space_group_symop_operation_xyz
x,y,z
-x,y,-z
-x,-y,-z
x,-y,z
1/2+x,1/2+y,z
1/2-x,1/2+y,-z
1/2-x,1/2-y,-z
1/2+x,1/2-y,z
loop_
_atom_site_type_symbol
_atom_site_label
_atom_site_fract_x
_atom_site_fract_y
_atom_site_fract_z
Si Si1 0.591068 0.930783 0.113974
Si Si2 0.660416 0.315838 0.344063
Si Si3 0.378311 0.690116 0.912286
Si Si4 0.261392 0.813441 0.895283
Si Si5 0.498620 0.102476 0.323240
Si Si6 0.410415 0.757676 0.302710
Si Si7 0.706639 0.928258 0.532988
O O1 0.708475 0.881605 0.152628
O O2 0.508705 0.937214 0.212236
O O3 0.647016 0.000000 0.092580
O O4 0.500000 0.905068 0.000000
O O5 0.640976 0.340721 0.212472
O O6 0.533668 0.280954 0.372866
O O7 0.788188 0.268873 0.366780
O O8 0.678663 0.378499 0.422013
O O9 0.382808 0.766359 0.893674
O O10 0.500000 0.662417 0.000000
O O11 0.257584 0.677824 0.974725
O O12 0.135040 0.781855 0.814378
O O13 0.465616 0.173809 0.282487
O O14 0.388781 0.070485 0.378266
O O15 0.634644 0.098105 0.411632
O O16 0.758739 0.000000 0.522781
#
# Coordination Sequence:
#
# PCOD8083285 Si02
#       7
#     8   8   8   8   8   8   8
#     4  11  24  37  55  84 122 162 200 244 293 360
#     4  10  21  35  57  90 120 154 200 246 303 352
#     4  10  18  32  55  83 116 153 192 245 295 358
#     4  10  21  32  55  85 117 157 191 237 305 358
#     4  10  20  38  62  86 114 151 203 251 302 345
#     4  10  20  36  58  91 120 151 191 255 303 355
#     4  10  21  38  62  85 115 160 203 247 290 356
#
# _framework density 21.363379999999999
#
# number of rings (size 3 to 8) (size 9 to 14) (size 15 to 20)
#    0.000    1.857    1.429    3.857    8.000    0.571 
#    0.000    3.571    0.000    0.857    0.000    5.000 
#    0.000    0.000    0.000    0.000    0.000    0.000 
#
# Total GULP energy -346950.429241 kJ/mol
# GULP energy per Si atom -12391.086759 kJ/mol
# Density = 2.131476 g / cm^3
# Si number density = 21.363380 Si / 1000 Ang^3
#
#
#
# Elastic Constant Matrix: (Units=GPa)
#
#
# Indices 1 2 3 4 5 6 
#
# 1 82.6870 45.7596 28.4573 0.0000 22.3400 0.0000
# 2 45.7596 131.8079 26.8463 0.0000 18.0847 0.0000
# 3 28.4573 26.8463 81.3882 0.0000 7.4890 0.0000
# 4 0.0000 0.0000 0.0000 13.6919 0.0000 6.9853
# 5 22.3400 18.0847 7.4890 0.0000 26.2111 0.0000
# 6 0.0000 0.0000 0.0000 6.9853 0.0000 15.1780
#
#
#
# Elastic Compliance Matrix: (Units=1/GPa)
#
#
# Indices 1 2 3 4 5 6 
#
# 1 0.019125 -0.004099 -0.004206 0.000000 -0.012270 0.000000
# 2 -0.004099 0.009697 -0.001511 0.000000 -0.002765 0.000000
# 3 -0.004206 -0.001511 0.014203 0.000000 0.000569 0.000000
# 4 0.000000 0.000000 0.000000 0.095447 0.000000 -0.043927
# 5 -0.012270 -0.002765 0.000569 0.000000 0.050355 0.000000
# 6 0.000000 0.000000 0.000000 -0.043927 0.000000 0.086102
#
#
# Mechanical properties :
#
#
# Convention : Reuss Voigt Hill
#
# Bulk Modulus (GPa) = 42.74713 55.33440 49.04076
# Shear Modulus (GPa) = 16.53663 24.00419 20.27041
#
# Velocity S-wave (km/s) = 2.78522 3.35567 3.08366
# Velocity P-wave (km/s) = 5.51328 6.40092 5.97361
#
# Compressibility (1/GPa) = 0.02339338
#
# Stress axis : x y z
#
# Youngs Moduli (GPa) = 52.28738 103.12370 70.40598
#
# Poissons Ratio (x) = 0.42275 0.29611
# Poissons Ratio (y) = 0.21435 0.10637
# Poissons Ratio (z) = 0.21991 0.15580
#
# Static dielectric constant tensor:
#      x y z
#    x 3.699310 0.000000 0.114320 
#    y 0.000000 3.708980 0.000000 
#    z 0.114320 0.000000 3.852850 
# 
# 
# High freq. dielectric constant tensor:
#      x y z
#    x 1.812090 0.000000 0.004680 
#    y 0.000000 1.817760 0.000000 
#    z 0.004680 0.000000 1.841760 
# 
# From -- ./inp_files/133307.got.cif
#   From: 2010.06.25/outbox.cif.g09.slc.cpg/sg12_67_cif.got.tgz:133307.got - 2010.06.28 00:19:55.
