data_PCOD8083273
_publ_section_title
;
Structure prediction by ZEFSAII (Michael W. Deem and Ramdas Pophale) SiO2 
 PCOD8083273
Probable space group: C 2/M
;
_chemical_formula_sum "Si O2"
_cell_formula_units_Z 64
_cell_length_a 28.606592
_cell_length_b 8.859937
_cell_length_c 15.468196
_cell_angle_alpha 90.000000
_cell_angle_beta 56.959340
_cell_angle_gamma 90.000000
_cell_volume 3286.453737
_symmetry_space_group_name_H-M "C 2/M"
_symmetry_group_IT_number 12
_symmetry_cell_setting 'monoclinic'
loop_
_space_group_symop_operation_xyz
x,y,z
-x,y,-z
-x,-y,-z
x,-y,z
1/2+x,1/2+y,z
1/2-x,1/2+y,-z
1/2-x,1/2-y,-z
1/2+x,1/2-y,z
loop_
_atom_site_type_symbol
_atom_site_label
_atom_site_fract_x
_atom_site_fract_y
_atom_site_fract_z
Si Si1 0.360859 0.824561 0.540569
Si Si2 0.061395 0.178786 0.193292
Si Si3 0.934597 0.176946 0.321230
Si Si4 0.139504 0.824151 0.766923
Si Si5 0.249982 0.321835 0.593903
Si Si6 0.128756 0.325651 0.275620
Si Si7 0.251653 0.822096 0.905644
Si Si8 0.365987 0.677172 0.036789
O O1 0.405043 0.768431 0.426515
O O2 0.303360 0.734061 0.592842
O O3 0.387534 0.797813 0.608232
O O4 0.347684 0.000000 0.538201
O O5 0.087679 0.231739 0.256696
O O6 0.094416 0.249260 0.077338
O O7 0.997856 0.234381 0.251854
O O8 0.063661 0.000000 0.188874
O O9 0.906179 0.216146 0.258610
O O10 0.930086 0.000000 0.346708
O O11 0.194453 0.725198 0.699668
O O12 0.156670 0.000000 0.745510
O O13 0.113239 0.783131 0.887292
O O14 0.252920 0.500000 0.580930
O O15 0.250000 0.250000 0.500000
O O16 0.122696 0.500000 0.255902
O O17 0.192505 0.270308 0.199655
O O18 0.249931 0.000000 0.918085
O O19 0.250000 0.750000 0.000000
O O20 0.197539 0.763585 0.908051
O O21 0.367403 0.500000 0.020298
#
# Coordination Sequence:
#
# PCOD8083273 Si02
#       8
#     8   8   8   8   8   8   8   8
#     4  11  23  40  62  85 115 154 194 238 290 349
#     4  10  21  38  59  84 115 153 198 245 290 340
#     4  10  22  38  58  85 115 151 198 246 291 340
#     4  10  20  37  60  85 118 155 192 237 286 343
#     4  12  23  37  60  90 121 152 189 233 288 348
#     4  10  22  38  58  85 115 151 193 239 292 349
#     4  10  18  32  55  82 112 143 181 227 283 345
#     4   9  18  34  58  85 115 151 190 235 287 345
#
# _framework density 19.473879
#
# number of rings (size 3 to 8) (size 9 to 14) (size 15 to 20)
#    0.000    1.750    2.500    2.250    0.000    4.500 
#    0.000    7.500    0.000    0.000    0.000    2.625 
#    0.000    0.000    0.000    0.000    0.000    0.000 
#
# Total GULP energy -396824.219539 kJ/mol
# GULP energy per Si atom -12400.756861 kJ/mol
# Density = 1.942956 g / cm^3
# Si number density = 19.473879 Si / 1000 Ang^3
#
#
#
# Elastic Constant Matrix: (Units=GPa)
#
#
# Indices 1 2 3 4 5 6 
#
# 1 140.9542 39.9734 94.4923 0.0000 -8.4327 0.0000
# 2 39.9734 58.2570 42.0036 -0.0001 -3.5627 0.0004
# 3 94.4923 42.0036 102.7787 0.0000 16.0365 -0.0001
# 4 0.0000 -0.0001 0.0000 27.0806 0.0000 1.2836
# 5 -8.4327 -3.5627 16.0365 0.0000 35.4714 0.0000
# 6 0.0000 0.0004 -0.0001 1.2836 0.0000 27.3938
#
#
#
# Elastic Compliance Matrix: (Units=1/GPa)
#
#
# Indices 1 2 3 4 5 6 
#
# 1 0.027088 0.004104 -0.029749 0.000000 0.020302 0.000000
# 2 0.004104 0.026947 -0.016526 0.000000 0.011154 0.000000
# 3 -0.029749 -0.016526 0.048627 0.000000 -0.030716 0.000000
# 4 0.000000 0.000000 0.000000 0.037009 0.000000 -0.001734
# 5 0.020302 0.011154 -0.030716 0.000000 0.048025 0.000000
# 6 0.000000 0.000000 0.000000 -0.001734 0.000000 0.036586
#
#
# Mechanical properties :
#
#
# Convention : Reuss Voigt Hill
#
# Bulk Modulus (GPa) = 54.58661 72.76985 63.67823
# Shear Modulus (GPa) = 15.88653 26.35718 21.12186
#
# Velocity S-wave (km/s) = 2.85930 3.68294 3.29694
# Velocity P-wave (km/s) = 6.24438 7.45214 6.87483
#
# Compressibility (1/GPa) = 0.01831951
#
# Stress axis : x y z
#
# Youngs Moduli (GPa) = 36.91605 37.11017 20.56464
#
# Poissons Ratio (x) = -0.15230 0.61179
# Poissons Ratio (y) = -0.15151 0.33985
# Poissons Ratio (z) = 1.09823 0.61329
#
# Static dielectric constant tensor:
#      x y z
#    x 3.712120 0.000000 -0.100200 
#    y 0.000000 3.372920 0.000000 
#    z -0.100200 0.000000 3.842340 
# 
# 
# High freq. dielectric constant tensor:
#      x y z
#    x 1.762990 0.000000 0.007570 
#    y 0.000000 1.736560 0.000000 
#    z 0.007570 0.000000 1.768460 
# 
# From -- ./inp_files/249761.got.cif
#   From: 2010.06.25/outbox.cif.g09.slc.cpg/sg12_125_cif.got.tgz:249761.got - 2010.06.28 00:19:55.
