data_PCOD8083814
_publ_section_title
;
Structure prediction by ZEFSAII (Michael W. Deem and Ramdas Pophale) SiO2 
 PCOD8083814
Probable space group: C 2/M
;
_chemical_formula_sum "Si O2"
_cell_formula_units_Z 64
_cell_length_a 33.325966
_cell_length_b 8.846552
_cell_length_c 18.060310
_cell_angle_alpha 90.000000
_cell_angle_beta 143.037431
_cell_angle_gamma 90.000000
_cell_volume 3201.608609
_symmetry_space_group_name_H-M "C 2/M"
_symmetry_group_IT_number 12
_symmetry_cell_setting 'monoclinic'
loop_
_space_group_symop_operation_xyz
x,y,z
-x,y,-z
-x,-y,-z
x,-y,z
1/2+x,1/2+y,z
1/2-x,1/2+y,-z
1/2-x,1/2-y,-z
1/2+x,1/2-y,z
loop_
_atom_site_type_symbol
_atom_site_label
_atom_site_fract_x
_atom_site_fract_y
_atom_site_fract_z
Si Si1 0.404959 0.828847 0.559922
Si Si2 0.455241 0.675853 0.244215
Si Si3 0.299945 0.673557 0.630940
Si Si4 0.928161 0.320809 0.057133
Si Si5 0.076715 0.669916 0.244689
Si Si6 0.929061 0.824869 0.369380
Si Si7 0.194533 0.824788 0.192668
Si Si8 0.181122 0.177398 0.682133
O O1 0.478840 0.774587 0.650629
O O2 0.391187 0.825218 0.626649
O O3 0.353787 0.713926 0.447158
O O4 0.395227 0.000000 0.515564
O O5 0.473072 0.500000 0.258361
O O6 0.412349 0.739033 0.112271
O O7 0.414968 0.698883 0.261481
O O8 0.298611 0.500000 0.608113
O O9 0.250000 0.750000 0.500000
O O10 0.376370 0.729768 0.737834
O O11 0.278013 0.701282 0.683575
O O12 0.927291 0.500000 0.068261
O O13 0.000814 0.268206 0.134358
O O14 0.873643 0.268670 0.917701
O O15 0.077014 0.500000 0.213593
O O16 0.866282 0.756934 0.322150
O O17 0.000000 0.751668 0.500000
O O18 0.932305 0.000000 0.396266
O O19 0.248277 0.763717 0.212613
O O20 0.180263 0.000000 0.156132
O O21 0.195112 0.000000 0.710091
#
# Coordination Sequence:
#
# PCOD8083814 Si02
#       8
#     8   8   8   8   8   8   8   8
#     4  10  19  32  51  82 120 153 187 234 286 341
#     4  10  18  33  58  84 115 153 189 235 288 338
#     4  11  24  40  61  88 120 152 188 234 286 343
#     4  10  22  41  62  86 115 151 197 242 284 339
#     4   9  20  37  58  84 116 150 189 237 285 335
#     4   9  17  32  54  86 121 149 187 237 287 343
#     4  11  25  43  59  82 116 153 193 241 289 341
#     4  11  21  35  57  83 113 153 196 237 290 349
#
# _framework density 19.989951000000001
#
# number of rings (size 3 to 8) (size 9 to 14) (size 15 to 20)
#    0.000    1.875    1.250    3.750    0.000    8.500 
#    0.000    6.250    0.000    0.000    0.000    0.000 
#    0.000    0.000    0.000    0.000    0.000    0.000 
#
# Total GULP energy -396789.571634 kJ/mol
# GULP energy per Si atom -12399.674114 kJ/mol
# Density = 1.994445 g / cm^3
# Si number density = 19.989951 Si / 1000 Ang^3
#
#
#
# Elastic Constant Matrix: (Units=GPa)
#
#
# Indices 1 2 3 4 5 6 
#
# 1 109.1635 45.4625 28.2035 0.0000 17.2933 0.0000
# 2 45.4625 72.0481 18.6707 0.0000 -1.5810 0.0000
# 3 28.2035 18.6707 75.8660 0.0000 6.1293 0.0000
# 4 0.0000 0.0000 0.0000 32.7896 0.0000 1.5214
# 5 17.2933 -1.5810 6.1293 0.0000 22.1011 0.0000
# 6 0.0000 0.0000 0.0000 1.5214 0.0000 27.9889
#
#
#
# Elastic Compliance Matrix: (Units=1/GPa)
#
#
# Indices 1 2 3 4 5 6 
#
# 1 0.015732 -0.009548 -0.002505 0.000000 -0.012298 0.000000
# 2 -0.009548 0.020717 -0.002324 0.000000 0.009597 0.000000
# 3 -0.002505 -0.002324 0.014873 0.000000 -0.002331 0.000000
# 4 0.000000 0.000000 0.000000 0.030575 0.000000 -0.001662
# 5 -0.012298 0.009597 -0.002331 0.000000 0.056203 0.000000
# 6 0.000000 0.000000 0.000000 -0.001662 0.000000 0.035819
#
#
# Mechanical properties :
#
#
# Convention : Reuss Voigt Hill
#
# Bulk Modulus (GPa) = 44.31178 49.08343 46.69761
# Shear Modulus (GPa) = 23.78731 27.55864 25.67297
#
# Velocity S-wave (km/s) = 3.45333 3.71701 3.58759
# Velocity P-wave (km/s) = 6.17380 6.55964 6.36964
#
# Compressibility (1/GPa) = 0.02256736
#
# Stress axis : x y z
#
# Youngs Moduli (GPa) = 63.56315 48.26893 67.23667
#
# Poissons Ratio (x) = 0.46086 0.16845
# Poissons Ratio (y) = 0.60689 0.15629
# Poissons Ratio (z) = 0.15924 0.11220
#
# Static dielectric constant tensor:
#      x y z
#    x 3.748870 0.000000 0.014010 
#    y 0.000000 3.581210 0.000000 
#    z 0.014010 0.000000 3.548080 
# 
# 
# High freq. dielectric constant tensor:
#      x y z
#    x 1.781300 0.000000 0.003680 
#    y 0.000000 1.775130 0.000000 
#    z 0.003680 0.000000 1.764850 
# 
# From -- ./inp_files/295819.got.cif
#   From: 2010.06.25/outbox.cif.g09.slc.cpg/sg12_148_cif.got.tgz:295819.got - 2010.06.28 00:19:55.
