data_PCOD8083916
_publ_section_title
;
Structure prediction by ZEFSAII (Michael W. Deem and Ramdas Pophale) SiO2 
 PCOD8083916
Probable space group: C 2/M
;
_chemical_formula_sum "Si O2"
_cell_formula_units_Z 40
_cell_length_a 25.355338
_cell_length_b 9.768849
_cell_length_c 13.141365
_cell_angle_alpha 90.000000
_cell_angle_beta 141.367365
_cell_angle_gamma 90.000000
_cell_volume 2032.187401
_symmetry_space_group_name_H-M "C 2/M"
_symmetry_group_IT_number 12
_symmetry_cell_setting 'monoclinic'
loop_
_space_group_symop_operation_xyz
x,y,z
-x,y,-z
-x,-y,-z
x,-y,z
1/2+x,1/2+y,z
1/2-x,1/2+y,-z
1/2-x,1/2-y,-z
1/2+x,1/2-y,z
loop_
_atom_site_type_symbol
_atom_site_label
_atom_site_fract_x
_atom_site_fract_y
_atom_site_fract_z
Si Si1 0.666511 0.500000 0.308826
Si Si2 0.207502 0.000000 0.775839
Si Si3 0.887417 0.500000 0.162180
Si Si4 0.912246 0.709819 0.811946
Si Si5 0.063899 0.500000 0.324878
Si Si6 0.785999 0.500000 0.298877
Si Si7 0.181806 0.720225 0.813053
Si Si8 0.283285 0.000000 0.677969
O O1 0.607182 0.368695 0.232613
O O2 0.710376 0.500000 0.265307
O O3 0.737991 0.500000 0.501250
O O4 0.152355 0.867313 0.724955
O O5 0.216116 0.000000 0.667109
O O6 0.300906 0.000000 0.966768
O O7 0.892370 0.633268 0.244032
O O8 0.965784 0.500000 0.205577
O O9 0.916090 0.636723 0.708350
O O10 0.840194 0.636873 0.771185
O O11 0.000000 0.689182 0.000000
O O12 0.121471 0.500000 0.511347
O O13 0.775940 0.634371 0.214506
O O14 0.250000 0.750000 0.000000
#
# Coordination Sequence:
#
# PCOD8083916 Si02
#       8
#     4   4   4   8   4   4   8   4
#     4  12  24  39  62  97 127 161 203 264 313 357
#     4  10  18  33  62  88 114 150 196 254 311 358
#     4   9  19  39  57  83 116 157 202 247 302 371
#     4  11  23  40  59  91 132 166 206 250 302 376
#     4  11  23  38  63  86 119 169 210 243 308 372
#     4  11  22  38  63  87 119 156 205 255 305 364
#     4   9  20  36  58  87 115 149 201 257 305 363
#     4  11  21  36  65  88 126 163 210 242 306 378
#
# _framework density 19.683223999999999
#
# number of rings (size 3 to 8) (size 9 to 14) (size 15 to 20)
#    0.000    1.600    2.000    5.100    2.800    3.200 
#    0.000    1.000    0.000    1.200    0.000    0.000 
#    0.000    0.000    0.000    0.000    0.000    0.000 
#
# Total GULP energy -247984.192199 kJ/mol
# GULP energy per Si atom -12399.209610 kJ/mol
# Density = 1.963842 g / cm^3
# Si number density = 19.683224 Si / 1000 Ang^3
#
#
#
# Elastic Constant Matrix: (Units=GPa)
#
#
# Indices 1 2 3 4 5 6 
#
# 1 95.7149 47.5952 11.0311 0.0000 -14.8212 0.0000
# 2 47.5952 169.7460 16.3891 0.0000 -14.9357 0.0000
# 3 11.0311 16.3891 78.2054 0.0000 -19.2208 0.0000
# 4 0.0000 0.0000 0.0000 58.7605 0.0000 9.0300
# 5 -14.8212 -14.9357 -19.2208 0.0000 26.3108 0.0000
# 6 0.0000 0.0000 0.0000 9.0300 0.0000 31.1845
#
#
#
# Elastic Compliance Matrix: (Units=1/GPa)
#
#
# Indices 1 2 3 4 5 6 
#
# 1 0.012849 -0.003130 0.000226 0.000000 0.005627 0.000000
# 2 -0.003130 0.006981 -0.000586 0.000000 0.001772 0.000000
# 3 0.000226 -0.000586 0.015634 0.000000 0.011216 0.000000
# 4 0.000000 0.000000 0.000000 0.017811 0.000000 -0.005157
# 5 0.005627 0.001772 0.011216 0.000000 0.050376 0.000000
# 6 0.000000 0.000000 0.000000 -0.005157 0.000000 0.033561
#
#
# Mechanical properties :
#
#
# Convention : Reuss Voigt Hill
#
# Bulk Modulus (GPa) = 35.10480 54.85522 44.98001
# Shear Modulus (GPa) = 32.53382 41.16124 36.84753
#
# Velocity S-wave (km/s) = 4.06996 4.57791 4.33139
# Velocity P-wave (km/s) = 6.32137 7.47479 6.92215
#
# Compressibility (1/GPa) = 0.02848614
#
# Stress axis : x y z
#
# Youngs Moduli (GPa) = 77.82641 143.24316 63.96168
#
# Poissons Ratio (x) = 0.44828 -0.01448
# Poissons Ratio (y) = 0.24356 0.03749
# Poissons Ratio (z) = -0.01762 0.08395
#
# Static dielectric constant tensor:
#      x y z
#    x 3.490920 0.000000 -0.286490 
#    y 0.000000 3.116520 0.000000 
#    z -0.286490 0.000000 3.343340 
# 
# 
# High freq. dielectric constant tensor:
#      x y z
#    x 1.764130 0.000000 -0.024310 
#    y 0.000000 1.783490 0.000000 
#    z -0.024310 0.000000 1.749240 
# 
# From -- ./inp_files/250288.got.cif
#   From: 2010.06.25/outbox.cif.g09.slc.cpg/sg12_126_cif.got.tgz:250288.got - 2010.06.28 00:19:55.
