data_PCOD8083077
_publ_section_title
;
Structure prediction by ZEFSAII (Michael W. Deem and Ramdas Pophale) SiO2 
 PCOD8083077
Probable space group: C 2/M
;
_chemical_formula_sum "Si O2"
_cell_formula_units_Z 52
_cell_length_a 5.245194
_cell_length_b 24.539915
_cell_length_c 22.644168
_cell_angle_alpha 90.000000
_cell_angle_beta 111.290235
_cell_angle_gamma 90.000000
_cell_volume 2715.762802
_symmetry_space_group_name_H-M "C 2/M"
_symmetry_group_IT_number 12
_symmetry_cell_setting 'monoclinic'
loop_
_space_group_symop_operation_xyz
x,y,z
-x,y,-z
-x,-y,-z
x,-y,z
1/2+x,1/2+y,z
1/2-x,1/2+y,-z
1/2-x,1/2-y,-z
1/2+x,1/2-y,z
loop_
_atom_site_type_symbol
_atom_site_label
_atom_site_fract_x
_atom_site_fract_y
_atom_site_fract_z
Si Si1 0.586676 0.282148 0.361234
Si Si2 0.868045 0.893387 0.575055
Si Si3 0.664788 0.284784 0.785033
Si Si4 0.350538 0.062315 0.563888
Si Si5 0.117092 0.935796 0.074661
Si Si6 0.675320 0.127839 0.111808
Si Si7 0.500000 0.213185 0.000000
O O1 0.396386 0.236845 0.375774
O O2 0.600553 0.330460 0.408893
O O3 0.448398 0.300814 0.288657
O O4 0.748774 0.901112 0.499344
O O5 0.664107 0.922297 0.604868
O O6 0.163744 0.922919 0.604594
O O7 0.445421 0.249496 0.803552
O O8 0.718114 0.342773 0.820242
O O9 0.319477 0.000000 0.542771
O O10 0.416524 0.909763 0.105400
O O11 0.914285 0.909705 0.105436
O O12 0.138852 0.000000 0.088634
O O13 0.000000 0.923635 0.000000
O O14 0.596111 0.175949 0.061344
O O15 0.250000 0.250000 0.000000
#
# Coordination Sequence:
#
# PCOD8083077 Si02
#       7
#     8   8   8   8   8   8   4
#     4  10  21  37  55  76 106 143 186 221 254 312
#     4  10  18  32  53  77 104 139 179 216 261 312
#     4  10  21  38  58  79 105 144 180 214 266 326
#     4  10  19  33  53  79 110 140 175 217 271 327
#     4  11  22  38  57  79 106 141 180 212 257 324
#     4  12  21  37  57  81 109 141 177 219 271 319
#     4  12  22  32  49  80 113 132 162 216 268 316
#
# _framework density 19.147476000000001
#
# number of rings (size 3 to 8) (size 9 to 14) (size 15 to 20)
#    0.000    1.385    1.538    6.462    0.000    1.231 
#    0.000    9.231    0.000    7.385    0.000    0.000 
#    0.000    0.000    0.000    0.000    0.000    0.000 
#
# Total GULP energy -322356.044104 kJ/mol
# GULP energy per Si atom -12398.309389 kJ/mol
# Density = 1.910390 g / cm^3
# Si number density = 19.147476 Si / 1000 Ang^3
#
#
#
# Elastic Constant Matrix: (Units=GPa)
#
#
# Indices 1 2 3 4 5 6 
#
# 1 197.7704 63.5394 22.7055 0.0000 4.3409 0.0000
# 2 63.5394 132.7088 52.2375 0.0000 -3.7724 0.0000
# 3 22.7055 52.2375 45.0722 0.0000 -3.1156 0.0000
# 4 0.0000 0.0000 0.0000 -1.2253 0.0000 1.3164
# 5 4.3409 -3.7724 -3.1156 0.0000 12.0245 0.0000
# 6 0.0000 0.0000 0.0000 1.3164 0.0000 42.2273
#
#
#
# Elastic Compliance Matrix: (Units=1/GPa)
#
#
# Indices 1 2 3 4 5 6 
#
# 1 0.006094 -0.003150 0.000367 0.000000 -0.003093 0.000000
# 2 -0.003150 0.015486 -0.016237 0.000000 0.001788 0.000000
# 3 0.000367 -0.016237 0.041196 0.000000 0.005448 0.000000
# 4 0.000000 0.000000 0.000000 -0.789672 0.000000 0.024618
# 5 -0.003093 0.001788 0.005448 0.000000 0.086253 0.000000
# 6 0.000000 0.000000 0.000000 0.024618 0.000000 0.022914
#
#
# Mechanical properties :
#
#
# Convention : Reuss Voigt Hill
#
# Bulk Modulus (GPa) = 40.42622 72.50181 56.46402
# Shear Modulus (GPa) = -8.74977 26.40990 8.83006
#
# Velocity S-wave (km/s) = -2.14000 3.71791 2.14980
# Velocity P-wave (km/s) = 3.87979 7.50850 5.97622
#
# Compressibility (1/GPa) = 0.02473642
#
# Stress axis : x y z
#
# Youngs Moduli (GPa) = 164.08952 64.57541 24.27399
#
# Poissons Ratio (x) = 0.20344 -0.00892
# Poissons Ratio (y) = 0.51694 0.39414
# Poissons Ratio (z) = -0.06028 1.04851
#
# Static dielectric constant tensor:
#      x y z
#    x 3.415310 0.000000 0.060760 
#    y 0.000000 3.455730 0.000000 
#    z 0.060760 0.000000 3.204530 
# 
# 
# High freq. dielectric constant tensor:
#      x y z
#    x 1.784120 0.000000 0.003350 
#    y 0.000000 1.747050 0.000000 
#    z 0.003350 0.000000 1.701900 
# 
# From -- ./inp_files/331286.got.cif
#   From: 2010.06.25/outbox.cif.g09.slc.cpg/sg12_166_cif.got.tgz:331286.got - 2010.06.28 00:19:55.
