data_PCOD8083759
_publ_section_title
;
Structure prediction by ZEFSAII (Michael W. Deem and Ramdas Pophale) SiO2 
 PCOD8083759
Probable space group: C 2/M
;
_chemical_formula_sum "Si O2"
_cell_formula_units_Z 64
_cell_length_a 30.997858
_cell_length_b 8.862159
_cell_length_c 12.043691
_cell_angle_alpha 90.000000
_cell_angle_beta 89.699850
_cell_angle_gamma 90.000000
_cell_volume 3308.452223
_symmetry_space_group_name_H-M "C 2/M"
_symmetry_group_IT_number 12
_symmetry_cell_setting 'monoclinic'
loop_
_space_group_symop_operation_xyz
x,y,z
-x,y,-z
-x,-y,-z
x,-y,z
1/2+x,1/2+y,z
1/2-x,1/2+y,-z
1/2-x,1/2-y,-z
1/2+x,1/2-y,z
loop_
_atom_site_type_symbol
_atom_site_label
_atom_site_fract_x
_atom_site_fract_y
_atom_site_fract_z
Si Si1 0.328914 0.177680 0.730291
Si Si2 0.425466 0.823014 0.735355
Si Si3 0.326595 0.675952 0.275622
Si Si4 0.999664 0.179471 0.874998
Si Si5 0.077217 0.823637 0.727505
Si Si6 0.296605 0.821383 0.496344
Si Si7 0.050994 0.172225 0.489772
Si Si8 0.249004 0.321204 0.120150
O O1 0.376659 0.222512 0.770274
O O2 0.321630 0.237454 0.605322
O O3 0.292833 0.243842 0.814400
O O4 0.322954 0.000000 0.728229
O O5 0.456467 0.732797 0.816082
O O6 0.432883 0.779189 0.608046
O O7 0.433625 0.000000 0.748839
O O8 0.320107 0.500000 0.302870
O O9 0.374640 0.709443 0.227967
O O10 0.322436 0.767265 0.388974
O O11 0.291862 0.730429 0.185719
O O12 0.041862 0.246816 0.811802
O O13 0.000002 0.000000 0.874388
O O14 0.000000 0.242720 0.000000
O O15 0.071275 0.760332 0.602906
O O16 0.067572 0.000000 0.720218
O O17 0.250000 0.750000 0.500000
O O18 0.292121 0.000000 0.494176
O O19 0.000000 0.180023 0.500000
O O20 0.065910 0.000000 0.466499
O O21 0.247378 0.500000 0.107997
O O22 0.250000 0.250000 0.000000
#
# Coordination Sequence:
#
# PCOD8083759 Si02
#       8
#     8   8   8   8   8   8   8   8
#     4   9  20  38  56  79 116 153 176 222 286 329
#     4  11  22  36  57  83 113 148 188 226 273 334
#     4  10  20  36  58  82 111 147 184 226 278 332
#     4  10  21  39  60  81 110 147 189 236 281 324
#     4   9  18  34  57  84 112 144 181 227 281 329
#     4  11  20  35  59  85 115 147 182 223 277 336
#     4  10  18  33  57  81 113 147 177 220 278 332
#     4  10  21  39  58  78 109 145 184 228 276 323
#
# _framework density 19.344394000000001
#
# number of rings (size 3 to 8) (size 9 to 14) (size 15 to 20)
#    0.000    2.000    2.500    1.500    0.000    2.000 
#    0.000    5.000    0.000    0.000    0.000    0.000 
#    0.000    0.000    0.000    0.000    0.000    0.000 
#
# Total GULP energy -396797.169176 kJ/mol
# GULP energy per Si atom -12399.911537 kJ/mol
# Density = 1.930036 g / cm^3
# Si number density = 19.344394 Si / 1000 Ang^3
#
#
#
# Elastic Constant Matrix: (Units=GPa)
#
#
# Indices 1 2 3 4 5 6 
#
# 1 150.5504 18.7458 75.9466 0.0000 2.2078 0.0000
# 2 18.7458 23.8200 20.5368 0.0000 -4.2334 0.0000
# 3 75.9466 20.5368 161.6140 0.0000 -0.0084 0.0000
# 4 0.0000 0.0000 0.0000 25.7805 0.0000 2.2109
# 5 2.2078 -4.2334 -0.0084 0.0000 15.4850 0.0000
# 6 0.0000 0.0000 0.0000 2.2109 0.0000 20.4398
#
#
#
# Elastic Compliance Matrix: (Units=1/GPa)
#
#
# Indices 1 2 3 4 5 6 
#
# 1 0.009103 -0.004403 -0.003718 0.000000 -0.002504 0.000000
# 2 -0.004403 0.051996 -0.004537 0.000000 0.014840 0.000000
# 3 -0.003718 -0.004537 0.008511 0.000000 -0.000706 0.000000
# 4 0.000000 0.000000 0.000000 0.039152 0.000000 -0.004235
# 5 -0.002504 0.014840 -0.000706 0.000000 0.068992 0.000000
# 6 0.000000 0.000000 0.000000 -0.004235 0.000000 0.049382
#
#
# Mechanical properties :
#
#
# Convention : Reuss Voigt Hill
#
# Bulk Modulus (GPa) = 22.57698 62.93809 42.75753
# Shear Modulus (GPa) = 18.71124 27.05808 22.88466
#
# Velocity S-wave (km/s) = 3.11347 3.74405 3.44323
# Velocity P-wave (km/s) = 4.96199 7.16218 6.16109
#
# Compressibility (1/GPa) = 0.04429291
#
# Stress axis : x y z
#
# Youngs Moduli (GPa) = 109.85372 19.23226 117.48812
#
# Poissons Ratio (x) = 0.08468 0.43686
# Poissons Ratio (y) = 0.48368 0.53310
# Poissons Ratio (z) = 0.40848 0.08727
#
# Static dielectric constant tensor:
#      x y z
#    x 3.528890 0.000000 0.235030 
#    y 0.000000 2.994590 0.000000 
#    z 0.235030 0.000000 3.320430 
# 
# 
# High freq. dielectric constant tensor:
#      x y z
#    x 1.770770 0.000000 0.001040 
#    y 0.000000 1.720820 0.000000 
#    z 0.001040 0.000000 1.752820 
# 
# From -- ./inp_files/187439.got.cif
#   From: 2010.06.25/outbox.cif.g09.slc.cpg/sg12_94_cif.got.tgz:187439.got - 2010.06.28 00:19:55.
