data_PCOD8083450
_publ_section_title
;
Structure prediction by ZEFSAII (Michael W. Deem and Ramdas Pophale) SiO2 
 PCOD8083450
Probable space group: C 2/M
;
_chemical_formula_sum "Si O2"
_cell_formula_units_Z 44
_cell_length_a 17.024432
_cell_length_b 15.673417
_cell_length_c 17.230165
_cell_angle_alpha 90.000000
_cell_angle_beta 151.156221
_cell_angle_gamma 90.000000
_cell_volume 2217.960761
_symmetry_space_group_name_H-M "C 2/M"
_symmetry_group_IT_number 12
_symmetry_cell_setting 'monoclinic'
loop_
_space_group_symop_operation_xyz
x,y,z
-x,y,-z
-x,-y,-z
x,-y,z
1/2+x,1/2+y,z
1/2-x,1/2+y,-z
1/2-x,1/2-y,-z
1/2+x,1/2-y,z
loop_
_atom_site_type_symbol
_atom_site_label
_atom_site_fract_x
_atom_site_fract_y
_atom_site_fract_z
Si Si1 0.185948 0.253997 0.305267
Si Si2 0.111056 0.094242 0.462945
Si Si3 0.324624 0.093943 0.498568
Si Si4 0.269814 0.658612 0.122722
Si Si5 0.414097 0.822552 0.182534
Si Si6 0.000000 0.298732 0.000000
O O1 0.310923 0.334512 0.413115
O O2 0.288813 0.167678 0.405577
O O3 0.103377 0.242085 0.149954
O O4 0.051129 0.267010 0.255529
O O5 0.187065 0.100984 0.444174
O O6 0.918862 0.104847 0.284274
O O7 0.142592 0.000000 0.526368
O O8 0.501344 0.107053 0.690543
O O9 0.322779 0.000000 0.457776
O O10 0.314329 0.758864 0.152024
O O11 0.204882 0.629048 0.981353
O O12 0.124181 0.643657 0.057856
#
# Coordination Sequence:
#
# PCOD8083450 Si02
#       6
#     8   8   8   8   8   4
#     4  10  18  38  53  82 109 142 178 226 263 325
#     4  10  19  33  59  85 108 138 179 223 269 319
#     4  10  18  32  58  87 108 136 175 228 276 313
#     4  10  18  34  53  81 106 145 179 218 260 320
#     4   9  17  32  58  76 109 138 177 226 267 305
#     4  10  24  34  56  74 110 156 180 210 278 312
#
# _framework density 19.838042000000002
#
# number of rings (size 3 to 8) (size 9 to 14) (size 15 to 20)
#    0.000    2.182    3.636    1.091    0.000    1.455 
#    0.000    5.909    0.000    2.182    0.000    0.000 
#    0.000    0.000    0.000    0.000    0.000    0.000 
#
# Total GULP energy -272682.935098 kJ/mol
# GULP energy per Si atom -12394.678868 kJ/mol
# Density = 1.979289 g / cm^3
# Si number density = 19.838042 Si / 1000 Ang^3
#
#
#
# Elastic Constant Matrix: (Units=GPa)
#
#
# Indices 1 2 3 4 5 6 
#
# 1 45.3862 21.1349 27.5671 0.0048 3.3844 0.0026
# 2 21.1349 136.2210 68.8133 -0.0053 -17.2710 -0.0025
# 3 27.5671 68.8133 150.6705 -0.0154 -5.8722 -0.0062
# 4 0.0048 -0.0053 -0.0154 18.5473 -0.0015 5.5046
# 5 3.3844 -17.2710 -5.8722 -0.0015 30.9917 0.0019
# 6 0.0026 -0.0025 -0.0062 5.5046 0.0019 5.2279
#
#
#
# Elastic Compliance Matrix: (Units=1/GPa)
#
#
# Indices 1 2 3 4 5 6 
#
# 1 0.025950 -0.002826 -0.003656 -0.000009 -0.005101 -0.000007
# 2 -0.002826 0.010525 -0.004079 0.000001 0.005401 -0.000002
# 3 -0.003656 -0.004079 0.009164 0.000006 -0.000138 0.000004
# 4 -0.000009 0.000001 0.000006 0.078423 0.000012 -0.082573
# 5 -0.005101 0.005401 -0.000138 0.000012 0.035808 -0.000020
# 6 -0.000007 -0.000002 0.000004 -0.082573 -0.000020 0.278224
#
#
# Mechanical properties :
#
#
# Convention : Reuss Voigt Hill
#
# Bulk Modulus (GPa) = 40.78994 63.03423 51.91209
# Shear Modulus (GPa) = 10.69776 25.27088 17.98432
#
# Velocity S-wave (km/s) = 2.32471 3.57299 3.01418
# Velocity P-wave (km/s) = 5.27369 6.99036 6.19180
#
# Compressibility (1/GPa) = 0.02451585
#
# Stress axis : x y z
#
# Youngs Moduli (GPa) = 38.53537 95.01204 109.12709
#
# Poissons Ratio (x) = 0.26852 0.39897
# Poissons Ratio (y) = 0.10891 0.44517
# Poissons Ratio (z) = 0.14089 0.38759
#
# Static dielectric constant tensor:
#      x y z
#    x 3.311540 0.000010 0.104730 
#    y 0.000010 3.430670 0.000000 
#    z 0.104730 0.000000 3.901930 
# 
# 
# High freq. dielectric constant tensor:
#      x y z
#    x 1.737240 0.000000 0.009790 
#    y 0.000000 1.741590 0.000000 
#    z 0.009790 0.000000 1.795610 
# 
# From -- ./inp_files/97214.got.cif
#   From: 2010.06.25/outbox.cif.g09.slc.cpg/sg12_49_cif.got.tgz:97214.got - 2010.06.28 00:19:55.
