data_PCOD8083159
_publ_section_title
;
Structure prediction by ZEFSAII (Michael W. Deem and Ramdas Pophale) SiO2 
 PCOD8083159
Probable space group: C 2/M
;
_chemical_formula_sum "Si O2"
_cell_formula_units_Z 48
_cell_length_a 23.771861
_cell_length_b 8.417648
_cell_length_c 14.971523
_cell_angle_alpha 90.000000
_cell_angle_beta 119.438725
_cell_angle_gamma 90.000000
_cell_volume 2609.030463
_symmetry_space_group_name_H-M "C 2/M"
_symmetry_group_IT_number 12
_symmetry_cell_setting 'monoclinic'
loop_
_space_group_symop_operation_xyz
x,y,z
-x,y,-z
-x,-y,-z
x,-y,z
1/2+x,1/2+y,z
1/2-x,1/2+y,-z
1/2-x,1/2-y,-z
1/2+x,1/2-y,z
loop_
_atom_site_type_symbol
_atom_site_label
_atom_site_fract_x
_atom_site_fract_y
_atom_site_fract_z
Si Si1 0.646740 0.185719 0.427528
Si Si2 0.821911 0.815626 0.734501
Si Si3 0.545966 0.185213 0.114491
Si Si4 0.443607 0.687654 0.392651
Si Si5 0.308372 0.687075 0.359037
Si Si6 0.485888 0.315829 0.724598
O O1 0.677567 0.211215 0.354791
O O2 0.692322 0.262606 0.537739
O O3 0.578965 0.277826 0.380497
O O4 0.636741 0.000000 0.437335
O O5 0.885872 0.776549 0.841676
O O6 0.756028 0.766192 0.735026
O O7 0.821712 0.000000 0.709935
O O8 0.510602 0.215255 0.181647
O O9 0.560065 0.000000 0.115100
O O10 0.500000 0.248477 0.000000
O O11 0.500000 0.761242 0.500000
O O12 0.443212 0.500000 0.407366
O O13 0.373139 0.757017 0.363032
O O14 0.456111 0.728602 0.297935
O O15 0.303986 0.500000 0.343561
O O16 0.486959 0.500000 0.752068
#
# Coordination Sequence:
#
# PCOD8083159 Si02
#       6
#     8   8   8   8   8   8
#     4  11  20  31  47  72 105 140 177 213 256 304
#     4  11  22  35  51  75 104 133 172 216 262 311
#     4  10  21  38  59  81 104 131 166 214 270 318
#     4   9  17  31  51  75 105 143 181 210 248 301
#     4  11  20  33  51  71 104 144 178 211 252 305
#     4  10  18  32  54  79 105 137 177 216 254 304
#
# _framework density 18.397638000000001
#
# number of rings (size 3 to 8) (size 9 to 14) (size 15 to 20)
#    0.000    1.667    1.667    7.000    0.000    1.333 
#    0.000    4.167    0.000    1.000    0.000    0.000 
#    0.000    0.000    0.000    0.000    0.000    0.000 
#
# Total GULP energy -297560.660715 kJ/mol
# GULP energy per Si atom -12398.360863 kJ/mol
# Density = 1.835576 g / cm^3
# Si number density = 18.397638 Si / 1000 Ang^3
#
#
#
# Elastic Constant Matrix: (Units=GPa)
#
#
# Indices 1 2 3 4 5 6 
#
# 1 116.4251 20.8162 54.2832 0.0000 29.6411 0.0000
# 2 20.8162 45.0048 18.5462 0.0000 1.0667 0.0000
# 3 54.2832 18.5462 101.3026 0.0000 15.7744 0.0000
# 4 0.0000 0.0000 0.0000 23.5259 0.0000 2.7167
# 5 29.6411 1.0667 15.7744 0.0000 18.7029 0.0000
# 6 0.0000 0.0000 0.0000 2.7167 0.0000 23.1728
#
#
#
# Elastic Compliance Matrix: (Units=1/GPa)
#
#
# Indices 1 2 3 4 5 6 
#
# 1 0.018030 -0.005771 -0.004843 0.000000 -0.024162 0.000000
# 2 -0.005771 0.025999 -0.003293 0.000000 0.010441 0.000000
# 3 -0.004843 -0.003293 0.013636 0.000000 -0.003638 0.000000
# 4 0.000000 0.000000 0.000000 0.043090 0.000000 -0.005052
# 5 -0.024162 0.010441 -0.003638 0.000000 0.094233 0.000000
# 6 0.000000 0.000000 0.000000 -0.005052 0.000000 0.043746
#
#
# Mechanical properties :
#
#
# Convention : Reuss Voigt Hill
#
# Bulk Modulus (GPa) = 33.49987 50.00265 41.75126
# Shear Modulus (GPa) = 18.08327 24.35277 21.21802
#
# Velocity S-wave (km/s) = 3.13854 3.64220 3.39971
# Velocity P-wave (km/s) = 5.60199 6.70264 6.17688
#
# Compressibility (1/GPa) = 0.02985086
#
# Stress axis : x y z
#
# Youngs Moduli (GPa) = 55.46176 38.46323 73.33658
#
# Poissons Ratio (x) = 0.22198 0.35515
# Poissons Ratio (y) = 0.32009 0.24150
# Poissons Ratio (z) = 0.26858 0.12666
#
# Static dielectric constant tensor:
#      x y z
#    x 3.660380 0.000000 0.216470 
#    y 0.000000 3.229670 0.000000 
#    z 0.216470 0.000000 3.245050 
# 
# 
# High freq. dielectric constant tensor:
#      x y z
#    x 1.713890 0.000000 0.017680 
#    y 0.000000 1.711640 0.000000 
#    z 0.017680 0.000000 1.678620 
# 
# From -- ./inp_files/287958.got.cif
#   From: 2010.06.25/outbox.cif.g09.slc.cpg/sg12_144_cif.got.tgz:287958.got - 2010.06.28 00:19:55.
