data_PCOD8083040
_publ_section_title
;
Structure prediction by ZEFSAII (Michael W. Deem and Ramdas Pophale) SiO2 
 PCOD8083040
Probable space group: C 2/M
;
_chemical_formula_sum "Si O2"
_cell_formula_units_Z 56
_cell_length_a 30.042127
_cell_length_b 9.324758
_cell_length_c 16.682204
_cell_angle_alpha 90.000000
_cell_angle_beta 45.449210
_cell_angle_gamma 90.000000
_cell_volume 3330.313156
_symmetry_space_group_name_H-M "C 2/M"
_symmetry_group_IT_number 12
_symmetry_cell_setting 'monoclinic'
loop_
_space_group_symop_operation_xyz
x,y,z
-x,y,-z
-x,-y,-z
x,-y,z
1/2+x,1/2+y,z
1/2-x,1/2+y,-z
1/2-x,1/2-y,-z
1/2+x,1/2-y,z
loop_
_atom_site_type_symbol
_atom_site_label
_atom_site_fract_x
_atom_site_fract_y
_atom_site_fract_z
Si Si1 0.303725 0.333362 0.477172
Si Si2 0.549360 0.834537 0.115341
Si Si3 0.929601 0.830437 0.229651
Si Si4 0.283295 0.667314 0.844123
Si Si5 0.341770 0.834627 0.904182
Si Si6 0.115492 0.667268 0.863852
Si Si7 0.255142 0.332001 0.706527
O O1 0.290231 0.500000 0.480339
O O2 0.250000 0.250000 0.500000
O O3 0.370817 0.288169 0.359088
O O4 0.301305 0.295450 0.574856
O O5 0.489987 0.731636 0.197984
O O6 0.594156 0.794178 0.132631
O O7 0.528185 0.000000 0.146584
O O8 0.585895 0.805246 0.987337
O O9 0.924055 0.756970 0.150160
O O10 0.936182 0.000000 0.210298
O O11 0.298660 0.500000 0.827529
O O12 0.336562 0.745552 0.828594
O O13 0.284412 0.729703 0.751831
O O14 0.215008 0.702914 0.964823
O O15 0.340090 0.000000 0.882508
O O16 0.112870 0.500000 0.842959
O O17 0.186057 0.729247 0.775311
O O18 0.245690 0.500000 0.732375
#
# Coordination Sequence:
#
# PCOD8083040 Si02
#       7
#     8   8   8   8   8   8   8
#     4  10  20  34  52  72  96 129 167 207 245 284
#     4  10  20  34  52  72  97 135 174 199 231 294
#     4  11  23  34  46  72 105 132 163 205 251 290
#     4   9  16  29  50  75  98 123 156 197 247 292
#     4   9  17  30  48  73 101 124 155 198 242 292
#     4  10  18  32  53  73  95 132 173 199 232 291
#     4   9  16  30  53  74  96 126 163 203 238 284
#
# _framework density 16.815235000000001
#
# number of rings (size 3 to 8) (size 9 to 14) (size 15 to 20)
#    0.000    2.286    2.857    0.857    0.000    3.429 
#    0.000    1.429    0.000    0.857    0.000    6.000 
#    0.000    0.000    0.000    0.000    0.000    0.000 
#
# Total GULP energy -347213.916174 kJ/mol
# GULP energy per Si atom -12400.497006 kJ/mol
# Density = 1.677696 g / cm^3
# Si number density = 16.815235 Si / 1000 Ang^3
#
#
#
# Elastic Constant Matrix: (Units=GPa)
#
#
# Indices 1 2 3 4 5 6 
#
# 1 134.6173 50.9862 43.2326 0.0000 4.8803 0.0000
# 2 50.9862 53.7184 33.9368 0.0003 -2.3115 0.0000
# 3 43.2326 33.9368 67.6324 0.0000 -2.9129 0.0000
# 4 0.0000 0.0003 0.0000 19.9419 0.0000 -2.3701
# 5 4.8803 -2.3115 -2.9129 0.0000 26.1194 0.0000
# 6 0.0000 0.0000 0.0000 -2.3701 0.0000 29.7708
#
#
#
# Elastic Compliance Matrix: (Units=1/GPa)
#
#
# Indices 1 2 3 4 5 6 
#
# 1 0.012274 -0.009881 -0.003039 0.000000 -0.003507 0.000000
# 2 -0.009881 0.035230 -0.011202 0.000000 0.003715 0.000000
# 3 -0.003039 -0.011202 0.022439 0.000000 0.002079 0.000000
# 4 0.000000 0.000000 0.000000 0.050625 0.000000 0.004030
# 5 -0.003507 0.003715 0.002079 0.000000 0.039502 0.000000
# 6 0.000000 0.000000 0.000000 0.004030 0.000000 0.033911
#
#
# Mechanical properties :
#
#
# Convention : Reuss Voigt Hill
#
# Bulk Modulus (GPa) = 46.08290 56.91993 51.50142
# Shear Modulus (GPa) = 20.04356 23.68726 21.86541
#
# Velocity S-wave (km/s) = 3.45626 3.75731 3.60993
# Velocity P-wave (km/s) = 6.58731 7.26270 6.93323
#
# Compressibility (1/GPa) = 0.02170002
#
# Stress axis : x y z
#
# Youngs Moduli (GPa) = 81.47424 28.38451 44.56551
#
# Poissons Ratio (x) = 0.28046 0.13543
# Poissons Ratio (y) = 0.80502 0.49923
# Poissons Ratio (z) = 0.24759 0.31797
#
# Static dielectric constant tensor:
#      x y z
#    x 3.321740 0.000000 0.061710 
#    y 0.000000 3.013910 0.000000 
#    z 0.061710 0.000000 3.125360 
# 
# 
# High freq. dielectric constant tensor:
#      x y z
#    x 1.652100 0.000000 0.005670 
#    y 0.000000 1.632580 0.000000 
#    z 0.005670 0.000000 1.631590 
# 
# From -- ./inp_files/287349.got.cif
#   From: 2010.06.25/outbox.cif.g09.slc.cpg/sg12_144_cif.got.tgz:287349.got - 2010.06.28 00:19:55.
