data_PCOD8083214
_publ_section_title
;
Structure prediction by ZEFSAII (Michael W. Deem and Ramdas Pophale) SiO2 
 PCOD8083214
Probable space group: C 2/M
;
_chemical_formula_sum "Si O2"
_cell_formula_units_Z 52
_cell_length_a 15.034555
_cell_length_b 24.464320
_cell_length_c 8.358826
_cell_angle_alpha 90.000000
_cell_angle_beta 99.593573
_cell_angle_gamma 90.000000
_cell_volume 3031.464021
_symmetry_space_group_name_H-M "C 2/M"
_symmetry_group_IT_number 12
_symmetry_cell_setting 'monoclinic'
loop_
_space_group_symop_operation_xyz
x,y,z
-x,y,-z
-x,-y,-z
x,-y,z
1/2+x,1/2+y,z
1/2-x,1/2+y,-z
1/2-x,1/2-y,-z
1/2+x,1/2-y,z
loop_
_atom_site_type_symbol
_atom_site_label
_atom_site_fract_x
_atom_site_fract_y
_atom_site_fract_z
Si Si1 0.709547 0.200517 0.589428
Si Si2 0.123764 0.500000 0.934000
Si Si3 0.303412 0.698277 0.941721
Si Si4 0.059082 0.500000 0.277323
Si Si5 0.000000 0.236480 0.000000
Si Si6 0.676091 0.884353 0.007763
Si Si7 0.953557 0.685838 0.253851
Si Si8 0.617205 0.883988 0.353353
O O1 0.750000 0.250000 0.500000
O O2 0.781655 0.189498 0.749100
O O3 0.611978 0.216186 0.637961
O O4 0.696425 0.144394 0.482143
O O5 0.184675 0.445640 0.940859
O O6 0.050337 0.500000 0.767135
O O7 0.082607 0.500000 0.098304
O O8 0.273712 0.644118 0.029094
O O9 0.250000 0.750000 0.000000
O O10 0.410342 0.700886 0.992149
O O11 0.099353 0.447982 0.386140
O O12 0.009892 0.271576 0.164443
O O13 0.607095 0.851153 0.878396
O O14 0.639978 0.880169 0.174807
O O15 0.025405 0.648197 0.365536
#
# Coordination Sequence:
#
# PCOD8083214 Si02
#       8
#     8   4   8   4   4   8   8   8
#     4  11  23  34  48  73 116 147 176 221 271 328
#     4   9  16  30  53  81 108 147 189 223 256 316
#     4  11  21  37  54  78 104 142 187 227 274 324
#     4   9  18  28  52  83 111 146 186 213 265 338
#     4  12  20  34  62  78 102 140 192 232 272 320
#     4  10  18  32  55  77 110 144 185 223 258 317
#     4  11  19  32  54  78 104 150 182 216 265 320
#     4  11  19  33  52  82 115 147 178 219 270 327
#
# _framework density 17.153428000000002
#
# number of rings (size 3 to 8) (size 9 to 14) (size 15 to 20)
#    0.000    1.385    6.154    2.308    0.000    0.000 
#    0.000    4.615    0.000    0.462    0.000    0.000 
#    0.000    3.692    0.000    0.000    0.000    0.000 
#
# Total GULP energy -322211.583129 kJ/mol
# GULP energy per Si atom -12392.753197 kJ/mol
# Density = 1.711439 g / cm^3
# Si number density = 17.153428 Si / 1000 Ang^3
#
#
#
# Elastic Constant Matrix: (Units=GPa)
#
#
# Indices 1 2 3 4 5 6 
#
# 1 105.2879 61.7784 20.0045 0.0000 -0.1106 0.0000
# 2 61.7784 131.4562 37.9446 0.0000 2.8031 0.0000
# 3 20.0045 37.9446 62.7550 0.0000 -0.5954 0.0000
# 4 0.0000 0.0000 0.0000 20.7494 0.0000 1.4419
# 5 -0.1106 2.8031 -0.5954 0.0000 28.4413 0.0000
# 6 0.0000 0.0000 0.0000 1.4419 0.0000 27.1891
#
#
#
# Elastic Compliance Matrix: (Units=1/GPa)
#
#
# Indices 1 2 3 4 5 6 
#
# 1 0.013141 -0.006035 -0.000534 0.000000 0.000635 0.000000
# 2 -0.006035 0.012017 -0.005355 0.000000 -0.001320 0.000000
# 3 -0.000534 -0.005355 0.019352 0.000000 0.000931 0.000000
# 4 0.000000 0.000000 0.000000 0.048372 0.000000 -0.002565
# 5 0.000635 -0.001320 0.000931 0.000000 0.035312 0.000000
# 6 0.000000 0.000000 0.000000 -0.002565 0.000000 0.036915
#
#
# Mechanical properties :
#
#
# Convention : Reuss Voigt Hill
#
# Bulk Modulus (GPa) = 48.39722 59.88380 54.14051
# Shear Modulus (GPa) = 25.53041 27.26075 26.39558
#
# Velocity S-wave (km/s) = 3.86211 3.99084 3.92700
# Velocity P-wave (km/s) = 6.93999 7.49815 7.22446
#
# Compressibility (1/GPa) = 0.02066234
#
# Stress axis : x y z
#
# Youngs Moduli (GPa) = 76.09767 83.21463 51.67486
#
# Poissons Ratio (x) = 0.50221 0.02759
# Poissons Ratio (y) = 0.45926 0.27671
# Poissons Ratio (z) = 0.04063 0.44560
#
# Static dielectric constant tensor:
#      x y z
#    x 3.313140 0.000000 -0.038950 
#    y 0.000000 3.462620 0.000000 
#    z -0.038950 0.000000 3.385780 
# 
# 
# High freq. dielectric constant tensor:
#      x y z
#    x 1.635390 0.000000 -0.012120 
#    y 0.000000 1.648380 0.000000 
#    z -0.012120 0.000000 1.672470 
# 
# From -- ./inp_files/64768.got.cif
#   From: 2010.06.25/outbox.cif.g09.slc.cpg/sg12_33_cif.got.tgz:64768.got - 2010.06.28 00:19:55.
