data_PCOD8083070
_publ_section_title
;
Structure prediction by ZEFSAII (Michael W. Deem and Ramdas Pophale) SiO2 
 PCOD8083070
Probable space group: C 2/M
;
_chemical_formula_sum "Si O2"
_cell_formula_units_Z 64
_cell_length_a 20.011624
_cell_length_b 9.173114
_cell_length_c 22.046439
_cell_angle_alpha 90.000000
_cell_angle_beta 116.676057
_cell_angle_gamma 90.000000
_cell_volume 3616.269973
_symmetry_space_group_name_H-M "C 2/M"
_symmetry_group_IT_number 12
_symmetry_cell_setting 'monoclinic'
loop_
_space_group_symop_operation_xyz
x,y,z
-x,y,-z
-x,-y,-z
x,-y,z
1/2+x,1/2+y,z
1/2-x,1/2+y,-z
1/2-x,1/2-y,-z
1/2+x,1/2-y,z
loop_
_atom_site_type_symbol
_atom_site_label
_atom_site_fract_x
_atom_site_fract_y
_atom_site_fract_z
Si Si1 0.358862 0.333455 0.560900
Si Si2 0.252580 0.330783 0.822983
Si Si3 0.301664 0.171519 0.069141
Si Si4 0.667847 0.170499 0.667001
Si Si5 0.898544 0.672332 0.903897
Si Si6 0.752622 0.169485 0.406224
Si Si7 0.481792 0.330597 0.424464
Si Si8 0.939585 0.329117 0.052637
O O1 0.344171 0.500000 0.574129
O O2 0.325680 0.230062 0.599534
O O3 0.319129 0.301199 0.480714
O O4 0.446630 0.301643 0.589048
O O5 0.271742 0.500000 0.835342
O O6 0.214850 0.273599 0.869822
O O7 0.194758 0.298135 0.745975
O O8 0.329801 0.247681 0.841805
O O9 0.387874 0.213037 0.088706
O O10 0.288560 0.000000 0.056848
O O11 0.250000 0.250000 0.000000
O O12 0.726541 0.246842 0.646290
O O13 0.585268 0.235357 0.628518
O O14 0.665365 0.000000 0.650684
O O15 0.886850 0.500000 0.894152
O O16 0.975576 0.726827 0.902976
O O17 0.902134 0.729205 0.975042
O O18 0.742458 0.000000 0.387466
O O19 0.500000 0.280493 0.500000
O O20 0.458097 0.500000 0.414562
O O21 0.946085 0.500000 0.045521
#
# Coordination Sequence:
#
# PCOD8083070 Si02
#       8
#     8   8   8   8   8   8   8   8
#     4   9  18  33  55  82 111 136 166 220 279 319
#     4  10  22  36  50  74 110 144 173 217 272 318
#     4  10  18  32  53  76 103 136 173 218 266 311
#     4  11  23  37  52  75 111 151 186 223 274 327
#     4   9  16  30  52  76 100 132 175 214 256 313
#     4  10  19  34  55  80 107 138 179 221 265 323
#     4  10  19  36  58  82 110 140 179 227 273 320
#     4   8  15  28  50  78 103 127 165 219 263 303
#
# _framework density 17.697793999999998
#
# number of rings (size 3 to 8) (size 9 to 14) (size 15 to 20)
#    0.000    2.375    2.500    1.500    0.000    2.250 
#    0.000    3.125    0.000    1.500    0.000    0.000 
#    0.000    0.000    0.000    0.000    0.000    0.000 
#
# Total GULP energy -396767.505559 kJ/mol
# GULP energy per Si atom -12398.984549 kJ/mol
# Density = 1.765751 g / cm^3
# Si number density = 17.697794 Si / 1000 Ang^3
#
#
#
# Elastic Constant Matrix: (Units=GPa)
#
#
# Indices 1 2 3 4 5 6 
#
# 1 136.5959 56.3975 65.6974 0.0000 0.7949 0.0000
# 2 56.3975 70.2172 52.6867 0.0000 0.5087 0.0000
# 3 65.6974 52.6867 96.1070 0.0000 1.4318 0.0000
# 4 0.0000 0.0000 0.0000 24.6858 0.0000 3.3355
# 5 0.7949 0.5087 1.4318 0.0000 26.5123 0.0000
# 6 0.0000 0.0000 0.0000 3.3355 0.0000 30.1172
#
#
#
# Elastic Compliance Matrix: (Units=1/GPa)
#
#
# Indices 1 2 3 4 5 6 
#
# 1 0.012250 -0.006040 -0.005063 0.000000 0.000022 0.000000
# 2 -0.006040 0.027173 -0.010771 0.000000 0.000241 0.000000
# 3 -0.005063 -0.010771 0.019781 0.000000 -0.000710 0.000000
# 4 0.000000 0.000000 0.000000 0.041125 0.000000 -0.004555
# 5 0.000022 0.000241 -0.000710 0.000000 0.037751 0.000000
# 6 0.000000 0.000000 0.000000 -0.004555 0.000000 0.033708
#
#
# Mechanical properties :
#
#
# Convention : Reuss Voigt Hill
#
# Bulk Modulus (GPa) = 64.70001 72.49817 68.59909
# Shear Modulus (GPa) = 22.65641 24.80562 23.73102
#
# Velocity S-wave (km/s) = 3.58185 3.74789 3.66581
# Velocity P-wave (km/s) = 7.33101 7.73190 7.53412
#
# Compressibility (1/GPa) = 0.01545595
#
# Stress axis : x y z
#
# Youngs Moduli (GPa) = 81.63591 36.80104 50.55269
#
# Poissons Ratio (x) = 0.22228 0.25593
# Poissons Ratio (y) = 0.49308 0.54452
# Poissons Ratio (z) = 0.41330 0.39639
#
# Static dielectric constant tensor:
#      x y z
#    x 3.718890 0.000000 -0.047100 
#    y 0.000000 3.159140 0.000000 
#    z -0.047100 0.000000 3.065930 
# 
# 
# High freq. dielectric constant tensor:
#      x y z
#    x 1.700920 0.000000 -0.000590 
#    y 0.000000 1.672640 0.000000 
#    z -0.000590 0.000000 1.656100 
# 
# From -- ./inp_files/320117.got.cif
#   From: 2010.06.25/outbox.cif.g09.slc.cpg/sg12_161_cif.got.tgz:320117.got - 2010.06.28 00:19:55.
