data_PCOD8083222
_publ_section_title
;
Structure prediction by ZEFSAII (Michael W. Deem and Ramdas Pophale) SiO2 
 PCOD8083222
Probable space group: C 2/M
;
_chemical_formula_sum "Si O2"
_cell_formula_units_Z 64
_cell_length_a 18.274952
_cell_length_b 13.259686
_cell_length_c 15.590972
_cell_angle_alpha 90.000000
_cell_angle_beta 89.191515
_cell_angle_gamma 90.000000
_cell_volume 3777.630169
_symmetry_space_group_name_H-M "C 2/M"
_symmetry_group_IT_number 12
_symmetry_cell_setting 'monoclinic'
loop_
_space_group_symop_operation_xyz
x,y,z
-x,y,-z
-x,-y,-z
x,-y,z
1/2+x,1/2+y,z
1/2-x,1/2+y,-z
1/2-x,1/2-y,-z
1/2+x,1/2-y,z
loop_
_atom_site_type_symbol
_atom_site_label
_atom_site_fract_x
_atom_site_fract_y
_atom_site_fract_z
Si Si1 0.143789 0.385928 0.656899
Si Si2 0.658915 0.615705 0.916927
Si Si3 0.231650 0.755670 0.781290
Si Si4 0.985471 0.611513 0.219808
Si Si5 0.637500 0.881980 0.298948
Si Si6 0.930888 0.294145 0.056977
Si Si7 0.275605 0.884895 0.061538
Si Si8 0.419459 0.881075 0.518125
O O1 0.175752 0.500000 0.665818
O O2 0.193967 0.307046 0.706054
O O3 0.060511 0.383778 0.692058
O O4 0.136969 0.353857 0.557525
O O5 0.636782 0.500000 0.909710
O O6 0.678049 0.659810 0.822658
O O7 0.589090 0.676241 0.955655
O O8 0.727850 0.635235 0.977853
O O9 0.299945 0.812112 0.739946
O O10 0.254020 0.680496 0.858190
O O11 0.978691 0.500000 0.178625
O O12 0.951661 0.691628 0.155523
O O13 0.069155 0.635668 0.237785
O O14 0.616923 0.840948 0.393689
O O15 0.660977 0.000000 0.299697
O O16 0.859513 0.360256 0.035512
O O17 0.000000 0.327681 0.000000
O O18 0.269897 0.000000 0.091061
O O19 0.500000 0.832641 0.500000
O O20 0.429614 0.000000 0.526743
#
# Coordination Sequence:
#
# PCOD8083222 Si02
#       8
#     8   8   8   8   8   8   8   8
#     4  10  18  32  55  78 102 134 168 207 256 305
#     4  10  22  38  52  68 100 144 176 203 247 302
#     4  11  20  33  52  76 105 134 171 210 250 300
#     4  10  19  32  51  77 104 130 164 208 257 301
#     4  10  21  33  51  79 107 133 166 209 254 305
#     4  11  22  33  53  78 105 128 166 218 259 299
#     4  10  21  37  54  73 101 137 172 208 255 303
#     4   9  16  30  51  77 107 133 159 202 262 309
#
# _framework density 16.941839000000002
#
# number of rings (size 3 to 8) (size 9 to 14) (size 15 to 20)
#    0.000    1.875    3.750    2.625    3.500    1.750 
#    0.000    0.000    0.000    0.000    0.000    0.000 
#    0.000    5.000    0.000    0.000    0.000    0.000 
#
# Total GULP energy -396683.231771 kJ/mol
# GULP energy per Si atom -12396.350993 kJ/mol
# Density = 1.690328 g / cm^3
# Si number density = 16.941839 Si / 1000 Ang^3
#
#
#
# Elastic Constant Matrix: (Units=GPa)
#
#
# Indices 1 2 3 4 5 6 
#
# 1 90.1834 42.3438 37.8413 0.0000 -5.2299 0.0000
# 2 42.3438 84.9142 40.5317 0.0000 4.4207 0.0000
# 3 37.8413 40.5317 76.3601 0.0000 0.5762 0.0000
# 4 0.0000 0.0000 0.0000 23.3209 0.0000 3.1281
# 5 -5.2299 4.4207 0.5762 0.0000 26.7610 0.0000
# 6 0.0000 0.0000 0.0000 3.1281 0.0000 22.2091
#
#
#
# Elastic Compliance Matrix: (Units=1/GPa)
#
#
# Indices 1 2 3 4 5 6 
#
# 1 0.016184 -0.005958 -0.004890 0.000000 0.004252 0.000000
# 2 -0.005958 0.018125 -0.006638 0.000000 -0.004016 0.000000
# 3 -0.004890 -0.006638 0.019045 0.000000 -0.000269 0.000000
# 4 0.000000 0.000000 0.000000 0.043706 0.000000 -0.006156
# 5 0.004252 -0.004016 -0.000269 0.000000 0.038868 0.000000
# 6 0.000000 0.000000 0.000000 -0.006156 0.000000 0.045894
#
#
# Mechanical properties :
#
#
# Convention : Reuss Voigt Hill
#
# Bulk Modulus (GPa) = 54.39994 54.76568 54.58281
# Shear Modulus (GPa) = 22.42949 23.17424 22.80187
#
# Velocity S-wave (km/s) = 3.64251 3.70249 3.67262
# Velocity P-wave (km/s) = 7.06187 7.11855 7.09027
#
# Compressibility (1/GPa) = 0.01838237
#
# Stress axis : x y z
#
# Youngs Moduli (GPa) = 61.78790 55.17221 52.50824
#
# Poissons Ratio (x) = 0.32871 0.25677
# Poissons Ratio (y) = 0.36812 0.34855
# Poissons Ratio (z) = 0.30215 0.36623
#
# Static dielectric constant tensor:
#      x y z
#    x 3.086030 0.000000 -0.007580 
#    y 0.000000 3.108580 0.000000 
#    z -0.007580 0.000000 3.276750 
# 
# 
# High freq. dielectric constant tensor:
#      x y z
#    x 1.643260 0.000000 0.005280 
#    y 0.000000 1.636020 0.000000 
#    z 0.005280 0.000000 1.658580 
# 
# From -- ./inp_files/224767.got.cif
#   From: 2010.06.25/outbox.cif.g09.slc.cpg/sg12_113_cif.got.tgz:224767.got - 2010.06.28 00:19:55.
