data_PCOD8083778
_publ_section_title
;
Structure prediction by ZEFSAII (Michael W. Deem and Ramdas Pophale) SiO2 
 PCOD8083778
Probable space group: C 2/M
;
_chemical_formula_sum "Si O2"
_cell_formula_units_Z 64
_cell_length_a 17.185717
_cell_length_b 21.465732
_cell_length_c 9.410865
_cell_angle_alpha 90.000000
_cell_angle_beta 85.514868
_cell_angle_gamma 90.000000
_cell_volume 3461.074155
_symmetry_space_group_name_H-M "C 2/M"
_symmetry_group_IT_number 12
_symmetry_cell_setting 'monoclinic'
loop_
_space_group_symop_operation_xyz
x,y,z
-x,y,-z
-x,-y,-z
x,-y,z
1/2+x,1/2+y,z
1/2-x,1/2+y,-z
1/2-x,1/2-y,-z
1/2+x,1/2-y,z
loop_
_atom_site_type_symbol
_atom_site_label
_atom_site_fract_x
_atom_site_fract_y
_atom_site_fract_z
Si Si1 0.590145 0.926832 0.493248
Si Si2 0.563097 0.573118 0.113344
Si Si3 0.761257 0.929820 0.990421
Si Si4 0.320890 0.430852 0.456271
Si Si5 0.712179 0.136015 0.269772
Si Si6 0.201694 0.605918 0.706880
Si Si7 0.568225 0.645671 0.397949
Si Si8 0.281405 0.728988 0.647053
O O1 0.500000 0.908760 0.500000
O O2 0.636809 0.889823 0.364316
O O3 0.617606 0.905473 0.646809
O O4 0.604419 0.000000 0.466546
O O5 0.561304 0.500000 0.155741
O O6 0.649925 0.592743 0.049728
O O7 0.541719 0.616310 0.251217
O O8 0.500000 0.587553 0.000000
O O9 0.707743 0.925961 0.858325
O O10 0.762936 0.000000 0.047312
O O11 0.715626 0.888253 0.109956
O O12 0.325932 0.500000 0.391389
O O13 0.291295 0.384698 0.338075
O O14 0.263207 0.428904 0.597875
O O15 0.404498 0.410386 0.502351
O O16 0.710379 0.210575 0.255835
O O17 0.219702 0.679645 0.719326
O O18 0.500000 0.677975 0.500000
O O19 0.634285 0.697348 0.371174
O O20 0.250000 0.750000 0.500000
#
# Coordination Sequence:
#
# PCOD8083778 Si02
#       8
#     8   8   8   8   8   8   8   8
#     4  10  20  36  60  88 114 145 191 253 312 350
#     4  10  22  38  56  85 127 162 191 236 299 356
#     4  11  21  37  61  89 120 155 193 241 297 357
#     4  10  18  33  57  85 116 151 198 245 288 346
#     4  11  22  36  59  86 118 152 200 245 289 349
#     4  10  19  36  60  82 114 153 197 238 288 349
#     4  11  23  37  58  86 117 157 201 247 293 345
#     4  11  20  40  59  84 113 154 206 247 281 335
#
# _framework density 18.49137
#
# number of rings (size 3 to 8) (size 9 to 14) (size 15 to 20)
#    0.000    1.500    6.250    3.375    1.750    2.000 
#    0.000    0.625    0.000    2.250    0.000    0.000 
#    0.000    0.000    0.000    0.000    0.000    0.000 
#
# Total GULP energy -396733.623778 kJ/mol
# GULP energy per Si atom -12397.925743 kJ/mol
# Density = 1.844928 g / cm^3
# Si number density = 18.491370 Si / 1000 Ang^3
#
#
#
# Elastic Constant Matrix: (Units=GPa)
#
#
# Indices 1 2 3 4 5 6 
#
# 1 97.3893 28.1027 42.0733 0.0000 18.1307 0.0000
# 2 28.1027 107.4564 18.7518 0.0000 0.0556 0.0000
# 3 42.0733 18.7518 98.1448 0.0000 9.4116 0.0000
# 4 0.0000 0.0000 0.0000 26.7625 0.0000 3.4571
# 5 18.1307 0.0556 9.4116 0.0000 22.1473 0.0000
# 6 0.0000 0.0000 0.0000 3.4571 0.0000 20.6287
#
#
#
# Elastic Compliance Matrix: (Units=1/GPa)
#
#
# Indices 1 2 3 4 5 6 
#
# 1 0.015230 -0.003116 -0.004940 0.000000 -0.010361 0.000000
# 2 -0.003116 0.010278 -0.000907 0.000000 0.002910 0.000000
# 3 -0.004940 -0.000907 0.012606 0.000000 -0.001310 0.000000
# 4 0.000000 0.000000 0.000000 0.038193 0.000000 -0.006401
# 5 -0.010361 0.002910 -0.001310 0.000000 0.054184 0.000000
# 6 0.000000 0.000000 0.000000 -0.006401 0.000000 0.049549
#
#
# Mechanical properties :
#
#
# Convention : Reuss Voigt Hill
#
# Bulk Modulus (GPa) = 49.53476 53.42735 51.48106
# Shear Modulus (GPa) = 24.42674 28.17854 26.30264
#
# Velocity S-wave (km/s) = 3.63847 3.90792 3.77560
# Velocity P-wave (km/s) = 6.67065 7.02270 6.84893
#
# Compressibility (1/GPa) = 0.02018784
#
# Stress axis : x y z
#
# Youngs Moduli (GPa) = 65.65909 97.29787 79.32870
#
# Poissons Ratio (x) = 0.30315 0.39189
# Poissons Ratio (y) = 0.20457 0.07196
# Poissons Ratio (z) = 0.32436 0.08826
#
# Static dielectric constant tensor:
#      x y z
#    x 3.485690 0.000000 0.191110 
#    y 0.000000 4.010140 0.000000 
#    z 0.191110 0.000000 3.385710 
# 
# 
# High freq. dielectric constant tensor:
#      x y z
#    x 1.705200 0.000000 0.015020 
#    y 0.000000 1.716910 0.000000 
#    z 0.015020 0.000000 1.708470 
# 
# From -- ./inp_files/77511.got.cif
#   From: 2010.06.25/outbox.cif.g09.slc.cpg/sg12_39_cif.got.tgz:77511.got - 2010.06.28 00:19:55.
