data_PCOD8083661
_publ_section_title
;
Structure prediction by ZEFSAII (Michael W. Deem and Ramdas Pophale) SiO2 
 PCOD8083661
Probable space group: C 2/M
;
_chemical_formula_sum "Si O2"
_cell_formula_units_Z 64
_cell_length_a 21.498581
_cell_length_b 28.648962
_cell_length_c 14.905830
_cell_angle_alpha 90.000000
_cell_angle_beta 160.595748
_cell_angle_gamma 90.000000
_cell_volume 3050.107685
_symmetry_space_group_name_H-M "C 2/M"
_symmetry_group_IT_number 12
_symmetry_cell_setting 'monoclinic'
loop_
_space_group_symop_operation_xyz
x,y,z
-x,y,-z
-x,-y,-z
x,-y,z
1/2+x,1/2+y,z
1/2-x,1/2+y,-z
1/2-x,1/2-y,-z
1/2+x,1/2-y,z
loop_
_atom_site_type_symbol
_atom_site_label
_atom_site_fract_x
_atom_site_fract_y
_atom_site_fract_z
Si Si1 0.503236 0.251349 0.256978
Si Si2 0.804530 0.090750 0.206786
Si Si3 0.948163 0.554521 0.650349
Si Si4 0.171437 0.899001 0.408615
Si Si5 0.875264 0.197027 0.744965
Si Si6 0.362920 0.448772 0.897497
Si Si7 0.292619 0.052683 0.745541
Si Si8 0.874974 0.196193 0.249943
O O1 0.695627 0.224148 0.539404
O O2 0.503624 0.270095 0.155665
O O3 0.477067 0.292910 0.294176
O O4 0.333280 0.215774 0.034019
O O5 0.689138 0.084771 0.141107
O O6 0.857409 0.141360 0.242856
O O7 0.000000 0.064372 0.500000
O O8 0.668116 0.068467 0.945461
O O9 0.930043 0.500000 0.636570
O O10 0.837445 0.574477 0.584360
O O11 0.840743 0.570272 0.412688
O O12 0.194640 0.844997 0.413790
O O13 0.184112 0.912902 0.529873
O O14 0.957384 0.913104 0.094275
O O15 0.000000 0.180666 0.000000
O O16 0.341217 0.500000 0.912780
O O17 0.500000 0.452894 0.000000
O O18 0.200704 0.000000 0.631262
O O19 0.500000 0.042592 0.000000
O O20 0.000000 0.218502 0.500000
#
# Coordination Sequence:
#
# PCOD8083661 Si02
#       8
#     8   8   8   8   8   8   8   8
#     4  10  23  42  64  91 122 164 201 263 329 389
#     4  11  24  38  60  89 123 170 213 264 311 380
#     4  10  18  33  55  84 120 161 208 250 306 370
#     4  11  20  33  59  90 128 159 201 259 315 380
#     4  11  23  39  63  98 130 154 204 267 333 383
#     4   8  15  28  51  81 114 157 197 242 302 365
#     4  11  23  39  60  93 132 170 217 269 322 375
#     4  10  22  42  65  85 120 165 217 249 311 388
#
# _framework density 20.982866000000001
#
# number of rings (size 3 to 8) (size 9 to 14) (size 15 to 20)
#    0.000    1.750    1.250    4.875    3.500    1.000 
#    0.000    0.000    0.000    0.750    0.000    2.625 
#    0.000    0.000    0.000    0.000    0.000    0.000 
#
# Total GULP energy -396419.918241 kJ/mol
# GULP energy per Si atom -12388.122445 kJ/mol
# Density = 2.093511 g / cm^3
# Si number density = 20.982866 Si / 1000 Ang^3
#
#
#
# Elastic Constant Matrix: (Units=GPa)
#
#
# Indices 1 2 3 4 5 6 
#
# 1 61.5580 31.0809 26.6116 -0.0001 2.3953 -0.0002
# 2 31.0809 79.6206 34.0353 0.0000 -2.5472 -0.0001
# 3 26.6116 34.0353 136.3223 -0.0004 -1.9789 0.0000
# 4 -0.0001 0.0000 -0.0004 30.5601 -0.0002 -4.1490
# 5 2.3953 -2.5472 -1.9789 -0.0002 27.1975 -0.0001
# 6 -0.0002 -0.0001 0.0000 -4.1490 -0.0001 16.4997
#
#
#
# Elastic Compliance Matrix: (Units=1/GPa)
#
#
# Indices 1 2 3 4 5 6 
#
# 1 0.021044 -0.007309 -0.002323 0.000000 -0.002707 0.000000
# 2 -0.007309 0.016629 -0.002696 0.000000 0.002005 0.000000
# 3 -0.002323 -0.002696 0.008470 0.000000 0.000568 0.000000
# 4 0.000000 0.000000 0.000000 0.033879 0.000000 0.008519
# 5 -0.002707 0.002005 0.000568 0.000000 0.037236 0.000000
# 6 0.000000 0.000000 0.000000 0.008519 0.000000 0.062749
#
#
# Mechanical properties :
#
#
# Convention : Reuss Voigt Hill
#
# Bulk Modulus (GPa) = 46.53465 51.21739 48.87602
# Shear Modulus (GPa) = 23.60433 27.23633 25.42033
#
# Velocity S-wave (km/s) = 3.35764 3.60672 3.48441
# Velocity P-wave (km/s) = 6.10387 6.46581 6.28745
#
# Compressibility (1/GPa) = 0.02148936
#
# Stress axis : x y z
#
# Youngs Moduli (GPa) = 47.51841 60.13525 118.05961
#
# Poissons Ratio (x) = 0.43951 0.27421
# Poissons Ratio (y) = 0.34730 0.31828
# Poissons Ratio (z) = 0.11037 0.16212
#
# Static dielectric constant tensor:
#      x y z
#    x 3.789240 0.000000 -0.384890 
#    y 0.000000 3.670890 0.000000 
#    z -0.384890 0.000000 4.688310 
# 
# 
# High freq. dielectric constant tensor:
#      x y z
#    x 1.795820 0.000000 -0.012360 
#    y 0.000000 1.813000 0.000000 
#    z -0.012360 0.000000 1.840150 
# 
# From -- ./inp_files/236013.got.cif
#   From: 2010.06.25/outbox.cif.g09.slc.cpg/sg12_119_cif.got.tgz:236013.got - 2010.06.28 00:19:55.
