data_PCOD8083311
_publ_section_title
;
Structure prediction by ZEFSAII (Michael W. Deem and Ramdas Pophale) SiO2 
 PCOD8083311
Probable space group: C 2/M
;
_chemical_formula_sum "Si O2"
_cell_formula_units_Z 56
_cell_length_a 23.763376
_cell_length_b 17.626172
_cell_length_c 18.658547
_cell_angle_alpha 90.000000
_cell_angle_beta 22.148986
_cell_angle_gamma 90.000000
_cell_volume 2946.483848
_symmetry_space_group_name_H-M "C 2/M"
_symmetry_group_IT_number 12
_symmetry_cell_setting 'monoclinic'
loop_
_space_group_symop_operation_xyz
x,y,z
-x,y,-z
-x,-y,-z
x,-y,z
1/2+x,1/2+y,z
1/2-x,1/2+y,-z
1/2-x,1/2-y,-z
1/2+x,1/2-y,z
loop_
_atom_site_type_symbol
_atom_site_label
_atom_site_fract_x
_atom_site_fract_y
_atom_site_fract_z
Si Si1 0.578128 0.411099 0.106277
Si Si2 0.092328 0.587607 0.457185
Si Si3 0.764366 0.584160 0.102857
Si Si4 0.383434 0.910440 0.820430
Si Si5 0.439996 0.415482 0.416409
Si Si6 0.871785 0.832969 0.095665
Si Si7 0.336265 0.687599 0.659551
O O1 0.568870 0.500000 0.095378
O O2 0.458024 0.393449 0.310989
O O3 0.742472 0.388274 0.938251
O O4 0.549278 0.355816 0.072354
O O5 0.050082 0.500000 0.509503
O O6 0.270390 0.596234 0.241024
O O7 0.000000 0.624663 0.500000
O O8 0.029261 0.621791 0.607044
O O9 0.818199 0.500000 0.061252
O O10 0.600821 0.579499 0.262450
O O11 0.767511 0.634111 0.169807
O O12 0.871132 0.622771 0.915880
O O13 0.383068 0.000000 0.832713
O O14 0.366676 0.500000 0.509221
O O15 0.344433 0.351678 0.571166
O O16 0.749498 0.766503 0.240773
O O17 0.000000 0.812701 0.000000
O O18 0.500000 0.699106 0.500000
#
# Coordination Sequence:
#
# PCOD8083311 Si02
#       7
#     8   8   8   8   8   8   8
#     4   9  17  33  56  80 105 135 174 219 267 313
#     4  10  18  32  56  79 101 134 176 222 263 308
#     4   8  14  28  54  86 110 126 161 222 274 311
#     4   8  14  27  52  84 106 124 159 215 273 312
#     4   8  15  31  58  86 106 128 170 226 271 310
#     4  12  25  37  48  72 110 152 180 212 259 314
#     4  10  20  35  54  82 107 138 178 214 260 314
#
# _framework density 19.005704000000001
#
# number of rings (size 3 to 8) (size 9 to 14) (size 15 to 20)
#    0.000    2.714    1.429    3.000    0.000    2.857 
#    2.571    2.857    0.000    1.714    0.000    0.000 
#    0.000    0.000    0.000    0.000    0.000    0.000 
#
# Total GULP energy -346874.425235 kJ/mol
# GULP energy per Si atom -12388.372330 kJ/mol
# Density = 1.896245 g / cm^3
# Si number density = 19.005704 Si / 1000 Ang^3
#
#
#
# Elastic Constant Matrix: (Units=GPa)
#
#
# Indices 1 2 3 4 5 6 
#
# 1 84.0235 37.4288 57.9873 0.0008 30.1057 0.0038
# 2 37.4288 57.5324 31.6420 0.0029 18.9563 -0.0022
# 3 57.9873 31.6420 82.9180 0.0085 32.7554 -0.0191
# 4 0.0008 0.0029 0.0085 9.4393 -0.0081 5.6122
# 5 30.1057 18.9563 32.7554 -0.0081 40.5963 0.0114
# 6 0.0038 -0.0022 -0.0191 5.6122 0.0114 10.4112
#
#
#
# Elastic Compliance Matrix: (Units=1/GPa)
#
#
# Indices 1 2 3 4 5 6 
#
# 1 0.026755 -0.008291 -0.013560 0.000039 -0.005028 -0.000052
# 2 -0.008291 0.025322 -0.002382 -0.000019 -0.003754 0.000018
# 3 -0.013560 -0.002382 0.026481 -0.000101 -0.010198 0.000119
# 4 0.000039 -0.000019 -0.000101 0.155909 0.000117 -0.084043
# 5 -0.005028 -0.003754 -0.010198 0.000117 0.038343 -0.000122
# 6 -0.000052 0.000018 0.000119 -0.084043 -0.000122 0.141354
#
#
# Mechanical properties :
#
#
# Convention : Reuss Voigt Hill
#
# Bulk Modulus (GPa) = 33.23249 53.17666 43.20458
# Shear Modulus (GPa) = 10.57841 18.58372 14.58107
#
# Velocity S-wave (km/s) = 2.36178 3.13037 2.77283
# Velocity P-wave (km/s) = 4.99608 6.41137 5.74746
#
# Compressibility (1/GPa) = 0.03009103
#
# Stress axis : x y z
#
# Youngs Moduli (GPa) = 37.37652 39.49072 37.76330
#
# Poissons Ratio (x) = 0.32742 0.51208
# Poissons Ratio (y) = 0.30990 0.08996
# Poissons Ratio (z) = 0.50683 0.09407
#
# Static dielectric constant tensor:
#      x y z
#    x 3.355810 0.000000 0.624500 
#    y 0.000000 3.386870 0.000010 
#    z 0.624500 0.000010 3.578830 
# 
# 
# High freq. dielectric constant tensor:
#      x y z
#    x 1.707170 0.000000 0.050650 
#    y 0.000000 1.719100 0.000000 
#    z 0.050650 0.000000 1.724270 
# 
# From -- ./inp_files/328536.got.cif
#   From: 2010.06.25/outbox.cif.g09.slc.cpg/sg12_165_cif.got.tgz:328536.got - 2010.06.28 00:19:55.
