data_PCOD8083990
_publ_section_title
;
Structure prediction by ZEFSAII (Michael W. Deem and Ramdas Pophale) SiO2 
 PCOD8083990
Probable space group: C 2/M
;
_chemical_formula_sum "Si O2"
_cell_formula_units_Z 56
_cell_length_a 9.251612
_cell_length_b 27.063759
_cell_length_c 13.946495
_cell_angle_alpha 90.000000
_cell_angle_beta 61.698369
_cell_angle_gamma 90.000000
_cell_volume 3074.554083
_symmetry_space_group_name_H-M "C 2/M"
_symmetry_group_IT_number 12
_symmetry_cell_setting 'monoclinic'
loop_
_space_group_symop_operation_xyz
x,y,z
-x,y,-z
-x,-y,-z
x,-y,z
1/2+x,1/2+y,z
1/2-x,1/2+y,-z
1/2-x,1/2-y,-z
1/2+x,1/2-y,z
loop_
_atom_site_type_symbol
_atom_site_label
_atom_site_fract_x
_atom_site_fract_y
_atom_site_fract_z
Si Si1 0.314699 0.213926 0.090808
Si Si2 0.151965 0.800904 0.333349
Si Si3 0.334044 0.129075 0.730319
Si Si4 0.806617 0.555264 0.578204
Si Si5 0.206477 0.365850 0.565093
Si Si6 0.219431 0.794945 0.619589
Si Si7 0.190799 0.176282 0.947945
O O1 0.289656 0.196204 0.207399
O O2 0.241679 0.269540 0.105791
O O3 0.500000 0.216500 0.000000
O O4 0.228458 0.173294 0.049574
O O5 0.162261 0.851329 0.393261
O O6 0.203152 0.759236 0.394565
O O7 0.974338 0.793097 0.343213
O O8 0.266753 0.081185 0.693107
O O9 0.530037 0.127422 0.668773
O O10 0.250677 0.177416 0.709838
O O11 0.278298 0.132514 0.859107
O O12 0.733086 0.500000 0.602748
O O13 0.729442 0.585689 0.512729
O O14 0.000000 0.554838 0.500000
O O15 0.181761 0.322473 0.494915
O O16 0.000000 0.168643 0.000000
#
# Coordination Sequence:
#
# PCOD8083990 Si02
#       7
#     8   8   8   8   8   8   8
#     4  10  21  31  47  65  95 133 177 210 238 280
#     4  12  22  33  48  69 102 140 172 210 242 292
#     4  10  18  34  55  73  99 130 167 207 253 299
#     4   8  16  32  55  81 101 122 158 207 254 305
#     4  10  21  33  50  73 101 130 165 204 249 304
#     4  11  22  33  46  69 101 138 171 203 242 292
#     4  10  19  32  48  68  94 131 170 209 245 281
#
# _framework density 18.214023999999998
#
# number of rings (size 3 to 8) (size 9 to 14) (size 15 to 20)
#    0.000    1.857    1.429    4.714    4.000    1.143 
#    0.000    0.000    0.000    7.286    0.000    1.000 
#    0.000    5.714    0.000    0.000    0.000    0.000 
#
# Total GULP energy -347037.503248 kJ/mol
# GULP energy per Si atom -12394.196545 kJ/mol
# Density = 1.817257 g / cm^3
# Si number density = 18.214024 Si / 1000 Ang^3
#
#
#
# Elastic Constant Matrix: (Units=GPa)
#
#
# Indices 1 2 3 4 5 6 
#
# 1 48.5345 17.6461 -16.8845 0.0000 -0.0117 0.0000
# 2 17.6461 91.9913 31.2249 0.0000 10.6643 0.0000
# 3 -16.8845 31.2249 74.6981 0.0000 5.3901 0.0000
# 4 0.0000 0.0000 0.0000 40.9923 0.0000 -1.9604
# 5 -0.0117 10.6643 5.3901 0.0000 24.6028 0.0000
# 6 0.0000 0.0000 0.0000 -1.9604 0.0000 17.1747
#
#
#
# Elastic Compliance Matrix: (Units=1/GPa)
#
#
# Indices 1 2 3 4 5 6 
#
# 1 0.027101 -0.008658 0.009625 0.000000 0.001657 0.000000
# 2 -0.008658 0.015921 -0.008244 0.000000 -0.005099 0.000000
# 3 0.009625 -0.008244 0.019052 0.000000 -0.000596 0.000000
# 4 0.000000 0.000000 0.000000 0.024529 0.000000 0.002800
# 5 0.001657 -0.005099 -0.000596 0.000000 0.042987 0.000000
# 6 0.000000 0.000000 0.000000 0.002800 0.000000 0.058545
#
#
# Mechanical properties :
#
#
# Convention : Reuss Voigt Hill
#
# Bulk Modulus (GPa) = 21.04373 31.02187 26.03280
# Shear Modulus (GPa) = 22.88041 28.76979 25.82510
#
# Velocity S-wave (km/s) = 3.54813 3.97866 3.76955
# Velocity P-wave (km/s) = 5.32582 6.17860 5.76799
#
# Compressibility (1/GPa) = 0.04752009
#
# Stress axis : x y z
#
# Youngs Moduli (GPa) = 36.89960 62.81095 52.48781
#
# Poissons Ratio (x) = 0.54380 -0.50521
# Poissons Ratio (y) = 0.31947 0.43272
# Poissons Ratio (z) = -0.35517 0.51782
#
# Static dielectric constant tensor:
#      x y z
#    x 3.082980 0.000000 0.025270 
#    y 0.000000 3.314210 0.000000 
#    z 0.025270 0.000000 3.240390 
# 
# 
# High freq. dielectric constant tensor:
#      x y z
#    x 1.704730 0.000000 0.009710 
#    y 0.000000 1.651730 0.000000 
#    z 0.009710 0.000000 1.709650 
# 
# From -- ./inp_files/185135.got.cif
#   From: 2010.06.25/outbox.cif.g09.slc.cpg/sg12_93_cif.got.tgz:185135.got - 2010.06.28 00:19:55.
