data_PCOD8083031
_publ_section_title
;
Structure prediction by ZEFSAII (Michael W. Deem and Ramdas Pophale) SiO2 
 PCOD8083031
Probable space group: C 2/M
;
_chemical_formula_sum "Si O2"
_cell_formula_units_Z 64
_cell_length_a 15.822776
_cell_length_b 17.389471
_cell_length_c 13.820342
_cell_angle_alpha 90.000000
_cell_angle_beta 121.953933
_cell_angle_gamma 90.000000
_cell_volume 3226.460274
_symmetry_space_group_name_H-M "C 2/M"
_symmetry_group_IT_number 12
_symmetry_cell_setting 'monoclinic'
loop_
_space_group_symop_operation_xyz
x,y,z
-x,y,-z
-x,-y,-z
x,-y,z
1/2+x,1/2+y,z
1/2-x,1/2+y,-z
1/2-x,1/2-y,-z
1/2+x,1/2-y,z
loop_
_atom_site_type_symbol
_atom_site_label
_atom_site_fract_x
_atom_site_fract_y
_atom_site_fract_z
Si Si1 0.526708 0.188899 0.794426
Si Si2 0.134569 0.767871 0.186628
Si Si3 0.385282 0.345187 0.228669
Si Si4 0.310755 0.806759 0.970858
Si Si5 0.234495 0.913574 0.497822
Si Si6 0.435204 0.414218 0.757925
Si Si7 0.829325 0.210478 0.392793
Si Si8 0.932730 0.351886 0.545474
O O1 0.423944 0.203812 0.787659
O O2 0.578747 0.267937 0.799378
O O3 0.501734 0.141948 0.682751
O O4 0.606888 0.146690 0.914712
O O5 0.129494 0.744978 0.071209
O O6 0.084406 0.852298 0.168878
O O7 0.249350 0.766534 0.292201
O O8 0.269480 0.363383 0.129690
O O9 0.457143 0.410966 0.229961
O O10 0.393136 0.335021 0.349881
O O11 0.250000 0.750000 0.000000
O O12 0.144451 0.895620 0.372419
O O13 0.229535 0.852056 0.580242
O O14 0.337006 0.905120 0.501084
O O15 0.227736 0.000000 0.535709
O O16 0.422466 0.500000 0.793513
O O17 0.900449 0.263455 0.502597
O O18 0.000000 0.385505 0.500000
#
# Coordination Sequence:
#
# PCOD8083031 Si02
#       8
#     8   8   8   8   8   8   8   8
#     4  10  18  32  52  86 112 143 186 241 291 330
#     4  10  18  33  59  83 113 152 192 244 287 337
#     4   9  19  33  54  84 112 146 188 237 293 330
#     4   9  19  32  53  83 115 138 187 252 287 329
#     4  11  24  37  52  82 123 160 190 230 288 356
#     4  10  21  36  56  84 123 157 190 230 288 358
#     4  11  19  34  57  86 113 148 196 240 287 335
#     4  12  22  35  61  86 117 150 194 242 287 347
#
# _framework density 19.835978999999998
#
# number of rings (size 3 to 8) (size 9 to 14) (size 15 to 20)
#    0.000    1.750    3.750    2.250    0.000    0.750 
#    0.000    1.250    0.000   14.250    0.000    3.500 
#    0.000    0.000    0.000    0.000    0.000    0.000 
#
# Total GULP energy -396646.056662 kJ/mol
# GULP energy per Si atom -12395.189271 kJ/mol
# Density = 1.979083 g / cm^3
# Si number density = 19.835979 Si / 1000 Ang^3
#
#
#
# Elastic Constant Matrix: (Units=GPa)
#
#
# Indices 1 2 3 4 5 6 
#
# 1 115.7563 17.5964 40.0859 0.0000 -10.9570 0.0000
# 2 17.5964 40.6308 21.0053 0.0000 -2.2520 0.0000
# 3 40.0859 21.0053 119.3678 0.0000 4.1375 0.0000
# 4 0.0000 0.0000 0.0000 9.4711 0.0000 -0.6967
# 5 -10.9570 -2.2520 4.1375 0.0000 36.6082 0.0000
# 6 0.0000 0.0000 0.0000 -0.6967 0.0000 20.0499
#
#
#
# Elastic Compliance Matrix: (Units=1/GPa)
#
#
# Indices 1 2 3 4 5 6 
#
# 1 0.010456 -0.002717 -0.003148 0.000000 0.003318 0.000000
# 2 -0.002717 0.027961 -0.004055 0.000000 0.001365 0.000000
# 3 -0.003148 -0.004055 0.010230 0.000000 -0.002348 0.000000
# 4 0.000000 0.000000 0.000000 0.105855 0.000000 0.003678
# 5 0.003318 0.001365 -0.002348 0.000000 0.028659 0.000000
# 6 0.000000 0.000000 0.000000 0.003678 0.000000 0.050003
#
#
# Mechanical properties :
#
#
# Convention : Reuss Voigt Hill
#
# Bulk Modulus (GPa) = 34.71525 48.12555 41.42040
# Shear Modulus (GPa) = 19.03991 26.36366 22.70178
#
# Velocity S-wave (km/s) = 3.10153 3.64961 3.38668
# Velocity P-wave (km/s) = 5.51046 6.48645 6.01827
#
# Compressibility (1/GPa) = 0.02880578
#
# Stress axis : x y z
#
# Youngs Moduli (GPa) = 95.63738 35.76459 97.75448
#
# Poissons Ratio (x) = 0.09717 0.30776
# Poissons Ratio (y) = 0.25983 0.39642
# Poissons Ratio (z) = 0.30110 0.14503
#
# Static dielectric constant tensor:
#      x y z
#    x 4.157360 0.000000 0.416420 
#    y 0.000000 3.076050 0.000000 
#    z 0.416420 0.000000 4.234130 
# 
# 
# High freq. dielectric constant tensor:
#      x y z
#    x 1.794650 0.000000 0.007640 
#    y 0.000000 1.708420 0.000000 
#    z 0.007640 0.000000 1.780090 
# 
# From -- ./inp_files/216390.got.cif
#   From: 2010.06.25/outbox.cif.g09.slc.cpg/sg12_109_cif.got.tgz:216390.got - 2010.06.28 00:19:55.
