data_PCOD8083045
_publ_section_title
;
Structure prediction by ZEFSAII (Michael W. Deem and Ramdas Pophale) SiO2 
 PCOD8083045
Probable space group: C 2/M
;
_chemical_formula_sum "Si O2"
_cell_formula_units_Z 64
_cell_length_a 20.747670
_cell_length_b 9.203719
_cell_length_c 20.246092
_cell_angle_alpha 90.000000
_cell_angle_beta 112.928700
_cell_angle_gamma 90.000000
_cell_volume 3560.647487
_symmetry_space_group_name_H-M "C 2/M"
_symmetry_group_IT_number 12
_symmetry_cell_setting 'monoclinic'
loop_
_space_group_symop_operation_xyz
x,y,z
-x,y,-z
-x,-y,-z
x,-y,z
1/2+x,1/2+y,z
1/2-x,1/2+y,-z
1/2-x,1/2-y,-z
1/2+x,1/2-y,z
loop_
_atom_site_type_symbol
_atom_site_label
_atom_site_fract_x
_atom_site_fract_y
_atom_site_fract_z
Si Si1 0.791613 0.172671 0.772914
Si Si2 0.633469 0.827339 0.704865
Si Si3 0.546957 0.672014 0.921350
Si Si4 0.538707 0.828193 0.786917
Si Si5 0.077483 0.673198 0.543562
Si Si6 0.677138 0.169512 0.467081
Si Si7 0.379448 0.831016 0.699224
Si Si8 0.901064 0.171480 0.920901
O O1 0.712392 0.228677 0.747663
O O2 0.826437 0.239782 0.722223
O O3 0.832002 0.226403 0.855200
O O4 0.795416 0.000000 0.766787
O O5 0.584251 0.769471 0.743792
O O6 0.605155 0.765074 0.624288
O O7 0.631726 0.000000 0.702465
O O8 0.549358 0.500000 0.909924
O O9 0.570572 0.754043 0.864854
O O10 0.469392 0.728375 0.909500
O O11 0.598637 0.720336 0.002116
O O12 0.458692 0.780134 0.744025
O O13 0.545762 0.000000 0.796956
O O14 0.075631 0.500000 0.543354
O O15 0.128229 0.729556 0.506131
O O16 0.000000 0.735466 0.500000
O O17 0.750000 0.250000 0.500000
O O18 0.637588 0.202631 0.383341
O O19 0.692022 0.000000 0.481928
O O20 0.369917 0.000000 0.712213
O O21 0.906214 0.000000 0.922109
#
# Coordination Sequence:
#
# PCOD8083045 Si02
#       8
#     8   8   8   8   8   8   8   8
#     4  10  18  32  53  74  95 126 167 203 235 281
#     4   9  18  30  47  70  96 125 160 200 238 279
#     4   9  16  30  50  72  96 125 164 201 234 277
#     4  10  19  32  48  72 102 129 156 195 245 290
#     4   9  16  29  49  70  92 125 166 199 229 279
#     4  10  20  33  50  73  98 125 159 201 246 287
#     4  10  20  32  48  72 102 128 153 196 251 294
#     4   8  15  28  49  73  96 123 160 203 237 273
#
# _framework density 17.974259
#
# number of rings (size 3 to 8) (size 9 to 14) (size 15 to 20)
#    0.000    2.625    1.250    2.250    0.000    4.500 
#    0.000    3.125    0.000    1.125    0.000    0.000 
#    0.000    0.000    0.000    0.000    0.000    0.000 
#
# Total GULP energy -396745.588439 kJ/mol
# GULP energy per Si atom -12398.299639 kJ/mol
# Density = 1.793335 g / cm^3
# Si number density = 17.974259 Si / 1000 Ang^3
#
#
#
# Elastic Constant Matrix: (Units=GPa)
#
#
# Indices 1 2 3 4 5 6 
#
# 1 137.0032 25.1642 75.0977 0.0000 -5.5278 0.0000
# 2 25.1642 20.6983 27.0419 0.0000 -4.8658 0.0000
# 3 75.0977 27.0419 161.1021 0.0000 -8.1031 0.0000
# 4 0.0000 0.0000 0.0000 23.2671 0.0000 -4.4843
# 5 -5.5278 -4.8658 -8.1031 0.0000 33.2237 0.0000
# 6 0.0000 0.0000 0.0000 -4.4843 0.0000 19.8513
#
#
#
# Elastic Compliance Matrix: (Units=1/GPa)
#
#
# Indices 1 2 3 4 5 6 
#
# 1 0.010845 -0.008500 -0.003645 0.000000 -0.000330 0.000000
# 2 -0.008500 0.070015 -0.007437 0.000000 0.007026 0.000000
# 3 -0.003645 -0.007437 0.009182 0.000000 0.000544 0.000000
# 4 0.000000 0.000000 0.000000 0.044935 0.000000 0.010151
# 5 -0.000330 0.007026 0.000544 0.000000 0.031206 0.000000
# 6 0.000000 0.000000 0.000000 0.010151 0.000000 0.052668
#
#
# Mechanical properties :
#
#
# Convention : Reuss Voigt Hill
#
# Bulk Modulus (GPa) = 19.65490 63.71236 41.68363
# Shear Modulus (GPa) = 18.18350 28.03506 23.10928
#
# Velocity S-wave (km/s) = 3.18408 3.95363 3.58954
# Velocity P-wave (km/s) = 4.94738 7.50766 6.35774
#
# Compressibility (1/GPa) = 0.05087791
#
# Stress axis : x y z
#
# Youngs Moduli (GPa) = 92.20642 14.28272 108.90733
#
# Poissons Ratio (x) = 0.12141 0.39700
# Poissons Ratio (y) = 0.78377 0.80990
# Poissons Ratio (z) = 0.33612 0.10621
#
# Static dielectric constant tensor:
#      x y z
#    x 3.351420 0.000000 -0.033730 
#    y 0.000000 2.868290 0.000000 
#    z -0.033730 0.000000 3.450880 
# 
# 
# High freq. dielectric constant tensor:
#      x y z
#    x 1.691000 0.000000 -0.001520 
#    y 0.000000 1.647610 0.000000 
#    z -0.001520 0.000000 1.716560 
# 
# From -- ./inp_files/320027.got.cif
#   From: 2010.06.25/outbox.cif.g09.slc.cpg/sg12_161_cif.got.tgz:320027.got - 2010.06.28 00:19:55.
