data_PCOD8083302
_publ_section_title
;
Structure prediction by ZEFSAII (Michael W. Deem and Ramdas Pophale) SiO2 
 PCOD8083302
Probable space group: C 2/M
;
_chemical_formula_sum "Si O2"
_cell_formula_units_Z 64
_cell_length_a 20.594701
_cell_length_b 8.972787
_cell_length_c 21.838932
_cell_angle_alpha 90.000000
_cell_angle_beta 61.905786
_cell_angle_gamma 90.000000
_cell_volume 3560.153384
_symmetry_space_group_name_H-M "C 2/M"
_symmetry_group_IT_number 12
_symmetry_cell_setting 'monoclinic'
loop_
_space_group_symop_operation_xyz
x,y,z
-x,y,-z
-x,-y,-z
x,-y,z
1/2+x,1/2+y,z
1/2-x,1/2+y,-z
1/2-x,1/2-y,-z
1/2+x,1/2-y,z
loop_
_atom_site_type_symbol
_atom_site_label
_atom_site_fract_x
_atom_site_fract_y
_atom_site_fract_z
Si Si1 0.427662 0.176807 0.653892
Si Si2 0.920646 0.823423 0.052807
Si Si3 0.680545 0.823499 0.659058
Si Si4 0.774090 0.822799 0.052168
Si Si5 0.154302 0.175174 0.791226
Si Si6 0.699557 0.176468 0.206336
Si Si7 0.908410 0.322880 0.418938
Si Si8 0.662866 0.823782 0.423722
O O1 0.377000 0.240206 0.732196
O O2 0.509336 0.244780 0.622874
O O3 0.394392 0.222959 0.603336
O O4 0.430548 0.000000 0.657710
O O5 0.856029 0.767903 0.035603
O O6 0.903325 0.777543 0.130426
O O7 0.923141 0.000000 0.046836
O O8 0.000000 0.753321 0.000000
O O9 0.635463 0.765083 0.738011
O O10 0.638150 0.765535 0.617896
O O11 0.761275 0.756681 0.623122
O O12 0.684648 0.000000 0.658778
O O13 0.716280 0.767173 0.130012
O O14 0.772408 0.000000 0.046106
O O15 0.750000 0.750000 0.000000
O O16 0.235416 0.224541 0.776845
O O17 0.150290 0.000000 0.779363
O O18 0.697949 0.000000 0.205265
O O19 0.912953 0.500000 0.418901
O O20 0.869800 0.264866 0.497765
O O21 0.677088 0.000000 0.417813
#
# Coordination Sequence:
#
# PCOD8083302 Si02
#       8
#     8   8   8   8   8   8   8   8
#     4   9  15  28  52  75  93 117 162 210 239 269
#     4   8  15  30  53  76  97 125 163 205 240 275
#     4  11  21  32  46  71 106 132 153 190 251 300
#     4   9  17  30  49  73 100 126 159 196 237 284
#     4   9  16  31  54  75  92 123 173 207 227 272
#     4   8  14  27  49  73  91 119 163 203 230 267
#     4   9  19  31  45  73 103 124 153 203 251 286
#     4  10  18  32  56  75  88 120 172 208 232 278
#
# _framework density 17.976755000000001
#
# number of rings (size 3 to 8) (size 9 to 14) (size 15 to 20)
#    0.000    2.875    1.250    2.625    0.000    1.500 
#    2.250    3.125    0.000    3.750    0.000    0.000 
#    0.000    0.000    0.000    0.000    0.000    0.000 
#
# Total GULP energy -396634.485453 kJ/mol
# GULP energy per Si atom -12394.827670 kJ/mol
# Density = 1.793584 g / cm^3
# Si number density = 17.976755 Si / 1000 Ang^3
#
#
#
# Elastic Constant Matrix: (Units=GPa)
#
#
# Indices 1 2 3 4 5 6 
#
# 1 87.8266 24.1819 65.2189 0.0001 5.2455 0.0001
# 2 24.1819 23.9159 24.1140 0.0003 3.6975 0.0001
# 3 65.2189 24.1140 155.4476 0.0000 6.2466 0.0001
# 4 0.0001 0.0003 0.0000 20.9905 0.0000 8.0719
# 5 5.2455 3.6975 6.2466 0.0000 35.4023 0.0001
# 6 0.0001 0.0001 0.0001 8.0719 0.0001 16.0118
#
#
#
# Elastic Compliance Matrix: (Units=1/GPa)
#
#
# Indices 1 2 3 4 5 6 
#
# 1 0.019746 -0.013710 -0.006141 0.000000 -0.000410 0.000000
# 2 -0.013710 0.059611 -0.003350 -0.000001 -0.003603 0.000000
# 3 -0.006141 -0.003350 0.009546 0.000000 -0.000425 0.000000
# 4 0.000000 -0.000001 0.000000 0.059097 0.000000 -0.029792
# 5 -0.000410 -0.003603 -0.000425 0.000000 0.028759 0.000000
# 6 0.000000 0.000000 0.000000 -0.029792 0.000000 0.077473
#
#
# Mechanical properties :
#
#
# Convention : Reuss Voigt Hill
#
# Bulk Modulus (GPa) = 23.52938 54.91328 39.22133
# Shear Modulus (GPa) = 15.88302 24.72592 20.30447
#
# Velocity S-wave (km/s) = 2.97565 3.71271 3.36443
# Velocity P-wave (km/s) = 4.99231 6.99944 6.07928
#
# Compressibility (1/GPa) = 0.04250006
#
# Stress axis : x y z
#
# Youngs Moduli (GPa) = 50.64366 16.77552 104.75152
#
# Poissons Ratio (x) = 0.22999 0.64330
# Poissons Ratio (y) = 0.69432 0.35095
# Poissons Ratio (z) = 0.31101 0.05620
#
# Static dielectric constant tensor:
#      x y z
#    x 3.470680 0.000000 -0.145760 
#    y 0.000000 2.788390 0.000000 
#    z -0.145760 0.000000 3.846510 
# 
# 
# High freq. dielectric constant tensor:
#      x y z
#    x 1.690200 0.000000 0.000250 
#    y 0.000000 1.639470 0.000000 
#    z 0.000250 0.000000 1.715410 
# 
# From -- ./inp_files/345523.got.cif
#   From: 2010.06.25/outbox.cif.g09.slc.cpg/sg12_173_cif.got.tgz:345523.got - 2010.06.28 00:19:55.
