data_PCOD8083526
_publ_section_title
;
Structure prediction by ZEFSAII (Michael W. Deem and Ramdas Pophale) SiO2 
 PCOD8083526
Probable space group: C 2/M
;
_chemical_formula_sum "Si O2"
_cell_formula_units_Z 56
_cell_length_a 21.312454
_cell_length_b 17.441799
_cell_length_c 16.661851
_cell_angle_alpha 90.000000
_cell_angle_beta 148.665935
_cell_angle_gamma 90.000000
_cell_volume 3220.875259
_symmetry_space_group_name_H-M "C 2/M"
_symmetry_group_IT_number 12
_symmetry_cell_setting 'monoclinic'
loop_
_space_group_symop_operation_xyz
x,y,z
-x,y,-z
-x,-y,-z
x,-y,z
1/2+x,1/2+y,z
1/2-x,1/2+y,-z
1/2-x,1/2-y,-z
1/2+x,1/2-y,z
loop_
_atom_site_type_symbol
_atom_site_label
_atom_site_fract_x
_atom_site_fract_y
_atom_site_fract_z
Si Si1 0.608478 0.082894 0.298212
Si Si2 0.546889 0.305765 0.844175
Si Si3 0.147121 0.917928 0.342080
Si Si4 0.413317 0.784987 0.836797
Si Si5 0.735326 0.092813 0.848673
Si Si6 0.730775 0.839969 0.666723
Si Si7 0.516845 0.833210 0.701425
O O1 0.730327 0.072815 0.478195
O O2 0.638629 0.138187 0.258162
O O3 0.507937 0.117515 0.246673
O O4 0.563014 0.000000 0.217646
O O5 0.439544 0.362845 0.701770
O O6 0.496324 0.261722 0.865882
O O7 0.567865 0.249234 0.790344
O O8 0.660820 0.358014 0.993460
O O9 0.178206 0.889949 0.286928
O O10 0.081665 0.000000 0.261862
O O11 0.298433 0.741197 0.748697
O O12 0.500000 0.813841 0.000000
O O13 0.720547 0.116617 0.739872
O O14 0.612450 0.118729 0.755880
O O15 0.754298 0.000000 0.876566
O O16 0.601580 0.824144 0.483804
#
# Coordination Sequence:
#
# PCOD8083526 Si02
#       7
#     8   8   8   8   8   8   8
#     4   9  18  32  52  76  99 130 170 213 255 295
#     4  10  20  35  52  75 102 139 172 210 251 302
#     4   9  17  31  52  77 104 130 164 208 256 306
#     4  10  18  33  52  73 102 129 167 215 258 301
#     4  12  23  34  52  79 110 138 168 210 260 308
#     4  10  20  34  52  78 104 139 168 206 254 309
#     4  10  21  36  53  71 104 141 180 203 241 307
#
# _framework density 17.386579000000001
#
# number of rings (size 3 to 8) (size 9 to 14) (size 15 to 20)
#    0.000    2.000    1.429    3.000    0.000    6.000 
#    0.000    2.143    0.000    0.000    0.000    0.000 
#    0.000    6.857    0.000    0.000    0.000    0.000 
#
# Total GULP energy -346897.036077 kJ/mol
# GULP energy per Si atom -12389.179860 kJ/mol
# Density = 1.734701 g / cm^3
# Si number density = 17.386579 Si / 1000 Ang^3
#
#
#
# Elastic Constant Matrix: (Units=GPa)
#
#
# Indices 1 2 3 4 5 6 
#
# 1 57.4451 45.2160 22.5222 0.0000 2.1388 0.0000
# 2 45.2160 138.9760 40.6052 0.0000 -5.5912 0.0000
# 3 22.5222 40.6052 47.7853 0.0001 0.8376 0.0000
# 4 0.0000 0.0000 0.0001 31.9041 0.0000 -3.9042
# 5 2.1388 -5.5912 0.8376 0.0000 22.5785 0.0000
# 6 0.0000 0.0000 0.0000 -3.9042 0.0000 18.5092
#
#
#
# Elastic Compliance Matrix: (Units=1/GPa)
#
#
# Indices 1 2 3 4 5 6 
#
# 1 0.025110 -0.006494 -0.006251 0.000000 -0.003755 0.000000
# 2 -0.006494 0.011416 -0.006704 0.000000 0.003691 0.000000
# 3 -0.006251 -0.006704 0.029608 0.000000 -0.002167 0.000000
# 4 0.000000 0.000000 0.000000 0.032174 0.000000 0.006787
# 5 -0.003755 0.003691 -0.002167 0.000000 0.045640 0.000000
# 6 0.000000 0.000000 0.000000 0.006787 0.000000 0.055459
#
#
# Mechanical properties :
#
#
# Convention : Reuss Voigt Hill
#
# Bulk Modulus (GPa) = 36.71694 51.21037 43.96366
# Shear Modulus (GPa) = 20.21152 23.65590 21.93371
#
# Velocity S-wave (km/s) = 3.41321 3.69261 3.55566
# Velocity P-wave (km/s) = 6.05782 6.90640 6.49598
#
# Compressibility (1/GPa) = 0.02723538
#
# Stress axis : x y z
#
# Youngs Moduli (GPa) = 39.82435 87.59836 33.77497
#
# Poissons Ratio (x) = 0.56890 0.21111
# Poissons Ratio (y) = 0.25864 0.22643
# Poissons Ratio (z) = 0.24892 0.58727
#
# Static dielectric constant tensor:
#      x y z
#    x 3.161510 0.000000 0.018400 
#    y 0.000000 4.020330 0.000000 
#    z 0.018400 0.000000 3.215850 
# 
# 
# High freq. dielectric constant tensor:
#      x y z
#    x 1.654400 0.000000 0.003520 
#    y 0.000000 1.683480 0.000000 
#    z 0.003520 0.000000 1.672640 
# 
# From -- ./inp_files/157718.got.cif
#   From: 2010.06.25/outbox.cif.g09.slc.cpg/sg12_79_cif.got.tgz:157718.got - 2010.06.28 00:19:55.
