data_PCOD8083436
_publ_section_title
;
Structure prediction by ZEFSAII (Michael W. Deem and Ramdas Pophale) SiO2 
 PCOD8083436
Probable space group: C 2/M
;
_chemical_formula_sum "Si O2"
_cell_formula_units_Z 52
_cell_length_a 16.964282
_cell_length_b 21.131039
_cell_length_c 10.513830
_cell_angle_alpha 90.000000
_cell_angle_beta 47.422918
_cell_angle_gamma 90.000000
_cell_volume 2775.313574
_symmetry_space_group_name_H-M "C 2/M"
_symmetry_group_IT_number 12
_symmetry_cell_setting 'monoclinic'
loop_
_space_group_symop_operation_xyz
x,y,z
-x,y,-z
-x,-y,-z
x,-y,z
1/2+x,1/2+y,z
1/2-x,1/2+y,-z
1/2-x,1/2-y,-z
1/2+x,1/2-y,z
loop_
_atom_site_type_symbol
_atom_site_label
_atom_site_fract_x
_atom_site_fract_y
_atom_site_fract_z
Si Si1 0.363421 0.072182 0.833100
Si Si2 0.269762 0.653982 0.565250
Si Si3 0.210774 0.289195 0.362835
Si Si4 0.437375 0.426941 0.250051
Si Si5 0.657563 0.610209 0.904968
Si Si6 0.378500 0.073354 0.100026
Si Si7 0.500000 0.149618 0.500000
O O1 0.253669 0.076589 0.874201
O O2 0.462525 0.106590 0.658098
O O3 0.399526 0.000000 0.804821
O O4 0.349191 0.099631 0.991298
O O5 0.219045 0.680028 0.491874
O O6 0.286415 0.713469 0.640270
O O7 0.378702 0.614511 0.421857
O O8 0.188789 0.607018 0.718927
O O9 0.306092 0.317837 0.169637
O O10 0.095992 0.305605 0.434051
O O11 0.454138 0.500000 0.274953
O O12 0.367166 0.427882 0.197734
O O13 0.550999 0.391437 0.106788
O O14 0.350262 0.000000 0.140642
O O15 0.500000 0.088015 0.000000
#
# Coordination Sequence:
#
# PCOD8083436 Si02
#       7
#     8   8   8   8   8   8   4
#     4  10  19  33  55  82 111 138 177 226 273 322
#     4  10  20  38  54  79 108 147 180 217 265 327
#     4   9  20  37  55  76 109 139 185 224 264 321
#     4  10  18  32  58  83 108 140 178 227 274 319
#     4   9  18  34  53  82 110 138 179 227 275 314
#     4  10  21  37  55  80 110 141 178 217 270 329
#     4  10  19  36  56  80 105 140 182 230 272 306
#
# _framework density 18.736619999999998
#
# number of rings (size 3 to 8) (size 9 to 14) (size 15 to 20)
#    0.000    2.308    0.000    3.462    0.000    0.000 
#   13.846    6.154    0.000    2.769    0.000    0.000 
#    0.000    0.000    0.000    0.000    0.000    0.000 
#
# Total GULP energy -322353.921963 kJ/mol
# GULP energy per Si atom -12398.227768 kJ/mol
# Density = 1.869397 g / cm^3
# Si number density = 18.736620 Si / 1000 Ang^3
#
#
#
# Elastic Constant Matrix: (Units=GPa)
#
#
# Indices 1 2 3 4 5 6 
#
# 1 67.8597 12.9176 38.4513 0.0000 -17.5259 0.0000
# 2 12.9176 152.6388 45.0174 0.0000 6.8918 0.0000
# 3 38.4513 45.0174 166.5696 0.0000 -28.9432 0.0000
# 4 0.0000 0.0000 0.0000 22.8320 0.0000 1.5314
# 5 -17.5259 6.8918 -28.9432 0.0000 28.8411 0.0000
# 6 0.0000 0.0000 0.0000 1.5314 0.0000 12.8392
#
#
#
# Elastic Compliance Matrix: (Units=1/GPa)
#
#
# Indices 1 2 3 4 5 6 
#
# 1 0.018728 -0.001315 -0.002344 0.000000 0.009342 0.000000
# 2 -0.001315 0.007704 -0.002710 0.000000 -0.005359 0.000000
# 3 -0.002344 -0.002710 0.008650 0.000000 0.007904 0.000000
# 4 0.000000 0.000000 0.000000 0.044151 0.000000 -0.005266
# 5 0.009342 -0.005359 0.007904 0.000000 0.049562 0.000000
# 6 0.000000 0.000000 0.000000 -0.005266 0.000000 0.078515
#
#
# Mechanical properties :
#
#
# Convention : Reuss Voigt Hill
#
# Bulk Modulus (GPa) = 44.75628 64.42674 54.59151
# Shear Modulus (GPa) = 21.97832 32.28124 27.12978
#
# Velocity S-wave (km/s) = 3.42865 4.15528 3.80933
# Velocity P-wave (km/s) = 6.29389 7.58168 6.96760
#
# Compressibility (1/GPa) = 0.02234323
#
# Stress axis : x y z
#
# Youngs Moduli (GPa) = 53.39656 129.80475 115.60146
#
# Poissons Ratio (x) = 0.17073 0.27102
# Poissons Ratio (y) = 0.07023 0.31325
# Poissons Ratio (z) = 0.12519 0.35173
#
# Static dielectric constant tensor:
#      x y z
#    x 3.391670 0.000000 0.026030 
#    y 0.000000 3.459310 0.000000 
#    z 0.026030 0.000000 3.539870 
# 
# 
# High freq. dielectric constant tensor:
#      x y z
#    x 1.720770 0.000000 -0.005350 
#    y 0.000000 1.723500 0.000000 
#    z -0.005350 0.000000 1.730760 
# 
# From -- ./inp_files/159459.got.cif
#   From: 2010.06.25/outbox.cif.g09.slc.cpg/sg12_80_cif.got.tgz:159459.got - 2010.06.28 00:19:55.
