data_PCOD8083461
_publ_section_title
;
Structure prediction by ZEFSAII (Michael W. Deem and Ramdas Pophale) SiO2 
 PCOD8083461
Probable space group: C 2/M
;
_chemical_formula_sum "Si O2"
_cell_formula_units_Z 44
_cell_length_a 25.176759
_cell_length_b 9.317906
_cell_length_c 12.433571
_cell_angle_alpha 90.000000
_cell_angle_beta 129.207268
_cell_angle_gamma 90.000000
_cell_volume 2260.162598
_symmetry_space_group_name_H-M "C 2/M"
_symmetry_group_IT_number 12
_symmetry_cell_setting 'monoclinic'
loop_
_space_group_symop_operation_xyz
x,y,z
-x,y,-z
-x,-y,-z
x,-y,z
1/2+x,1/2+y,z
1/2-x,1/2+y,-z
1/2-x,1/2-y,-z
1/2+x,1/2-y,z
loop_
_atom_site_type_symbol
_atom_site_label
_atom_site_fract_x
_atom_site_fract_y
_atom_site_fract_z
Si Si1 0.864377 0.658878 0.917013
Si Si2 0.500000 0.260870 0.000000
Si Si3 0.561505 0.341784 0.289834
Si Si4 0.961001 0.169421 0.345706
Si Si5 0.685107 0.834860 0.380402
Si Si6 0.821035 0.171293 0.064820
O O1 0.847968 0.500000 0.942744
O O2 0.820279 0.688087 0.753967
O O3 0.845465 0.781069 0.978017
O O4 0.943831 0.660244 0.984842
O O5 0.532443 0.361292 0.132555
O O6 0.587290 0.500000 0.360158
O O7 0.503106 0.282156 0.294660
O O8 0.621832 0.226903 0.367524
O O9 0.881130 0.217324 0.227271
O O10 0.000000 0.236855 0.500000
O O11 0.961105 0.000000 0.356836
O O12 0.750000 0.750000 0.500000
O O13 0.691976 0.000000 0.420611
O O14 0.810170 0.000000 0.051073
O O15 0.750000 0.250000 0.000000
#
# Coordination Sequence:
#
# PCOD8083461 Si02
#       6
#     8   4   8   8   8   8
#     4  10  21  37  59  86 117 154 195 247 306 364
#     4  10  18  32  58  92 116 144 192 246 298 356
#     4  10  19  33  57  86 114 149 192 245 299 357
#     4   9  19  37  59  84 115 156 204 248 298 362
#     4  10  22  38  56  84 119 156 195 242 306 371
#     4  11  23  40  61  89 121 161 210 259 312 370
#
# _framework density 19.467625999999999
#
# number of rings (size 3 to 8) (size 9 to 14) (size 15 to 20)
#    0.000    2.000    1.818    1.636    0.000    5.818 
#    0.000    3.636    0.000    3.818    0.000    0.000 
#    0.000    0.000    0.000    0.000    0.000    0.000 
#
# Total GULP energy -272680.211749 kJ/mol
# GULP energy per Si atom -12394.555080 kJ/mol
# Density = 1.942332 g / cm^3
# Si number density = 19.467626 Si / 1000 Ang^3
#
#
#
# Elastic Constant Matrix: (Units=GPa)
#
#
# Indices 1 2 3 4 5 6 
#
# 1 132.5562 49.6767 72.8057 0.0000 14.0810 0.0000
# 2 49.6767 102.1794 56.0100 0.0000 12.9150 0.0000
# 3 72.8057 56.0100 113.7335 0.0000 25.2628 0.0000
# 4 0.0000 0.0000 0.0000 23.0592 0.0000 -0.3064
# 5 14.0810 12.9150 25.2628 0.0000 31.6306 0.0000
# 6 0.0000 0.0000 0.0000 -0.3064 0.0000 33.3711
#
#
#
# Elastic Compliance Matrix: (Units=1/GPa)
#
#
# Indices 1 2 3 4 5 6 
#
# 1 0.012018 -0.002233 -0.006817 0.000000 0.001006 0.000000
# 2 -0.002233 0.013822 -0.005281 0.000000 -0.000431 0.000000
# 3 -0.006817 -0.005281 0.017754 0.000000 -0.008989 0.000000
# 4 0.000000 0.000000 0.000000 0.043372 0.000000 0.000398
# 5 0.001006 -0.000431 -0.008989 0.000000 0.038522 0.000000
# 6 0.000000 0.000000 0.000000 0.000398 0.000000 0.029970
#
#
# Mechanical properties :
#
#
# Convention : Reuss Voigt Hill
#
# Bulk Modulus (GPa) = 66.97744 78.38377 72.68060
# Shear Modulus (GPa) = 26.44123 28.94395 27.69259
#
# Velocity S-wave (km/s) = 3.68940 3.86005 3.77569
# Velocity P-wave (km/s) = 7.25452 7.76001 7.51152
#
# Compressibility (1/GPa) = 0.01493040
#
# Stress axis : x y z
#
# Youngs Moduli (GPa) = 83.20644 72.34816 56.32542
#
# Poissons Ratio (x) = 0.16158 0.38398
# Poissons Ratio (y) = 0.18583 0.29748
# Poissons Ratio (z) = 0.56723 0.38211
#
# Static dielectric constant tensor:
#      x y z
#    x 2.855010 0.000000 -0.764080 
#    y 0.000000 3.402290 0.000000 
#    z -0.764080 0.000000 2.947800 
# 
# 
# High freq. dielectric constant tensor:
#      x y z
#    x 1.757290 0.000000 0.007150 
#    y 0.000000 1.743650 0.000000 
#    z 0.007150 0.000000 1.760290 
# 
# From -- ./inp_files/181306.got.cif
#   From: 2010.06.25/outbox.cif.g09.slc.cpg/sg12_91_cif.got.tgz:181306.got - 2010.06.28 00:19:55.
