data_PCOD8083361
_publ_section_title
;
Structure prediction by ZEFSAII (Michael W. Deem and Ramdas Pophale) SiO2 
 PCOD8083361
Probable space group: C 2/M
;
_chemical_formula_sum "Si O2"
_cell_formula_units_Z 36
_cell_length_a 17.158557
_cell_length_b 13.651114
_cell_length_c 24.313166
_cell_angle_alpha 90.000000
_cell_angle_beta 20.995908
_cell_angle_gamma 90.000000
_cell_volume 2040.509975
_symmetry_space_group_name_H-M "C 2/M"
_symmetry_group_IT_number 12
_symmetry_cell_setting 'monoclinic'
loop_
_space_group_symop_operation_xyz
x,y,z
-x,y,-z
-x,-y,-z
x,-y,z
1/2+x,1/2+y,z
1/2-x,1/2+y,-z
1/2-x,1/2-y,-z
1/2+x,1/2-y,z
loop_
_atom_site_type_symbol
_atom_site_label
_atom_site_fract_x
_atom_site_fract_y
_atom_site_fract_z
Si Si1 0.997739 0.500000 0.228874
Si Si2 0.391197 0.806759 0.126590
Si Si3 0.021864 0.796487 0.663502
Si Si4 0.109530 0.000000 0.561072
Si Si5 0.728620 0.794553 0.074074
Si Si6 0.785641 0.500000 0.255649
O O1 0.861588 0.500000 0.375603
O O2 0.813805 0.500000 0.302694
O O3 0.156357 0.407011 0.120828
O O4 0.151710 0.764963 0.269515
O O5 0.398863 0.899388 0.162037
O O6 0.500000 0.849084 0.000000
O O7 0.530837 0.715821 0.058106
O O8 0.250000 0.750000 0.500000
O O9 0.053059 0.912147 0.638960
O O10 0.944140 0.767416 0.775806
O O11 0.961949 0.000000 0.602926
O O12 0.750000 0.750000 0.000000
#
# Coordination Sequence:
#
# PCOD8083361 Si02
#       6
#     4   8   8   4   8   4
#     4  12  21  34  58  86 120 145 199 229 293 340
#     4   9  19  34  55  83 116 149 190 233 286 339
#     4  10  20  38  59  82 115 151 194 233 283 342
#     4  10  21  36  59  88 108 152 197 242 286 335
#     4  11  22  37  56  86 120 151 184 237 290 340
#     4  10  18  32  56  85 115 141 190 251 288 328
#
# _framework density 17.642648999999999
#
# number of rings (size 3 to 8) (size 9 to 14) (size 15 to 20)
#    0.000    1.778    4.444    0.667    0.000    3.556 
#    0.000    7.222    0.000    0.000    0.000    3.111 
#    0.000    0.000    0.000    0.000    0.000    0.000 
#
# Total GULP energy -223075.278903 kJ/mol
# GULP energy per Si atom -12393.071050 kJ/mol
# Density = 1.760249 g / cm^3
# Si number density = 17.642649 Si / 1000 Ang^3
#
#
#
# Elastic Constant Matrix: (Units=GPa)
#
#
# Indices 1 2 3 4 5 6 
#
# 1 88.0151 55.5100 53.6292 -0.0265 11.2514 0.0086
# 2 55.5100 135.7679 65.1284 -0.0432 -1.7769 0.0118
# 3 53.6292 65.1284 126.7227 -0.1212 -4.8124 0.0259
# 4 -0.0265 -0.0432 -0.1212 30.9299 0.0382 0.0333
# 5 11.2514 -1.7769 -4.8124 0.0382 26.9724 0.0008
# 6 0.0086 0.0118 0.0259 0.0333 0.0008 23.8062
#
#
#
# Elastic Compliance Matrix: (Units=1/GPa)
#
#
# Indices 1 2 3 4 5 6 
#
# 1 0.019501 -0.005263 -0.005910 -0.000002 -0.009536 0.000002
# 2 -0.005263 0.011198 -0.003440 -0.000005 0.002319 0.000000
# 3 -0.005910 -0.003440 0.012329 0.000033 0.004438 -0.000010
# 4 -0.000002 -0.000005 0.000033 0.032331 -0.000039 -0.000045
# 5 -0.009536 0.002319 0.004438 -0.000039 0.041998 -0.000004
# 6 0.000002 0.000000 -0.000010 -0.000045 -0.000004 0.042006
#
#
# Mechanical properties :
#
#
# Convention : Reuss Voigt Hill
#
# Bulk Modulus (GPa) = 72.45246 77.67122 75.06184
# Shear Modulus (GPa) = 25.88142 28.09090 26.98616
#
# Velocity S-wave (km/s) = 3.83427 3.99459 3.91525
# Velocity P-wave (km/s) = 7.79474 8.08677 7.94210
#
# Compressibility (1/GPa) = 0.01380215
#
# Stress axis : x y z
#
# Youngs Moduli (GPa) = 51.27901 89.30437 81.11065
#
# Poissons Ratio (x) = 0.47000 0.47938
# Poissons Ratio (y) = 0.26988 0.27899
# Poissons Ratio (z) = 0.30307 0.30718
#
# Static dielectric constant tensor:
#      x y z
#    x 3.435210 0.000000 -0.137050 
#    y 0.000000 2.375880 -0.000560 
#    z -0.137050 -0.000560 3.488280 
# 
# 
# High freq. dielectric constant tensor:
#      x y z
#    x 1.677160 0.000000 0.000100 
#    y 0.000000 1.673650 0.000030 
#    z 0.000100 0.000030 1.690850 
# 
# From -- ./inp_files/71133.got.cif
#   From: 2010.06.25/outbox.cif.g09.slc.cpg/sg12_36_cif.got.tgz:71133.got - 2010.06.28 00:19:55.
