data_PCOD8083698
_publ_section_title
;
Structure prediction by ZEFSAII (Michael W. Deem and Ramdas Pophale) SiO2 
 PCOD8083698
Probable space group: C 2/M
;
_chemical_formula_sum "Si O2"
_cell_formula_units_Z 64
_cell_length_a 14.575065
_cell_length_b 18.245156
_cell_length_c 12.646016
_cell_angle_alpha 90.000000
_cell_angle_beta 89.109638
_cell_angle_gamma 90.000000
_cell_volume 3362.477358
_symmetry_space_group_name_H-M "C 2/M"
_symmetry_group_IT_number 12
_symmetry_cell_setting 'monoclinic'
loop_
_space_group_symop_operation_xyz
x,y,z
-x,y,-z
-x,-y,-z
x,-y,z
1/2+x,1/2+y,z
1/2-x,1/2+y,-z
1/2-x,1/2-y,-z
1/2+x,1/2-y,z
loop_
_atom_site_type_symbol
_atom_site_label
_atom_site_fract_x
_atom_site_fract_y
_atom_site_fract_z
Si Si1 0.790745 0.582352 0.459476
Si Si2 0.043587 0.330251 0.608801
Si Si3 0.646445 0.583119 0.288532
Si Si4 0.523154 0.341453 0.620095
Si Si5 0.490963 0.085889 0.192601
Si Si6 0.687020 0.913913 0.115277
Si Si7 0.705703 0.087204 0.883443
Si Si8 0.211267 0.913344 0.680336
O O1 0.833037 0.500000 0.452321
O O2 0.852438 0.640525 0.395810
O O3 0.693613 0.583172 0.402217
O O4 0.776538 0.607537 0.580572
O O5 0.040509 0.244377 0.628319
O O6 0.000000 0.354196 0.500000
O O7 0.987347 0.371982 0.699623
O O8 0.616250 0.500000 0.259818
O O9 0.558687 0.635583 0.299315
O O10 0.715010 0.615407 0.197096
O O11 0.500000 0.365038 0.500000
O O12 0.611893 0.380474 0.664090
O O13 0.578000 0.103668 0.116717
O O14 0.395607 0.116422 0.146272
O O15 0.484099 0.000000 0.216838
O O16 0.742524 0.879736 0.213815
O O17 0.701044 0.000000 0.122942
O O18 0.727252 0.885050 0.002540
O O19 0.702119 0.000000 0.878397
O O20 0.199959 0.000000 0.687218
#
# Coordination Sequence:
#
# PCOD8083698 Si02
#       8
#     8   8   8   8   8   8   8   8
#     4  10  19  34  57  84 111 140 181 231 282 329
#     4  11  23  35  49  81 117 149 179 221 279 337
#     4  10  19  35  60  84 106 140 190 237 269 317
#     4  11  23  38  53  78 112 153 191 225 272 333
#     4  10  18  33  56  81 111 146 183 225 273 335
#     4   9  18  32  53  85 114 138 178 229 284 331
#     4   9  17  32  57  85 109 139 183 231 277 326
#     4  10  20  35  57  83 111 144 183 234 280 323
#
# _framework density 19.033584999999999
#
# number of rings (size 3 to 8) (size 9 to 14) (size 15 to 20)
#    0.000    2.000    2.500    1.875    0.000    4.500 
#    2.250    0.625    0.000    7.500    0.000    0.000 
#    0.000    0.000    0.000    0.000    0.000    0.000 
#
# Total GULP energy -396693.532012 kJ/mol
# GULP energy per Si atom -12396.672875 kJ/mol
# Density = 1.899026 g / cm^3
# Si number density = 19.033585 Si / 1000 Ang^3
#
#
#
# Elastic Constant Matrix: (Units=GPa)
#
#
# Indices 1 2 3 4 5 6 
#
# 1 107.5760 33.9922 49.9177 0.0000 -13.8021 0.0000
# 2 33.9922 39.4684 27.3934 0.0000 -8.6221 0.0000
# 3 49.9177 27.3934 137.9635 0.0000 -10.9618 0.0000
# 4 0.0000 0.0000 0.0000 13.8023 0.0000 5.1242
# 5 -13.8021 -8.6221 -10.9618 0.0000 25.0423 0.0000
# 6 0.0000 0.0000 0.0000 5.1242 0.0000 29.4905
#
#
#
# Elastic Compliance Matrix: (Units=1/GPa)
#
#
# Indices 1 2 3 4 5 6 
#
# 1 0.014033 -0.009319 -0.002971 0.000000 0.003225 0.000000
# 2 -0.009319 0.037139 -0.003517 0.000000 0.006111 0.000000
# 3 -0.002971 -0.003517 0.009112 0.000000 0.001141 0.000000
# 4 0.000000 0.000000 0.000000 0.077448 0.000000 -0.013457
# 5 0.003225 0.006111 0.001141 0.000000 0.044313 0.000000
# 6 0.000000 0.000000 0.000000 -0.013457 0.000000 0.036248
#
#
# Mechanical properties :
#
#
# Convention : Reuss Voigt Hill
#
# Bulk Modulus (GPa) = 34.87933 56.40163 45.64048
# Shear Modulus (GPa) = 19.27064 25.24733 22.25898
#
# Velocity S-wave (km/s) = 3.18536 3.64601 3.42344
# Velocity P-wave (km/s) = 5.64744 6.88633 6.29743
#
# Compressibility (1/GPa) = 0.02867028
#
# Stress axis : x y z
#
# Youngs Moduli (GPa) = 71.26185 26.92602 109.74540
#
# Poissons Ratio (x) = 0.25093 0.32601
# Poissons Ratio (y) = 0.66411 0.38593
# Poissons Ratio (z) = 0.21169 0.09469
#
# Static dielectric constant tensor:
#      x y z
#    x 3.445160 0.000000 -0.024140 
#    y 0.000000 3.110030 0.000000 
#    z -0.024140 0.000000 3.762890 
# 
# 
# High freq. dielectric constant tensor:
#      x y z
#    x 1.739000 0.000000 -0.004820 
#    y 0.000000 1.697260 0.000000 
#    z -0.004820 0.000000 1.744990 
# 
# From -- ./inp_files/146152.got.cif
#   From: 2010.06.25/outbox.cif.g09.slc.cpg/sg12_74_cif.got.tgz:146152.got - 2010.06.28 00:19:55.
