data_PCOD8083688
_publ_section_title
;
Structure prediction by ZEFSAII (Michael W. Deem and Ramdas Pophale) SiO2 
 PCOD8083688
Probable space group: C 2/M
;
_chemical_formula_sum "Si O2"
_cell_formula_units_Z 60
_cell_length_a 19.913802
_cell_length_b 20.614684
_cell_length_c 14.966641
_cell_angle_alpha 90.000000
_cell_angle_beta 148.818702
_cell_angle_gamma 90.000000
_cell_volume 3181.071674
_symmetry_space_group_name_H-M "C 2/M"
_symmetry_group_IT_number 12
_symmetry_cell_setting 'monoclinic'
loop_
_space_group_symop_operation_xyz
x,y,z
-x,y,-z
-x,-y,-z
x,-y,z
1/2+x,1/2+y,z
1/2-x,1/2+y,-z
1/2-x,1/2-y,-z
1/2+x,1/2-y,z
loop_
_atom_site_type_symbol
_atom_site_label
_atom_site_fract_x
_atom_site_fract_y
_atom_site_fract_z
Si Si1 0.769908 0.228214 0.805785
Si Si2 0.335136 0.572476 0.150684
Si Si3 0.291338 0.423902 0.653981
Si Si4 0.000000 0.158017 0.000000
Si Si5 0.872612 0.925501 0.550495
Si Si6 0.431328 0.153473 0.516743
Si Si7 0.644565 0.358157 0.651385
Si Si8 0.313313 0.184349 0.109637
O O1 0.918475 0.210473 0.962437
O O2 0.673322 0.211333 0.614054
O O3 0.749971 0.304476 0.802470
O O4 0.731711 0.179218 0.840553
O O5 0.285588 0.500000 0.074904
O O6 0.473376 0.584764 0.260921
O O7 0.346484 0.581399 0.270546
O O8 0.230435 0.621546 0.993422
O O9 0.315812 0.500000 0.694612
O O10 0.298463 0.405262 0.556790
O O11 0.150295 0.406724 0.534619
O O12 0.407639 0.386800 0.835712
O O13 0.823470 0.881192 0.412500
O O14 0.843574 0.000000 0.492859
O O15 0.500000 0.134054 0.500000
O O16 0.529974 0.181011 0.704855
O O17 0.500000 0.327799 0.500000
O O18 0.250000 0.250000 0.000000
#
# Coordination Sequence:
#
# PCOD8083688 Si02
#       8
#     8   8   8   4   8   8   8   8
#     4  10  20  37  56  81 113 150 185 235 286 346
#     4  10  20  33  55  86 114 147 194 241 283 336
#     4  10  20  38  60  82 113 153 191 237 295 348
#     4  10  21  38  54  84 115 140 196 244 284 348
#     4   9  19  34  54  82 114 148 190 234 286 343
#     4   9  21  37  56  82 111 142 188 233 283 347
#     4  10  18  33  56  79 112 153 190 235 290 336
#     4  11  20  35  57  83 113 149 188 230 287 338
#
# _framework density 18.861567999999998
#
# number of rings (size 3 to 8) (size 9 to 14) (size 15 to 20)
#    0.000    2.133    1.333    2.600    1.867    2.400 
#    2.400    8.000    0.000    0.000    0.000    3.733 
#    0.000    0.000    0.000    0.000    0.000    0.000 
#
# Total GULP energy -371750.803792 kJ/mol
# GULP energy per Si atom -12391.693460 kJ/mol
# Density = 1.881864 g / cm^3
# Si number density = 18.861568 Si / 1000 Ang^3
#
#
#
# Elastic Constant Matrix: (Units=GPa)
#
#
# Indices 1 2 3 4 5 6 
#
# 1 105.1943 38.6940 38.6303 0.0000 5.7565 0.0000
# 2 38.6940 96.7040 45.4064 0.0000 4.3430 0.0000
# 3 38.6303 45.4064 102.9511 0.0000 7.5029 0.0000
# 4 0.0000 0.0000 0.0000 28.7816 0.0000 0.0030
# 5 5.7565 4.3430 7.5029 0.0000 26.2212 0.0000
# 6 0.0000 0.0000 0.0000 0.0030 0.0000 27.6092
#
#
#
# Elastic Compliance Matrix: (Units=1/GPa)
#
#
# Indices 1 2 3 4 5 6 
#
# 1 0.011861 -0.003333 -0.002891 0.000000 -0.001225 0.000000
# 2 -0.003333 0.013986 -0.004904 0.000000 -0.000181 0.000000
# 3 -0.002891 -0.004904 0.013130 0.000000 -0.002310 0.000000
# 4 0.000000 0.000000 0.000000 0.034744 0.000000 -0.000004
# 5 -0.001225 -0.000181 -0.002310 0.000000 0.039097 0.000000
# 6 0.000000 0.000000 0.000000 -0.000004 0.000000 0.036220
#
#
# Mechanical properties :
#
#
# Convention : Reuss Voigt Hill
#
# Bulk Modulus (GPa) = 59.81433 61.14564 60.47999
# Shear Modulus (GPa) = 28.26969 28.66366 28.46667
#
# Velocity S-wave (km/s) = 3.87563 3.90254 3.88911
# Velocity P-wave (km/s) = 7.19781 7.26601 7.23199
#
# Compressibility (1/GPa) = 0.01671840
#
# Stress axis : x y z
#
# Youngs Moduli (GPa) = 84.30917 71.50251 76.16397
#
# Poissons Ratio (x) = 0.23835 0.22020
# Poissons Ratio (y) = 0.28104 0.37353
# Poissons Ratio (z) = 0.24375 0.35067
#
# Static dielectric constant tensor:
#      x y z
#    x 3.531690 0.000000 -0.061230 
#    y 0.000000 3.368190 0.000000 
#    z -0.061230 0.000000 3.632700 
# 
# 
# High freq. dielectric constant tensor:
#      x y z
#    x 1.727000 0.000000 -0.008200 
#    y 0.000000 1.727500 0.000000 
#    z -0.008200 0.000000 1.726380 
# 
# From -- ./inp_files/235193.got.cif
#   From: 2010.06.25/outbox.cif.g09.slc.cpg/sg12_118_cif.got.tgz:235193.got - 2010.06.28 00:19:55.
