data_PCOD8083066
_publ_section_title
;
Structure prediction by ZEFSAII (Michael W. Deem and Ramdas Pophale) SiO2 
 PCOD8083066
Probable space group: C 2/M
;
_chemical_formula_sum "Si O2"
_cell_formula_units_Z 56
_cell_length_a 22.906428
_cell_length_b 14.033570
_cell_length_c 12.287981
_cell_angle_alpha 90.000000
_cell_angle_beta 58.356162
_cell_angle_gamma 90.000000
_cell_volume 3362.806278
_symmetry_space_group_name_H-M "C 2/M"
_symmetry_group_IT_number 12
_symmetry_cell_setting 'monoclinic'
loop_
_space_group_symop_operation_xyz
x,y,z
-x,y,-z
-x,-y,-z
x,-y,z
1/2+x,1/2+y,z
1/2-x,1/2+y,-z
1/2-x,1/2-y,-z
1/2+x,1/2-y,z
loop_
_atom_site_type_symbol
_atom_site_label
_atom_site_fract_x
_atom_site_fract_y
_atom_site_fract_z
Si Si1 0.444235 0.607870 0.143208
Si Si2 0.071514 0.390128 0.489808
Si Si3 0.109522 0.711347 0.079940
Si Si4 0.419745 0.893829 0.101492
Si Si5 0.662596 0.607095 0.929147
Si Si6 0.319244 0.889919 0.797799
Si Si7 0.046857 0.284312 0.727702
O O1 0.462983 0.500000 0.159336
O O2 0.370046 0.614041 0.159345
O O3 0.445535 0.672099 0.250802
O O4 0.500000 0.646586 0.000000
O O5 0.077661 0.500000 0.524882
O O6 0.132643 0.361919 0.349669
O O7 0.077829 0.314817 0.581990
O O8 0.000000 0.374879 0.500000
O O9 0.163172 0.670893 0.113447
O O10 0.033283 0.688739 0.196027
O O11 0.121788 0.661204 0.951531
O O12 0.123875 0.823823 0.051777
O O13 0.409040 0.841252 0.226087
O O14 0.389748 0.000000 0.138507
O O15 0.500000 0.894780 0.000000
O O16 0.653427 0.500000 0.984375
O O17 0.741973 0.634254 0.838910
O O18 0.329971 0.000000 0.817716
#
# Coordination Sequence:
#
# PCOD8083066 Si02
#       7
#     8   8   8   8   8   8   8
#     4  10  18  32  53  76 102 131 171 218 256 294
#     4  10  20  34  52  74 103 139 173 203 241 301
#     4  11  18  30  51  76 105 130 163 212 259 307
#     4   9  17  26  42  73 104 129 156 200 259 305
#     4  10  20  34  52  76 104 134 172 213 255 299
#     4  10  21  35  51  75 105 139 173 205 247 304
#     4  11  18  30  51  77 103 129 167 211 253 300
#
# _framework density 16.652757999999999
#
# number of rings (size 3 to 8) (size 9 to 14) (size 15 to 20)
#    0.000    1.857    4.286    1.714    0.000    1.143 
#    0.000    0.714    0.000    1.286    0.000    0.000 
#    0.000    0.000    0.000    0.000    0.000    0.000 
#
# Total GULP energy -347193.300814 kJ/mol
# GULP energy per Si atom -12399.760743 kJ/mol
# Density = 1.661486 g / cm^3
# Si number density = 16.652758 Si / 1000 Ang^3
#
#
#
# Elastic Constant Matrix: (Units=GPa)
#
#
# Indices 1 2 3 4 5 6 
#
# 1 91.5836 28.2876 35.1734 0.0000 6.2834 0.0000
# 2 28.2876 98.9859 43.9277 0.0000 12.5707 0.0000
# 3 35.1734 43.9277 81.1074 0.0000 13.7695 0.0000
# 4 0.0000 0.0000 0.0000 25.7845 0.0000 5.4446
# 5 6.2834 12.5707 13.7695 0.0000 21.1810 0.0000
# 6 0.0000 0.0000 0.0000 5.4446 0.0000 21.4360
#
#
#
# Elastic Compliance Matrix: (Units=1/GPa)
#
#
# Indices 1 2 3 4 5 6 
#
# 1 0.013300 -0.001649 -0.004913 0.000000 0.000227 0.000000
# 2 -0.001649 0.013753 -0.006105 0.000000 -0.003705 0.000000
# 3 -0.004913 -0.006105 0.019001 0.000000 -0.007272 0.000000
# 4 0.000000 0.000000 0.000000 0.040981 0.000000 -0.010409
# 5 0.000227 -0.003705 -0.007272 0.000000 0.054071 0.000000
# 6 0.000000 0.000000 0.000000 -0.010409 0.000000 0.049294
#
#
# Mechanical properties :
#
#
# Convention : Reuss Voigt Hill
#
# Bulk Modulus (GPa) = 48.26264 54.05045 51.15654
# Shear Modulus (GPa) = 22.45781 24.63285 23.54533
#
# Velocity S-wave (km/s) = 3.67630 3.85022 3.76427
# Velocity P-wave (km/s) = 6.86039 7.23142 7.04835
#
# Compressibility (1/GPa) = 0.02071996
#
# Stress axis : x y z
#
# Youngs Moduli (GPa) = 75.18988 72.70959 52.62979
#
# Poissons Ratio (x) = 0.11992 0.25857
# Poissons Ratio (y) = 0.12401 0.32128
# Poissons Ratio (z) = 0.36940 0.44386
#
# Static dielectric constant tensor:
#      x y z
#    x 3.144430 0.000000 0.062220 
#    y 0.000000 3.251370 0.000000 
#    z 0.062220 0.000000 2.841700 
# 
# 
# High freq. dielectric constant tensor:
#      x y z
#    x 1.640610 0.000000 0.011020 
#    y 0.000000 1.647500 0.000000 
#    z 0.011020 0.000000 1.602650 
# 
# From -- ./inp_files/166632.got.cif
#   From: 2010.06.25/outbox.cif.g09.slc.cpg/sg12_84_cif.got.tgz:166632.got - 2010.06.28 00:19:55.
