data_PCOD8083557
_publ_section_title
;
Structure prediction by ZEFSAII (Michael W. Deem and Ramdas Pophale) SiO2 
 PCOD8083557
Probable space group: C 2/M
;
_chemical_formula_sum "Si O2"
_cell_formula_units_Z 56
_cell_length_a 26.206322
_cell_length_b 17.023395
_cell_length_c 8.898159
_cell_angle_alpha 90.000000
_cell_angle_beta 132.465324
_cell_angle_gamma 90.000000
_cell_volume 2928.356839
_symmetry_space_group_name_H-M "C 2/M"
_symmetry_group_IT_number 12
_symmetry_cell_setting 'monoclinic'
loop_
_space_group_symop_operation_xyz
x,y,z
-x,y,-z
-x,-y,-z
x,-y,z
1/2+x,1/2+y,z
1/2-x,1/2+y,-z
1/2-x,1/2-y,-z
1/2+x,1/2-y,z
loop_
_atom_site_type_symbol
_atom_site_label
_atom_site_fract_x
_atom_site_fract_y
_atom_site_fract_z
Si Si1 0.765168 0.789751 0.870129
Si Si2 0.563466 0.820119 0.519098
Si Si3 0.358109 0.280777 0.542044
Si Si4 0.977829 0.412139 0.126903
Si Si5 0.643348 0.797818 0.154120
Si Si6 0.805187 0.588028 0.118778
Si Si7 0.241163 0.910521 0.661809
O O1 0.711653 0.764815 0.635996
O O2 0.838383 0.764463 0.943835
O O3 0.753596 0.882634 0.878364
O O4 0.750000 0.750000 0.000000
O O5 0.500000 0.797534 0.500000
O O6 0.584328 0.740672 0.469235
O O7 0.542219 0.887466 0.358102
O O8 0.627800 0.855414 0.740225
O O9 0.383204 0.251777 0.755619
O O10 0.336808 0.373575 0.500305
O O11 0.953298 0.500000 0.124495
O O12 0.916695 0.351221 0.034184
O O13 0.000000 0.411146 0.000000
O O14 0.706171 0.856296 0.330130
O O15 0.826578 0.500000 0.202579
O O16 0.771368 0.594438 0.888883
O O17 0.238364 0.000000 0.596727
#
# Coordination Sequence:
#
# PCOD8083557 Si02
#       7
#     8   8   8   8   8   8   8
#     4  10  18  33  53  76 102 139 181 217 264 313
#     4  11  23  36  55  78 109 147 187 218 255 319
#     4  10  21  36  51  79 107 140 181 224 265 316
#     4  11  23  38  53  79 114 147 182 216 260 320
#     4  11  20  36  55  76 111 145 179 217 260 323
#     4  10  20  34  53  83 115 139 175 227 268 310
#     4  10  19  33  57  81 105 139 178 223 277 319
#
# _framework density 19.123352000000001
#
# number of rings (size 3 to 8) (size 9 to 14) (size 15 to 20)
#    0.000    1.571    4.286    3.429    2.000    2.286 
#    0.000    4.286    0.000    0.429    0.000    3.000 
#    0.000    0.000    0.000    0.000    0.000    0.000 
#
# Total GULP energy -346955.106497 kJ/mol
# GULP energy per Si atom -12391.253803 kJ/mol
# Density = 1.907983 g / cm^3
# Si number density = 19.123352 Si / 1000 Ang^3
#
#
#
# Elastic Constant Matrix: (Units=GPa)
#
#
# Indices 1 2 3 4 5 6 
#
# 1 99.9727 51.9602 15.1882 0.0000 0.9648 0.0000
# 2 51.9602 88.5359 20.0429 0.0000 7.9473 0.0000
# 3 15.1882 20.0429 56.5450 0.0000 -1.2657 0.0000
# 4 0.0000 0.0000 0.0000 27.8199 0.0000 5.0290
# 5 0.9648 7.9473 -1.2657 0.0000 24.7704 0.0000
# 6 0.0000 0.0000 0.0000 5.0290 0.0000 29.1921
#
#
#
# Elastic Compliance Matrix: (Units=1/GPa)
#
#
# Indices 1 2 3 4 5 6 
#
# 1 0.014548 -0.008541 -0.000833 0.000000 0.002131 0.000000
# 2 -0.008541 0.017739 -0.004119 0.000000 -0.005569 0.000000
# 3 -0.000833 -0.004119 0.019421 0.000000 0.002346 0.000000
# 4 0.000000 0.000000 0.000000 0.037101 0.000000 -0.006391
# 5 0.002131 -0.005569 0.002346 0.000000 0.042194 0.000000
# 6 0.000000 0.000000 0.000000 -0.006391 0.000000 0.035357
#
#
# Mechanical properties :
#
#
# Convention : Reuss Voigt Hill
#
# Bulk Modulus (GPa) = 40.44532 46.60402 43.52467
# Shear Modulus (GPa) = 24.80343 26.88064 25.84203
#
# Velocity S-wave (km/s) = 3.60533 3.75326 3.68004
# Velocity P-wave (km/s) = 6.20700 6.57311 6.39267
#
# Compressibility (1/GPa) = 0.02472474
#
# Stress axis : x y z
#
# Youngs Moduli (GPa) = 68.74016 56.37163 51.49058
#
# Poissons Ratio (x) = 0.48144 0.04287
# Poissons Ratio (y) = 0.58708 0.21207
# Poissons Ratio (z) = 0.05723 0.23217
#
# Static dielectric constant tensor:
#      x y z
#    x 3.605040 0.000000 0.017600 
#    y 0.000000 3.991810 0.000000 
#    z 0.017600 0.000000 3.456590 
# 
# 
# High freq. dielectric constant tensor:
#      x y z
#    x 1.733150 0.000000 -0.018330 
#    y 0.000000 1.724830 0.000000 
#    z -0.018330 0.000000 1.736710 
# 
# From -- ./inp_files/105622.got.cif
#   From: 2010.06.25/outbox.cif.g09.slc.cpg/sg12_53_cif.got.tgz:105622.got - 2010.06.28 00:19:55.
