data_PCOD8083130
_publ_section_title
;
Structure prediction by ZEFSAII (Michael W. Deem and Ramdas Pophale) SiO2 
 PCOD8083130
Probable space group: C 2/M
;
_chemical_formula_sum "Si O2"
_cell_formula_units_Z 44
_cell_length_a 25.845336
_cell_length_b 10.081477
_cell_length_c 11.494503
_cell_angle_alpha 90.000000
_cell_angle_beta 51.961795
_cell_angle_gamma 90.000000
_cell_volume 2358.860626
_symmetry_space_group_name_H-M "C 2/M"
_symmetry_group_IT_number 12
_symmetry_cell_setting 'monoclinic'
loop_
_space_group_symop_operation_xyz
x,y,z
-x,y,-z
-x,-y,-z
x,-y,z
1/2+x,1/2+y,z
1/2-x,1/2+y,-z
1/2-x,1/2-y,-z
1/2+x,1/2-y,z
loop_
_atom_site_type_symbol
_atom_site_label
_atom_site_fract_x
_atom_site_fract_y
_atom_site_fract_z
Si Si1 0.500000 0.720114 0.500000
Si Si2 0.800742 0.652443 0.743149
Si Si3 0.851057 0.848444 0.087681
Si Si4 0.072705 0.654572 0.852694
Si Si5 0.416972 0.846843 0.420054
Si Si6 0.872059 0.145478 0.799035
O O1 0.474665 0.807307 0.427913
O O2 0.440135 0.634657 0.633608
O O3 0.813058 0.500000 0.763347
O O4 0.726249 0.679357 0.814189
O O5 0.845454 0.689856 0.570010
O O6 0.822241 0.744412 0.820606
O O7 0.878142 0.743201 0.140764
O O8 0.864026 0.000000 0.111312
O O9 0.885514 0.822642 0.915545
O O10 0.094457 0.500000 0.830134
O O11 0.075717 0.715995 0.718157
O O12 0.000000 0.673990 0.000000
O O13 0.425869 0.000000 0.387109
O O14 0.838194 0.000000 0.836709
#
# Coordination Sequence:
#
# PCOD8083130 Si02
#       6
#     4   8   8   8   8   8
#     4  10  18  32  54  76 103 134 167 206 257 304
#     4   9  19  35  54  76 102 133 171 211 251 300
#     4  10  21  36  53  75 104 137 170 207 253 301
#     4  10  21  36  53  76 104 133 170 211 249 298
#     4   9  18  33  53  77 103 132 169 211 252 298
#     4  10  20  33  51  77 107 134 167 211 254 299
#
# _framework density 18.653074
#
# number of rings (size 3 to 8) (size 9 to 14) (size 15 to 20)
#    0.000    2.364    0.000    2.182    0.000    3.273 
#    0.000    4.545    0.000    0.000    0.000    0.000 
#    0.000    0.000    0.000    0.000    0.000    0.000 
#
# Total GULP energy -272728.509078 kJ/mol
# GULP energy per Si atom -12396.750413 kJ/mol
# Density = 1.861062 g / cm^3
# Si number density = 18.653074 Si / 1000 Ang^3
#
#
#
# Elastic Constant Matrix: (Units=GPa)
#
#
# Indices 1 2 3 4 5 6 
#
# 1 119.8939 60.4482 54.2007 0.0000 15.3529 0.0000
# 2 60.4482 56.8579 39.2926 0.0000 7.8631 0.0000
# 3 54.2007 39.2926 98.8277 0.0000 18.7299 0.0000
# 4 0.0000 0.0000 0.0000 20.4403 0.0000 3.9766
# 5 15.3529 7.8631 18.7299 0.0000 33.6391 0.0000
# 6 0.0000 0.0000 0.0000 3.9766 0.0000 36.6094
#
#
#
# Elastic Compliance Matrix: (Units=1/GPa)
#
#
# Indices 1 2 3 4 5 6 
#
# 1 0.018960 -0.017855 -0.002739 0.000000 -0.002954 0.000000
# 2 -0.017855 0.041069 -0.007000 0.000000 0.002447 0.000000
# 3 -0.002739 -0.007000 0.015492 0.000000 -0.005739 0.000000
# 4 0.000000 0.000000 0.000000 0.049979 0.000000 -0.005429
# 5 -0.002954 0.002447 -0.005739 0.000000 0.033699 0.000000
# 6 0.000000 0.000000 0.000000 -0.005429 0.000000 0.027905
#
#
# Mechanical properties :
#
#
# Convention : Reuss Voigt Hill
#
# Bulk Modulus (GPa) = 49.18354 64.82915 57.00634
# Shear Modulus (GPa) = 20.07464 26.24697 23.16080
#
# Velocity S-wave (km/s) = 3.28412 3.75522 3.52754
# Velocity P-wave (km/s) = 6.38791 7.32345 6.87162
#
# Compressibility (1/GPa) = 0.02033200
#
# Stress axis : x y z
#
# Youngs Moduli (GPa) = 52.74363 24.34899 64.55080
#
# Poissons Ratio (x) = 0.43476 0.17682
# Poissons Ratio (y) = 0.94175 0.45185
# Poissons Ratio (z) = 0.14448 0.17044
#
# Static dielectric constant tensor:
#      x y z
#    x 3.300850 0.000000 0.055070 
#    y 0.000000 3.361890 0.000000 
#    z 0.055070 0.000000 3.683570 
# 
# 
# High freq. dielectric constant tensor:
#      x y z
#    x 1.711000 0.000000 -0.000590 
#    y 0.000000 1.718090 0.000000 
#    z -0.000590 0.000000 1.742940 
# 
# From -- ./inp_files/171947.got.cif
#   From: 2010.06.25/outbox.cif.g09.slc.cpg/sg12_86_cif.got.tgz:171947.got - 2010.06.28 00:19:55.
