data_PCOD8083134
_publ_section_title
;
Structure prediction by ZEFSAII (Michael W. Deem and Ramdas Pophale) SiO2 
 PCOD8083134
Probable space group: C 2/M
;
_chemical_formula_sum "Si O2"
_cell_formula_units_Z 64
_cell_length_a 29.047049
_cell_length_b 9.217444
_cell_length_c 12.428091
_cell_angle_alpha 90.000000
_cell_angle_beta 90.383382
_cell_angle_gamma 90.000000
_cell_volume 3327.416970
_symmetry_space_group_name_H-M "C 2/M"
_symmetry_group_IT_number 12
_symmetry_cell_setting 'monoclinic'
loop_
_space_group_symop_operation_xyz
x,y,z
-x,y,-z
-x,-y,-z
x,-y,z
1/2+x,1/2+y,z
1/2-x,1/2+y,-z
1/2-x,1/2-y,-z
1/2+x,1/2-y,z
loop_
_atom_site_type_symbol
_atom_site_label
_atom_site_fract_x
_atom_site_fract_y
_atom_site_fract_z
Si Si1 0.742536 0.826899 0.614662
Si Si2 0.974363 0.835287 0.601228
Si Si3 0.106883 0.339047 0.460121
Si Si4 0.598472 0.833543 0.123392
Si Si5 0.504612 0.333284 0.164602
Si Si6 0.821831 0.336972 0.715721
Si Si7 0.857966 0.672255 0.317780
Si Si8 0.914839 0.666423 0.116241
O O1 0.750000 0.750000 0.500000
O O2 0.779509 0.773668 0.704252
O O3 0.694455 0.776536 0.667670
O O4 0.745887 0.000000 0.598838
O O5 0.926416 0.753444 0.616227
O O6 0.005204 0.821222 0.707954
O O7 0.000000 0.763015 0.500000
O O8 0.961917 0.000000 0.574283
O O9 0.086176 0.500000 0.468739
O O10 0.155886 0.342054 0.402438
O O11 0.112791 0.270470 0.579176
O O12 0.553640 0.737227 0.141733
O O13 0.642024 0.778761 0.193897
O O14 0.587151 0.000000 0.155718
O O15 0.611807 0.821756 0.997510
O O16 0.505940 0.500000 0.126332
O O17 0.462762 0.253312 0.104933
O O18 0.805234 0.500000 0.746566
O O19 0.858575 0.500000 0.317421
O O20 0.881363 0.732041 0.208381
O O21 0.927553 0.500000 0.143021
#
# Coordination Sequence:
#
# PCOD8083134 Si02
#       8
#     8   8   8   8   8   8   8   8
#     4  11  21  36  59  86 115 145 180 222 273 330
#     4  10  21  34  47  72 111 146 177 217 270 328
#     4  10  18  32  54  76 105 140 176 222 267 315
#     4  10  21  38  59  80 107 146 189 230 265 317
#     4  11  22  35  54  81 113 145 181 229 278 323
#     4  10  20  36  56  82 112 138 178 227 272 319
#     4   9  19  36  56  81 110 140 179 226 272 323
#     4  10  21  38  59  79 104 145 191 227 268 320
#
# _framework density 19.23414
#
# number of rings (size 3 to 8) (size 9 to 14) (size 15 to 20)
#    0.000    1.875    2.500    1.875    0.000    3.750 
#    0.000    1.875    0.000    0.000    0.000    0.000 
#    0.000    0.000    0.000    0.000    0.000    0.000 
#
# Total GULP energy -396713.753952 kJ/mol
# GULP energy per Si atom -12397.304811 kJ/mol
# Density = 1.919036 g / cm^3
# Si number density = 19.234140 Si / 1000 Ang^3
#
#
#
# Elastic Constant Matrix: (Units=GPa)
#
#
# Indices 1 2 3 4 5 6 
#
# 1 98.4187 41.4681 35.1028 0.0000 16.2155 0.0000
# 2 41.4681 70.1447 23.6122 0.0000 8.0596 0.0000
# 3 35.1028 23.6122 103.5417 0.0000 13.4866 0.0000
# 4 0.0000 0.0000 0.0000 20.8777 0.0000 5.9239
# 5 16.2155 8.0596 13.4866 0.0000 25.7915 0.0000
# 6 0.0000 0.0000 0.0000 5.9239 0.0000 29.9414
#
#
#
# Elastic Compliance Matrix: (Units=1/GPa)
#
#
# Indices 1 2 3 4 5 6 
#
# 1 0.015209 -0.007410 -0.002707 0.000000 -0.005831 0.000000
# 2 -0.007410 0.019302 -0.001836 0.000000 -0.000413 0.000000
# 3 -0.002707 -0.001836 0.011480 0.000000 -0.003727 0.000000
# 4 0.000000 0.000000 0.000000 0.050747 0.000000 -0.010040
# 5 -0.005831 -0.000413 -0.003727 0.000000 0.044517 0.000000
# 6 0.000000 0.000000 0.000000 -0.010040 0.000000 0.035385
#
#
# Mechanical properties :
#
#
# Convention : Reuss Voigt Hill
#
# Bulk Modulus (GPa) = 45.27827 52.49681 48.88754
# Shear Modulus (GPa) = 24.04919 26.78358 25.41639
#
# Velocity S-wave (km/s) = 3.53985 3.73567 3.63908
# Velocity P-wave (km/s) = 6.34815 6.77937 6.56730
#
# Compressibility (1/GPa) = 0.02208565
#
# Stress axis : x y z
#
# Youngs Moduli (GPa) = 65.75039 51.80710 87.10969
#
# Poissons Ratio (x) = 0.38390 0.23579
# Poissons Ratio (y) = 0.48722 0.15992
# Poissons Ratio (z) = 0.17797 0.09511
#
# Static dielectric constant tensor:
#      x y z
#    x 3.433860 0.000000 -0.003790 
#    y 0.000000 3.374580 0.000000 
#    z -0.003790 0.000000 3.744770 
# 
# 
# High freq. dielectric constant tensor:
#      x y z
#    x 1.734940 0.000000 0.008640 
#    y 0.000000 1.731010 0.000000 
#    z 0.008640 0.000000 1.756540 
# 
# From -- ./inp_files/187530.got.cif
#   From: 2010.06.25/outbox.cif.g09.slc.cpg/sg12_94_cif.got.tgz:187530.got - 2010.06.28 00:19:55.
