data_PCOD8083991
_publ_section_title
;
Structure prediction by ZEFSAII (Michael W. Deem and Ramdas Pophale) SiO2 
 PCOD8083991
Probable space group: C 2/M
;
_chemical_formula_sum "Si O2"
_cell_formula_units_Z 56
_cell_length_a 20.818556
_cell_length_b 13.108462
_cell_length_c 27.496076
_cell_angle_alpha 90.000000
_cell_angle_beta 155.895102
_cell_angle_gamma 90.000000
_cell_volume 3064.557875
_symmetry_space_group_name_H-M "C 2/M"
_symmetry_group_IT_number 12
_symmetry_cell_setting 'monoclinic'
loop_
_space_group_symop_operation_xyz
x,y,z
-x,y,-z
-x,-y,-z
x,-y,z
1/2+x,1/2+y,z
1/2-x,1/2+y,-z
1/2-x,1/2-y,-z
1/2+x,1/2-y,z
loop_
_atom_site_type_symbol
_atom_site_label
_atom_site_fract_x
_atom_site_fract_y
_atom_site_fract_z
Si Si1 0.844812 0.382665 0.033585
Si Si2 0.824828 0.116423 0.605355
Si Si3 0.463479 0.802517 0.549214
Si Si4 0.529445 0.382736 0.655192
Si Si5 0.218632 0.617795 0.666579
Si Si6 0.350958 0.879017 0.926788
Si Si7 0.491218 0.306209 0.178451
O O1 0.899164 0.500000 0.075977
O O2 0.856575 0.341762 0.986327
O O3 0.667351 0.371976 0.929943
O O4 0.958276 0.312875 0.144862
O O5 0.638597 0.143588 0.478505
O O6 0.921536 0.187219 0.709463
O O7 0.885534 0.132666 0.592948
O O8 0.852451 0.000000 0.641138
O O9 0.492818 0.684255 0.582428
O O10 0.364471 0.811718 0.431385
O O11 0.634371 0.856922 0.659868
O O12 0.545338 0.500000 0.649597
O O13 0.689680 0.341642 0.790566
O O14 0.193441 0.500000 0.635747
O O15 0.402527 0.646910 0.792024
O O16 0.353079 0.000000 0.927937
O O17 0.500000 0.834729 0.000000
#
# Coordination Sequence:
#
# PCOD8083991 Si02
#       7
#     8   8   8   8   8   8   8
#     4  10  19  33  52  78 105 133 172 213 254 297
#     4  10  18  34  55  75 100 132 174 215 248 300
#     4  10  19  32  52  79 101 128 170 210 252 298
#     4  10  20  33  52  77 104 134 166 207 258 305
#     4  10  20  36  55  76 100 131 172 212 247 297
#     4   9  18  32  51  73 100 133 168 203 243 299
#     4  10  19  31  54  79  99 136 175 208 253 298
#
# _framework density 18.273436
#
# number of rings (size 3 to 8) (size 9 to 14) (size 15 to 20)
#    0.000    2.143    1.429    4.286    2.000    0.000 
#    0.000    4.286    0.000    2.571    0.000    1.000 
#    0.000    0.000    0.000    0.000    0.000    0.000 
#
# Total GULP energy -347072.647284 kJ/mol
# GULP energy per Si atom -12395.451689 kJ/mol
# Density = 1.823184 g / cm^3
# Si number density = 18.273436 Si / 1000 Ang^3
#
#
#
# Elastic Constant Matrix: (Units=GPa)
#
#
# Indices 1 2 3 4 5 6 
#
# 1 106.3683 50.5865 48.0352 0.0021 31.2897 -0.0009
# 2 50.5865 106.8820 45.4045 -0.0018 -8.5180 -0.0010
# 3 48.0352 45.4045 53.6297 0.0088 10.2532 -0.0008
# 4 0.0021 -0.0018 0.0088 24.3582 0.0007 -2.9999
# 5 31.2897 -8.5180 10.2532 0.0007 34.5274 -0.0015
# 6 -0.0009 -0.0010 -0.0008 -2.9999 -0.0015 27.4928
#
#
#
# Elastic Compliance Matrix: (Units=1/GPa)
#
#
# Indices 1 2 3 4 5 6 
#
# 1 0.024701 -0.008985 -0.010404 0.000002 -0.021512 -0.000001
# 2 -0.008985 0.020115 -0.012179 0.000006 0.016722 0.000002
# 3 -0.010404 -0.012179 0.039278 -0.000014 -0.005240 -0.000001
# 4 0.000002 0.000006 -0.000014 0.041613 0.000004 0.004541
# 5 -0.021512 0.016722 -0.005240 0.000004 0.054139 0.000003
# 6 -0.000001 0.000002 -0.000001 0.004541 0.000003 0.036869
#
#
# Mechanical properties :
#
#
# Convention : Reuss Voigt Hill
#
# Bulk Modulus (GPa) = 47.71646 61.65914 54.68780
# Shear Modulus (GPa) = 17.43138 25.46593 21.44865
#
# Velocity S-wave (km/s) = 3.09191 3.73715 3.42974
# Velocity P-wave (km/s) = 6.23824 7.24137 6.75845
#
# Compressibility (1/GPa) = 0.02095713
#
# Stress axis : x y z
#
# Youngs Moduli (GPa) = 40.48400 49.71314 25.45929
#
# Poissons Ratio (x) = 0.44670 0.26488
# Poissons Ratio (y) = 0.36377 0.31007
# Poissons Ratio (z) = 0.42120 0.60547
#
# Static dielectric constant tensor:
#      x y z
#    x 3.851210 -0.000020 0.532710 
#    y -0.000020 3.195060 -0.000020 
#    z 0.532710 -0.000020 3.272160 
# 
# 
# High freq. dielectric constant tensor:
#      x y z
#    x 1.721390 0.000000 0.034800 
#    y 0.000000 1.689360 0.000000 
#    z 0.034800 0.000000 1.681170 
# 
# From -- ./inp_files/365876.got.cif
#   From: 2010.06.25/outbox.cif.g09.slc.cpg/sg12_183_cif.got.tgz:365876.got - 2010.06.28 00:19:55.
