data_PCOD8083639
_publ_section_title
;
Structure prediction by ZEFSAII (Michael W. Deem and Ramdas Pophale) SiO2 
 PCOD8083639
Probable space group: C 2/M
;
_chemical_formula_sum "Si O2"
_cell_formula_units_Z 56
_cell_length_a 28.419107
_cell_length_b 8.824813
_cell_length_c 14.264977
_cell_angle_alpha 90.000000
_cell_angle_beta 120.270756
_cell_angle_gamma 90.000000
_cell_volume 3089.770879
_symmetry_space_group_name_H-M "C 2/M"
_symmetry_group_IT_number 12
_symmetry_cell_setting 'monoclinic'
loop_
_space_group_symop_operation_xyz
x,y,z
-x,y,-z
-x,-y,-z
x,-y,z
1/2+x,1/2+y,z
1/2-x,1/2+y,-z
1/2-x,1/2-y,-z
1/2+x,1/2-y,z
loop_
_atom_site_type_symbol
_atom_site_label
_atom_site_fract_x
_atom_site_fract_y
_atom_site_fract_z
Si Si1 0.161406 0.667809 0.152049
Si Si2 0.202147 0.821477 0.513210
Si Si3 0.119122 0.326414 0.306514
Si Si4 0.604250 0.676175 0.937732
Si Si5 0.286036 0.328591 0.264228
Si Si6 0.695251 0.821559 0.903341
Si Si7 0.997619 0.678516 0.888748
O O1 0.136005 0.500000 0.106364
O O2 0.160930 0.696079 0.262407
O O3 0.222313 0.674619 0.175835
O O4 0.125610 0.793887 0.064477
O O5 0.250000 0.750000 0.500000
O O6 0.142694 0.776382 0.413683
O O7 0.203622 0.761749 0.621758
O O8 0.210833 0.000000 0.520390
O O9 0.117830 0.500000 0.339140
O O10 0.059742 0.272088 0.213947
O O11 0.606958 0.500000 0.915870
O O12 0.641736 0.768386 0.904062
O O13 0.542399 0.734845 0.871391
O O14 0.308608 0.500000 0.279347
O O15 0.314592 0.224857 0.214839
O O16 0.701115 0.000000 0.917933
O O17 0.750000 0.750000 0.000000
O O18 0.007122 0.500000 0.890082
O O19 0.000000 0.729133 0.000000
#
# Coordination Sequence:
#
# PCOD8083639 Si02
#       7
#     8   8   8   8   8   8   8
#     4  10  18  33  55  79 114 153 188 226 271 331
#     4  11  22  36  56  82 116 152 187 230 280 332
#     4  10  20  36  57  82 113 151 191 229 276 332
#     4  12  24  36  54  83 117 150 188 232 280 335
#     4  10  21  37  56  80 114 153 188 227 277 333
#     4  12  24  38  58  83 112 148 188 232 283 338
#     4  10  20  37  59  81 112 154 191 228 282 336
#
# _framework density 18.124320000000001
#
# number of rings (size 3 to 8) (size 9 to 14) (size 15 to 20)
#    0.000    1.286    4.286    3.000    0.000    2.571 
#    0.000    0.000    0.000    0.857    0.000    6.000 
#    0.000    0.000    0.000    0.000    0.000    0.000 
#
# Total GULP energy -347235.317825 kJ/mol
# GULP energy per Si atom -12401.261351 kJ/mol
# Density = 1.808307 g / cm^3
# Si number density = 18.124320 Si / 1000 Ang^3
#
#
#
# Elastic Constant Matrix: (Units=GPa)
#
#
# Indices 1 2 3 4 5 6 
#
# 1 101.1160 45.7250 42.4830 0.0000 -5.5257 0.0000
# 2 45.7250 93.9854 41.2416 0.0000 -7.0105 0.0000
# 3 42.4830 41.2416 105.9227 0.0000 -3.0815 0.0000
# 4 0.0000 0.0000 0.0000 30.7706 0.0000 -0.1264
# 5 -5.5257 -7.0105 -3.0815 0.0000 27.6328 0.0000
# 6 0.0000 0.0000 0.0000 -0.1264 0.0000 29.9902
#
#
#
# Elastic Compliance Matrix: (Units=1/GPa)
#
#
# Indices 1 2 3 4 5 6 
#
# 1 0.013702 -0.005052 -0.003497 0.000000 0.001068 0.000000
# 2 -0.005052 0.014900 -0.003707 0.000000 0.002357 0.000000
# 3 -0.003497 -0.003707 0.012279 0.000000 -0.000270 0.000000
# 4 0.000000 0.000000 0.000000 0.032499 0.000000 0.000137
# 5 0.001068 0.002357 -0.000270 0.000000 0.036970 0.000000
# 6 0.000000 0.000000 0.000000 0.000137 0.000000 0.033345
#
#
# Mechanical properties :
#
#
# Convention : Reuss Voigt Hill
#
# Bulk Modulus (GPa) = 61.09113 62.21368 61.65241
# Shear Modulus (GPa) = 28.79140 29.11704 28.95422
#
# Velocity S-wave (km/s) = 3.98999 4.01249 4.00125
# Velocity P-wave (km/s) = 7.41664 7.47445 7.44560
#
# Compressibility (1/GPa) = 0.01636899
#
# Stress axis : x y z
#
# Youngs Moduli (GPa) = 72.98293 67.11418 81.44006
#
# Poissons Ratio (x) = 0.33904 0.28484
# Poissons Ratio (y) = 0.36869 0.30188
# Poissons Ratio (z) = 0.25526 0.24877
#
# Static dielectric constant tensor:
#      x y z
#    x 3.350570 0.000000 -0.051260 
#    y 0.000000 3.358280 0.000000 
#    z -0.051260 0.000000 3.376700 
# 
# 
# High freq. dielectric constant tensor:
#      x y z
#    x 1.694580 0.000000 -0.002190 
#    y 0.000000 1.697130 0.000000 
#    z -0.002190 0.000000 1.691460 
# 
# From -- ./inp_files/244337.got.cif
#   From: 2010.06.25/outbox.cif.g09.slc.cpg/sg12_123_cif.got.tgz:244337.got - 2010.06.28 00:19:55.
