data_PCOD8083172
_publ_section_title
;
Structure prediction by ZEFSAII (Michael W. Deem and Ramdas Pophale) SiO2 
 PCOD8083172
Probable space group: C 2/M
;
_chemical_formula_sum "Si O2"
_cell_formula_units_Z 56
_cell_length_a 20.518776
_cell_length_b 7.711219
_cell_length_c 28.701394
_cell_angle_alpha 90.000000
_cell_angle_beta 37.707562
_cell_angle_gamma 90.000000
_cell_volume 2777.584599
_symmetry_space_group_name_H-M "C 2/M"
_symmetry_group_IT_number 12
_symmetry_cell_setting 'monoclinic'
loop_
_space_group_symop_operation_xyz
x,y,z
-x,y,-z
-x,-y,-z
x,-y,z
1/2+x,1/2+y,z
1/2-x,1/2+y,-z
1/2-x,1/2-y,-z
1/2+x,1/2-y,z
loop_
_atom_site_type_symbol
_atom_site_label
_atom_site_fract_x
_atom_site_fract_y
_atom_site_fract_z
Si Si1 0.258961 0.297223 0.941334
Si Si2 0.329161 0.000000 0.576564
Si Si3 0.858154 0.694707 0.197297
Si Si4 0.847889 0.307099 0.733219
Si Si5 0.055427 0.697281 0.228421
Si Si6 0.535367 0.207263 0.029998
Si Si7 0.332006 0.208970 0.315664
Si Si8 0.037822 0.500000 0.404363
O O1 0.270548 0.500000 0.927753
O O2 0.362971 0.209734 0.860653
O O3 0.250000 0.250000 0.000000
O O4 0.154135 0.227071 0.974160
O O5 0.261977 0.822193 0.608287
O O6 0.413725 0.000000 0.486709
O O7 0.388835 0.000000 0.591813
O O8 0.894177 0.500000 0.187116
O O9 0.750883 0.692665 0.227501
O O10 0.839692 0.779267 0.258123
O O11 0.954350 0.785340 0.114524
O O12 0.803621 0.500000 0.771029
O O13 0.899263 0.213934 0.749827
O O14 0.934656 0.328155 0.642244
O O15 0.035525 0.500000 0.252907
O O16 0.940905 0.771695 0.278725
O O17 0.529155 0.000000 0.033687
O O18 0.500000 0.281129 0.000000
O O19 0.310081 0.000000 0.331919
#
# Coordination Sequence:
#
# PCOD8083172 Si02
#       8
#     8   4   8   8   8   8   8   4
#     4  11  22  36  54  79 112 152 199 242 295 348
#     4  11  20  40  66  90 124 149 194 239 297 358
#     4  10  18  32  54  80 109 146 197 243 283 347
#     4   9  18  36  57  80 112 149 184 232 301 345
#     4  10  21  37  58  78 115 153 192 242 294 348
#     4   9  18  32  50  74 108 145 186 240 293 334
#     4  10  21  37  59  88 116 156 195 238 289 351
#     4   9  20  38  64  90 116 153 181 243 300 354
#
# _framework density 20.161401000000001
#
# number of rings (size 3 to 8) (size 9 to 14) (size 15 to 20)
#    0.429    1.714    1.429    2.143    1.000    4.000 
#    0.000    4.286    0.000    3.857    0.000    0.000 
#    0.000    0.000    0.000    0.000    0.000    0.000 
#
# Total GULP energy -347042.294389 kJ/mol
# GULP energy per Si atom -12394.367657 kJ/mol
# Density = 2.011551 g / cm^3
# Si number density = 20.161401 Si / 1000 Ang^3
#
#
#
# Elastic Constant Matrix: (Units=GPa)
#
#
# Indices 1 2 3 4 5 6 
#
# 1 121.7502 6.8393 29.6052 0.0645 -17.1344 -0.2244
# 2 6.8393 39.9376 19.5372 -0.0233 -7.4492 0.1341
# 3 29.6052 19.5372 130.3770 0.0522 -15.8014 -0.0253
# 4 0.0645 -0.0233 0.0522 21.5345 0.0044 -5.0424
# 5 -17.1344 -7.4492 -15.8014 0.0044 32.8277 0.0233
# 6 -0.2244 0.1341 -0.0253 -5.0424 0.0233 19.1412
#
#
#
# Elastic Compliance Matrix: (Units=1/GPa)
#
#
# Indices 1 2 3 4 5 6 
#
# 1 0.009167 -0.000045 -0.001589 -0.000001 0.004010 0.000101
# 2 -0.000045 0.027645 -0.003584 -0.000011 0.004525 -0.000207
# 3 -0.001589 -0.003584 0.008887 -0.000019 0.002635 0.000010
# 4 -0.000001 -0.000011 -0.000019 0.049490 -0.000028 0.013037
# 5 0.004010 0.004525 0.002635 -0.000028 0.034850 -0.000031
# 6 0.000101 -0.000207 0.000010 0.013037 -0.000031 0.055681
#
#
# Mechanical properties :
#
#
# Convention : Reuss Voigt Hill
#
# Bulk Modulus (GPa) = 28.35834 44.89202 36.62518
# Shear Modulus (GPa) = 24.04890 30.43955 27.24422
#
# Velocity S-wave (km/s) = 3.45747 3.88982 3.68000
# Velocity P-wave (km/s) = 5.48042 6.51835 6.02179
#
# Compressibility (1/GPa) = 0.03526299
#
# Stress axis : x y z
#
# Youngs Moduli (GPa) = 109.08835 36.17337 112.51985
#
# Poissons Ratio (x) = 0.00163 0.17878
# Poissons Ratio (y) = 0.00492 0.40327
# Poissons Ratio (z) = 0.17332 0.12965
#
# Static dielectric constant tensor:
#      x y z
#    x 3.893130 0.000060 0.018730 
#    y 0.000060 3.285140 -0.000040 
#    z 0.018730 -0.000040 3.629480 
# 
# 
# High freq. dielectric constant tensor:
#      x y z
#    x 1.799810 0.000000 -0.002980 
#    y 0.000000 1.758260 0.000000 
#    z -0.002980 0.000000 1.775220 
# 
# From -- ./inp_files/380676.got.cif
#   From: 2010.06.25/outbox.cif.g09.slc.cpg/sg12_191_cif.got.tgz:380676.got - 2010.06.28 00:19:55.
