data_PCOD8083402
_publ_section_title
;
Structure prediction by ZEFSAII (Michael W. Deem and Ramdas Pophale) SiO2 
 PCOD8083402
Probable space group: C 2/M
;
_chemical_formula_sum "Si O2"
_cell_formula_units_Z 56
_cell_length_a 15.304796
_cell_length_b 8.877812
_cell_length_c 22.707903
_cell_angle_alpha 90.000000
_cell_angle_beta 69.611286
_cell_angle_gamma 90.000000
_cell_volume 2892.095277
_symmetry_space_group_name_H-M "C 2/M"
_symmetry_group_IT_number 12
_symmetry_cell_setting 'monoclinic'
loop_
_space_group_symop_operation_xyz
x,y,z
-x,y,-z
-x,-y,-z
x,-y,z
1/2+x,1/2+y,z
1/2-x,1/2+y,-z
1/2-x,1/2-y,-z
1/2+x,1/2-y,z
loop_
_atom_site_type_symbol
_atom_site_label
_atom_site_fract_x
_atom_site_fract_y
_atom_site_fract_z
Si Si1 0.616784 0.825208 0.072772
Si Si2 0.138437 0.321222 0.714333
Si Si3 0.977043 0.822528 0.358880
Si Si4 0.323046 0.674197 0.057934
Si Si5 0.662097 0.677900 0.372812
Si Si6 0.429013 0.676702 0.152166
Si Si7 0.154112 0.822227 0.505190
O O1 0.712318 0.792899 0.086071
O O2 0.535233 0.731209 0.122418
O O3 0.590000 0.000000 0.080752
O O4 0.627752 0.775578 0.002685
O O5 0.137687 0.500000 0.716127
O O6 0.057921 0.265624 0.689721
O O7 0.237611 0.254845 0.668825
O O8 0.121465 0.260024 0.783054
O O9 0.923771 0.769633 0.430363
O O10 0.084734 0.775447 0.342985
O O11 0.964978 0.000000 0.350892
O O12 0.341651 0.500000 0.037555
O O13 0.369420 0.718647 0.108575
O O14 0.670801 0.500000 0.372875
O O15 0.629578 0.734498 0.445050
O O16 0.429403 0.500000 0.164195
O O17 0.250000 0.750000 0.500000
O O18 0.164957 0.000000 0.504107
#
# Coordination Sequence:
#
# PCOD8083402 Si02
#       7
#     8   8   8   8   8   8   8
#     4  10  20  36  60  90 119 146 183 230 278 325
#     4  11  23  39  56  78 111 146 185 235 281 326
#     4  10  20  36  59  83 108 145 187 226 276 339
#     4   9  20  38  59  85 118 152 184 225 276 329
#     4   9  19  36  57  81 110 145 184 227 278 334
#     4  11  23  39  58  80 112 152 192 228 273 332
#     4  10  18  32  57  84 112 142 179 227 279 332
#
# _framework density 19.363123999999999
#
# number of rings (size 3 to 8) (size 9 to 14) (size 15 to 20)
#    0.000    2.000    1.429    2.143    0.000    6.286 
#    0.000    5.000    0.000    1.714    0.000    0.000 
#    0.000    0.000    0.000    0.000    0.000    0.000 
#
# Total GULP energy -347233.708268 kJ/mol
# GULP energy per Si atom -12401.203867 kJ/mol
# Density = 1.931905 g / cm^3
# Si number density = 19.363124 Si / 1000 Ang^3
#
#
#
# Elastic Constant Matrix: (Units=GPa)
#
#
# Indices 1 2 3 4 5 6 
#
# 1 102.5599 25.2383 36.4165 0.0000 6.2427 0.0000
# 2 25.2383 44.4559 21.1924 0.0000 5.9421 0.0000
# 3 36.4165 21.1924 81.4341 0.0000 7.7814 0.0000
# 4 0.0000 0.0000 0.0000 29.3841 0.0000 0.9071
# 5 6.2427 5.9421 7.7814 0.0000 18.3063 0.0000
# 6 0.0000 0.0000 0.0000 0.9071 0.0000 29.8161
#
#
#
# Elastic Compliance Matrix: (Units=1/GPa)
#
#
# Indices 1 2 3 4 5 6 
#
# 1 0.012529 -0.004985 -0.004224 0.000000 -0.000859 0.000000
# 2 -0.004985 0.028253 -0.004596 0.000000 -0.005517 0.000000
# 3 -0.004224 -0.004596 0.015723 0.000000 -0.003751 0.000000
# 4 0.000000 0.000000 0.000000 0.034064 0.000000 -0.001036
# 5 -0.000859 -0.005517 -0.003751 0.000000 0.058304 0.000000
# 6 0.000000 0.000000 0.000000 -0.001036 0.000000 0.033570
#
#
# Mechanical properties :
#
#
# Convention : Reuss Voigt Hill
#
# Bulk Modulus (GPa) = 34.60691 43.79380 39.20036
# Shear Modulus (GPa) = 22.75993 25.20814 23.98404
#
# Velocity S-wave (km/s) = 3.43217 3.61205 3.52326
# Velocity P-wave (km/s) = 5.79808 6.32946 6.06959
#
# Compressibility (1/GPa) = 0.02889596
#
# Stress axis : x y z
#
# Youngs Moduli (GPa) = 79.81461 35.39506 63.60048
#
# Poissons Ratio (x) = 0.17643 0.26862
# Poissons Ratio (y) = 0.39785 0.29232
# Poissons Ratio (z) = 0.33710 0.16268
#
# Static dielectric constant tensor:
#      x y z
#    x 3.755760 0.000000 -0.101620 
#    y 0.000000 3.385800 0.000000 
#    z -0.101620 0.000000 3.655920 
# 
# 
# High freq. dielectric constant tensor:
#      x y z
#    x 1.767740 0.000000 0.000550 
#    y 0.000000 1.739130 0.000000 
#    z 0.000550 0.000000 1.752520 
# 
# From -- ./inp_files/337918.got.cif
#   From: 2010.06.25/outbox.cif.g09.slc.cpg/sg12_169_cif.got.tgz:337918.got - 2010.06.28 00:19:55.
