data_PCOD8083410
_publ_section_title
;
Structure prediction by ZEFSAII (Michael W. Deem and Ramdas Pophale) SiO2 
 PCOD8083410
Probable space group: C 2/M
;
_chemical_formula_sum "Si O2"
_cell_formula_units_Z 64
_cell_length_a 15.443449
_cell_length_b 8.999503
_cell_length_c 28.514501
_cell_angle_alpha 90.000000
_cell_angle_beta 123.834089
_cell_angle_gamma 90.000000
_cell_volume 3291.913529
_symmetry_space_group_name_H-M "C 2/M"
_symmetry_group_IT_number 12
_symmetry_cell_setting 'monoclinic'
loop_
_space_group_symop_operation_xyz
x,y,z
-x,y,-z
-x,-y,-z
x,-y,z
1/2+x,1/2+y,z
1/2-x,1/2+y,-z
1/2-x,1/2-y,-z
1/2+x,1/2-y,z
loop_
_atom_site_type_symbol
_atom_site_label
_atom_site_fract_x
_atom_site_fract_y
_atom_site_fract_z
Si Si1 0.465200 0.828938 0.381999
Si Si2 0.556792 0.827027 0.309106
Si Si3 0.837543 0.327038 0.495698
Si Si4 0.345320 0.174696 0.003740
Si Si5 0.298610 0.674008 0.387626
Si Si6 0.786739 0.324230 0.885049
Si Si7 0.033779 0.675113 0.125964
Si Si8 0.447862 0.676292 0.190718
O O1 0.513109 0.782459 0.346672
O O2 0.550803 0.799489 0.447507
O O3 0.364185 0.728185 0.362256
O O4 0.430184 0.000000 0.370979
O O5 0.678315 0.786869 0.343175
O O6 0.496886 0.727219 0.253992
O O7 0.538436 0.000000 0.292526
O O8 0.810416 0.500000 0.484803
O O9 0.750000 0.250000 0.500000
O O10 0.842277 0.260023 0.445566
O O11 0.346147 0.229372 0.950036
O O12 0.328779 0.000000 0.001535
O O13 0.250000 0.250000 0.000000
O O14 0.450936 0.222570 0.061326
O O15 0.314114 0.500000 0.400499
O O16 0.779888 0.500000 0.883436
O O17 0.853548 0.274071 0.859944
O O18 0.669876 0.258761 0.847529
O O19 0.029044 0.500000 0.134643
O O20 0.015443 0.760488 0.168505
O O21 0.449140 0.500000 0.188175
#
# Coordination Sequence:
#
# PCOD8083410 Si02
#       8
#     8   8   8   8   8   8   8   8
#     4  10  22  41  62  88 122 158 192 238 296 347
#     4  10  23  44  62  80 116 157 197 241 289 347
#     4  11  21  37  62  91 125 159 193 237 294 353
#     4  10  18  32  57  85 115 149 185 228 283 343
#     4  11  23  40  62  91 121 155 197 242 291 349
#     4   9  19  36  57  83 116 149 187 233 280 341
#     4  10  20  36  60  85 112 153 192 226 284 351
#     4  11  23  39  59  84 114 147 192 247 291 331
#
# _framework density 19.441579999999998
#
# number of rings (size 3 to 8) (size 9 to 14) (size 15 to 20)
#    0.000    1.750    2.500    1.875    0.000    6.500 
#    0.000    5.625    0.000    1.500    0.000    0.000 
#    0.000    0.000    0.000    0.000    0.000    0.000 
#
# Total GULP energy -396872.527053 kJ/mol
# GULP energy per Si atom -12402.266470 kJ/mol
# Density = 1.939733 g / cm^3
# Si number density = 19.441580 Si / 1000 Ang^3
#
#
#
# Elastic Constant Matrix: (Units=GPa)
#
#
# Indices 1 2 3 4 5 6 
#
# 1 128.0453 35.0409 25.5932 0.0000 6.0406 0.0000
# 2 35.0409 51.9976 31.6897 0.0000 -2.8102 0.0000
# 3 25.5932 31.6897 84.4867 0.0000 -5.1812 0.0000
# 4 0.0000 0.0000 0.0000 27.8563 0.0000 -0.4371
# 5 6.0406 -2.8102 -5.1812 0.0000 12.9531 0.0000
# 6 0.0000 0.0000 0.0000 -0.4371 0.0000 34.8657
#
#
#
# Elastic Compliance Matrix: (Units=1/GPa)
#
#
# Indices 1 2 3 4 5 6 
#
# 1 0.010113 -0.006556 -0.001006 0.000000 -0.006541 0.000000
# 2 -0.006556 0.029218 -0.008608 0.000000 0.005953 0.000000
# 3 -0.001006 -0.008608 0.015668 0.000000 0.004869 0.000000
# 4 0.000000 0.000000 0.000000 0.035906 0.000000 0.000450
# 5 -0.006541 0.005953 0.004869 0.000000 0.083491 0.000000
# 6 0.000000 0.000000 0.000000 0.000450 0.000000 0.028687
#
#
# Mechanical properties :
#
#
# Convention : Reuss Voigt Hill
#
# Bulk Modulus (GPa) = 44.13114 49.90857 47.01986
# Shear Modulus (GPa) = 20.57824 26.61541 23.59682
#
# Velocity S-wave (km/s) = 3.25694 3.70401 3.48764
# Velocity P-wave (km/s) = 6.07389 6.63473 6.36050
#
# Compressibility (1/GPa) = 0.02265974
#
# Stress axis : x y z
#
# Youngs Moduli (GPa) = 98.87840 34.22595 63.82371
#
# Poissons Ratio (x) = 0.22438 0.06419
# Poissons Ratio (y) = 0.64825 0.54940
# Poissons Ratio (z) = 0.09944 0.29462
#
# Static dielectric constant tensor:
#      x y z
#    x 3.829480 0.000000 0.072740 
#    y 0.000000 3.391200 0.000000 
#    z 0.072740 0.000000 3.761630 
# 
# 
# High freq. dielectric constant tensor:
#      x y z
#    x 1.774370 0.000000 -0.001400 
#    y 0.000000 1.741970 0.000000 
#    z -0.001400 0.000000 1.756480 
# 
# From -- ./inp_files/375570.got.cif
#   From: 2010.06.25/outbox.cif.g09.slc.cpg/sg12_188_cif.got.tgz:375570.got - 2010.06.28 00:19:55.
