data_PCOD8083636
_publ_section_title
;
Structure prediction by ZEFSAII (Michael W. Deem and Ramdas Pophale) SiO2 
 PCOD8083636
Probable space group: C 2/M
;
_chemical_formula_sum "Si O2"
_cell_formula_units_Z 56
_cell_length_a 13.331263
_cell_length_b 18.766788
_cell_length_c 14.415472
_cell_angle_alpha 90.000000
_cell_angle_beta 59.058113
_cell_angle_gamma 90.000000
_cell_volume 3093.285992
_symmetry_space_group_name_H-M "C 2/M"
_symmetry_group_IT_number 12
_symmetry_cell_setting 'monoclinic'
loop_
_space_group_symop_operation_xyz
x,y,z
-x,y,-z
-x,-y,-z
x,-y,z
1/2+x,1/2+y,z
1/2-x,1/2+y,-z
1/2-x,1/2-y,-z
1/2+x,1/2-y,z
loop_
_atom_site_type_symbol
_atom_site_label
_atom_site_fract_x
_atom_site_fract_y
_atom_site_fract_z
Si Si1 0.953518 0.224056 0.621148
Si Si2 0.637188 0.578886 0.769423
Si Si3 0.679743 0.343896 0.578167
Si Si4 0.059103 0.177633 0.068589
Si Si5 0.263510 0.082584 0.897364
Si Si6 0.219670 0.694077 0.650315
Si Si7 0.460230 0.810025 0.799472
O O1 0.825644 0.187283 0.673492
O O2 0.947637 0.288271 0.697655
O O3 0.000000 0.254459 0.500000
O O4 0.044131 0.164094 0.612620
O O5 0.583846 0.500000 0.802843
O O6 0.695774 0.589806 0.640509
O O7 0.533383 0.635192 0.825678
O O8 0.732803 0.589988 0.803733
O O9 0.758635 0.357040 0.449205
O O10 0.722859 0.274784 0.613012
O O11 0.092896 0.248572 0.108865
O O12 0.170247 0.126706 0.002022
O O13 0.000000 0.199840 0.000000
O O14 0.390616 0.117269 0.852032
O O15 0.265279 0.000000 0.928495
O O16 0.096940 0.675263 0.757746
#
# Coordination Sequence:
#
# PCOD8083636 Si02
#       7
#     8   8   8   8   8   8   8
#     4   9  17  29  52  81 108 135 174 220 261 308
#     4  10  18  33  55  79 110 139 173 221 271 318
#     4   9  16  30  48  78 106 135 176 207 262 311
#     4  10  20  35  54  82 103 132 182 230 267 304
#     4  10  22  36  52  76 110 143 175 219 272 323
#     4   9  17  29  50  76 107 134 169 222 255 308
#     4  11  20  33  56  81 105 143 174 224 267 314
#
# _framework density 18.103725000000001
#
# number of rings (size 3 to 8) (size 9 to 14) (size 15 to 20)
#    0.000    2.286    2.857    2.571    2.000    1.714 
#    0.000    0.714    0.000    7.286    0.000    0.000 
#    0.000    0.000    0.000    0.000    0.000    0.000 
#
# Total GULP energy -347095.259689 kJ/mol
# GULP energy per Si atom -12396.259275 kJ/mol
# Density = 1.806252 g / cm^3
# Si number density = 18.103725 Si / 1000 Ang^3
#
#
#
# Elastic Constant Matrix: (Units=GPa)
#
#
# Indices 1 2 3 4 5 6 
#
# 1 81.7757 38.2729 31.7487 0.0000 -14.8977 0.0000
# 2 38.2729 80.2799 39.2697 0.0000 -5.6624 0.0000
# 3 31.7487 39.2697 78.7753 0.0000 -2.5859 0.0000
# 4 0.0000 0.0000 0.0000 19.2415 0.0000 5.0636
# 5 -14.8977 -5.6624 -2.5859 0.0000 27.8435 0.0000
# 6 0.0000 0.0000 0.0000 5.0636 0.0000 17.5401
#
#
#
# Elastic Compliance Matrix: (Units=1/GPa)
#
#
# Indices 1 2 3 4 5 6 
#
# 1 0.018109 -0.006114 -0.003985 0.000000 0.008076 0.000000
# 2 -0.006114 0.018727 -0.006875 0.000000 -0.000101 0.000000
# 3 -0.003985 -0.006875 0.017665 0.000000 -0.001890 0.000000
# 4 0.000000 0.000000 0.000000 0.056244 0.000000 -0.016237
# 5 0.008076 -0.000101 -0.001890 0.000000 0.040040 0.000000
# 6 0.000000 0.000000 0.000000 -0.016237 0.000000 0.061700
#
#
# Mechanical properties :
#
#
# Convention : Reuss Voigt Hill
#
# Bulk Modulus (GPa) = 48.65469 51.04593 49.85031
# Shear Modulus (GPa) = 19.74076 21.69433 20.71754
#
# Velocity S-wave (km/s) = 3.30574 3.46545 3.38654
# Velocity P-wave (km/s) = 6.44239 6.65358 6.54884
#
# Compressibility (1/GPa) = 0.02055300
#
# Stress axis : x y z
#
# Youngs Moduli (GPa) = 55.22259 53.39916 56.60753
#
# Poissons Ratio (x) = 0.32649 0.22560
# Poissons Ratio (y) = 0.33764 0.38915
# Poissons Ratio (z) = 0.22008 0.36710
#
# Static dielectric constant tensor:
#      x y z
#    x 3.432790 0.000000 -0.034360 
#    y 0.000000 3.027760 0.000000 
#    z -0.034360 0.000000 3.487090 
# 
# 
# High freq. dielectric constant tensor:
#      x y z
#    x 1.700290 0.000000 -0.002600 
#    y 0.000000 1.656120 0.000000 
#    z -0.002600 0.000000 1.704760 
# 
# From -- ./inp_files/206089.got.cif
#   From: 2010.06.25/outbox.cif.g09.slc.cpg/sg12_104_cif.got.tgz:206089.got - 2010.06.28 00:19:55.
