data_PCOD8083657
_publ_section_title
;
Structure prediction by ZEFSAII (Michael W. Deem and Ramdas Pophale) SiO2 
 PCOD8083657
Probable space group: C 2/M
;
_chemical_formula_sum "Si O2"
_cell_formula_units_Z 64
_cell_length_a 23.081445
_cell_length_b 15.032098
_cell_length_c 18.237723
_cell_angle_alpha 90.000000
_cell_angle_beta 34.011287
_cell_angle_gamma 90.000000
_cell_volume 3539.497998
_symmetry_space_group_name_H-M "C 2/M"
_symmetry_group_IT_number 12
_symmetry_cell_setting 'monoclinic'
loop_
_space_group_symop_operation_xyz
x,y,z
-x,y,-z
-x,-y,-z
x,-y,z
1/2+x,1/2+y,z
1/2-x,1/2+y,-z
1/2-x,1/2-y,-z
1/2+x,1/2-y,z
loop_
_atom_site_type_symbol
_atom_site_label
_atom_site_fract_x
_atom_site_fract_y
_atom_site_fract_z
Si Si1 0.531924 0.596912 0.770022
Si Si2 0.972314 0.752005 0.947018
Si Si3 0.247530 0.730281 0.128708
Si Si4 0.074772 0.601841 0.355862
Si Si5 0.864414 0.182232 0.868594
Si Si6 0.029360 0.323235 0.672288
Si Si7 0.808038 0.815234 0.491904
Si Si8 0.606648 0.103101 0.739416
O O1 0.532753 0.500000 0.806597
O O2 0.515763 0.671189 0.848802
O O3 0.439999 0.599341 0.805109
O O4 0.638796 0.610273 0.614889
O O5 0.026182 0.658023 0.873237
O O6 0.847774 0.741839 0.070183
O O7 0.000000 0.780860 0.000000
O O8 0.174979 0.666014 0.253149
O O9 0.182837 0.816453 0.165022
O O10 0.275489 0.678717 0.023874
O O11 0.112420 0.500000 0.324155
O O12 0.000000 0.629993 0.500000
O O13 0.008817 0.611723 0.351019
O O14 0.932419 0.272263 0.810835
O O15 0.105907 0.246602 0.557770
O O16 0.084054 0.382768 0.676907
O O17 0.750000 0.750000 0.500000
O O18 0.724637 0.863068 0.632789
O O19 0.595877 0.000000 0.771865
#
# Coordination Sequence:
#
# PCOD8083657 Si02
#       8
#     8   8   8   8   8   8   8   8
#     4  10  18  33  55  83 113 141 179 229 278 333
#     4  11  23  38  54  77 114 155 191 226 273 332
#     4   9  17  34  55  71 102 146 182 221 276 322
#     4  10  21  34  50  81 115 140 176 222 274 340
#     4   8  15  31  55  77  99 133 183 233 268 312
#     4   9  16  33  56  76 106 141 180 228 277 325
#     4   9  16  32  55  78 106 140 179 225 271 320
#     4  11  20  34  56  81 106 142 192 241 277 315
#
# _framework density 18.081659999999999
#
# number of rings (size 3 to 8) (size 9 to 14) (size 15 to 20)
#    0.000    2.375    5.000    0.750    0.000    3.500 
#    0.000    0.625    0.000    0.000    0.000    0.000 
#    0.000    9.500    0.000    0.000    0.000    0.000 
#
# Total GULP energy -396487.296289 kJ/mol
# GULP energy per Si atom -12390.228009 kJ/mol
# Density = 1.804051 g / cm^3
# Si number density = 18.081660 Si / 1000 Ang^3
#
#
#
# Elastic Constant Matrix: (Units=GPa)
#
#
# Indices 1 2 3 4 5 6 
#
# 1 74.8288 19.2504 33.7667 0.0000 -11.8369 0.0000
# 2 19.2504 102.3112 45.0855 0.0000 -6.1925 0.0000
# 3 33.7667 45.0855 110.6198 0.0000 -15.0198 0.0000
# 4 0.0000 0.0000 0.0000 18.3594 0.0000 0.7145
# 5 -11.8369 -6.1925 -15.0198 0.0000 25.3017 0.0000
# 6 0.0000 0.0000 0.0000 0.7145 0.0000 13.2565
#
#
#
# Elastic Compliance Matrix: (Units=1/GPa)
#
#
# Indices 1 2 3 4 5 6 
#
# 1 0.016154 -0.001052 -0.003819 0.000000 0.005033 0.000000
# 2 -0.001052 0.011982 -0.004602 0.000000 -0.000291 0.000000
# 3 -0.003819 -0.004602 0.012710 0.000000 0.004632 0.000000
# 4 0.000000 0.000000 0.000000 0.054583 0.000000 -0.002942
# 5 0.005033 -0.000291 0.004632 0.000000 0.044556 0.000000
# 6 0.000000 0.000000 0.000000 -0.002942 0.000000 0.075593
#
#
# Mechanical properties :
#
#
# Convention : Reuss Voigt Hill
#
# Bulk Modulus (GPa) = 45.66071 53.77389 49.71730
# Shear Modulus (GPa) = 20.67612 24.02733 22.35173
#
# Velocity S-wave (km/s) = 3.38522 3.64926 3.51971
# Velocity P-wave (km/s) = 6.37078 6.89639 6.63879
#
# Compressibility (1/GPa) = 0.02190067
#
# Stress axis : x y z
#
# Youngs Moduli (GPa) = 61.90471 83.45557 78.67609
#
# Poissons Ratio (x) = 0.08779 0.30045
# Poissons Ratio (y) = 0.06512 0.36208
# Poissons Ratio (z) = 0.23641 0.38408
#
# Static dielectric constant tensor:
#      x y z
#    x 3.420510 0.000000 -0.327070 
#    y 0.000000 3.212760 0.000000 
#    z -0.327070 0.000000 3.411050 
# 
# 
# High freq. dielectric constant tensor:
#      x y z
#    x 1.680480 0.000000 -0.027810 
#    y 0.000000 1.678650 0.000000 
#    z -0.027810 0.000000 1.703460 
# 
# From -- ./inp_files/290101.got.cif
#   From: 2010.06.25/outbox.cif.g09.slc.cpg/sg12_146_cif.got.tgz:290101.got - 2010.06.28 00:19:55.
