data_PCOD8083335
_publ_section_title
;
Structure prediction by ZEFSAII (Michael W. Deem and Ramdas Pophale) SiO2 
 PCOD8083335
Probable space group: C 2/M
;
_chemical_formula_sum "Si O2"
_cell_formula_units_Z 64
_cell_length_a 23.937200
_cell_length_b 9.176589
_cell_length_c 15.213523
_cell_angle_alpha 90.000000
_cell_angle_beta 90.155073
_cell_angle_gamma 90.000000
_cell_volume 3341.818310
_symmetry_space_group_name_H-M "C 2/M"
_symmetry_group_IT_number 12
_symmetry_cell_setting 'monoclinic'
loop_
_space_group_symop_operation_xyz
x,y,z
-x,y,-z
-x,-y,-z
x,-y,z
1/2+x,1/2+y,z
1/2-x,1/2+y,-z
1/2-x,1/2-y,-z
1/2+x,1/2-y,z
loop_
_atom_site_type_symbol
_atom_site_label
_atom_site_fract_x
_atom_site_fract_y
_atom_site_fract_z
Si Si1 0.866308 0.672539 0.609893
Si Si2 0.626744 0.666680 0.099180
Si Si3 0.554149 0.827842 0.235719
Si Si4 0.426509 0.173135 0.247518
Si Si5 0.143350 0.167468 0.900458
Si Si6 0.745010 0.334900 0.345158
Si Si7 0.749777 0.165611 0.858091
Si Si8 0.638684 0.172683 0.584539
O O1 0.861841 0.500000 0.611544
O O2 0.913518 0.728467 0.677209
O O3 0.806856 0.731896 0.638799
O O4 0.881808 0.726964 0.511438
O O5 0.622240 0.500000 0.131156
O O6 0.580067 0.759198 0.148524
O O7 0.688218 0.726919 0.123664
O O8 0.614994 0.680870 0.995698
O O9 0.490528 0.776728 0.244012
O O10 0.558945 0.000000 0.226917
O O11 0.394128 0.243109 0.166684
O O12 0.401809 0.233876 0.339537
O O13 0.420010 0.000000 0.239727
O O14 0.205670 0.232695 0.907937
O O15 0.147314 0.000000 0.870317
O O16 0.728855 0.500000 0.371365
O O17 0.764341 0.328292 0.244632
O O18 0.797431 0.275175 0.401494
O O19 0.744801 0.000000 0.893830
O O20 0.637294 0.000000 0.590617
#
# Coordination Sequence:
#
# PCOD8083335 Si02
#       8
#     8   8   8   8   8   8   8   8
#     4  10  20  34  54  84 114 140 178 230 274 313
#     4  10  22  39  58  81 113 149 180 218 277 337
#     4  10  22  37  57  83 108 142 190 236 272 312
#     4  10  21  40  59  77 108 149 189 227 273 330
#     4  11  23  37  57  86 112 140 182 231 277 321
#     4  10  18  32  56  82 109 148 182 210 268 338
#     4  10  19  35  59  83 111 149 181 213 271 338
#     4   9  18  34  56  80 110 145 181 220 270 328
#
# _framework density 19.151250000000001
#
# number of rings (size 3 to 8) (size 9 to 14) (size 15 to 20)
#    0.000    2.000    2.500    1.125    0.000    3.500 
#    0.000    5.625    0.000    0.000    0.000    2.625 
#    0.000    0.000    0.000    0.000    0.000    0.000 
#
# Total GULP energy -396860.009286 kJ/mol
# GULP energy per Si atom -12401.875290 kJ/mol
# Density = 1.910766 g / cm^3
# Si number density = 19.151250 Si / 1000 Ang^3
#
#
#
# Elastic Constant Matrix: (Units=GPa)
#
#
# Indices 1 2 3 4 5 6 
#
# 1 124.6953 30.9840 42.0776 0.0000 -7.5192 0.0000
# 2 30.9840 31.1025 23.7519 0.0000 -5.3384 0.0000
# 3 42.0776 23.7519 91.5470 0.0000 -4.4832 0.0000
# 4 0.0000 0.0000 0.0000 21.7674 0.0000 -0.4987
# 5 -7.5192 -5.3384 -4.4832 0.0000 16.3290 0.0000
# 6 0.0000 0.0000 0.0000 -0.4987 0.0000 28.0877
#
#
#
# Elastic Compliance Matrix: (Units=1/GPa)
#
#
# Indices 1 2 3 4 5 6 
#
# 1 0.011246 -0.008792 -0.002813 0.000000 0.001532 0.000000
# 2 -0.008792 0.048788 -0.008144 0.000000 0.009666 0.000000
# 3 -0.002813 -0.008144 0.014328 0.000000 -0.000024 0.000000
# 4 0.000000 0.000000 0.000000 0.045959 0.000000 0.000816
# 5 0.001532 0.009666 -0.000024 0.000000 0.065099 0.000000
# 6 0.000000 0.000000 0.000000 0.000816 0.000000 0.035617
#
#
# Mechanical properties :
#
#
# Convention : Reuss Voigt Hill
#
# Bulk Modulus (GPa) = 28.68207 48.99686 38.83947
# Shear Modulus (GPa) = 18.37183 23.27225 20.82204
#
# Velocity S-wave (km/s) = 3.10062 3.48973 3.30091
# Velocity P-wave (km/s) = 5.27519 6.47127 5.90360
#
# Compressibility (1/GPa) = 0.03486498
#
# Stress axis : x y z
#
# Youngs Moduli (GPa) = 88.92326 20.49678 69.79389
#
# Poissons Ratio (x) = 0.18020 0.19631
# Poissons Ratio (y) = 0.78180 0.56838
# Poissons Ratio (z) = 0.25012 0.16692
#
# Static dielectric constant tensor:
#      x y z
#    x 3.518950 0.000000 0.063500 
#    y 0.000000 3.288930 0.000000 
#    z 0.063500 0.000000 3.709290 
# 
# 
# High freq. dielectric constant tensor:
#      x y z
#    x 1.743280 0.000000 0.003680 
#    y 0.000000 1.721170 0.000000 
#    z 0.003680 0.000000 1.757580 
# 
# From -- ./inp_files/238743.got.cif
#   From: 2010.06.25/outbox.cif.g09.slc.cpg/sg12_120_cif.got.tgz:238743.got - 2010.06.28 00:19:55.
