data_PCOD8083539
_publ_section_title
;
Structure prediction by ZEFSAII (Michael W. Deem and Ramdas Pophale) SiO2 
 PCOD8083539
Probable space group: C 2/M
;
_chemical_formula_sum "Si O2"
_cell_formula_units_Z 48
_cell_length_a 22.344754
_cell_length_b 10.139362
_cell_length_c 20.787331
_cell_angle_alpha 90.000000
_cell_angle_beta 32.312140
_cell_angle_gamma 90.000000
_cell_volume 2517.434546
_symmetry_space_group_name_H-M "C 2/M"
_symmetry_group_IT_number 12
_symmetry_cell_setting 'monoclinic'
loop_
_space_group_symop_operation_xyz
x,y,z
-x,y,-z
-x,-y,-z
x,-y,z
1/2+x,1/2+y,z
1/2-x,1/2+y,-z
1/2-x,1/2-y,-z
1/2+x,1/2-y,z
loop_
_atom_site_type_symbol
_atom_site_label
_atom_site_fract_x
_atom_site_fract_y
_atom_site_fract_z
Si Si1 0.324679 0.218553 0.683742
Si Si2 0.583558 0.353330 0.868229
Si Si3 0.518096 0.849758 0.127713
Si Si4 0.454682 0.144882 0.454042
Si Si5 0.429225 0.154043 0.774991
Si Si6 0.266397 0.646858 0.859169
O O1 0.209322 0.140958 0.780731
O O2 0.377666 0.249385 0.564211
O O3 0.419065 0.130547 0.632804
O O4 0.302209 0.342998 0.751164
O O5 0.551366 0.500000 0.873071
O O6 0.573561 0.248061 0.819536
O O7 0.500000 0.307806 0.000000
O O8 0.530545 0.810104 0.190657
O O9 0.475006 0.000000 0.159920
O O10 0.634331 0.830550 0.984767
O O11 0.467553 0.186282 0.367571
O O12 0.398122 0.000000 0.510657
O O13 0.324083 0.245418 0.852431
O O14 0.393356 0.000000 0.802857
O O15 0.298657 0.500000 0.853677
#
# Coordination Sequence:
#
# PCOD8083539 Si02
#       6
#     8   8   8   8   8   8
#     4  10  18  33  52  78 107 137 175 215 265 312
#     4  11  22  34  52  80 109 139 177 222 262 309
#     4  10  21  37  53  75 109 146 177 211 263 325
#     4   9  17  32  57  80 102 136 176 223 262 309
#     4   9  19  35  56  79 103 138 183 220 258 311
#     4  10  20  33  53  80 110 140 173 219 272 315
#
# _framework density 19.067029999999999
#
# number of rings (size 3 to 8) (size 9 to 14) (size 15 to 20)
#    0.000    2.167    1.667    2.500    0.000    3.667 
#    0.000    7.500    0.000    0.000    0.000    0.000 
#    0.000    0.000    0.000    0.000    0.000    0.000 
#
# Total GULP energy -297365.948482 kJ/mol
# GULP energy per Si atom -12390.247853 kJ/mol
# Density = 1.902363 g / cm^3
# Si number density = 19.067030 Si / 1000 Ang^3
#
#
#
# Elastic Constant Matrix: (Units=GPa)
#
#
# Indices 1 2 3 4 5 6 
#
# 1 87.0105 50.3928 45.0725 0.0000 10.6072 0.0000
# 2 50.3928 82.5350 16.1429 0.0000 5.2407 0.0000
# 3 45.0725 16.1429 103.7068 0.0000 15.2105 0.0000
# 4 0.0000 0.0000 0.0000 18.3269 0.0000 -0.5724
# 5 10.6072 5.2407 15.2105 0.0000 26.2992 0.0000
# 6 0.0000 0.0000 0.0000 -0.5724 0.0000 29.6091
#
#
#
# Elastic Compliance Matrix: (Units=1/GPa)
#
#
# Indices 1 2 3 4 5 6 
#
# 1 0.022904 -0.012332 -0.007693 0.000000 -0.002331 0.000000
# 2 -0.012332 0.019190 0.002408 0.000000 -0.000243 0.000000
# 3 -0.007693 0.002408 0.013360 0.000000 -0.005104 0.000000
# 4 0.000000 0.000000 0.000000 0.054598 0.000000 0.001055
# 5 -0.002331 -0.000243 -0.005104 0.000000 0.041964 0.000000
# 6 0.000000 0.000000 0.000000 0.001055 0.000000 0.033794
#
#
# Mechanical properties :
#
#
# Convention : Reuss Voigt Hill
#
# Bulk Modulus (GPa) = 49.45477 55.16317 52.30897
# Shear Modulus (GPa) = 21.95069 25.62330 23.78699
#
# Velocity S-wave (km/s) = 3.39667 3.66984 3.53589
# Velocity P-wave (km/s) = 6.43248 6.85208 6.64559
#
# Compressibility (1/GPa) = 0.02022050
#
# Stress axis : x y z
#
# Youngs Moduli (GPa) = 43.66016 52.11099 74.85134
#
# Poissons Ratio (x) = 0.64262 0.57583
# Poissons Ratio (y) = 0.53841 -0.18025
# Poissons Ratio (z) = 0.33588 -0.12549
#
# Static dielectric constant tensor:
#      x y z
#    x 3.414380 0.000000 0.330830 
#    y 0.000000 3.295140 0.000000 
#    z 0.330830 0.000000 3.655660 
# 
# 
# High freq. dielectric constant tensor:
#      x y z
#    x 1.725770 0.000000 0.021510 
#    y 0.000000 1.721710 0.000000 
#    z 0.021510 0.000000 1.740960 
# 
# From -- ./inp_files/348757.got.cif
#   From: 2010.06.25/outbox.cif.g09.slc.cpg/sg12_175_cif.got.tgz:348757.got - 2010.06.28 00:19:55.
