data_PCOD8083286
_publ_section_title
;
Structure prediction by ZEFSAII (Michael W. Deem and Ramdas Pophale) SiO2 
 PCOD8083286
Probable space group: C 2/M
;
_chemical_formula_sum "Si O2"
_cell_formula_units_Z 64
_cell_length_a 15.294564
_cell_length_b 11.372477
_cell_length_c 17.856310
_cell_angle_alpha 90.000000
_cell_angle_beta 88.798373
_cell_angle_gamma 90.000000
_cell_volume 3105.191355
_symmetry_space_group_name_H-M "C 2/M"
_symmetry_group_IT_number 12
_symmetry_cell_setting 'monoclinic'
loop_
_space_group_symop_operation_xyz
x,y,z
-x,y,-z
-x,-y,-z
x,-y,z
1/2+x,1/2+y,z
1/2-x,1/2+y,-z
1/2-x,1/2-y,-z
1/2+x,1/2-y,z
loop_
_atom_site_type_symbol
_atom_site_label
_atom_site_fract_x
_atom_site_fract_y
_atom_site_fract_z
Si Si1 0.041562 0.131979 0.189674
Si Si2 0.059701 0.368392 0.638674
Si Si3 0.755405 0.360436 0.442916
Si Si4 0.154914 0.290578 0.092627
Si Si5 0.179944 0.630241 0.935872
Si Si6 0.884224 0.280635 0.210229
Si Si7 0.776731 0.372585 0.761117
Si Si8 0.608667 0.268235 0.339261
O O1 0.077933 0.205516 0.119422
O O2 0.091514 0.151577 0.266936
O O3 0.940217 0.162352 0.200755
O O4 0.051960 0.000000 0.164062
O O5 0.030551 0.500000 0.616541
O O6 0.151613 0.336471 0.598349
O O7 0.074194 0.364630 0.727822
O O8 0.981674 0.276091 0.618543
O O9 0.753055 0.500000 0.472052
O O10 0.750000 0.250000 0.500000
O O11 0.670197 0.345236 0.392100
O O12 0.243052 0.221382 0.074104
O O13 0.173031 0.380690 0.160214
O O14 0.128284 0.354240 0.015617
O O15 0.219623 0.500000 0.931814
O O16 0.114306 0.647754 0.867360
O O17 0.789355 0.236765 0.237606
O O18 0.732991 0.500000 0.747405
O O19 0.842864 0.349094 0.691190
#
# Coordination Sequence:
#
# PCOD8083286 Si02
#       8
#     8   8   8   8   8   8   8   8
#     4  10  20  36  56  80 112 150 194 249 303 357
#     4  10  21  40  65  93 129 165 211 258 308 370
#     4  11  25  46  69  99 133 170 208 254 309 377
#     4   9  20  33  49  77 106 146 200 245 300 368
#     4  10  19  34  53  73 105 147 194 249 303 356
#     4  10  20  34  54  86 113 150 204 247 303 363
#     4  10  18  32  55  83 119 157 199 250 306 360
#     4  10  21  39  64  95 122 161 208 253 302 363
#
# _framework density 20.610645999999999
#
# number of rings (size 3 to 8) (size 9 to 14) (size 15 to 20)
#    0.000    2.000    1.250    2.250    0.000    2.000 
#    0.000    8.125    0.000    0.000    0.000    0.000 
#    0.000    0.000    0.000    0.000    0.000    0.000 
#
# Total GULP energy -396481.147791 kJ/mol
# GULP energy per Si atom -12390.035868 kJ/mol
# Density = 2.056374 g / cm^3
# Si number density = 20.610646 Si / 1000 Ang^3
#
#
#
# Elastic Constant Matrix: (Units=GPa)
#
#
# Indices 1 2 3 4 5 6 
#
# 1 91.9604 20.0402 27.0570 0.0000 -9.9933 0.0000
# 2 20.0402 103.5702 27.4731 0.0000 -6.1316 0.0000
# 3 27.0570 27.4731 70.8250 0.0000 -1.0611 0.0000
# 4 0.0000 0.0000 0.0000 -147.1134 0.0000 174.8722
# 5 -9.9933 -6.1316 -1.0611 0.0000 19.8169 0.0000
# 6 0.0000 0.0000 0.0000 174.8722 0.0000 -164.6762
#
#
#
# Elastic Compliance Matrix: (Units=1/GPa)
#
#
# Indices 1 2 3 4 5 6 
#
# 1 0.013076 -0.000971 -0.004528 0.000000 0.006051 0.000000
# 2 -0.000971 0.011030 -0.003867 0.000000 0.002716 0.000000
# 3 -0.004528 -0.003867 0.017311 0.000000 -0.002553 0.000000
# 4 0.000000 0.000000 0.000000 0.025916 0.000000 0.027521
# 5 0.006051 0.002716 -0.002553 0.000000 0.054217 0.000000
# 6 0.000000 0.000000 0.000000 0.027521 0.000000 0.023152
#
#
# Mechanical properties :
#
#
# Convention : Reuss Voigt Hill
#
# Bulk Modulus (GPa) = 44.08226 46.16625 45.12426
# Shear Modulus (GPa) = 29.24076 -45.60885 -8.18405
#
# Velocity S-wave (km/s) = 3.77068 -4.70923 -1.99484
# Velocity P-wave (km/s) = 6.35546 2.66857 4.07864
#
# Compressibility (1/GPa) = 0.02268486
#
# Stress axis : x y z
#
# Youngs Moduli (GPa) = 76.47826 90.66474 57.76727
#
# Poissons Ratio (x) = 0.08801 0.26157
# Poissons Ratio (y) = 0.07424 0.22338
# Poissons Ratio (z) = 0.34630 0.35059
#
# Static dielectric constant tensor:
#      x y z
#    x 3.759060 0.000000 -0.026290 
#    y 0.000000 -1.373210 0.000000 
#    z -0.026290 0.000000 3.848450 
# 
# 
# High freq. dielectric constant tensor:
#      x y z
#    x 1.803050 0.000000 -0.005090 
#    y 0.000000 1.802450 0.000000 
#    z -0.005090 0.000000 1.795470 
# 
# From -- ./inp_files/269306.got.cif
#   From: 2010.06.25/outbox.cif.g09.slc.cpg/sg12_135_cif.got.tgz:269306.got - 2010.06.28 00:19:55.
