data_PCOD8083210
_publ_section_title
;
Structure prediction by ZEFSAII (Michael W. Deem and Ramdas Pophale) SiO2 
 PCOD8083210
Probable space group: C 2/M
;
_chemical_formula_sum "Si O2"
_cell_formula_units_Z 56
_cell_length_a 20.610844
_cell_length_b 8.854540
_cell_length_c 17.854798
_cell_angle_alpha 90.000000
_cell_angle_beta 116.431652
_cell_angle_gamma 90.000000
_cell_volume 2917.869194
_symmetry_space_group_name_H-M "C 2/M"
_symmetry_group_IT_number 12
_symmetry_cell_setting 'monoclinic'
loop_
_space_group_symop_operation_xyz
x,y,z
-x,y,-z
-x,-y,-z
x,-y,z
1/2+x,1/2+y,z
1/2-x,1/2+y,-z
1/2-x,1/2-y,-z
1/2+x,1/2-y,z
loop_
_atom_site_type_symbol
_atom_site_label
_atom_site_fract_x
_atom_site_fract_y
_atom_site_fract_z
Si Si1 0.823405 0.678232 0.508955
Si Si2 0.103033 0.678623 0.762097
Si Si3 0.173135 0.179440 0.942407
Si Si4 0.063107 0.322440 0.310188
Si Si5 0.919347 0.179234 0.965346
Si Si6 0.690567 0.821239 0.664392
Si Si7 0.850784 0.820780 0.777216
O O1 0.813263 0.500000 0.507066
O O2 0.750000 0.750000 0.500000
O O3 0.890383 0.732106 0.594292
O O4 0.838823 0.731924 0.431701
O O5 0.113253 0.500000 0.778219
O O6 0.145459 0.763585 0.848792
O O7 0.136446 0.736621 0.700803
O O8 0.019346 0.726202 0.718416
O O9 0.180051 0.000000 0.945608
O O10 0.250000 0.250000 0.000000
O O11 0.117039 0.236715 0.976862
O O12 0.070654 0.500000 0.302462
O O13 0.090425 0.241557 0.250011
O O14 0.871756 0.235653 0.870818
O O15 0.923430 0.000000 0.967405
O O16 0.000000 0.248212 0.000000
O O17 0.771288 0.754942 0.718177
O O18 0.695104 0.000000 0.670773
O O19 0.852398 0.000000 0.772374
#
# Coordination Sequence:
#
# PCOD8083210 Si02
#       7
#     8   8   8   8   8   8   8
#     4  10  19  34  55  81 109 141 182 225 273 324
#     4  10  21  38  56  79 112 145 181 225 273 326
#     4  11  22  38  60  83 110 145 184 226 272 324
#     4  10  21  34  53  82 114 142 173 227 285 323
#     4   9  18  32  52  78 105 137 181 225 262 314
#     4   9  18  33  55  78 103 143 188 224 263 323
#     4  10  18  32  55  77 100 139 185 223 263 322
#
# _framework density 19.192087999999998
#
# number of rings (size 3 to 8) (size 9 to 14) (size 15 to 20)
#    0.000    2.143    1.429    2.143    0.000    4.571 
#    0.000    7.143    0.000    3.857    0.000    3.000 
#    0.000    0.000    0.000    0.000    0.000    0.000 
#
# Total GULP energy -347226.542657 kJ/mol
# GULP energy per Si atom -12400.947952 kJ/mol
# Density = 1.914841 g / cm^3
# Si number density = 19.192088 Si / 1000 Ang^3
#
#
#
# Elastic Constant Matrix: (Units=GPa)
#
#
# Indices 1 2 3 4 5 6 
#
# 1 159.7329 27.9647 66.5373 0.0000 -10.3421 0.0000
# 2 27.9647 25.5582 25.0364 0.0000 -0.1129 0.0000
# 3 66.5373 25.0364 143.2728 0.0000 -10.6051 0.0000
# 4 0.0000 0.0000 0.0000 21.2667 0.0000 -1.8148
# 5 -10.3421 -0.1129 -10.6051 0.0000 43.9583 0.0000
# 6 0.0000 0.0000 0.0000 -1.8148 0.0000 27.8181
#
#
#
# Elastic Compliance Matrix: (Units=1/GPa)
#
#
# Indices 1 2 3 4 5 6 
#
# 1 0.008683 -0.006809 -0.002742 0.000000 0.001364 0.000000
# 2 -0.006809 0.052703 -0.006268 0.000000 -0.002979 0.000000
# 3 -0.002742 -0.006268 0.009468 0.000000 0.001623 0.000000
# 4 0.000000 0.000000 0.000000 0.047285 0.000000 0.003085
# 5 0.001364 -0.002979 0.001623 0.000000 0.023454 0.000000
# 6 0.000000 0.000000 0.000000 0.003085 0.000000 0.036149
#
#
# Mechanical properties :
#
#
# Convention : Reuss Voigt Hill
#
# Bulk Modulus (GPa) = 25.49889 63.07118 44.28503
# Shear Modulus (GPa) = 22.47681 32.54364 27.51023
#
# Velocity S-wave (km/s) = 3.42592 4.12233 3.79015
# Velocity P-wave (km/s) = 5.38184 7.45605 6.50219
#
# Compressibility (1/GPa) = 0.03921740
#
# Stress axis : x y z
#
# Youngs Moduli (GPa) = 115.17033 18.97424 105.61435
#
# Poissons Ratio (x) = 0.12919 0.28956
# Poissons Ratio (y) = 0.78415 0.66201
# Poissons Ratio (z) = 0.31575 0.11893
#
# Static dielectric constant tensor:
#      x y z
#    x 3.523150 0.000000 -0.231550 
#    y 0.000000 3.149380 0.000000 
#    z -0.231550 0.000000 3.267020 
# 
# 
# High freq. dielectric constant tensor:
#      x y z
#    x 1.757930 0.000000 -0.001830 
#    y 0.000000 1.708570 0.000000 
#    z -0.001830 0.000000 1.765560 
# 
# From -- ./inp_files/281761.got.cif
#   From: 2010.06.25/outbox.cif.g09.slc.cpg/sg12_141_cif.got.tgz:281761.got - 2010.06.28 00:19:55.
