data_PCOD8083938
_publ_section_title
;
Structure prediction by ZEFSAII (Michael W. Deem and Ramdas Pophale) SiO2 
 PCOD8083938
Probable space group: C 2/M
;
_chemical_formula_sum "Si O2"
_cell_formula_units_Z 64
_cell_length_a 11.353137
_cell_length_b 20.543052
_cell_length_c 16.774429
_cell_angle_alpha 90.000000
_cell_angle_beta 66.616879
_cell_angle_gamma 90.000000
_cell_volume 3590.959561
_symmetry_space_group_name_H-M "C 2/M"
_symmetry_group_IT_number 12
_symmetry_cell_setting 'monoclinic'
loop_
_space_group_symop_operation_xyz
x,y,z
-x,y,-z
-x,-y,-z
x,-y,z
1/2+x,1/2+y,z
1/2-x,1/2+y,-z
1/2-x,1/2-y,-z
1/2+x,1/2-y,z
loop_
_atom_site_type_symbol
_atom_site_label
_atom_site_fract_x
_atom_site_fract_y
_atom_site_fract_z
Si Si1 0.902704 0.572455 0.785424
Si Si2 0.612385 0.426779 0.523574
Si Si3 0.849571 0.383201 0.367485
Si Si4 0.745921 0.666573 0.232300
Si Si5 0.956812 0.159456 0.317313
Si Si6 0.946248 0.425631 0.100358
Si Si7 0.003257 0.281757 0.409777
Si Si8 0.246303 0.313417 0.254378
O O1 0.843023 0.500000 0.788145
O O2 0.801943 0.629245 0.791353
O O3 0.033709 0.574674 0.698789
O O4 0.937866 0.582804 0.868336
O O5 0.500000 0.394617 0.500000
O O6 0.574823 0.500000 0.555190
O O7 0.743349 0.427667 0.437812
O O8 0.620321 0.390034 0.605443
O O9 0.787898 0.340480 0.313158
O O10 0.900937 0.338910 0.425744
O O11 0.602568 0.637992 0.260169
O O12 0.832246 0.624161 0.150169
O O13 0.756144 0.743487 0.206526
O O14 0.960741 0.228500 0.358509
O O15 0.883085 0.165529 0.253254
O O16 0.893931 0.500000 0.116790
O O17 0.000000 0.406981 0.000000
O O18 0.000000 0.254541 0.500000
O O19 0.146268 0.306691 0.353719
#
# Coordination Sequence:
#
# PCOD8083938 Si02
#       8
#     8   8   8   8   8   8   8   8
#     4   9  19  36  59  79 105 143 181 223 265 313
#     4  11  22  31  42  67 102 138 180 227 270 315
#     4  10  18  34  51  73  99 138 183 231 270 307
#     4  10  20  34  55  82 108 139 174 221 269 321
#     4  11  21  33  49  71 107 145 176 219 270 318
#     4   9  19  38  65  90 108 133 174 219 261 314
#     4  10  20  31  50  72  98 137 189 234 264 300
#     4  10  21  34  52  79 110 143 184 219 266 326
#
# _framework density 17.822534999999998
#
# number of rings (size 3 to 8) (size 9 to 14) (size 15 to 20)
#    0.000    2.000    2.500    1.500    3.500    2.500 
#    0.000    0.625    0.000    4.125    0.000    2.625 
#    0.000    0.000    0.000    0.000    0.000    0.000 
#
# Total GULP energy -396745.440626 kJ/mol
# GULP energy per Si atom -12398.295020 kJ/mol
# Density = 1.778197 g / cm^3
# Si number density = 17.822535 Si / 1000 Ang^3
#
#
#
# Elastic Constant Matrix: (Units=GPa)
#
#
# Indices 1 2 3 4 5 6 
#
# 1 97.2070 41.2432 40.1081 0.0000 4.4371 0.0000
# 2 41.2432 105.0278 42.9889 0.0000 0.3839 0.0000
# 3 40.1081 42.9889 90.9539 0.0000 2.7091 0.0000
# 4 0.0000 0.0000 0.0000 22.7068 0.0000 -0.8098
# 5 4.4371 0.3839 2.7091 0.0000 15.6512 0.0000
# 6 0.0000 0.0000 0.0000 -0.8098 0.0000 15.8310
#
#
#
# Elastic Compliance Matrix: (Units=1/GPa)
#
#
# Indices 1 2 3 4 5 6 
#
# 1 0.013721 -0.003642 -0.004238 0.000000 -0.003067 0.000000
# 2 -0.003642 0.012779 -0.004478 0.000000 0.001494 0.000000
# 3 -0.004238 -0.004478 0.015018 0.000000 -0.001288 0.000000
# 4 0.000000 0.000000 0.000000 0.044120 0.000000 0.002257
# 5 -0.003067 0.001494 -0.001288 0.000000 0.064949 0.000000
# 6 0.000000 0.000000 0.000000 0.002257 0.000000 0.063283
#
#
# Mechanical properties :
#
#
# Convention : Reuss Voigt Hill
#
# Bulk Modulus (GPa) = 59.51747 60.20767 59.86257
# Shear Modulus (GPa) = 20.47600 22.09434 21.28517
#
# Velocity S-wave (km/s) = 3.39319 3.52474 3.45959
# Velocity P-wave (km/s) = 6.98704 7.10071 7.04410
#
# Compressibility (1/GPa) = 0.01680179
#
# Stress axis : x y z
#
# Youngs Moduli (GPa) = 72.87952 78.25226 66.58522
#
# Poissons Ratio (x) = 0.28503 0.28217
# Poissons Ratio (y) = 0.26546 0.29819
# Poissons Ratio (z) = 0.30885 0.35044
#
# Static dielectric constant tensor:
#      x y z
#    x 3.324590 0.000000 0.018680 
#    y 0.000000 3.312850 0.000000 
#    z 0.018680 0.000000 2.955520 
# 
# 
# High freq. dielectric constant tensor:
#      x y z
#    x 1.689510 0.000000 0.003800 
#    y 0.000000 1.695780 0.000000 
#    z 0.003800 0.000000 1.652300 
# 
# From -- ./inp_files/207690.got.cif
#   From: 2010.06.25/outbox.cif.g09.slc.cpg/sg12_104_cif.got.tgz:207690.got - 2010.06.28 00:19:55.
