data_PCOD8083299
_publ_section_title
;
Structure prediction by ZEFSAII (Michael W. Deem and Ramdas Pophale) SiO2 
 PCOD8083299
Probable space group: C 2/M
;
_chemical_formula_sum "Si O2"
_cell_formula_units_Z 40
_cell_length_a 13.758591
_cell_length_b 22.663938
_cell_length_c 10.814839
_cell_angle_alpha 90.000000
_cell_angle_beta 146.161945
_cell_angle_gamma 90.000000
_cell_volume 1877.870349
_symmetry_space_group_name_H-M "C 2/M"
_symmetry_group_IT_number 12
_symmetry_cell_setting 'monoclinic'
loop_
_space_group_symop_operation_xyz
x,y,z
-x,y,-z
-x,-y,-z
x,-y,z
1/2+x,1/2+y,z
1/2-x,1/2+y,-z
1/2-x,1/2-y,-z
1/2+x,1/2-y,z
loop_
_atom_site_type_symbol
_atom_site_label
_atom_site_fract_x
_atom_site_fract_y
_atom_site_fract_z
Si Si1 0.386816 0.277094 0.763133
Si Si2 0.034280 0.066017 0.328125
Si Si3 0.675708 0.931897 0.822497
Si Si4 0.803338 0.607695 0.428308
Si Si5 0.097991 0.809589 0.481321
O O1 0.229227 0.323679 0.578224
O O2 0.298597 0.213605 0.695393
O O3 0.489927 0.283389 0.739598
O O4 0.500000 0.295674 0.000000
O O5 0.153331 0.067306 0.331323
O O6 0.098775 0.118529 0.486723
O O7 0.050515 0.000000 0.404724
O O8 0.832379 0.079787 0.083100
O O9 0.711660 0.898927 0.733523
O O10 0.492482 0.908881 0.684821
O O11 0.656023 0.000000 0.769734
O O12 0.000000 0.785698 0.500000
#
# Coordination Sequence:
#
# PCOD8083299 Si02
#       5
#     8   8   8   8   8
#     4  10  22  42  63  90 124 156 202 254 307 362
#     4  10  20  37  57  81 120 161 202 247 298 356
#     4  10  19  30  53  90 121 156 200 246 305 365
#     4  10  18  32  55  87 121 155 197 251 306 361
#     4  10  23  42  60  93 120 159 206 249 305 361
#
# _framework density 21.300726000000001
#
# number of rings (size 3 to 8) (size 9 to 14) (size 15 to 20)
#    0.000    2.000    0.000    5.400    2.800    2.800 
#   10.800    0.000    0.000    0.600    0.000    0.000 
#    0.000    0.000    0.000    0.000    0.000    0.000 
#
# Total GULP energy -247805.737400 kJ/mol
# GULP energy per Si atom -12390.286870 kJ/mol
# Density = 2.125224 g / cm^3
# Si number density = 21.300726 Si / 1000 Ang^3
#
#
#
# Elastic Constant Matrix: (Units=GPa)
#
#
# Indices 1 2 3 4 5 6 
#
# 1 119.8684 27.7797 41.2469 0.0000 -10.6006 0.0000
# 2 27.7797 119.9972 44.9632 0.0000 7.9106 0.0000
# 3 41.2469 44.9632 77.0930 0.0000 15.9962 0.0000
# 4 0.0000 0.0000 0.0000 32.6766 0.0000 3.0593
# 5 -10.6006 7.9106 15.9962 0.0000 29.0098 0.0000
# 6 0.0000 0.0000 0.0000 3.0593 0.0000 14.6671
#
#
#
# Elastic Compliance Matrix: (Units=1/GPa)
#
#
# Indices 1 2 3 4 5 6 
#
# 1 0.011985 -0.000341 -0.008064 0.000000 0.008919 0.000000
# 2 -0.000341 0.010683 -0.006118 0.000000 0.000336 0.000000
# 3 -0.008064 -0.006118 0.023848 0.000000 -0.014428 0.000000
# 4 0.000000 0.000000 0.000000 0.031213 0.000000 -0.006510
# 5 0.008919 0.000336 -0.014428 0.000000 0.045595 0.000000
# 6 0.000000 0.000000 0.000000 -0.006510 0.000000 0.069538
#
#
# Mechanical properties :
#
#
# Convention : Reuss Voigt Hill
#
# Bulk Modulus (GPa) = 57.24156 60.54868 58.89512
# Shear Modulus (GPa) = 21.95587 28.80195 25.37891
#
# Velocity S-wave (km/s) = 3.21402 3.68116 3.45549
# Velocity P-wave (km/s) = 6.38002 6.82314 6.60530
#
# Compressibility (1/GPa) = 0.01746983
#
# Stress axis : x y z
#
# Youngs Moduli (GPa) = 83.43643 93.60973 41.93264
#
# Poissons Ratio (x) = 0.03191 0.33815
# Poissons Ratio (y) = 0.02844 0.25653
# Poissons Ratio (z) = 0.67285 0.57268
#
# Static dielectric constant tensor:
#      x y z
#    x 3.909820 0.000000 0.135890 
#    y 0.000000 3.918760 0.000000 
#    z 0.135890 0.000000 3.811340 
# 
# 
# High freq. dielectric constant tensor:
#      x y z
#    x 1.828100 0.000000 0.007880 
#    y 0.000000 1.845880 0.000000 
#    z 0.007880 0.000000 1.805430 
# 
# From -- ./inp_files/148793.got.cif
#   From: 2010.06.25/outbox.cif.g09.slc.cpg/sg12_75_cif.got.tgz:148793.got - 2010.06.28 00:19:55.
