data_PCOD8083095
_publ_section_title
;
Structure prediction by ZEFSAII (Michael W. Deem and Ramdas Pophale) SiO2 
 PCOD8083095
Probable space group: C 2/M
;
_chemical_formula_sum "Si O2"
_cell_formula_units_Z 56
_cell_length_a 11.682514
_cell_length_b 30.575177
_cell_length_c 9.048183
_cell_angle_alpha 90.000000
_cell_angle_beta 75.850786
_cell_angle_gamma 90.000000
_cell_volume 3133.915076
_symmetry_space_group_name_H-M "C 2/M"
_symmetry_group_IT_number 12
_symmetry_cell_setting 'monoclinic'
loop_
_space_group_symop_operation_xyz
x,y,z
-x,y,-z
-x,-y,-z
x,-y,z
1/2+x,1/2+y,z
1/2-x,1/2+y,-z
1/2-x,1/2-y,-z
1/2+x,1/2-y,z
loop_
_atom_site_type_symbol
_atom_site_label
_atom_site_fract_x
_atom_site_fract_y
_atom_site_fract_z
Si Si1 0.568823 0.904422 0.337203
Si Si2 0.124146 0.450289 0.037706
Si Si3 0.062375 0.663464 0.822617
Si Si4 0.743938 0.834424 0.251307
Si Si5 0.268187 0.631179 0.918717
Si Si6 0.052082 0.735883 0.322484
Si Si7 0.492086 0.679681 0.833562
O O1 0.500000 0.924036 0.500000
O O2 0.612563 0.943813 0.218598
O O3 0.481922 0.873997 0.271805
O O4 0.678173 0.874009 0.358433
O O5 0.161392 0.500000 0.993385
O O6 0.227658 0.419496 0.939196
O O7 0.000000 0.438543 0.000000
O O8 0.201473 0.656151 0.806531
O O9 0.040195 0.709898 0.752315
O O10 0.000000 0.659219 0.000000
O O11 0.677925 0.788388 0.296771
O O12 0.877649 0.831617 0.268271
O O13 0.733752 0.844783 0.081312
O O14 0.409053 0.636291 0.848570
O O15 0.000000 0.742176 0.500000
O O16 0.070338 0.782983 0.242974
O O17 0.500000 0.695935 0.000000
#
# Coordination Sequence:
#
# PCOD8083095 Si02
#       7
#     8   8   8   8   8   8   8
#     4  10  18  32  53  79 108 141 166 207 267 308
#     4  10  18  33  57  86 110 128 167 218 264 315
#     4  11  16  32  55  74  98 141 178 212 260 306
#     4   9  19  35  51  72 101 139 180 218 251 307
#     4  10  18  34  55  78 100 137 173 217 264 309
#     4  11  23  35  48  75 105 141 180 224 265 298
#     4  10  23  35  52  71 100 143 183 220 255 307
#
# _framework density 17.869022999999999
#
# number of rings (size 3 to 8) (size 9 to 14) (size 15 to 20)
#    0.000    1.857    5.714    2.143    2.000    2.000 
#    2.571    0.000    0.000   10.714    0.000    0.000 
#    0.000    2.857    0.000    0.000    0.000    0.000 
#
# Total GULP energy -347093.719853 kJ/mol
# GULP energy per Si atom -12396.204280 kJ/mol
# Density = 1.782835 g / cm^3
# Si number density = 17.869023 Si / 1000 Ang^3
#
#
#
# Elastic Constant Matrix: (Units=GPa)
#
#
# Indices 1 2 3 4 5 6 
#
# 1 114.7731 50.0888 33.9438 0.0000 -20.3682 0.0000
# 2 50.0888 99.9391 29.7037 0.0000 -8.7551 0.0000
# 3 33.9438 29.7037 68.4364 0.0000 -3.4400 0.0000
# 4 0.0000 0.0000 0.0000 13.0866 0.0000 -2.2419
# 5 -20.3682 -8.7551 -3.4400 0.0000 18.6822 0.0000
# 6 0.0000 0.0000 0.0000 -2.2419 0.0000 19.3472
#
#
#
# Elastic Compliance Matrix: (Units=1/GPa)
#
#
# Indices 1 2 3 4 5 6 
#
# 1 0.014329 -0.004771 -0.004404 0.000000 0.012576 0.000000
# 2 -0.004771 0.013465 -0.003454 0.000000 0.000473 0.000000
# 3 -0.004404 -0.003454 0.018141 0.000000 -0.003080 0.000000
# 4 0.000000 0.000000 0.000000 0.077962 0.000000 0.009034
# 5 0.012576 0.000473 -0.003080 0.000000 0.066892 0.000000
# 6 0.000000 0.000000 0.000000 0.009034 0.000000 0.052734
#
#
# Mechanical properties :
#
#
# Convention : Reuss Voigt Hill
#
# Bulk Modulus (GPa) = 48.36403 56.73568 52.54986
# Shear Modulus (GPa) = 18.13734 21.51736 19.82735
#
# Velocity S-wave (km/s) = 3.18939 3.47388 3.33467
# Velocity P-wave (km/s) = 6.37868 6.92172 6.65574
#
# Compressibility (1/GPa) = 0.02067652
#
# Stress axis : x y z
#
# Youngs Moduli (GPa) = 69.78709 74.26452 55.12366
#
# Poissons Ratio (x) = 0.35432 0.24278
# Poissons Ratio (y) = 0.33296 0.19041
# Poissons Ratio (z) = 0.30736 0.25653
#
# Static dielectric constant tensor:
#      x y z
#    x 3.522720 0.000000 0.036990 
#    y 0.000000 3.142750 0.000000 
#    z 0.036990 0.000000 3.279300 
# 
# 
# High freq. dielectric constant tensor:
#      x y z
#    x 1.685680 0.000000 0.005600 
#    y 0.000000 1.665860 0.000000 
#    z 0.005600 0.000000 1.678470 
# 
# From -- ./inp_files/54164.got.cif
#   From: 2010.06.25/outbox.cif.g09.slc.cpg/sg12_28_cif.got.tgz:54164.got - 2010.06.28 00:19:55.
