data_PCOD8083186
_publ_section_title
;
Structure prediction by ZEFSAII (Michael W. Deem and Ramdas Pophale) SiO2 
 PCOD8083186
Probable space group: C 2/M
;
_chemical_formula_sum "Si O2"
_cell_formula_units_Z 56
_cell_length_a 20.064435
_cell_length_b 8.900651
_cell_length_c 19.288288
_cell_angle_alpha 90.000000
_cell_angle_beta 120.876382
_cell_angle_gamma 90.000000
_cell_volume 2956.443755
_symmetry_space_group_name_H-M "C 2/M"
_symmetry_group_IT_number 12
_symmetry_cell_setting 'monoclinic'
loop_
_space_group_symop_operation_xyz
x,y,z
-x,y,-z
-x,-y,-z
x,-y,z
1/2+x,1/2+y,z
1/2-x,1/2+y,-z
1/2-x,1/2-y,-z
1/2+x,1/2-y,z
loop_
_atom_site_type_symbol
_atom_site_label
_atom_site_fract_x
_atom_site_fract_y
_atom_site_fract_z
Si Si1 0.551253 0.674159 0.830950
Si Si2 0.919590 0.669548 0.497625
Si Si3 0.659864 0.323182 0.663996
Si Si4 0.037176 0.677427 0.092363
Si Si5 0.702677 0.326607 0.182575
Si Si6 0.503677 0.327859 0.655555
Si Si7 0.787839 0.674612 0.086226
O O1 0.558464 0.500000 0.856346
O O2 0.519686 0.769888 0.877493
O O3 0.496371 0.693198 0.734323
O O4 0.634502 0.737171 0.853508
O O5 0.889138 0.500000 0.487763
O O6 0.855508 0.766670 0.422636
O O7 0.000000 0.679803 0.500000
O O8 0.934446 0.734490 0.582610
O O9 0.672064 0.500000 0.670377
O O10 0.737728 0.247481 0.732647
O O11 0.588483 0.272794 0.675105
O O12 0.046806 0.500000 0.100277
O O13 0.119839 0.751588 0.148121
O O14 0.000000 0.730024 0.000000
O O15 0.695580 0.500000 0.198638
O O16 0.728555 0.304100 0.117449
O O17 0.493193 0.500000 0.627554
O O18 0.805847 0.500000 0.081431
O O19 0.750000 0.750000 0.000000
#
# Coordination Sequence:
#
# PCOD8083186 Si02
#       7
#     8   8   8   8   8   8   8
#     4  11  22  38  60  85 115 149 190 237 286 341
#     4   9  17  28  47  78 115 151 186 229 276 329
#     4  10  18  32  54  81 115 151 188 231 280 337
#     4  11  25  43  61  82 111 151 196 239 287 346
#     4  11  23  38  58  84 114 149 190 238 286 339
#     4   9  18  32  52  81 114 150 187 228 280 336
#     4  11  23  37  57  84 114 146 185 235 290 342
#
# _framework density 18.941676999999999
#
# number of rings (size 3 to 8) (size 9 to 14) (size 15 to 20)
#    0.000    1.714    1.429    3.429    0.000    8.571 
#    0.000    0.000    0.000    0.857    0.000    0.000 
#    0.000    0.000    0.000    0.000    0.000    0.000 
#
# Total GULP energy -347294.529687 kJ/mol
# GULP energy per Si atom -12403.376060 kJ/mol
# Density = 1.889857 g / cm^3
# Si number density = 18.941677 Si / 1000 Ang^3
#
#
#
# Elastic Constant Matrix: (Units=GPa)
#
#
# Indices 1 2 3 4 5 6 
#
# 1 38.9511 16.2124 11.2669 0.0000 3.8893 0.0000
# 2 16.2124 85.8659 45.7550 0.0000 7.5207 0.0000
# 3 11.2669 45.7550 110.3327 0.0000 4.9846 0.0000
# 4 0.0000 0.0000 0.0000 36.4528 0.0000 3.6806
# 5 3.8893 7.5207 4.9846 0.0000 21.6398 0.0000
# 6 0.0000 0.0000 0.0000 3.6806 0.0000 28.9970
#
#
#
# Elastic Compliance Matrix: (Units=1/GPa)
#
#
# Indices 1 2 3 4 5 6 
#
# 1 0.028148 -0.004589 -0.000823 0.000000 -0.003274 0.000000
# 2 -0.004589 0.016015 -0.006021 0.000000 -0.003354 0.000000
# 3 -0.000823 -0.006021 0.011665 0.000000 -0.000446 0.000000
# 4 0.000000 0.000000 0.000000 0.027789 0.000000 -0.003527
# 5 -0.003274 -0.003354 -0.000446 0.000000 0.048068 0.000000
# 6 0.000000 0.000000 0.000000 -0.003527 0.000000 0.034934
#
#
# Mechanical properties :
#
#
# Convention : Reuss Voigt Hill
#
# Bulk Modulus (GPa) = 30.33932 42.40203 36.37068
# Shear Modulus (GPa) = 24.94097 28.21228 26.57662
#
# Velocity S-wave (km/s) = 3.63261 3.86350 3.74983
# Velocity P-wave (km/s) = 5.80056 6.50664 6.16372
#
# Compressibility (1/GPa) = 0.03296053
#
# Stress axis : x y z
#
# Youngs Moduli (GPa) = 35.52588 62.44225 85.72858
#
# Poissons Ratio (x) = 0.28656 0.07059
# Poissons Ratio (y) = 0.16304 0.51619
# Poissons Ratio (z) = 0.02925 0.37598
#
# Static dielectric constant tensor:
#      x y z
#    x 3.147900 0.000000 0.026200 
#    y 0.000000 3.606860 0.000000 
#    z 0.026200 0.000000 3.651880 
# 
# 
# High freq. dielectric constant tensor:
#      x y z
#    x 1.698430 0.000000 0.003850 
#    y 0.000000 1.751000 0.000000 
#    z 0.003850 0.000000 1.753520 
# 
# From -- ./inp_files/281608.got.cif
#   From: 2010.06.25/outbox.cif.g09.slc.cpg/sg12_141_cif.got.tgz:281608.got - 2010.06.28 00:19:55.
