data_PCOD8083296
_publ_section_title
;
Structure prediction by ZEFSAII (Michael W. Deem and Ramdas Pophale) SiO2 
 PCOD8083296
Probable space group: C 2/M
;
_chemical_formula_sum "Si O2"
_cell_formula_units_Z 64
_cell_length_a 19.640588
_cell_length_b 18.123171
_cell_length_c 11.931217
_cell_angle_alpha 90.000000
_cell_angle_beta 128.622343
_cell_angle_gamma 90.000000
_cell_volume 3318.016394
_symmetry_space_group_name_H-M "C 2/M"
_symmetry_group_IT_number 12
_symmetry_cell_setting 'monoclinic'
loop_
_space_group_symop_operation_xyz
x,y,z
-x,y,-z
-x,-y,-z
x,-y,z
1/2+x,1/2+y,z
1/2-x,1/2+y,-z
1/2-x,1/2-y,-z
1/2+x,1/2-y,z
loop_
_atom_site_type_symbol
_atom_site_label
_atom_site_fract_x
_atom_site_fract_y
_atom_site_fract_z
Si Si1 0.838733 0.079076 0.947535
Si Si2 0.766527 0.084180 0.113650
Si Si3 0.597190 0.635369 0.562412
Si Si4 0.781093 0.418832 0.371732
Si Si5 0.401816 0.805681 0.403326
Si Si6 0.391778 0.414630 0.671950
Si Si7 0.968717 0.197199 0.082277
Si Si8 0.160344 0.294915 0.911132
O O1 0.748565 0.078027 0.788170
O O2 0.885935 0.000000 0.982241
O O3 0.823775 0.095689 0.061807
O O4 0.898939 0.141348 0.956800
O O5 0.828776 0.110077 0.276218
O O6 0.736687 0.000000 0.100523
O O7 0.679037 0.133416 0.008618
O O8 0.500000 0.611929 0.500000
O O9 0.603992 0.723044 0.555877
O O10 0.619290 0.593201 0.471707
O O11 0.817225 0.500000 0.444307
O O12 0.855351 0.356605 0.449852
O O13 0.701001 0.395854 0.368350
O O14 0.500000 0.833879 0.500000
O O15 0.361354 0.814690 0.238511
O O16 0.418662 0.500000 0.728356
O O17 0.461111 0.353052 0.781373
O O18 0.922852 0.252895 0.121583
O O19 0.000000 0.238745 0.000000
O O20 0.250000 0.250000 0.000000
#
# Coordination Sequence:
#
# PCOD8083296 Si02
#       8
#     8   8   8   8   8   8   8   8
#     4  10  18  32  55  86 119 151 193 244 300 361
#     4  11  22  37  64  89 115 163 212 255 307 359
#     4  11  23  39  57  87 126 164 209 254 301 367
#     4  10  21  38  59  90 126 159 198 252 313 368
#     4  11  22  39  65  91 124 163 206 257 307 358
#     4  11  24  39  58  90 131 162 197 251 313 381
#     4  12  22  34  58  90 124 161 200 246 315 370
#     4  12  22  41  62  89 127 161 208 262 297 359
#
# _framework density 19.288633000000001
#
# number of rings (size 3 to 8) (size 9 to 14) (size 15 to 20)
#    0.000    1.000    5.000    3.000    0.000    3.250 
#    0.000    1.250    0.000    0.375    0.000    0.000 
#    0.000    0.000    0.000    0.000    0.000    0.000 
#
# Total GULP energy -396600.214793 kJ/mol
# GULP energy per Si atom -12393.756712 kJ/mol
# Density = 1.924473 g / cm^3
# Si number density = 19.288633 Si / 1000 Ang^3
#
#
#
# Elastic Constant Matrix: (Units=GPa)
#
#
# Indices 1 2 3 4 5 6 
#
# 1 115.7271 65.1917 30.4100 0.0000 0.7449 0.0000
# 2 65.1917 107.2786 19.2096 0.0000 14.4129 0.0000
# 3 30.4100 19.2096 75.4213 0.0000 3.4954 0.0000
# 4 0.0000 0.0000 0.0000 17.7365 0.0000 1.0397
# 5 0.7449 14.4129 3.4954 0.0000 27.2606 0.0000
# 6 0.0000 0.0000 0.0000 1.0397 0.0000 31.7219
#
#
#
# Elastic Compliance Matrix: (Units=1/GPa)
#
#
# Indices 1 2 3 4 5 6 
#
# 1 0.014589 -0.008814 -0.003858 0.000000 0.004756 0.000000
# 2 -0.008814 0.015781 -0.000091 0.000000 -0.008091 0.000000
# 3 -0.003858 -0.000091 0.014919 0.000000 -0.001760 0.000000
# 4 0.000000 0.000000 0.000000 0.056489 0.000000 -0.001852
# 5 0.004756 -0.008091 -0.001760 0.000000 0.041056 0.000000
# 6 0.000000 0.000000 0.000000 -0.001852 0.000000 0.031585
#
#
# Mechanical properties :
#
#
# Convention : Reuss Voigt Hill
#
# Bulk Modulus (GPa) = 50.59632 58.67218 54.63425
# Shear Modulus (GPa) = 24.20929 27.58484 25.89707
#
# Velocity S-wave (km/s) = 3.54659 3.78578 3.66814
# Velocity P-wave (km/s) = 6.56195 7.04227 6.80635
#
# Compressibility (1/GPa) = 0.01976428
#
# Stress axis : x y z
#
# Youngs Moduli (GPa) = 68.54395 63.36820 67.02854
#
# Poissons Ratio (x) = 0.55851 0.25859
# Poissons Ratio (y) = 0.60413 0.00607
# Poissons Ratio (z) = 0.26444 0.00574
#
# Static dielectric constant tensor:
#      x y z
#    x 3.464830 0.000000 -0.019850 
#    y 0.000000 3.815020 0.000000 
#    z -0.019850 0.000000 3.446280 
# 
# 
# High freq. dielectric constant tensor:
#      x y z
#    x 1.738270 0.000000 -0.008870 
#    y 0.000000 1.752360 0.000000 
#    z -0.008870 0.000000 1.746290 
# 
# From -- ./inp_files/168823.got.cif
#   From: 2010.06.25/outbox.cif.g09.slc.cpg/sg12_85_cif.got.tgz:168823.got - 2010.06.28 00:19:55.
