data_PCOD8083568
_publ_section_title
;
Structure prediction by ZEFSAII (Michael W. Deem and Ramdas Pophale) SiO2 
 PCOD8083568
Probable space group: C 2/M
;
_chemical_formula_sum "Si O2"
_cell_formula_units_Z 60
_cell_length_a 16.534124
_cell_length_b 12.894378
_cell_length_c 23.857197
_cell_angle_alpha 90.000000
_cell_angle_beta 141.073248
_cell_angle_gamma 90.000000
_cell_volume 3195.849240
_symmetry_space_group_name_H-M "C 2/M"
_symmetry_group_IT_number 12
_symmetry_cell_setting 'monoclinic'
loop_
_space_group_symop_operation_xyz
x,y,z
-x,y,-z
-x,-y,-z
x,-y,z
1/2+x,1/2+y,z
1/2-x,1/2+y,-z
1/2-x,1/2-y,-z
1/2+x,1/2-y,z
loop_
_atom_site_type_symbol
_atom_site_label
_atom_site_fract_x
_atom_site_fract_y
_atom_site_fract_z
Si Si1 0.174037 0.111868 0.178287
Si Si2 0.500000 0.277476 0.500000
Si Si3 0.369129 0.692114 0.632848
Si Si4 0.804415 0.880768 0.477374
Si Si5 0.849434 0.738366 0.929386
Si Si6 0.115735 0.113809 0.955147
Si Si7 0.696086 0.118165 0.638148
Si Si8 0.613227 0.619740 0.825774
O O1 0.215249 0.197126 0.155798
O O2 0.208663 0.145162 0.259774
O O3 0.022421 0.099624 0.091729
O O4 0.237755 0.000000 0.197920
O O5 0.411856 0.350838 0.489971
O O6 0.580736 0.199653 0.583059
O O7 0.323954 0.811504 0.600600
O O8 0.365871 0.634637 0.571629
O O9 0.270354 0.632657 0.620010
O O10 0.512864 0.688339 0.735681
O O11 0.764469 0.000000 0.447091
O O12 0.760715 0.635904 0.884601
O O13 0.817684 0.800631 0.969683
O O14 0.000000 0.709426 0.000000
O O15 0.104726 0.154265 0.885895
O O16 0.185431 0.000000 0.994429
O O17 0.644483 0.000000 0.613540
O O18 0.574765 0.500000 0.797811
#
# Coordination Sequence:
#
# PCOD8083568 Si02
#       8
#     8   4   8   8   8   8   8   8
#     4   9  17  31  53  77 105 136 175 225 275 317
#     4  10  22  32  54  82 114 148 178 212 272 332
#     4  10  21  37  60  82 104 143 190 228 267 318
#     4  10  21  39  59  81 113 147 179 220 271 328
#     4  10  21  34  52  78 112 144 175 220 277 331
#     4   9  17  33  56  79 101 135 179 223 273 319
#     4  10  18  33  53  80 111 141 183 231 270 310
#     4  11  21  35  57  80 106 143 187 227 264 321
#
# _framework density 18.774353000000001
#
# number of rings (size 3 to 8) (size 9 to 14) (size 15 to 20)
#    0.000    2.133    1.333    2.400    1.867    1.867 
#    0.000    2.000    0.000    0.800    0.000    0.000 
#    0.000    0.000    0.000    0.000    0.000    0.000 
#
# Total GULP energy -371854.688264 kJ/mol
# GULP energy per Si atom -12395.156275 kJ/mol
# Density = 1.873162 g / cm^3
# Si number density = 18.774353 Si / 1000 Ang^3
#
#
#
# Elastic Constant Matrix: (Units=GPa)
#
#
# Indices 1 2 3 4 5 6 
#
# 1 66.5446 36.5835 40.2064 0.0000 -6.5442 0.0000
# 2 36.5835 98.1355 37.5662 0.0000 -2.4236 0.0000
# 3 40.2064 37.5662 67.8396 0.0000 -12.5551 0.0000
# 4 0.0000 0.0000 0.0000 19.1405 0.0000 3.6762
# 5 -6.5442 -2.4236 -12.5551 0.0000 34.0287 0.0000
# 6 0.0000 0.0000 0.0000 3.6762 0.0000 20.6118
#
#
#
# Elastic Compliance Matrix: (Units=1/GPa)
#
#
# Indices 1 2 3 4 5 6 
#
# 1 0.024960 -0.004619 -0.012244 0.000000 -0.000046 0.000000
# 2 -0.004619 0.013895 -0.005300 0.000000 -0.001854 0.000000
# 3 -0.012244 -0.005300 0.026217 0.000000 0.006941 0.000000
# 4 0.000000 0.000000 0.000000 0.054098 0.000000 -0.009649
# 5 -0.000046 -0.001854 0.006941 0.000000 0.031807 0.000000
# 6 0.000000 0.000000 0.000000 -0.009649 0.000000 0.050237
#
#
# Mechanical properties :
#
#
# Convention : Reuss Voigt Hill
#
# Bulk Modulus (GPa) = 48.20206 51.24800 49.72503
# Shear Modulus (GPa) = 19.80555 22.63376 21.21966
#
# Velocity S-wave (km/s) = 3.25149 3.47590 3.36556
# Velocity P-wave (km/s) = 6.31081 6.59281 6.45335
#
# Compressibility (1/GPa) = 0.02074600
#
# Stress axis : x y z
#
# Youngs Moduli (GPa) = 40.06402 71.96887 38.14384
#
# Poissons Ratio (x) = 0.33242 0.46703
# Poissons Ratio (y) = 0.18505 0.20216
# Poissons Ratio (z) = 0.49054 0.38143
#
# Static dielectric constant tensor:
#      x y z
#    x 3.335710 0.000000 -0.132700 
#    y 0.000000 3.470270 0.000000 
#    z -0.132700 0.000000 3.447960 
# 
# 
# High freq. dielectric constant tensor:
#      x y z
#    x 1.722120 0.000000 -0.016080 
#    y 0.000000 1.720340 0.000000 
#    z -0.016080 0.000000 1.726900 
# 
# From -- ./inp_files/343392.got.cif
#   From: 2010.06.25/outbox.cif.g09.slc.cpg/sg12_172_cif.got.tgz:343392.got - 2010.06.28 00:19:55.
