data_PCOD8083756
_publ_section_title
;
Structure prediction by ZEFSAII (Michael W. Deem and Ramdas Pophale) SiO2 
 PCOD8083756
Probable space group: C 2/M
;
_chemical_formula_sum "Si O2"
_cell_formula_units_Z 56
_cell_length_a 9.465090
_cell_length_b 18.524704
_cell_length_c 20.480903
_cell_angle_alpha 90.000000
_cell_angle_beta 124.674693
_cell_angle_gamma 90.000000
_cell_volume 2953.288006
_symmetry_space_group_name_H-M "C 2/M"
_symmetry_group_IT_number 12
_symmetry_cell_setting 'monoclinic'
loop_
_space_group_symop_operation_xyz
x,y,z
-x,y,-z
-x,-y,-z
x,-y,z
1/2+x,1/2+y,z
1/2-x,1/2+y,-z
1/2-x,1/2-y,-z
1/2+x,1/2-y,z
loop_
_atom_site_type_symbol
_atom_site_label
_atom_site_fract_x
_atom_site_fract_y
_atom_site_fract_z
Si Si1 0.849456 0.857934 0.772116
Si Si2 0.143842 0.320984 0.984594
Si Si3 0.858842 0.916902 0.407479
Si Si4 0.452897 0.582796 0.059388
Si Si5 0.911361 0.695132 0.809585
Si Si6 0.535318 0.661954 0.695526
Si Si7 0.534776 0.175226 0.321727
O O1 0.898962 0.908912 0.846235
O O2 0.928973 0.781307 0.813926
O O3 0.646702 0.856914 0.703033
O O4 0.927977 0.881319 0.722437
O O5 0.043259 0.342801 0.892805
O O6 0.250000 0.250000 0.000000
O O7 0.275492 0.383480 0.039336
O O8 0.000000 0.306068 0.000000
O O9 0.943905 0.884723 0.364222
O O10 0.695841 0.870724 0.391493
O O11 0.000000 0.912042 0.500000
O O12 0.803708 0.000000 0.380350
O O13 0.413852 0.500000 0.038585
O O14 0.500000 0.616508 0.000000
O O15 0.717402 0.676248 0.777810
O O16 0.959904 0.662191 0.753555
O O17 0.447615 0.739780 0.654902
#
# Coordination Sequence:
#
# PCOD8083756 Si02
#       7
#     8   8   8   8   8   8   8
#     4  10  18  33  57  81 109 143 189 240 282 329
#     4  12  23  34  56  81 107 147 194 242 288 344
#     4  10  22  41  61  85 120 156 186 224 288 363
#     4  11  24  38  51  76 115 155 193 240 293 342
#     4   9  18  32  54  81 110 144 192 235 280 336
#     4   9  19  36  59  89 113 146 191 239 283 337
#     4   9  19  35  60  87 115 146 191 236 280 341
#
# _framework density 18.961917
#
# number of rings (size 3 to 8) (size 9 to 14) (size 15 to 20)
#    0.000    2.000    1.429    3.000    4.000    2.000 
#    0.000    5.000    0.000    1.714    0.000    0.000 
#    0.000    0.000    0.000    0.000    0.000    0.000 
#
# Total GULP energy -347089.058366 kJ/mol
# GULP energy per Si atom -12396.037799 kJ/mol
# Density = 1.891876 g / cm^3
# Si number density = 18.961917 Si / 1000 Ang^3
#
#
#
# Elastic Constant Matrix: (Units=GPa)
#
#
# Indices 1 2 3 4 5 6 
#
# 1 127.5524 33.3288 29.6684 0.0000 -1.3145 0.0000
# 2 33.3288 78.8186 32.7006 0.0000 6.1807 0.0000
# 3 29.6684 32.7006 79.3068 0.0000 5.1645 0.0000
# 4 0.0000 0.0000 0.0000 24.9545 0.0000 0.9723
# 5 -1.3145 6.1807 5.1645 0.0000 24.0024 0.0000
# 6 0.0000 0.0000 0.0000 0.9723 0.0000 21.1132
#
#
#
# Elastic Compliance Matrix: (Units=1/GPa)
#
#
# Indices 1 2 3 4 5 6 
#
# 1 0.009195 -0.003080 -0.002286 0.000000 0.001789 0.000000
# 2 -0.003080 0.016501 -0.005440 0.000000 -0.003247 0.000000
# 3 -0.002286 -0.005440 0.015847 0.000000 -0.002134 0.000000
# 4 0.000000 0.000000 0.000000 0.040145 0.000000 -0.001849
# 5 0.001789 -0.003247 -0.002134 0.000000 0.043056 0.000000
# 6 0.000000 0.000000 0.000000 -0.001849 0.000000 0.047449
#
#
# Mechanical properties :
#
#
# Convention : Reuss Voigt Hill
#
# Bulk Modulus (GPa) = 50.17569 53.00814 51.59192
# Shear Modulus (GPa) = 24.94397 26.67936 25.81166
#
# Velocity S-wave (km/s) = 3.63089 3.75507 3.69350
# Velocity P-wave (km/s) = 6.64052 6.84225 6.74214
#
# Compressibility (1/GPa) = 0.01992997
#
# Stress axis : x y z
#
# Youngs Moduli (GPa) = 108.75616 60.60075 63.10418
#
# Poissons Ratio (x) = 0.18664 0.14428
# Poissons Ratio (y) = 0.33494 0.34331
# Poissons Ratio (z) = 0.24866 0.32970
#
# Static dielectric constant tensor:
#      x y z
#    x 3.861910 0.000000 0.106480 
#    y 0.000000 3.405950 0.000000 
#    z 0.106480 0.000000 3.401370 
# 
# 
# High freq. dielectric constant tensor:
#      x y z
#    x 1.751290 0.000000 0.002610 
#    y 0.000000 1.713470 0.000000 
#    z 0.002610 0.000000 1.724660 
# 
# From -- ./inp_files/300900.got.cif
#   From: 2010.06.25/outbox.cif.g09.slc.cpg/sg12_151_cif.got.tgz:300900.got - 2010.06.28 00:19:55.
