data_PCOD8083197
_publ_section_title
;
Structure prediction by ZEFSAII (Michael W. Deem and Ramdas Pophale) SiO2 
 PCOD8083197
Probable space group: C 2/M
;
_chemical_formula_sum "Si O2"
_cell_formula_units_Z 52
_cell_length_a 27.643926
_cell_length_b 9.139922
_cell_length_c 19.623892
_cell_angle_alpha 90.000000
_cell_angle_beta 32.892131
_cell_angle_gamma 90.000000
_cell_volume 2692.616340
_symmetry_space_group_name_H-M "C 2/M"
_symmetry_group_IT_number 12
_symmetry_cell_setting 'monoclinic'
loop_
_space_group_symop_operation_xyz
x,y,z
-x,y,-z
-x,-y,-z
x,-y,z
1/2+x,1/2+y,z
1/2-x,1/2+y,-z
1/2-x,1/2-y,-z
1/2+x,1/2-y,z
loop_
_atom_site_type_symbol
_atom_site_label
_atom_site_fract_x
_atom_site_fract_y
_atom_site_fract_z
Si Si1 0.000000 0.238380 0.000000
Si Si2 0.944108 0.674616 0.346891
Si Si3 0.615931 0.671092 0.186301
Si Si4 0.763950 0.831250 0.083405
Si Si5 0.911554 0.664911 0.237201
Si Si6 0.269927 0.674229 0.608569
Si Si7 0.188984 0.838935 0.821392
O O1 0.022274 0.331487 0.905821
O O2 0.086843 0.145562 0.916637
O O3 0.949024 0.500000 0.347964
O O4 0.951794 0.733266 0.259140
O O5 0.852922 0.734207 0.485268
O O6 0.022412 0.745554 0.298342
O O7 0.599608 0.500000 0.216804
O O8 0.676408 0.732328 0.176214
O O9 0.662545 0.707976 0.059662
O O10 0.808406 0.792748 0.102828
O O11 0.735116 0.000000 0.111618
O O12 0.891694 0.500000 0.279750
O O13 0.814698 0.732604 0.335054
O O14 0.286045 0.500000 0.585271
O O15 0.246807 0.717661 0.713689
O O16 0.231798 0.000000 0.760808
#
# Coordination Sequence:
#
# PCOD8083197 Si02
#       7
#     4   8   8   8   8   8   8
#     4  10  18  32  54  84 115 142 175 214 259 314
#     4  11  21  35  55  79 107 142 182 221 265 315
#     4  10  20  35  56  82 109 138 176 221 266 316
#     4   9  19  36  56  80 110 142 175 215 266 317
#     4   9  19  33  52  79 111 145 178 217 264 314
#     4  10  21  37  54  76 107 143 183 223 264 312
#     4  10  20  35  55  80 111 144 177 216 264 316
#
# _framework density 19.312072000000001
#
# number of rings (size 3 to 8) (size 9 to 14) (size 15 to 20)
#    0.000    2.154    0.000    3.231    0.000    1.846 
#    0.000    8.462    0.000    4.615    0.000    0.000 
#    0.000    0.000    0.000    0.000    0.000    0.000 
#
# Total GULP energy -322269.786647 kJ/mol
# GULP energy per Si atom -12394.991794 kJ/mol
# Density = 1.926812 g / cm^3
# Si number density = 19.312072 Si / 1000 Ang^3
#
#
#
# Elastic Constant Matrix: (Units=GPa)
#
#
# Indices 1 2 3 4 5 6 
#
# 1 103.9320 33.4092 38.6204 0.0018 -0.2376 -0.0012
# 2 33.4092 81.2210 31.1526 0.0026 -9.2682 0.0011
# 3 38.6204 31.1526 94.6981 0.0022 -9.6813 0.0001
# 4 0.0018 0.0026 0.0022 31.2915 0.0014 -1.4565
# 5 -0.2376 -9.2682 -9.6813 0.0014 26.8816 -0.0008
# 6 -0.0012 0.0011 0.0001 -1.4565 -0.0008 26.6578
#
#
#
# Elastic Compliance Matrix: (Units=1/GPa)
#
#
# Indices 1 2 3 4 5 6 
#
# 1 0.012352 -0.003832 -0.004050 0.000000 -0.002671 0.000001
# 2 -0.003832 0.015569 -0.003128 -0.000001 0.004207 -0.000001
# 3 -0.004050 -0.003128 0.013629 -0.000001 0.003794 0.000000
# 4 0.000000 -0.000001 -0.000001 0.032039 -0.000002 0.001750
# 5 -0.002671 0.004207 0.003794 -0.000002 0.039993 0.000001
# 6 0.000001 -0.000001 0.000000 0.001750 0.000001 0.037608
#
#
# Mechanical properties :
#
#
# Convention : Reuss Voigt Hill
#
# Bulk Modulus (GPa) = 51.20886 54.02394 52.61640
# Shear Modulus (GPa) = 27.82087 28.74409 28.28248
#
# Velocity S-wave (km/s) = 3.79963 3.86216 3.83103
# Velocity P-wave (km/s) = 6.76932 6.92267 6.84642
#
# Compressibility (1/GPa) = 0.01952787
#
# Stress axis : x y z
#
# Youngs Moduli (GPa) = 80.95561 64.23219 73.37522
#
# Poissons Ratio (x) = 0.24616 0.29717
# Poissons Ratio (y) = 0.31025 0.22955
# Poissons Ratio (z) = 0.32787 0.20095
#
# Static dielectric constant tensor:
#      x y z
#    x 3.711220 -0.000010 0.030860 
#    y -0.000010 3.386580 0.000010 
#    z 0.030860 0.000010 3.367920 
# 
# 
# High freq. dielectric constant tensor:
#      x y z
#    x 1.754670 0.000000 -0.002950 
#    y 0.000000 1.745420 0.000000 
#    z -0.002950 0.000000 1.741300 
# 
# From -- ./inp_files/329225.got.cif
#   From: 2010.06.25/outbox.cif.g09.slc.cpg/sg12_165_cif.got.tgz:329225.got - 2010.06.28 00:19:55.
