data_PCOD8083081
_publ_section_title
;
Structure prediction by ZEFSAII (Michael W. Deem and Ramdas Pophale) SiO2 
 PCOD8083081
Probable space group: C 2/M
;
_chemical_formula_sum "Si O2"
_cell_formula_units_Z 52
_cell_length_a 8.708832
_cell_length_b 21.055449
_cell_length_c 15.820523
_cell_angle_alpha 90.000000
_cell_angle_beta 108.077191
_cell_angle_gamma 90.000000
_cell_volume 2757.789007
_symmetry_space_group_name_H-M "C 2/M"
_symmetry_group_IT_number 12
_symmetry_cell_setting 'monoclinic'
loop_
_space_group_symop_operation_xyz
x,y,z
-x,y,-z
-x,-y,-z
x,-y,z
1/2+x,1/2+y,z
1/2-x,1/2+y,-z
1/2-x,1/2-y,-z
1/2+x,1/2-y,z
loop_
_atom_site_type_symbol
_atom_site_label
_atom_site_fract_x
_atom_site_fract_y
_atom_site_fract_z
Si Si1 0.708283 0.231128 0.331086
Si Si2 0.500000 0.245146 0.000000
Si Si3 0.458693 0.665744 0.254630
Si Si4 0.180447 0.070931 0.067076
Si Si5 0.278092 0.424863 0.729651
Si Si6 0.718569 0.336123 0.936044
Si Si7 0.040980 0.662146 0.598991
O O1 0.568895 0.270916 0.256440
O O2 0.815289 0.182435 0.294404
O O3 0.829741 0.281677 0.393338
O O4 0.622693 0.188976 0.387707
O O5 0.587307 0.286750 0.946221
O O6 0.373432 0.201253 0.928310
O O7 0.579060 0.608112 0.301785
O O8 0.370496 0.633798 0.158880
O O9 0.196259 0.093268 0.166777
O O10 0.249211 0.000000 0.070744
O O11 0.279673 0.115903 0.020185
O O12 0.000000 0.075638 0.000000
O O13 0.279161 0.500000 0.714783
O O14 0.109397 0.394598 0.669871
O O15 0.000000 0.633697 0.500000
#
# Coordination Sequence:
#
# PCOD8083081 Si02
#       7
#     8   4   8   8   8   8   8
#     4   9  20  34  55  86 110 137 176 218 272 323
#     4  10  22  28  44  70 108 134 176 218 266 312
#     4  10  18  32  53  77 109 141 176 220 263 318
#     4  10  19  34  55  74  99 141 190 224 251 302
#     4  10  21  36  55  80 107 142 186 226 268 318
#     4  11  19  33  48  76 103 146 176 216 263 316
#     4  10  20  37  61  84 110 140 173 221 273 328
#
# _framework density 18.855685000000001
#
# number of rings (size 3 to 8) (size 9 to 14) (size 15 to 20)
#    0.000    2.000    2.308    1.385    0.000    7.692 
#    0.000    1.154    0.000    0.923    0.000    0.000 
#    0.000    0.000    0.000    0.000    0.000    0.000 
#
# Total GULP energy -322115.298745 kJ/mol
# GULP energy per Si atom -12389.049952 kJ/mol
# Density = 1.881277 g / cm^3
# Si number density = 18.855685 Si / 1000 Ang^3
#
#
#
# Elastic Constant Matrix: (Units=GPa)
#
#
# Indices 1 2 3 4 5 6 
#
# 1 103.2148 43.2429 32.4807 0.0000 -6.0268 0.0000
# 2 43.2429 99.2131 39.6401 0.0000 -10.2062 0.0000
# 3 32.4807 39.6401 112.5698 0.0000 -0.6918 0.0000
# 4 0.0000 0.0000 0.0000 21.9731 0.0000 0.8438
# 5 -6.0268 -10.2062 -0.6918 0.0000 15.2472 0.0000
# 6 0.0000 0.0000 0.0000 0.8438 0.0000 15.2053
#
#
#
# Elastic Compliance Matrix: (Units=1/GPa)
#
#
# Indices 1 2 3 4 5 6 
#
# 1 0.012246 -0.004354 -0.001989 0.000000 0.001836 0.000000
# 2 -0.004354 0.014248 -0.003714 0.000000 0.007648 0.000000
# 3 -0.001989 -0.003714 0.010748 0.000000 -0.002784 0.000000
# 4 0.000000 0.000000 0.000000 0.045607 0.000000 -0.002531
# 5 0.001836 0.007648 -0.002784 0.000000 0.071304 0.000000
# 6 0.000000 0.000000 0.000000 -0.002531 0.000000 0.065907
#
#
# Mechanical properties :
#
#
# Convention : Reuss Voigt Hill
#
# Bulk Modulus (GPa) = 58.38421 60.63613 59.51017
# Shear Modulus (GPa) = 20.33489 23.79404 22.06447
#
# Velocity S-wave (km/s) = 3.28754 3.55618 3.42449
# Velocity P-wave (km/s) = 6.74103 7.00641 6.87500
#
# Compressibility (1/GPa) = 0.01712792
#
# Stress axis : x y z
#
# Youngs Moduli (GPa) = 81.66116 70.18741 93.04122
#
# Poissons Ratio (x) = 0.30559 0.18505
# Poissons Ratio (y) = 0.35554 0.34554
# Poissons Ratio (z) = 0.16242 0.26067
#
# Static dielectric constant tensor:
#      x y z
#    x 4.976840 0.000000 0.218130 
#    y 0.000000 3.484470 0.000000 
#    z 0.218130 0.000000 3.340280 
# 
# 
# High freq. dielectric constant tensor:
#      x y z
#    x 1.728710 0.000000 0.012890 
#    y 0.000000 1.718300 0.000000 
#    z 0.012890 0.000000 1.719430 
# 
# From -- ./inp_files/257712.got.cif
#   From: 2010.06.25/outbox.cif.g09.slc.cpg/sg12_129_cif.got.tgz:257712.got - 2010.06.28 00:19:55.
