data_PCOD8083870
_publ_section_title
;
Structure prediction by ZEFSAII (Michael W. Deem and Ramdas Pophale) SiO2 
 PCOD8083870
Probable space group: C 2/M
;
_chemical_formula_sum "Si O2"
_cell_formula_units_Z 56
_cell_length_a 25.836697
_cell_length_b 13.650892
_cell_length_c 25.742662
_cell_angle_alpha 90.000000
_cell_angle_beta 16.969165
_cell_angle_gamma 90.000000
_cell_volume 2649.851887
_symmetry_space_group_name_H-M "C 2/M"
_symmetry_group_IT_number 12
_symmetry_cell_setting 'monoclinic'
loop_
_space_group_symop_operation_xyz
x,y,z
-x,y,-z
-x,-y,-z
x,-y,z
1/2+x,1/2+y,z
1/2-x,1/2+y,-z
1/2-x,1/2-y,-z
1/2+x,1/2-y,z
loop_
_atom_site_type_symbol
_atom_site_label
_atom_site_fract_x
_atom_site_fract_y
_atom_site_fract_z
Si Si1 0.400407 0.697655 0.923502
Si Si2 0.693372 0.692143 0.802924
Si Si3 0.278367 0.200211 0.603844
Si Si4 0.322684 0.392148 0.702651
Si Si5 0.965765 0.890980 0.400643
Si Si6 0.352880 0.113666 0.749625
Si Si7 0.220481 0.888434 0.065248
O O1 0.607054 0.674106 0.734222
O O2 0.331613 0.626601 0.944495
O O3 0.291402 0.675532 0.080228
O O4 0.374616 0.812001 0.933087
O O5 0.747739 0.667834 0.692370
O O6 0.682572 0.809576 0.821468
O O7 0.834963 0.643346 0.706199
O O8 0.500000 0.647454 0.000000
O O9 0.312039 0.316137 0.564593
O O10 0.450353 0.140795 0.418830
O O11 0.500000 0.373159 0.500000
O O12 0.243901 0.500000 0.765918
O O13 0.367848 0.381793 0.720058
O O14 0.043444 0.868867 0.269040
O O15 0.882729 0.000000 0.483503
O O16 0.317207 0.000000 0.792281
O O17 0.289403 0.000000 0.006923
#
# Coordination Sequence:
#
# PCOD8083870 Si02
#       7
#     8   8   8   8   8   8   8
#     4  11  24  45  71  99 134 169 219 276 327 389
#     4  12  23  40  63  93 132 173 217 269 323 386
#     4  12  24  42  69  97 130 172 221 269 328 387
#     4  10  18  33  59  88 125 169 209 257 316 382
#     4  10  20  38  66  96 132 173 215 264 324 388
#     4  12  26  46  67  94 132 176 223 271 330 384
#     4  10  22  44  71  98 135 174 214 270 331 390
#
# _framework density 21.133255999999999
#
# number of rings (size 3 to 8) (size 9 to 14) (size 15 to 20)
#    0.000    1.000    5.714    0.857    0.000    4.000 
#    0.000    0.000    0.000    0.000    0.000    0.000 
#    0.000    0.000    0.000    0.000    0.000    0.000 
#
# Total GULP energy -347262.347852 kJ/mol
# GULP energy per Si atom -12402.226709 kJ/mol
# Density = 2.108516 g / cm^3
# Si number density = 21.133256 Si / 1000 Ang^3
#
#
#
# Elastic Constant Matrix: (Units=GPa)
#
#
# Indices 1 2 3 4 5 6 
#
# 1 82.2405 17.2682 15.6277 0.0020 -1.8295 -0.0034
# 2 17.2682 96.5919 11.0095 0.0164 -10.0504 -0.0684
# 3 15.6277 11.0095 75.2212 0.0652 -14.6868 -0.0797
# 4 0.0020 0.0164 0.0652 19.1071 -0.0631 5.9557
# 5 -1.8295 -10.0504 -14.6868 -0.0631 37.5227 0.0147
# 6 -0.0034 -0.0684 -0.0797 5.9557 0.0147 20.8670
#
#
#
# Elastic Compliance Matrix: (Units=1/GPa)
#
#
# Indices 1 2 3 4 5 6 
#
# 1 0.013080 -0.002142 -0.002589 0.000012 -0.000949 -0.000017
# 2 -0.002142 0.011083 -0.000669 -0.000009 0.002602 0.000034
# 3 -0.002589 -0.000669 0.015018 -0.000052 0.005573 0.000066
# 4 0.000012 -0.000009 -0.000052 0.057448 0.000081 -0.016397
# 5 -0.000949 0.002602 0.005573 0.000081 0.029483 -0.000014
# 6 -0.000017 0.000034 0.000066 -0.016397 -0.000014 0.052603
#
#
# Mechanical properties :
#
#
# Convention : Reuss Voigt Hill
#
# Bulk Modulus (GPa) = 35.23564 37.98491 36.61027
# Shear Modulus (GPa) = 25.12875 29.50924 27.31900
#
# Velocity S-wave (km/s) = 3.45202 3.74082 3.59932
# Velocity P-wave (km/s) = 5.70945 6.05569 5.88512
#
# Compressibility (1/GPa) = 0.02838036
#
# Stress axis : x y z
#
# Youngs Moduli (GPa) = 76.45165 90.22975 66.58601
#
# Poissons Ratio (x) = 0.19328 0.17242
# Poissons Ratio (y) = 0.16377 0.04454
# Poissons Ratio (z) = 0.19796 0.06036
#
# Static dielectric constant tensor:
#      x y z
#    x 3.829310 -0.000010 0.128590 
#    y -0.000010 3.864980 0.000190 
#    z 0.128590 0.000190 3.584230 
# 
# 
# High freq. dielectric constant tensor:
#      x y z
#    x 1.826230 -0.000010 0.016770 
#    y -0.000010 1.831580 0.000030 
#    z 0.016770 0.000030 1.809110 
# 
# From -- ./inp_files/349719.got.cif
#   From: 2010.06.25/outbox.cif.g09.slc.cpg/sg12_175_cif.got.tgz:349719.got - 2010.06.28 00:19:55.
