data_PCOD8083207
_publ_section_title
;
Structure prediction by ZEFSAII (Michael W. Deem and Ramdas Pophale) SiO2 
 PCOD8083207
Probable space group: C 2/M
;
_chemical_formula_sum "Si O2"
_cell_formula_units_Z 64
_cell_length_a 14.826782
_cell_length_b 8.494003
_cell_length_c 27.288167
_cell_angle_alpha 90.000000
_cell_angle_beta 74.467372
_cell_angle_gamma 90.000000
_cell_volume 3311.124648
_symmetry_space_group_name_H-M "C 2/M"
_symmetry_group_IT_number 12
_symmetry_cell_setting 'monoclinic'
loop_
_space_group_symop_operation_xyz
x,y,z
-x,y,-z
-x,-y,-z
x,-y,z
1/2+x,1/2+y,z
1/2-x,1/2+y,-z
1/2-x,1/2-y,-z
1/2+x,1/2-y,z
loop_
_atom_site_type_symbol
_atom_site_label
_atom_site_fract_x
_atom_site_fract_y
_atom_site_fract_z
Si Si1 0.963527 0.812498 0.574010
Si Si2 0.608190 0.314076 0.310943
Si Si3 0.481700 0.686035 0.056325
Si Si4 0.887319 0.184990 0.875714
Si Si5 0.708433 0.313315 0.756322
Si Si6 0.497513 0.313080 0.234198
Si Si7 0.852916 0.687152 0.499597
Si Si8 0.796889 0.184568 0.132970
O O1 0.934069 0.752767 0.631975
O O2 0.884941 0.746722 0.548400
O O3 0.067882 0.746705 0.549744
O O4 0.965945 0.000000 0.568730
O O5 0.603546 0.500000 0.310139
O O6 0.714825 0.259874 0.290605
O O7 0.548523 0.241906 0.274558
O O8 0.468890 0.500000 0.053360
O O9 0.568239 0.728295 0.078645
O O10 0.388379 0.759596 0.094124
O O11 0.500000 0.760420 0.000000
O O12 0.789753 0.275517 0.888904
O O13 0.952700 0.248845 0.822298
O O14 0.870148 0.000000 0.872435
O O15 0.717764 0.500000 0.754177
O O16 0.609190 0.255190 0.749847
O O17 0.719377 0.246209 0.810096
O O18 0.501082 0.500000 0.234017
O O19 0.849675 0.500000 0.499694
O O20 0.750000 0.750000 0.500000
O O21 0.812716 0.000000 0.135952
#
# Coordination Sequence:
#
# PCOD8083207 Si02
#       8
#     8   8   8   8   8   8   8   8
#     4  10  21  38  58  86 121 154 192 238 284 333
#     4  10  21  36  55  81 114 145 178 226 276 321
#     4   9  18  33  53  76 102 136 178 221 268 328
#     4  10  18  32  55  75  98 136 178 216 265 329
#     4  10  19  32  52  76 103 140 184 223 265 321
#     4   9  17  32  52  74 101 139 181 215 259 322
#     4  11  22  39  64  89 116 154 196 236 284 336
#     4  10  19  32  51  76 103 133 174 225 271 317
#
# _framework density 19.328779999999998
#
# number of rings (size 3 to 8) (size 9 to 14) (size 15 to 20)
#    0.000    2.125    2.500    2.250    0.000    2.500 
#    0.000    3.125    0.000    0.750    0.000    0.000 
#    0.000    0.000    0.000    0.000    0.000    0.000 
#
# Total GULP energy -396769.398290 kJ/mol
# GULP energy per Si atom -12399.043697 kJ/mol
# Density = 1.928479 g / cm^3
# Si number density = 19.328780 Si / 1000 Ang^3
#
#
#
# Elastic Constant Matrix: (Units=GPa)
#
#
# Indices 1 2 3 4 5 6 
#
# 1 126.9767 15.7313 42.9961 0.0000 -4.6691 0.0000
# 2 15.7313 37.7995 23.6985 0.0000 -1.7257 0.0000
# 3 42.9961 23.6985 132.8191 0.0000 -5.3158 0.0000
# 4 0.0000 0.0000 0.0000 15.4387 0.0000 1.1722
# 5 -4.6691 -1.7257 -5.3158 0.0000 28.1928 0.0000
# 6 0.0000 0.0000 0.0000 1.1722 0.0000 29.3819
#
#
#
# Elastic Compliance Matrix: (Units=1/GPa)
#
#
# Indices 1 2 3 4 5 6 
#
# 1 0.009021 -0.002145 -0.002502 0.000000 0.000891 0.000000
# 2 -0.002145 0.030317 -0.004690 0.000000 0.000616 0.000000
# 3 -0.002502 -0.004690 0.009217 0.000000 0.001036 0.000000
# 4 0.000000 0.000000 0.000000 0.064969 0.000000 -0.002592
# 5 0.000891 0.000616 0.001036 0.000000 0.035851 0.000000
# 6 0.000000 0.000000 0.000000 -0.002592 0.000000 0.034138
#
#
# Mechanical properties :
#
#
# Convention : Reuss Voigt Hill
#
# Bulk Modulus (GPa) = 33.46645 51.38302 42.42473
# Shear Modulus (GPa) = 23.56846 28.94731 26.25789
#
# Velocity S-wave (km/s) = 3.49570 3.87412 3.68976
# Velocity P-wave (km/s) = 5.80044 6.83031 6.33633
#
# Compressibility (1/GPa) = 0.02988067
#
# Stress axis : x y z
#
# Youngs Moduli (GPa) = 110.85038 32.98500 108.49156
#
# Poissons Ratio (x) = 0.07076 0.27144
# Poissons Ratio (y) = 0.23779 0.50885
# Poissons Ratio (z) = 0.27734 0.15471
#
# Static dielectric constant tensor:
#      x y z
#    x 3.668890 0.000000 0.012420 
#    y 0.000000 3.164950 0.000000 
#    z 0.012420 0.000000 3.813490 
# 
# 
# High freq. dielectric constant tensor:
#      x y z
#    x 1.764430 0.000000 -0.000430 
#    y 0.000000 1.720340 0.000000 
#    z -0.000430 0.000000 1.755430 
# 
# From -- ./inp_files/359807.got.cif
#   From: 2010.06.25/outbox.cif.g09.slc.cpg/sg12_180_cif.got.tgz:359807.got - 2010.06.28 00:19:55.
