data_PCOD8083213
_publ_section_title
;
Structure prediction by ZEFSAII (Michael W. Deem and Ramdas Pophale) SiO2 
 PCOD8083213
Probable space group: C 2/M
;
_chemical_formula_sum "Si O2"
_cell_formula_units_Z 64
_cell_length_a 14.621180
_cell_length_b 8.916479
_cell_length_c 26.400014
_cell_angle_alpha 90.000000
_cell_angle_beta 103.823978
_cell_angle_gamma 90.000000
_cell_volume 3342.062551
_symmetry_space_group_name_H-M "C 2/M"
_symmetry_group_IT_number 12
_symmetry_cell_setting 'monoclinic'
loop_
_space_group_symop_operation_xyz
x,y,z
-x,y,-z
-x,-y,-z
x,-y,z
1/2+x,1/2+y,z
1/2-x,1/2+y,-z
1/2-x,1/2-y,-z
1/2+x,1/2-y,z
loop_
_atom_site_type_symbol
_atom_site_label
_atom_site_fract_x
_atom_site_fract_y
_atom_site_fract_z
Si Si1 0.362272 0.323475 0.882877
Si Si2 0.168668 0.324802 0.820841
Si Si3 0.408598 0.673332 0.286914
Si Si4 0.205032 0.821802 0.629713
Si Si5 0.905522 0.822298 0.629112
Si Si6 0.658776 0.673599 0.008678
Si Si7 0.526304 0.172851 0.561610
Si Si8 0.065268 0.827685 0.894435
O O1 0.351838 0.500000 0.888445
O O2 0.276389 0.264505 0.836649
O O3 0.458110 0.284721 0.866493
O O4 0.364998 0.252984 0.939936
O O5 0.163453 0.500000 0.812331
O O6 0.110094 0.255255 0.767792
O O7 0.128563 0.282982 0.870379
O O8 0.401290 0.500000 0.274291
O O9 0.330403 0.718933 0.318352
O O10 0.514071 0.714828 0.318828
O O11 0.306999 0.749990 0.633255
O O12 0.127046 0.754175 0.581557
O O13 0.210357 0.000000 0.622063
O O14 0.941943 0.752706 0.581251
O O15 0.892166 0.000000 0.620399
O O16 0.680458 0.500000 0.018352
O O17 0.576563 0.698352 0.956323
O O18 0.750000 0.750000 0.000000
O O19 0.500000 0.185663 0.500000
O O20 0.534713 0.000000 0.580228
O O21 0.088696 0.000000 0.883292
#
# Coordination Sequence:
#
# PCOD8083213 Si02
#       8
#     8   8   8   8   8   8   8   8
#     4   9  19  35  53  76 105 136 174 213 259 325
#     4  11  22  36  55  79 108 138 172 225 278 322
#     4   9  21  40  58  79 109 144 185 230 277 335
#     4  10  21  38  61  87 116 152 193 239 288 341
#     4  10  21  38  61  86 114 152 195 241 288 337
#     4  10  18  32  55  77 102 135 172 214 262 319
#     4  10  21  37  58  87 123 160 198 240 283 331
#     4  10  20  35  56  77 101 140 178 213 263 325
#
# _framework density 19.149851999999999
#
# number of rings (size 3 to 8) (size 9 to 14) (size 15 to 20)
#    0.000    2.125    1.250    2.625    0.000    7.000 
#    0.000    5.625    0.000    1.500    0.000    0.000 
#    0.000    0.000    0.000    0.000    0.000    0.000 
#
# Total GULP energy -396670.422173 kJ/mol
# GULP energy per Si atom -12395.950693 kJ/mol
# Density = 1.910627 g / cm^3
# Si number density = 19.149852 Si / 1000 Ang^3
#
#
#
# Elastic Constant Matrix: (Units=GPa)
#
#
# Indices 1 2 3 4 5 6 
#
# 1 130.8154 40.3995 25.4147 0.0000 12.1414 0.0000
# 2 40.3995 63.3701 39.2077 0.0000 7.0459 0.0000
# 3 25.4147 39.2077 68.3539 0.0000 10.8346 0.0000
# 4 0.0000 0.0000 0.0000 28.3073 0.0000 -1.8812
# 5 12.1414 7.0459 10.8346 0.0000 19.8273 0.0000
# 6 0.0000 0.0000 0.0000 -1.8812 0.0000 32.9787
#
#
#
# Elastic Compliance Matrix: (Units=1/GPa)
#
#
# Indices 1 2 3 4 5 6 
#
# 1 0.009816 -0.006116 0.000511 0.000000 -0.004117 0.000000
# 2 -0.006116 0.028296 -0.014185 0.000000 0.001441 0.000000
# 3 0.000511 -0.014185 0.023896 0.000000 -0.008331 0.000000
# 4 0.000000 0.000000 0.000000 0.035461 0.000000 0.002023
# 5 -0.004117 0.001441 -0.008331 0.000000 0.056996 0.000000
# 6 0.000000 0.000000 0.000000 0.002023 0.000000 0.030438
#
#
# Mechanical properties :
#
#
# Convention : Reuss Voigt Hill
#
# Bulk Modulus (GPa) = 44.58653 52.50925 48.54789
# Shear Modulus (GPa) = 21.55551 26.72382 24.13966
#
# Velocity S-wave (km/s) = 3.35867 3.73971 3.55430
# Velocity P-wave (km/s) = 6.19471 6.79168 6.50005
#
# Compressibility (1/GPa) = 0.02242830
#
# Stress axis : x y z
#
# Youngs Moduli (GPa) = 101.87374 35.34122 41.84727
#
# Poissons Ratio (x) = 0.21616 -0.02139
# Poissons Ratio (y) = 0.62311 0.59359
# Poissons Ratio (z) = -0.05208 0.50130
#
# Static dielectric constant tensor:
#      x y z
#    x 3.764270 0.000000 0.223490 
#    y 0.000000 3.470540 0.000000 
#    z 0.223490 0.000000 3.515470 
# 
# 
# High freq. dielectric constant tensor:
#      x y z
#    x 1.753830 0.000000 0.006880 
#    y 0.000000 1.736200 0.000000 
#    z 0.006880 0.000000 1.742640 
# 
# From -- ./inp_files/359805.got.cif
#   From: 2010.06.25/outbox.cif.g09.slc.cpg/sg12_180_cif.got.tgz:359805.got - 2010.06.28 00:19:55.
