data_PCOD8083994
_publ_section_title
;
Structure prediction by ZEFSAII (Michael W. Deem and Ramdas Pophale) SiO2 
 PCOD8083994
Probable space group: C 2/M
;
_chemical_formula_sum "Si O2"
_cell_formula_units_Z 56
_cell_length_a 12.775516
_cell_length_b 17.012801
_cell_length_c 16.161473
_cell_angle_alpha 90.000000
_cell_angle_beta 62.221903
_cell_angle_gamma 90.000000
_cell_volume 3107.851799
_symmetry_space_group_name_H-M "C 2/M"
_symmetry_group_IT_number 12
_symmetry_cell_setting 'monoclinic'
loop_
_space_group_symop_operation_xyz
x,y,z
-x,y,-z
-x,-y,-z
x,-y,z
1/2+x,1/2+y,z
1/2-x,1/2+y,-z
1/2-x,1/2-y,-z
1/2+x,1/2-y,z
loop_
_atom_site_type_symbol
_atom_site_label
_atom_site_fract_x
_atom_site_fract_y
_atom_site_fract_z
Si Si1 0.574817 0.797610 0.897011
Si Si2 0.600308 0.910975 0.111995
Si Si3 0.261329 0.406376 0.339894
Si Si4 0.406454 0.085971 0.460744
Si Si5 0.271793 0.329254 0.940890
Si Si6 0.925744 0.325663 0.709372
Si Si7 0.512148 0.312356 0.776877
O O1 0.509185 0.879073 0.900515
O O2 0.706641 0.818256 0.876803
O O3 0.584170 0.745038 0.811573
O O4 0.500000 0.756714 0.000000
O O5 0.614066 0.863736 0.190860
O O6 0.578056 0.000000 0.143000
O O7 0.719693 0.900781 0.013988
O O8 0.247517 0.500000 0.321292
O O9 0.219462 0.392395 0.450529
O O10 0.181193 0.348132 0.312934
O O11 0.398561 0.380725 0.285145
O O12 0.500000 0.085407 0.500000
O O13 0.448234 0.144258 0.373134
O O14 0.399221 0.000000 0.422150
O O15 0.407288 0.349280 0.870884
O O16 0.250000 0.250000 0.000000
O O17 0.953580 0.233934 0.719893
#
# Coordination Sequence:
#
# PCOD8083994 Si02
#       7
#     8   8   8   8   8   8   8
#     4   9  18  32  49  68  97 131 170 208 251 297
#     4  10  20  32  51  77  96 126 174 219 252 296
#     4  10  21  35  52  78 110 138 169 213 265 315
#     4   8  15  30  52  75 103 137 167 209 267 310
#     4  11  19  34  48  69 100 141 166 202 252 311
#     4  10  18  34  55  77 103 134 174 220 255 307
#     4  11  21  31  53  75 103 138 172 212 257 305
#
# _framework density 18.018877
#
# number of rings (size 3 to 8) (size 9 to 14) (size 15 to 20)
#    0.000    2.143    4.286    3.000    0.000    3.714 
#    0.000    0.000    0.000    2.143    0.000    0.000 
#    0.000   26.857    0.000    0.000    0.000    0.000 
#
# Total GULP energy -346900.803079 kJ/mol
# GULP energy per Si atom -12389.314396 kJ/mol
# Density = 1.797787 g / cm^3
# Si number density = 18.018877 Si / 1000 Ang^3
#
#
#
# Elastic Constant Matrix: (Units=GPa)
#
#
# Indices 1 2 3 4 5 6 
#
# 1 62.4812 20.3696 34.7282 0.0000 -15.1740 0.0000
# 2 20.3696 52.3892 17.5969 0.0000 -8.3341 0.0000
# 3 34.7282 17.5969 92.5286 0.0000 -24.3215 0.0000
# 4 0.0000 0.0000 0.0000 24.7215 0.0000 -7.7219
# 5 -15.1740 -8.3341 -24.3215 0.0000 31.2645 0.0000
# 6 0.0000 0.0000 0.0000 -7.7219 0.0000 14.8811
#
#
#
# Elastic Compliance Matrix: (Units=1/GPa)
#
#
# Indices 1 2 3 4 5 6 
#
# 1 0.022439 -0.005953 -0.006089 0.000000 0.004567 0.000000
# 2 -0.005953 0.022202 -0.001498 0.000000 0.001864 0.000000
# 3 -0.006089 -0.001498 0.015708 0.000000 0.008865 0.000000
# 4 0.000000 0.000000 0.000000 0.048275 0.000000 0.025050
# 5 0.004567 0.001864 0.008865 0.000000 0.041595 0.000000
# 6 0.000000 0.000000 0.000000 0.025050 0.000000 0.080198
#
#
# Mechanical properties :
#
#
# Convention : Reuss Voigt Hill
#
# Bulk Modulus (GPa) = 30.05862 39.19872 34.62867
# Shear Modulus (GPa) = 18.61588 23.15370 20.88479
#
# Velocity S-wave (km/s) = 3.21772 3.58854 3.40818
# Velocity P-wave (km/s) = 5.52476 6.24272 5.89468
#
# Compressibility (1/GPa) = 0.03326833
#
# Stress axis : x y z
#
# Youngs Moduli (GPa) = 44.56492 45.04067 63.66147
#
# Poissons Ratio (x) = 0.26812 0.38767
# Poissons Ratio (y) = 0.26529 0.09538
# Poissons Ratio (z) = 0.27138 0.06748
#
# Static dielectric constant tensor:
#      x y z
#    x 3.330000 0.000000 -0.120190 
#    y 0.000000 3.273140 0.000000 
#    z -0.120190 0.000000 3.747840 
# 
# 
# High freq. dielectric constant tensor:
#      x y z
#    x 1.676600 0.000000 -0.006820 
#    y 0.000000 1.668460 0.000000 
#    z -0.006820 0.000000 1.707420 
# 
# From -- ./inp_files/263833.got.cif
#   From: 2010.06.25/outbox.cif.g09.slc.cpg/sg12_132_cif.got.tgz:263833.got - 2010.06.28 00:19:55.
