data_PCOD8083460
_publ_section_title
;
Structure prediction by ZEFSAII (Michael W. Deem and Ramdas Pophale) SiO2 
 PCOD8083460
Probable space group: C 2/M
;
_chemical_formula_sum "Si O2"
_cell_formula_units_Z 64
_cell_length_a 30.919465
_cell_length_b 23.977837
_cell_length_c 9.053534
_cell_angle_alpha 90.000000
_cell_angle_beta 153.087007
_cell_angle_gamma 90.000000
_cell_volume 3038.156189
_symmetry_space_group_name_H-M "C 2/M"
_symmetry_group_IT_number 12
_symmetry_cell_setting 'monoclinic'
loop_
_space_group_symop_operation_xyz
x,y,z
-x,y,-z
-x,-y,-z
x,-y,z
1/2+x,1/2+y,z
1/2-x,1/2+y,-z
1/2-x,1/2-y,-z
1/2+x,1/2-y,z
loop_
_atom_site_type_symbol
_atom_site_label
_atom_site_fract_x
_atom_site_fract_y
_atom_site_fract_z
Si Si1 0.094503 0.372236 0.705668
Si Si2 0.278973 0.560742 0.306701
Si Si3 0.908886 0.654184 0.632578
Si Si4 0.257564 0.662377 0.647060
Si Si5 0.300163 0.215926 0.827306
Si Si6 0.844214 0.769729 0.375835
Si Si7 0.616099 0.437050 0.066414
Si Si8 0.055286 0.878102 0.322906
O O1 0.091667 0.381178 0.520845
O O2 0.000000 0.394255 0.500000
O O3 0.183628 0.404842 0.044727
O O4 0.114347 0.307395 0.808805
O O5 0.248026 0.500000 0.156532
O O6 0.337621 0.556696 0.634365
O O7 0.347935 0.586662 0.394649
O O8 0.813566 0.646289 0.437455
O O9 0.918111 0.719296 0.621094
O O10 0.000000 0.633099 0.000000
O O11 0.320466 0.717934 0.871404
O O12 0.199473 0.679460 0.322096
O O13 0.322382 0.607380 0.838408
O O14 0.196007 0.208089 0.588097
O O15 0.908061 0.818832 0.499108
O O16 0.750000 0.750000 0.000000
O O17 0.611532 0.500000 0.981242
O O18 0.510229 0.410882 0.759467
O O19 0.000000 0.868744 0.000000
#
# Coordination Sequence:
#
# PCOD8083460 Si02
#       8
#     8   8   8   8   8   8   8   8
#     4  12  23  39  63  88 126 159 210 266 320 383
#     4  10  20  37  61  89 120 160 209 268 320 369
#     4  11  24  38  60  91 125 165 206 256 321 388
#     4  10  21  37  61  86 130 167 204 253 320 379
#     4  10  19  37  58  89 123 165 204 256 316 386
#     4  11  19  35  59  88 129 162 204 255 318 381
#     4  10  20  36  61  93 126 167 216 261 311 379
#     4  10  18  32  58  91 127 159 203 262 321 369
#
# _framework density 21.065407
#
# number of rings (size 3 to 8) (size 9 to 14) (size 15 to 20)
#    0.000    1.500    3.750    2.250    0.000    4.750 
#    0.000    0.625    0.000    0.750    0.000    8.750 
#    0.000    0.000    0.000    0.000    0.000    0.125 
#
# Total GULP energy -396603.990570 kJ/mol
# GULP energy per Si atom -12393.874705 kJ/mol
# Density = 2.101746 g / cm^3
# Si number density = 21.065407 Si / 1000 Ang^3
#
#
#
# Elastic Constant Matrix: (Units=GPa)
#
#
# Indices 1 2 3 4 5 6 
#
# 1 113.6817 44.9136 27.0539 0.0000 20.0805 0.0000
# 2 44.9136 139.6832 37.1466 0.0000 25.5135 0.0000
# 3 27.0539 37.1466 74.6733 0.0000 16.6215 0.0000
# 4 0.0000 0.0000 0.0000 12.0036 0.0000 6.1751
# 5 20.0805 25.5135 16.6215 0.0000 35.7411 0.0000
# 6 0.0000 0.0000 0.0000 6.1751 0.0000 25.9855
#
#
#
# Elastic Compliance Matrix: (Units=1/GPa)
#
#
# Indices 1 2 3 4 5 6 
#
# 1 0.010798 -0.002305 -0.001987 0.000000 -0.003497 0.000000
# 2 -0.002305 0.009427 -0.002950 0.000000 -0.004062 0.000000
# 3 -0.001987 -0.002950 0.016578 0.000000 -0.004487 0.000000
# 4 0.000000 0.000000 0.000000 0.094911 0.000000 -0.022554
# 5 -0.003497 -0.004062 -0.004487 0.000000 0.034931 0.000000
# 6 0.000000 0.000000 0.000000 -0.022554 0.000000 0.043843
#
#
# Mechanical properties :
#
#
# Convention : Reuss Voigt Hill
#
# Bulk Modulus (GPa) = 44.80573 60.69628 52.75100
# Shear Modulus (GPa) = 21.51374 29.34099 25.42736
#
# Velocity S-wave (km/s) = 3.19922 3.73614 3.47806
# Velocity P-wave (km/s) = 5.91292 6.89112 6.42067
#
# Compressibility (1/GPa) = 0.02231858
#
# Stress axis : x y z
#
# Youngs Moduli (GPa) = 92.61280 106.08243 60.32112
#
# Poissons Ratio (x) = 0.24448 0.11986
# Poissons Ratio (y) = 0.21344 0.17795
# Poissons Ratio (z) = 0.18403 0.31296
#
# Static dielectric constant tensor:
#      x y z
#    x 3.818580 0.000000 0.007550 
#    y 0.000000 3.982920 0.000000 
#    z 0.007550 0.000000 3.622550 
# 
# 
# High freq. dielectric constant tensor:
#      x y z
#    x 1.815410 0.000000 0.007090 
#    y 0.000000 1.817140 0.000000 
#    z 0.007090 0.000000 1.809710 
# 
# From -- ./inp_files/113646.got.cif
#   From: 2010.06.25/outbox.cif.g09.slc.cpg/sg12_57_cif.got.tgz:113646.got - 2010.06.28 00:19:55.
