data_PCOD8083224
_publ_section_title
;
Structure prediction by ZEFSAII (Michael W. Deem and Ramdas Pophale) SiO2 
 PCOD8083224
Probable space group: C 2/M
;
_chemical_formula_sum "Si O2"
_cell_formula_units_Z 48
_cell_length_a 14.839490
_cell_length_b 9.063928
_cell_length_c 18.550817
_cell_angle_alpha 90.000000
_cell_angle_beta 88.253071
_cell_angle_gamma 90.000000
_cell_volume 2494.000683
_symmetry_space_group_name_H-M "C 2/M"
_symmetry_group_IT_number 12
_symmetry_cell_setting 'monoclinic'
loop_
_space_group_symop_operation_xyz
x,y,z
-x,y,-z
-x,-y,-z
x,-y,z
1/2+x,1/2+y,z
1/2-x,1/2+y,-z
1/2-x,1/2-y,-z
1/2+x,1/2-y,z
loop_
_atom_site_type_symbol
_atom_site_label
_atom_site_fract_x
_atom_site_fract_y
_atom_site_fract_z
Si Si1 0.757387 0.826766 0.755284
Si Si2 0.748845 0.172688 0.393250
Si Si3 0.117891 0.169407 0.852816
Si Si4 0.657643 0.330798 0.011596
Si Si5 0.076509 0.173549 0.158653
Si Si6 0.104668 0.172535 0.491360
O O1 0.730151 0.738249 0.685118
O O2 0.693836 0.779314 0.822673
O O3 0.858317 0.782210 0.777078
O O4 0.747588 0.000000 0.740901
O O5 0.838741 0.207027 0.437576
O O6 0.657027 0.244644 0.426017
O O7 0.731195 0.000000 0.388474
O O8 0.024478 0.222450 0.818247
O O9 0.142868 0.000000 0.832336
O O10 0.101722 0.185521 0.938975
O O11 0.679271 0.500000 0.027876
O O12 0.606429 0.257082 0.080984
O O13 0.750000 0.250000 0.000000
O O14 0.076434 0.000000 0.147126
O O15 0.000000 0.227013 0.500000
O O16 0.105695 0.000000 0.472660
#
# Coordination Sequence:
#
# PCOD8083224 Si02
#       6
#     8   8   8   8   8   8
#     4  11  22  37  55  77 112 148 179 220 270 325
#     4  10  21  37  58  85 115 143 178 221 262 314
#     4  10  20  35  56  78 102 139 186 232 272 320
#     4  10  18  32  55  78 102 135 180 230 278 324
#     4   9  19  35  54  76 104 142 184 223 272 328
#     4   9  19  38  63  87 111 143 180 217 261 314
#
# _framework density 19.246186999999999
#
# number of rings (size 3 to 8) (size 9 to 14) (size 15 to 20)
#    0.000    2.167    1.667    1.500    0.000    4.333 
#    0.000    9.167    0.000    2.000    0.000    0.000 
#    0.000    0.000    0.000    0.000    0.000    0.000 
#
# Total GULP energy -297520.263275 kJ/mol
# GULP energy per Si atom -12396.677636 kJ/mol
# Density = 1.920238 g / cm^3
# Si number density = 19.246187 Si / 1000 Ang^3
#
#
#
# Elastic Constant Matrix: (Units=GPa)
#
#
# Indices 1 2 3 4 5 6 
#
# 1 116.4657 29.4992 12.8741 0.0000 12.3084 0.0000
# 2 29.4992 42.9080 28.6357 0.0000 4.6992 0.0000
# 3 12.8741 28.6357 69.9588 0.0000 5.5860 0.0000
# 4 0.0000 0.0000 0.0000 29.2928 0.0000 -4.7766
# 5 12.3084 4.6992 5.5860 0.0000 21.4921 0.0000
# 6 0.0000 0.0000 0.0000 -4.7766 0.0000 26.8614
#
#
#
# Elastic Compliance Matrix: (Units=1/GPa)
#
#
# Indices 1 2 3 4 5 6 
#
# 1 0.010985 -0.008151 0.001711 0.000000 -0.004954 0.000000
# 2 -0.008151 0.038400 -0.014215 0.000000 -0.000033 0.000000
# 3 0.001711 -0.014215 0.020044 0.000000 -0.003081 0.000000
# 4 0.000000 0.000000 0.000000 0.035158 0.000000 0.006252
# 5 -0.004954 -0.000033 -0.003081 0.000000 0.050174 0.000000
# 6 0.000000 0.000000 0.000000 0.006252 0.000000 0.038340
#
#
# Mechanical properties :
#
#
# Convention : Reuss Voigt Hill
#
# Bulk Modulus (GPa) = 35.56557 41.26116 38.41337
# Shear Modulus (GPa) = 20.50980 26.08416 23.29698
#
# Velocity S-wave (km/s) = 3.26798 3.68542 3.48296
# Velocity P-wave (km/s) = 5.72355 6.29245 6.01473
#
# Compressibility (1/GPa) = 0.02811708
#
# Stress axis : x y z
#
# Youngs Moduli (GPa) = 91.03083 26.04140 49.89007
#
# Poissons Ratio (x) = 0.21228 -0.08534
# Poissons Ratio (y) = 0.74203 0.70921
# Poissons Ratio (z) = -0.15571 0.37019
#
# Static dielectric constant tensor:
#      x y z
#    x 3.922140 0.000000 0.311620 
#    y 0.000000 3.323670 0.000000 
#    z 0.311620 0.000000 3.724190 
# 
# 
# High freq. dielectric constant tensor:
#      x y z
#    x 1.756160 0.000000 0.006340 
#    y 0.000000 1.728150 0.000000 
#    z 0.006340 0.000000 1.747470 
# 
# From -- ./inp_files/267627.got.cif
#   From: 2010.06.25/outbox.cif.g09.slc.cpg/sg12_134_cif.got.tgz:267627.got - 2010.06.28 00:19:55.
