data_PCOD8083926
_publ_section_title
;
Structure prediction by ZEFSAII (Michael W. Deem and Ramdas Pophale) SiO2 
 PCOD8083926
Probable space group: C 2/M
;
_chemical_formula_sum "Si O2"
_cell_formula_units_Z 64
_cell_length_a 16.963777
_cell_length_b 17.750512
_cell_length_c 22.902350
_cell_angle_alpha 90.000000
_cell_angle_beta 147.780985
_cell_angle_gamma 90.000000
_cell_volume 3676.788634
_symmetry_space_group_name_H-M "C 2/M"
_symmetry_group_IT_number 12
_symmetry_cell_setting 'monoclinic'
loop_
_space_group_symop_operation_xyz
x,y,z
-x,y,-z
-x,-y,-z
x,-y,z
1/2+x,1/2+y,z
1/2-x,1/2+y,-z
1/2-x,1/2-y,-z
1/2+x,1/2-y,z
loop_
_atom_site_type_symbol
_atom_site_label
_atom_site_fract_x
_atom_site_fract_y
_atom_site_fract_z
Si Si1 0.110041 0.344713 0.826876
Si Si2 0.125633 0.912674 0.940570
Si Si3 0.735793 0.682835 0.903279
Si Si4 0.342228 0.916582 0.871000
Si Si5 0.145685 0.582642 0.552839
Si Si6 0.451234 0.184144 0.842992
Si Si7 0.681284 0.345688 0.241803
Si Si8 0.562287 0.910775 0.674927
O O1 0.149321 0.259092 0.835973
O O2 0.039489 0.385281 0.726961
O O3 0.988092 0.345904 0.801630
O O4 0.255398 0.390916 0.935996
O O5 0.148453 0.864000 0.896848
O O6 0.963561 0.894746 0.863618
O O7 0.143195 0.000000 0.935801
O O8 0.736794 0.635279 0.844356
O O9 0.898471 0.703998 0.028312
O O10 0.359948 0.881407 0.817916
O O11 0.272609 0.000000 0.821153
O O12 0.500000 0.922557 0.000000
O O13 0.220376 0.500000 0.595076
O O14 0.262296 0.637743 0.656831
O O15 0.000000 0.576402 0.500000
O O16 0.090677 0.610759 0.454616
O O17 0.349632 0.257376 0.779423
O O18 0.799646 0.366919 0.266717
O O19 0.591775 0.000000 0.688413
#
# Coordination Sequence:
#
# PCOD8083926 Si02
#       8
#     8   8   8   8   8   8   8   8
#     4  11  20  34  47  70 107 137 158 192 250 307
#     4  11  20  30  50  75 103 136 165 200 244 298
#     4  10  18  34  47  67 103 135 165 201 245 286
#     4   9  18  30  48  69  90 128 177 207 227 274
#     4   8  16  32  51  70  96 129 166 208 245 282
#     4  10  19  32  50  71 100 135 161 201 250 289
#     4  11  18  33  52  75 100 128 168 203 247 297
#     4  10  21  34  51  74 101 132 164 204 250 296
#
# _framework density 17.406493999999999
#
# number of rings (size 3 to 8) (size 9 to 14) (size 15 to 20)
#    0.000    2.000    2.500    4.125    0.000    4.000 
#    0.000    1.875    0.000    0.000    0.000    0.000 
#    0.000    6.250    0.000    0.000    0.000    0.000 
#
# Total GULP energy -396792.823103 kJ/mol
# GULP energy per Si atom -12399.775722 kJ/mol
# Density = 1.736688 g / cm^3
# Si number density = 17.406494 Si / 1000 Ang^3
#
#
#
# Elastic Constant Matrix: (Units=GPa)
#
#
# Indices 1 2 3 4 5 6 
#
# 1 90.3196 35.8840 32.0818 -0.0020 -23.4342 -0.0007
# 2 35.8840 106.6222 41.1760 -0.0021 -9.2613 -0.0005
# 3 32.0818 41.1760 50.5484 -0.0064 -20.7732 -0.0023
# 4 -0.0020 -0.0021 -0.0064 18.0618 -0.0014 -3.5461
# 5 -23.4342 -9.2613 -20.7732 -0.0014 21.8376 -0.0004
# 6 -0.0007 -0.0005 -0.0023 -3.5461 -0.0004 24.2561
#
#
#
# Elastic Compliance Matrix: (Units=1/GPa)
#
#
# Indices 1 2 3 4 5 6 
#
# 1 0.017097 -0.003897 -0.001339 0.000002 0.015420 0.000001
# 2 -0.003897 0.015451 -0.015004 -0.000005 -0.011902 -0.000002
# 3 -0.001339 -0.015004 0.048679 0.000020 0.038506 0.000008
# 4 0.000002 -0.000005 0.000020 0.057002 0.000023 0.008333
# 5 0.015420 -0.011902 0.038506 0.000023 0.093922 0.000009
# 6 0.000001 -0.000002 0.000008 0.008333 0.000009 0.042445
#
#
# Mechanical properties :
#
#
# Convention : Reuss Voigt Hill
#
# Bulk Modulus (GPa) = 24.54212 51.75266 38.14739
# Shear Modulus (GPa) = 15.21336 22.05434 18.63385
#
# Velocity S-wave (km/s) = 2.95956 3.56338 3.27542
# Velocity P-wave (km/s) = 5.08023 6.83569 6.02226
#
# Compressibility (1/GPa) = 0.04074627
#
# Stress axis : x y z
#
# Youngs Moduli (GPa) = 58.49059 64.72051 20.54257
#
# Poissons Ratio (x) = 0.25224 0.02751
# Poissons Ratio (y) = 0.22796 0.30822
# Poissons Ratio (z) = 0.07833 0.97106
#
# Static dielectric constant tensor:
#      x y z
#    x 3.225290 0.000000 -0.165020 
#    y 0.000000 3.397060 0.000000 
#    z -0.165020 0.000000 3.182380 
# 
# 
# High freq. dielectric constant tensor:
#      x y z
#    x 1.666880 0.000000 -0.010490 
#    y 0.000000 1.681250 0.000000 
#    z -0.010490 0.000000 1.637240 
# 
# From -- ./inp_files/344386.got.cif
#   From: 2010.06.25/outbox.cif.g09.slc.cpg/sg12_173_cif.got.tgz:344386.got - 2010.06.28 00:19:55.
