data_PCOD8083802
_publ_section_title
;
Structure prediction by ZEFSAII (Michael W. Deem and Ramdas Pophale) SiO2 
 PCOD8083802
Probable space group: C 2/M
;
_chemical_formula_sum "Si O2"
_cell_formula_units_Z 64
_cell_length_a 11.170461
_cell_length_b 14.343301
_cell_length_c 29.684571
_cell_angle_alpha 90.000000
_cell_angle_beta 42.758790
_cell_angle_gamma 90.000000
_cell_volume 3228.980053
_symmetry_space_group_name_H-M "C 2/M"
_symmetry_group_IT_number 12
_symmetry_cell_setting 'monoclinic'
loop_
_space_group_symop_operation_xyz
x,y,z
-x,y,-z
-x,-y,-z
x,-y,z
1/2+x,1/2+y,z
1/2-x,1/2+y,-z
1/2-x,1/2-y,-z
1/2+x,1/2-y,z
loop_
_atom_site_type_symbol
_atom_site_label
_atom_site_fract_x
_atom_site_fract_y
_atom_site_fract_z
Si Si1 0.789241 0.761255 0.223630
Si Si2 0.003696 0.397576 0.394993
Si Si3 0.496462 0.894987 0.710897
Si Si4 0.160312 0.210124 0.352516
Si Si5 0.852094 0.315424 0.006636
Si Si6 0.601929 0.100915 0.868488
Si Si7 0.401748 0.609136 0.482322
Si Si8 0.908798 0.897113 0.849916
O O1 0.660371 0.826042 0.228100
O O2 0.679428 0.709206 0.293054
O O3 0.902986 0.685358 0.165108
O O4 0.932384 0.829010 0.206045
O O5 0.046466 0.500000 0.404440
O O6 0.027594 0.405299 0.335267
O O7 0.804276 0.366875 0.460662
O O8 0.137581 0.317893 0.376158
O O9 0.678427 0.843375 0.669766
O O10 0.490350 0.000000 0.734298
O O11 0.983439 0.155724 0.415109
O O12 0.956103 0.389801 0.947661
O O13 0.750000 0.250000 0.000000
O O14 0.702147 0.366425 0.076136
O O15 0.000000 0.268214 0.000000
O O16 0.794484 0.101685 0.836656
O O17 0.569800 0.000000 0.853742
O O18 0.500000 0.648366 0.500000
O O19 0.436066 0.500000 0.469799
O O20 0.985007 0.000000 0.838983
#
# Coordination Sequence:
#
# PCOD8083802 Si02
#       8
#     8   8   8   8   8   8   8   8
#     4  11  22  36  54  82 116 151 187 238 290 337
#     4   9  19  35  56  81 105 136 178 231 283 332
#     4  10  20  36  55  79 108 142 188 232 274 333
#     4  11  21  33  56  83 110 145 186 229 287 342
#     4  10  19  36  64  91 118 153 201 255 298 353
#     4  10  21  37  57  84 119 155 193 237 292 355
#     4  10  18  33  58  83 106 138 186 237 283 339
#     4  10  20  37  62  85 110 154 203 238 282 349
#
# _framework density 19.820499999999999
#
# number of rings (size 3 to 8) (size 9 to 14) (size 15 to 20)
#    0.000    1.875    2.500    2.250    0.000    3.000 
#    0.000    0.625    0.000    4.875    0.000    0.000 
#    0.000    0.000    0.000    0.000    0.000    0.000 
#
# Total GULP energy -396533.893504 kJ/mol
# GULP energy per Si atom -12391.684172 kJ/mol
# Density = 1.977539 g / cm^3
# Si number density = 19.820500 Si / 1000 Ang^3
#
#
#
# Elastic Constant Matrix: (Units=GPa)
#
#
# Indices 1 2 3 4 5 6 
#
# 1 50.2401 41.5526 4.2732 0.0000 -5.2691 -0.0001
# 2 41.5526 111.5845 21.3303 -0.0003 -7.3816 -0.0002
# 3 4.2732 21.3303 72.9162 0.0009 2.7997 0.0007
# 4 0.0000 -0.0003 0.0009 24.8927 0.0003 0.2479
# 5 -5.2691 -7.3816 2.7997 0.0003 22.6161 -0.0001
# 6 -0.0001 -0.0002 0.0007 0.2479 -0.0001 24.7670
#
#
#
# Elastic Compliance Matrix: (Units=1/GPa)
#
#
# Indices 1 2 3 4 5 6 
#
# 1 0.029129 -0.010906 0.001366 0.000000 0.003058 0.000000
# 2 -0.010906 0.013853 -0.003506 0.000000 0.002415 0.000000
# 3 0.001366 -0.003506 0.014762 -0.000001 -0.002654 0.000000
# 4 0.000000 0.000000 -0.000001 0.040176 0.000000 -0.000402
# 5 0.003058 0.002415 -0.002654 0.000000 0.046045 0.000000
# 6 0.000000 0.000000 0.000000 -0.000402 0.000000 0.040380
#
#
# Mechanical properties :
#
#
# Convention : Reuss Voigt Hill
#
# Bulk Modulus (GPa) = 31.59404 41.00588 36.29996
# Shear Modulus (GPa) = 22.62554 25.62747 24.12651
#
# Velocity S-wave (km/s) = 3.38231 3.59970 3.49270
# Velocity P-wave (km/s) = 5.58820 6.16528 5.88382
#
# Compressibility (1/GPa) = 0.03165153
#
# Stress axis : x y z
#
# Youngs Moduli (GPa) = 34.32980 72.18629 67.74223
#
# Poissons Ratio (x) = 0.78727 -0.09253
# Poissons Ratio (y) = 0.37441 0.23751
# Poissons Ratio (z) = -0.04689 0.25309
#
# Static dielectric constant tensor:
#      x y z
#    x 3.415960 0.000000 -0.195870 
#    y 0.000000 4.074060 0.000000 
#    z -0.195870 0.000000 3.722180 
# 
# 
# High freq. dielectric constant tensor:
#      x y z
#    x 1.738410 0.000000 -0.019510 
#    y 0.000000 1.782090 0.000000 
#    z -0.019510 0.000000 1.780020 
# 
# From -- ./inp_files/374088.got.cif
#   From: 2010.06.25/outbox.cif.g09.slc.cpg/sg12_188_cif.got.tgz:374088.got - 2010.06.28 00:19:55.
