data_PCOD8083925
_publ_section_title
;
Structure prediction by ZEFSAII (Michael W. Deem and Ramdas Pophale) SiO2 
 PCOD8083925
Probable space group: C 2/M
;
_chemical_formula_sum "Si O2"
_cell_formula_units_Z 56
_cell_length_a 9.586525
_cell_length_b 27.822191
_cell_length_c 18.628579
_cell_angle_alpha 90.000000
_cell_angle_beta 137.339316
_cell_angle_gamma 90.000000
_cell_volume 3366.983985
_symmetry_space_group_name_H-M "C 2/M"
_symmetry_group_IT_number 12
_symmetry_cell_setting 'monoclinic'
loop_
_space_group_symop_operation_xyz
x,y,z
-x,y,-z
-x,-y,-z
x,-y,z
1/2+x,1/2+y,z
1/2-x,1/2+y,-z
1/2-x,1/2-y,-z
1/2+x,1/2-y,z
loop_
_atom_site_type_symbol
_atom_site_label
_atom_site_fract_x
_atom_site_fract_y
_atom_site_fract_z
Si Si1 0.246302 0.389516 0.208125
Si Si2 0.482327 0.798726 0.911958
Si Si3 0.163557 0.443683 0.940063
Si Si4 0.500594 0.395719 0.164983
Si Si5 0.444933 0.307451 0.054660
Si Si6 0.317648 0.444410 0.377465
Si Si7 0.860838 0.445142 0.233946
O O1 0.187519 0.332565 0.191296
O O2 0.424329 0.399745 0.217513
O O3 0.335097 0.408883 0.316549
O O4 0.039805 0.417590 0.106870
O O5 0.423974 0.742199 0.888331
O O6 0.500000 0.817912 0.000000
O O7 0.700755 0.801367 0.955974
O O8 0.130010 0.500000 0.937610
O O9 0.197181 0.430411 0.869421
O O10 0.359125 0.426348 0.058000
O O11 0.503046 0.339922 0.144159
O O12 0.733332 0.414749 0.244171
O O13 0.500000 0.332567 0.000000
O O14 0.500000 0.431182 0.500000
O O15 0.329705 0.500000 0.355632
O O16 0.103264 0.435822 0.337971
O O17 0.802377 0.500000 0.225546
#
# Coordination Sequence:
#
# PCOD8083925 Si02
#       7
#     8   8   8   8   8   8   8
#     4  11  20  32  49  72 100 132 170 209 250 299
#     4  10  18  34  46  71 108 139 174 208 237 290
#     4  10  19  30  44  66 104 145 168 188 231 298
#     4  12  20  29  45  76 108 135 163 203 246 293
#     4  10  20  29  48  69 106 147 174 198 237 286
#     4   9  20  40  59  72  92 127 173 219 261 308
#     4   9  19  32  48  72  99 129 168 204 243 300
#
# _framework density 16.632095
#
# number of rings (size 3 to 8) (size 9 to 14) (size 15 to 20)
#    0.000    1.857    2.857    3.429    2.000    4.000 
#    0.000    0.714    0.000    2.571    0.000    4.000 
#    0.000    0.000    0.000    0.000    0.000    0.000 
#
# Total GULP energy -347150.156592 kJ/mol
# GULP energy per Si atom -12398.219878 kJ/mol
# Density = 1.659424 g / cm^3
# Si number density = 16.632095 Si / 1000 Ang^3
#
#
#
# Elastic Constant Matrix: (Units=GPa)
#
#
# Indices 1 2 3 4 5 6 
#
# 1 119.3755 39.1666 33.8052 0.0001 -5.0115 0.0001
# 2 39.1666 84.5072 32.3557 -0.0001 -5.3499 0.0000
# 3 33.8052 32.3557 75.7319 0.0003 6.0090 0.0002
# 4 0.0001 -0.0001 0.0003 16.6460 0.0002 0.2597
# 5 -5.0115 -5.3499 6.0090 0.0002 15.3920 0.0001
# 6 0.0001 0.0000 0.0002 0.2597 0.0001 24.7600
#
#
#
# Elastic Compliance Matrix: (Units=1/GPa)
#
#
# Indices 1 2 3 4 5 6 
#
# 1 0.010649 -0.003306 -0.003637 0.000000 0.003738 0.000000
# 2 -0.003306 0.016068 -0.005931 0.000000 0.006824 0.000000
# 3 -0.003637 -0.005931 0.018183 0.000000 -0.010344 0.000000
# 4 0.000000 0.000000 0.000000 0.060084 0.000000 -0.000630
# 5 0.003738 0.006824 -0.010344 0.000000 0.072596 0.000000
# 6 0.000000 0.000000 0.000000 -0.000630 0.000000 0.040394
#
#
# Mechanical properties :
#
#
# Convention : Reuss Voigt Hill
#
# Bulk Modulus (GPa) = 52.21581 54.47441 53.34511
# Shear Modulus (GPa) = 19.99146 22.97872 21.48509
#
# Velocity S-wave (km/s) = 3.47072 3.72101 3.59804
# Velocity P-wave (km/s) = 6.89376 7.16135 7.02883
#
# Compressibility (1/GPa) = 0.01915129
#
# Stress axis : x y z
#
# Youngs Moduli (GPa) = 93.90907 62.23442 54.99705
#
# Poissons Ratio (x) = 0.20575 0.20005
# Poissons Ratio (y) = 0.31046 0.32617
# Poissons Ratio (z) = 0.34159 0.36910
#
# Static dielectric constant tensor:
#      x y z
#    x 3.279150 0.000000 0.006310 
#    y 0.000000 3.288970 0.000000 
#    z 0.006310 0.000000 2.689510 
# 
# 
# High freq. dielectric constant tensor:
#      x y z
#    x 1.657570 0.000000 -0.003740 
#    y 0.000000 1.646830 0.000000 
#    z -0.003740 0.000000 1.580150 
# 
# From -- ./inp_files/200835.got.cif
#   From: 2010.06.25/outbox.cif.g09.slc.cpg/sg12_101_cif.got.tgz:200835.got - 2010.06.28 00:19:55.
