data_PCOD8083054
_publ_section_title
;
Structure prediction by ZEFSAII (Michael W. Deem and Ramdas Pophale) SiO2 
 PCOD8083054
Probable space group: C 2/M
;
_chemical_formula_sum "Si O2"
_cell_formula_units_Z 64
_cell_length_a 19.942173
_cell_length_b 9.329418
_cell_length_c 24.025649
_cell_angle_alpha 90.000000
_cell_angle_beta 128.431779
_cell_angle_gamma 90.000000
_cell_volume 3501.525972
_symmetry_space_group_name_H-M "C 2/M"
_symmetry_group_IT_number 12
_symmetry_cell_setting 'monoclinic'
loop_
_space_group_symop_operation_xyz
x,y,z
-x,y,-z
-x,-y,-z
x,-y,z
1/2+x,1/2+y,z
1/2-x,1/2+y,-z
1/2-x,1/2-y,-z
1/2+x,1/2-y,z
loop_
_atom_site_type_symbol
_atom_site_label
_atom_site_fract_x
_atom_site_fract_y
_atom_site_fract_z
Si Si1 0.137282 0.330373 0.160260
Si Si2 0.222578 0.833066 0.567817
Si Si3 0.454648 0.167771 0.099251
Si Si4 0.378431 0.166704 0.571852
Si Si5 0.926952 0.668415 0.311190
Si Si6 0.854024 0.332909 0.154864
Si Si7 0.704552 0.330353 0.685973
Si Si8 0.317594 0.830252 0.940404
O O1 0.135900 0.500000 0.166054
O O2 0.215603 0.270038 0.237199
O O3 0.148700 0.283433 0.102566
O O4 0.047995 0.263484 0.136269
O O5 0.315276 0.793052 0.590163
O O6 0.147529 0.750505 0.497136
O O7 0.221578 0.786000 0.631309
O O8 0.203248 0.000000 0.551318
O O9 0.428881 0.200433 0.149310
O O10 0.460587 0.000000 0.090282
O O11 0.384826 0.230052 0.020181
O O12 0.473594 0.211648 0.638533
O O13 0.372748 0.000000 0.554632
O O14 0.914869 0.500000 0.314820
O O15 0.886770 0.717370 0.231865
O O16 0.881308 0.753520 0.337296
O O17 0.830029 0.500000 0.142025
O O18 0.772317 0.243691 0.093783
O O19 0.692894 0.500000 0.687048
O O20 0.304326 0.000000 0.937968
#
# Coordination Sequence:
#
# PCOD8083054 Si02
#       8
#     8   8   8   8   8   8   8   8
#     4   9  17  30  50  76 102 129 167 213 253 292
#     4   9  19  35  56  81 105 130 166 210 252 295
#     4   9  18  30  50  77 100 129 172 215 252 296
#     4   9  19  36  56  78 104 135 169 204 248 299
#     4  10  21  35  52  74 103 138 172 206 246 301
#     4  10  20  33  50  74 103 135 169 208 253 300
#     4  10  20  34  54  78 103 134 169 210 255 296
#     4  10  18  32  53  75 101 132 168 211 256 301
#
# _framework density 18.277744999999999
#
# number of rings (size 3 to 8) (size 9 to 14) (size 15 to 20)
#    0.000    2.500    1.250    0.750    1.750    3.000 
#    0.000    2.500    0.000    3.750    0.000    0.000 
#    0.000    0.000    0.000    0.000    0.000    0.000 
#
# Total GULP energy -396848.257530 kJ/mol
# GULP energy per Si atom -12401.508048 kJ/mol
# Density = 1.823614 g / cm^3
# Si number density = 18.277745 Si / 1000 Ang^3
#
#
#
# Elastic Constant Matrix: (Units=GPa)
#
#
# Indices 1 2 3 4 5 6 
#
# 1 111.3284 30.8778 52.8935 0.0000 2.1734 0.0000
# 2 30.8778 23.9344 28.0375 0.0000 -0.8712 0.0000
# 3 52.8935 28.0375 109.4755 0.0000 -2.3668 0.0000
# 4 0.0000 0.0000 0.0000 23.2244 0.0000 3.4732
# 5 2.1734 -0.8712 -2.3668 0.0000 36.6182 0.0000
# 6 0.0000 0.0000 0.0000 3.4732 0.0000 23.9106
#
#
#
# Elastic Compliance Matrix: (Units=1/GPa)
#
#
# Indices 1 2 3 4 5 6 
#
# 1 0.014817 -0.015351 -0.003259 0.000000 -0.001455 0.000000
# 2 -0.015351 0.075598 -0.011903 0.000000 0.001940 0.000000
# 3 -0.003259 -0.011903 0.013775 0.000000 0.000801 0.000000
# 4 0.000000 0.000000 0.000000 0.044014 0.000000 -0.006393
# 5 -0.001455 0.001940 0.000801 0.000000 0.027493 0.000000
# 6 0.000000 0.000000 0.000000 -0.006393 0.000000 0.042751
#
#
# Mechanical properties :
#
#
# Convention : Reuss Voigt Hill
#
# Bulk Modulus (GPa) = 23.16656 52.03954 37.60305
# Shear Modulus (GPa) = 17.01484 25.61261 21.31373
#
# Velocity S-wave (km/s) = 3.05438 3.74746 3.41853
# Velocity P-wave (km/s) = 5.01411 6.87444 6.01661
#
# Compressibility (1/GPa) = 0.04316566
#
# Stress axis : x y z
#
# Youngs Moduli (GPa) = 67.49123 13.22778 72.59698
#
# Poissons Ratio (x) = 0.20305 0.23658
# Poissons Ratio (y) = 1.03603 0.86410
# Poissons Ratio (z) = 0.21994 0.15745
#
# Static dielectric constant tensor:
#      x y z
#    x 3.495610 0.000000 0.041390 
#    y 0.000000 3.044970 0.000000 
#    z 0.041390 0.000000 3.513090 
# 
# 
# High freq. dielectric constant tensor:
#      x y z
#    x 1.720160 0.000000 -0.000680 
#    y 0.000000 1.671080 0.000000 
#    z -0.000680 0.000000 1.716690 
# 
# From -- ./inp_files/276572.got.cif
#   From: 2010.06.25/outbox.cif.g09.slc.cpg/sg12_139_cif.got.tgz:276572.got - 2010.06.28 00:19:55.
