data_PCOD8083770
_publ_section_title
;
Structure prediction by ZEFSAII (Michael W. Deem and Ramdas Pophale) SiO2 
 PCOD8083770
Probable space group: C 2/M
;
_chemical_formula_sum "Si O2"
_cell_formula_units_Z 56
_cell_length_a 8.921571
_cell_length_b 18.477717
_cell_length_c 20.673078
_cell_angle_alpha 90.000000
_cell_angle_beta 60.550536
_cell_angle_gamma 90.000000
_cell_volume 2967.618476
_symmetry_space_group_name_H-M "C 2/M"
_symmetry_group_IT_number 12
_symmetry_cell_setting 'monoclinic'
loop_
_space_group_symop_operation_xyz
x,y,z
-x,y,-z
-x,-y,-z
x,-y,z
1/2+x,1/2+y,z
1/2-x,1/2+y,-z
1/2-x,1/2-y,-z
1/2+x,1/2-y,z
loop_
_atom_site_type_symbol
_atom_site_label
_atom_site_fract_x
_atom_site_fract_y
_atom_site_fract_z
Si Si1 0.436677 0.917463 0.854264
Si Si2 0.826729 0.700800 0.786460
Si Si3 0.554197 0.296917 0.352399
Si Si4 0.058999 0.834653 0.158216
Si Si5 0.326503 0.579977 0.754383
Si Si6 0.178947 0.671051 0.999551
Si Si7 0.179227 0.281707 0.448722
O O1 0.411231 0.874297 0.792190
O O2 0.638844 0.917666 0.826419
O O3 0.368792 0.000000 0.861156
O O4 0.336843 0.877747 0.933181
O O5 0.907016 0.726495 0.700785
O O6 0.849028 0.762994 0.834502
O O7 0.625467 0.688363 0.826451
O O8 0.665623 0.365987 0.308042
O O9 0.351402 0.320651 0.385415
O O10 0.613121 0.280041 0.412909
O O11 0.040901 0.894500 0.218364
O O12 0.175497 0.866835 0.075818
O O13 0.375688 0.500000 0.719817
O O14 0.250000 0.750000 0.000000
O O15 0.000000 0.676088 0.000000
O O16 0.250000 0.250000 0.500000
O O17 0.000000 0.328103 0.500000
#
# Coordination Sequence:
#
# PCOD8083770 Si02
#       7
#     8   8   8   8   8   8   8
#     4  11  24  39  54  78 112 149 191 243 294 342
#     4  11  21  36  57  84 111 141 191 237 284 336
#     4  10  18  33  57  84 111 148 180 224 277 326
#     4  11  21  35  57  80 107 144 192 244 286 339
#     4  10  21  37  56  81 112 148 191 233 282 341
#     4  12  23  37  58  79 105 147 194 240 295 346
#     4   9  18  32  55  87 117 139 174 223 266 318
#
# _framework density 18.870349999999998
#
# number of rings (size 3 to 8) (size 9 to 14) (size 15 to 20)
#    0.000    1.429    2.857    5.143    0.000    1.429 
#    0.000    0.714    0.000    4.286    0.000    4.000 
#    0.000    0.000    0.000    0.000    0.000    0.000 
#
# Total GULP energy -346951.485912 kJ/mol
# GULP energy per Si atom -12391.124497 kJ/mol
# Density = 1.882740 g / cm^3
# Si number density = 18.870350 Si / 1000 Ang^3
#
#
#
# Elastic Constant Matrix: (Units=GPa)
#
#
# Indices 1 2 3 4 5 6 
#
# 1 109.1040 31.5687 30.2663 0.0000 -8.6399 0.0000
# 2 31.5687 118.4452 40.9303 0.0000 11.8151 0.0000
# 3 30.2663 40.9303 88.8574 0.0000 -4.8366 0.0000
# 4 0.0000 0.0000 0.0000 9.5543 0.0000 -6.2463
# 5 -8.6399 11.8151 -4.8366 0.0000 38.0661 0.0000
# 6 0.0000 0.0000 0.0000 -6.2463 0.0000 17.0052
#
#
#
# Elastic Compliance Matrix: (Units=1/GPa)
#
#
# Indices 1 2 3 4 5 6 
#
# 1 0.010733 -0.002300 -0.002442 0.000000 0.002840 0.000000
# 2 -0.002300 0.011089 -0.004572 0.000000 -0.004545 0.000000
# 3 -0.002442 -0.004572 0.014338 0.000000 0.002687 0.000000
# 4 0.000000 0.000000 0.000000 0.137742 0.000000 0.050595
# 5 0.002840 -0.004545 0.002687 0.000000 0.028667 0.000000
# 6 0.000000 0.000000 0.000000 0.050595 0.000000 0.077390
#
#
# Mechanical properties :
#
#
# Convention : Reuss Voigt Hill
#
# Bulk Modulus (GPa) = 57.03683 57.99302 57.51492
# Shear Modulus (GPa) = 16.42411 27.16788 21.79600
#
# Velocity S-wave (km/s) = 2.95340 3.79847 3.40227
# Velocity P-wave (km/s) = 6.47467 7.07368 6.78079
#
# Compressibility (1/GPa) = 0.01753253
#
# Stress axis : x y z
#
# Youngs Moduli (GPa) = 93.16720 90.17967 69.74539
#
# Poissons Ratio (x) = 0.20743 0.17031
# Poissons Ratio (y) = 0.21430 0.31886
# Poissons Ratio (z) = 0.22750 0.41228
#
# Static dielectric constant tensor:
#      x y z
#    x 3.788890 0.000000 -0.215780 
#    y 0.000000 3.310930 0.000000 
#    z -0.215780 0.000000 3.910300 
# 
# 
# High freq. dielectric constant tensor:
#      x y z
#    x 1.747330 0.000000 -0.004500 
#    y 0.000000 1.691590 0.000000 
#    z -0.004500 0.000000 1.743720 
# 
# From -- ./inp_files/300674.got.cif
#   From: 2010.06.25/outbox.cif.g09.slc.cpg/sg12_151_cif.got.tgz:300674.got - 2010.06.28 00:19:55.
