data_PCOD8083752
_publ_section_title
;
Structure prediction by ZEFSAII (Michael W. Deem and Ramdas Pophale) SiO2 
 PCOD8083752
Probable space group: C 2/M
;
_chemical_formula_sum "Si O2"
_cell_formula_units_Z 64
_cell_length_a 16.120887
_cell_length_b 23.341687
_cell_length_c 8.990126
_cell_angle_alpha 90.000000
_cell_angle_beta 92.976946
_cell_angle_gamma 90.000000
_cell_volume 3378.317653
_symmetry_space_group_name_H-M "C 2/M"
_symmetry_group_IT_number 12
_symmetry_cell_setting 'monoclinic'
loop_
_space_group_symop_operation_xyz
x,y,z
-x,y,-z
-x,-y,-z
x,-y,z
1/2+x,1/2+y,z
1/2-x,1/2+y,-z
1/2-x,1/2-y,-z
1/2+x,1/2-y,z
loop_
_atom_site_type_symbol
_atom_site_label
_atom_site_fract_x
_atom_site_fract_y
_atom_site_fract_z
Si Si1 0.275895 0.228456 0.659710
Si Si2 0.349330 0.133955 0.135847
Si Si3 0.815530 0.151798 0.693789
Si Si4 0.776831 0.392149 0.581351
Si Si5 0.422810 0.066142 0.396696
Si Si6 0.405969 0.372438 0.974397
Si Si7 0.255194 0.565571 0.103068
Si Si8 0.663351 0.741551 0.908716
O O1 0.250000 0.250000 0.500000
O O2 0.337224 0.279973 0.716274
O O3 0.319613 0.166409 0.648900
O O4 0.191217 0.221088 0.747528
O O5 0.272890 0.143611 0.237551
O O6 0.418019 0.099430 0.238028
O O7 0.384472 0.196960 0.094212
O O8 0.318939 0.100284 0.985712
O O9 0.804913 0.126326 0.525558
O O10 0.885256 0.119342 0.796413
O O11 0.840199 0.427741 0.487428
O O12 0.750614 0.430271 0.719063
O O13 0.500000 0.089919 0.500000
O O14 0.436158 0.000000 0.357441
O O15 0.500000 0.392953 0.000000
O O16 0.345862 0.412338 0.065105
O O17 0.394914 0.306435 0.023998
O O18 0.246093 0.500000 0.053347
O O19 0.750000 0.750000 0.000000
#
# Coordination Sequence:
#
# PCOD8083752 Si02
#       8
#     8   8   8   8   8   8   8   8
#     4   9  15  27  54  78 101 132 176 223 277 320
#     4   9  18  34  59  82 107 143 195 231 274 347
#     4   8  17  32  55  79 104 146 180 222 281 348
#     4  10  18  33  57  81 106 142 196 235 271 338
#     4  10  21  38  54  76 118 159 188 231 285 335
#     4  11  22  37  56  83 117 149 188 234 293 344
#     4  11  21  35  59  86 108 145 197 243 279 336
#     4  11  16  34  59  80 108 144 184 231 287 342
#
# _framework density 18.94434
#
# number of rings (size 3 to 8) (size 9 to 14) (size 15 to 20)
#    0.000    2.125    5.000    1.500    0.000    0.250 
#    2.250    1.875    0.000    3.000    0.000    0.000 
#    0.000    0.000    0.000    0.000    0.000    0.000 
#
# Total GULP energy -396435.802451 kJ/mol
# GULP energy per Si atom -12388.618827 kJ/mol
# Density = 1.890122 g / cm^3
# Si number density = 18.944340 Si / 1000 Ang^3
#
#
#
# Elastic Constant Matrix: (Units=GPa)
#
#
# Indices 1 2 3 4 5 6 
#
# 1 45.9216 1.6055 22.4360 0.0000 14.4565 0.0000
# 2 1.6055 90.1823 20.7290 0.0000 5.4078 0.0000
# 3 22.4360 20.7290 107.2309 0.0000 10.1919 0.0000
# 4 0.0000 0.0000 0.0000 30.3445 0.0000 1.5271
# 5 14.4565 5.4078 10.1919 0.0000 21.4841 0.0000
# 6 0.0000 0.0000 0.0000 1.5271 0.0000 17.1169
#
#
#
# Elastic Compliance Matrix: (Units=1/GPa)
#
#
# Indices 1 2 3 4 5 6 
#
# 1 0.029802 0.001670 -0.004830 0.000000 -0.018182 0.000000
# 2 0.001670 0.011776 -0.002343 0.000000 -0.002976 0.000000
# 3 -0.004830 -0.002343 0.010916 0.000000 -0.001339 0.000000
# 4 0.000000 0.000000 0.000000 0.033104 0.000000 -0.002953
# 5 -0.018182 -0.002976 -0.001339 0.000000 0.060165 0.000000
# 6 0.000000 0.000000 0.000000 -0.002953 0.000000 0.058685
#
#
# Mechanical properties :
#
#
# Convention : Reuss Voigt Hill
#
# Bulk Modulus (GPa) = 24.10340 36.98620 30.54480
# Shear Modulus (GPa) = 21.80707 27.02671 24.41689
#
# Velocity S-wave (km/s) = 3.39649 3.78118 3.59399
# Velocity P-wave (km/s) = 5.30400 6.21523 5.77761
#
# Compressibility (1/GPa) = 0.04148791
#
# Stress axis : x y z
#
# Youngs Moduli (GPa) = 33.55521 84.91892 91.60493
#
# Poissons Ratio (x) = -0.14181 0.44246
# Poissons Ratio (y) = -0.05604 0.21462
# Poissons Ratio (z) = 0.16207 0.19896
#
# Static dielectric constant tensor:
#      x y z
#    x 2.974590 0.000000 0.242810 
#    y 0.000000 4.857980 0.000000 
#    z 0.242810 0.000000 3.975600 
# 
# 
# High freq. dielectric constant tensor:
#      x y z
#    x 1.667670 0.000000 0.010660 
#    y 0.000000 1.743510 0.000000 
#    z 0.010660 0.000000 1.756390 
# 
# From -- ./inp_files/65892.got.cif
#   From: 2010.06.25/outbox.cif.g09.slc.cpg/sg12_33_cif.got.tgz:65892.got - 2010.06.28 00:19:55.
