data_PCOD8083266
_publ_section_title
;
Structure prediction by ZEFSAII (Michael W. Deem and Ramdas Pophale) SiO2 
 PCOD8083266
Probable space group: C 2/M
;
_chemical_formula_sum "Si O2"
_cell_formula_units_Z 48
_cell_length_a 17.858420
_cell_length_b 14.060035
_cell_length_c 10.112540
_cell_angle_alpha 90.000000
_cell_angle_beta 82.586783
_cell_angle_gamma 90.000000
_cell_volume 2517.934033
_symmetry_space_group_name_H-M "C 2/M"
_symmetry_group_IT_number 12
_symmetry_cell_setting 'monoclinic'
loop_
_space_group_symop_operation_xyz
x,y,z
-x,y,-z
-x,-y,-z
x,-y,z
1/2+x,1/2+y,z
1/2-x,1/2+y,-z
1/2-x,1/2-y,-z
1/2+x,1/2-y,z
loop_
_atom_site_type_symbol
_atom_site_label
_atom_site_fract_x
_atom_site_fract_y
_atom_site_fract_z
Si Si1 0.609576 0.207660 0.736787
Si Si2 0.576937 0.393264 0.405009
Si Si3 0.342391 0.890466 0.530058
Si Si4 0.933887 0.707611 0.730763
Si Si5 0.588871 0.892117 0.003008
Si Si6 0.326916 0.393151 0.365706
O O1 0.659882 0.161712 0.610281
O O2 0.522590 0.191177 0.723374
O O3 0.630496 0.319593 0.740911
O O4 0.630638 0.158274 0.870760
O O5 0.500000 0.370333 0.500000
O O6 0.575778 0.500000 0.346576
O O7 0.585203 0.319633 0.281831
O O8 0.646270 0.378503 0.489264
O O9 0.407618 0.848329 0.607145
O O10 0.262330 0.875896 0.619697
O O11 0.360521 0.000000 0.499664
O O12 0.891246 0.667069 0.869435
O O13 0.618833 0.000000 0.011555
O O14 0.500000 0.891836 0.000000
O O15 0.347843 0.500000 0.313678
#
# Coordination Sequence:
#
# PCOD8083266 Si02
#       6
#     8   8   8   8   8   8
#     4  11  20  35  56  82 107 143 186 222 271 324
#     4  10  18  32  55  82 109 141 181 226 273 315
#     4  11  22  34  55  83 111 141 181 227 271 323
#     4  11  20  34  56  83 107 141 183 227 271 317
#     4   9  20  36  53  76 113 148 176 220 276 324
#     4  10  21  36  55  81 114 145 175 224 279 321
#
# _framework density 19.063245999999999
#
# number of rings (size 3 to 8) (size 9 to 14) (size 15 to 20)
#    0.000    1.667    3.333    2.000    0.000    2.667 
#    0.000    1.667    0.000    3.000    0.000    0.000 
#    0.000    0.000    0.000    0.000    0.000    0.000 
#
# Total GULP energy -297645.941391 kJ/mol
# GULP energy per Si atom -12401.914225 kJ/mol
# Density = 1.901986 g / cm^3
# Si number density = 19.063246 Si / 1000 Ang^3
#
#
#
# Elastic Constant Matrix: (Units=GPa)
#
#
# Indices 1 2 3 4 5 6 
#
# 1 48.4988 27.7403 7.8437 0.0000 -2.7292 0.0000
# 2 27.7403 169.8949 79.6602 0.0000 -2.7381 0.0000
# 3 7.8437 79.6602 113.1326 0.0000 -8.9856 0.0000
# 4 0.0000 0.0000 0.0000 37.9909 0.0000 -2.4350
# 5 -2.7292 -2.7381 -8.9856 0.0000 12.1275 0.0000
# 6 0.0000 0.0000 0.0000 -2.4350 0.0000 25.1877
#
#
#
# Elastic Compliance Matrix: (Units=1/GPa)
#
#
# Indices 1 2 3 4 5 6 
#
# 1 0.023299 -0.004731 0.002176 0.000000 0.005787 0.000000
# 2 -0.004731 0.009836 -0.006913 0.000000 -0.003966 0.000000
# 3 0.002176 -0.006913 0.014313 0.000000 0.009534 0.000000
# 4 0.000000 0.000000 0.000000 0.026486 0.000000 0.002560
# 5 0.005787 -0.003966 0.009534 0.000000 0.089928 0.000000
# 6 0.000000 0.000000 0.000000 0.002560 0.000000 0.039949
#
#
# Mechanical properties :
#
#
# Convention : Reuss Voigt Hill
#
# Bulk Modulus (GPa) = 35.07371 62.44607 48.75989
# Shear Modulus (GPa) = 21.52840 29.48003 25.50421
#
# Velocity S-wave (km/s) = 3.36417 3.93674 3.66166
# Velocity P-wave (km/s) = 5.79040 7.31384 6.59625
#
# Compressibility (1/GPa) = 0.02851139
#
# Stress axis : x y z
#
# Youngs Moduli (GPa) = 42.92049 101.67000 69.86670
#
# Poissons Ratio (x) = 0.48100 -0.15200
# Poissons Ratio (y) = 0.20306 0.48296
# Poissons Ratio (z) = -0.09337 0.70281
#
# Static dielectric constant tensor:
#      x y z
#    x 3.300380 0.000000 0.083010 
#    y 0.000000 3.840240 0.000000 
#    z 0.083010 0.000000 3.411690 
# 
# 
# High freq. dielectric constant tensor:
#      x y z
#    x 1.724640 0.000000 0.010100 
#    y 0.000000 1.762530 0.000000 
#    z 0.010100 0.000000 1.709660 
# 
# From -- ./inp_files/73643.got.cif
#   From: 2010.06.25/outbox.cif.g09.slc.cpg/sg12_37_cif.got.tgz:73643.got - 2010.06.28 00:19:55.
