data_PCOD8083386
_publ_section_title
;
Structure prediction by ZEFSAII (Michael W. Deem and Ramdas Pophale) SiO2 
 PCOD8083386
Probable space group: C 2/M
;
_chemical_formula_sum "Si O2"
_cell_formula_units_Z 64
_cell_length_a 20.523883
_cell_length_b 8.805433
_cell_length_c 22.376140
_cell_angle_alpha 90.000000
_cell_angle_beta 124.450347
_cell_angle_gamma 90.000000
_cell_volume 3334.629287
_symmetry_space_group_name_H-M "C 2/M"
_symmetry_group_IT_number 12
_symmetry_cell_setting 'monoclinic'
loop_
_space_group_symop_operation_xyz
x,y,z
-x,y,-z
-x,-y,-z
x,-y,z
1/2+x,1/2+y,z
1/2-x,1/2+y,-z
1/2-x,1/2-y,-z
1/2+x,1/2-y,z
loop_
_atom_site_type_symbol
_atom_site_label
_atom_site_fract_x
_atom_site_fract_y
_atom_site_fract_z
Si Si1 0.993138 0.321263 0.179277
Si Si2 0.907678 0.819684 0.564740
Si Si3 0.460930 0.677180 0.041538
Si Si4 0.278282 0.677997 0.953486
Si Si5 0.639618 0.821349 0.336263
Si Si6 0.814603 0.180138 0.401514
Si Si7 0.586047 0.319329 0.657620
Si Si8 0.643713 0.680195 0.815661
O O1 0.978911 0.500000 0.176965
O O2 0.071678 0.270242 0.255223
O O3 0.002875 0.272536 0.115652
O O4 0.918173 0.234452 0.166915
O O5 0.870613 0.758815 0.606037
O O6 0.856236 0.756536 0.482908
O O7 0.996977 0.759554 0.602722
O O8 0.906386 0.000000 0.566789
O O9 0.474798 0.500000 0.061578
O O10 0.500000 0.728520 0.000000
O O11 0.369018 0.717830 0.989588
O O12 0.262566 0.500000 0.947894
O O13 0.229320 0.750198 0.873583
O O14 0.250000 0.750000 0.000000
O O15 0.723387 0.768818 0.352242
O O16 0.638026 0.000000 0.346610
O O17 0.859193 0.247862 0.366699
O O18 0.822193 0.000000 0.404723
O O19 0.587659 0.500000 0.657503
O O20 0.618058 0.259034 0.737489
O O21 0.648557 0.500000 0.820843
#
# Coordination Sequence:
#
# PCOD8083386 Si02
#       8
#     8   8   8   8   8   8   8   8
#     4  11  22  36  57  82 112 150 188 230 279 338
#     4  10  18  32  57  82 105 143 190 233 274 327
#     4  10  23  42  62  85 115 149 184 226 277 331
#     4  11  22  37  60  87 115 147 186 227 273 329
#     4  10  21  35  53  80 113 148 182 226 281 332
#     4   9  18  33  53  79 112 144 184 234 280 327
#     4   9  18  32  53  82 109 141 187 234 278 323
#     4  11  21  35  58  85 113 146 187 238 283 328
#
# _framework density 19.192537000000002
#
# number of rings (size 3 to 8) (size 9 to 14) (size 15 to 20)
#    0.000    1.875    2.500    1.875    0.000    3.750 
#    0.000    1.250    0.000    5.250    0.000    0.000 
#    0.000    0.000    0.000    0.000    0.000    0.000 
#
# Total GULP energy -396902.920839 kJ/mol
# GULP energy per Si atom -12403.216276 kJ/mol
# Density = 1.914885 g / cm^3
# Si number density = 19.192537 Si / 1000 Ang^3
#
#
#
# Elastic Constant Matrix: (Units=GPa)
#
#
# Indices 1 2 3 4 5 6 
#
# 1 128.2285 22.8709 52.2149 0.0000 -8.5607 0.0000
# 2 22.8709 39.6574 28.4751 0.0000 0.2823 0.0000
# 3 52.2149 28.4751 139.5764 0.0000 -1.3252 0.0000
# 4 0.0000 0.0000 0.0000 24.5651 0.0000 -0.2058
# 5 -8.5607 0.2823 -1.3252 0.0000 35.0371 0.0000
# 6 0.0000 0.0000 0.0000 -0.2058 0.0000 20.6055
#
#
#
# Elastic Compliance Matrix: (Units=1/GPa)
#
#
# Indices 1 2 3 4 5 6 
#
# 1 0.009772 -0.003565 -0.002906 0.000000 0.002306 0.000000
# 2 -0.003565 0.030852 -0.004973 0.000000 -0.001308 0.000000
# 3 -0.002906 -0.004973 0.009263 0.000000 -0.000320 0.000000
# 4 0.000000 0.000000 0.000000 0.040712 0.000000 0.000407
# 5 0.002306 -0.001308 -0.000320 0.000000 0.029103 0.000000
# 6 0.000000 0.000000 0.000000 0.000407 0.000000 0.048535
#
#
# Mechanical properties :
#
#
# Convention : Reuss Voigt Hill
#
# Bulk Modulus (GPa) = 37.03922 57.17602 47.10762
# Shear Modulus (GPa) = 24.98437 29.63495 27.30966
#
# Velocity S-wave (km/s) = 3.61193 3.93375 3.77627
# Velocity P-wave (km/s) = 6.06097 7.10549 6.60391
#
# Compressibility (1/GPa) = 0.02699841
#
# Stress axis : x y z
#
# Youngs Moduli (GPa) = 102.33389 32.41282 107.95290
#
# Poissons Ratio (x) = 0.11556 0.31376
# Poissons Ratio (y) = 0.36483 0.53684
# Poissons Ratio (z) = 0.29742 0.16118
#
# Static dielectric constant tensor:
#      x y z
#    x 4.209770 0.000000 0.344500 
#    y 0.000000 3.240770 0.000000 
#    z 0.344500 0.000000 3.908650 
# 
# 
# High freq. dielectric constant tensor:
#      x y z
#    x 1.752010 0.000000 0.004700 
#    y 0.000000 1.719720 0.000000 
#    z 0.004700 0.000000 1.763080 
# 
# From -- ./inp_files/319998.got.cif
#   From: 2010.06.25/outbox.cif.g09.slc.cpg/sg12_160_cif.got.tgz:319998.got - 2010.06.28 00:19:55.
