data_PCOD8083564
_publ_section_title
;
Structure prediction by ZEFSAII (Michael W. Deem and Ramdas Pophale) SiO2 
 PCOD8083564
Probable space group: C 2/M
;
_chemical_formula_sum "Si O2"
_cell_formula_units_Z 48
_cell_length_a 7.999393
_cell_length_b 20.177326
_cell_length_c 15.779284
_cell_angle_alpha 90.000000
_cell_angle_beta 90.028037
_cell_angle_gamma 90.000000
_cell_volume 2546.876495
_symmetry_space_group_name_H-M "C 2/M"
_symmetry_group_IT_number 12
_symmetry_cell_setting 'monoclinic'
loop_
_space_group_symop_operation_xyz
x,y,z
-x,y,-z
-x,-y,-z
x,-y,z
1/2+x,1/2+y,z
1/2-x,1/2+y,-z
1/2-x,1/2-y,-z
1/2+x,1/2-y,z
loop_
_atom_site_type_symbol
_atom_site_label
_atom_site_fract_x
_atom_site_fract_y
_atom_site_fract_z
Si Si1 0.919636 0.793588 0.910513
Si Si2 0.334167 0.726754 0.654767
Si Si3 0.083462 0.422345 0.250311
Si Si4 0.044663 0.652629 0.908730
Si Si5 0.129176 0.177305 0.753472
Si Si6 0.968396 0.651721 0.407824
O O1 0.733641 0.821611 0.905965
O O2 0.916434 0.714101 0.895649
O O3 0.042007 0.827299 0.843666
O O4 0.000000 0.811275 0.000000
O O5 0.240501 0.755285 0.739901
O O6 0.486670 0.679664 0.681286
O O7 0.394151 0.790765 0.602973
O O8 0.215387 0.683382 0.595633
O O9 0.108733 0.500000 0.245540
O O10 0.265054 0.389237 0.256829
O O11 0.979945 0.403411 0.334457
O O12 0.983554 0.399133 0.166714
O O13 0.000000 0.619627 0.000000
O O14 0.000000 0.618977 0.500000
#
# Coordination Sequence:
#
# PCOD8083564 Si02
#       6
#     8   8   8   8   8   8
#     4  11  19  31  56  87 111 132 167 220 282 328
#     4   9  18  32  56  85 108 132 167 218 280 325
#     4  11  24  39  53  72 105 151 190 218 255 306
#     4  11  21  35  57  84 112 139 172 219 271 323
#     4  10  18  33  53  77 109 139 173 219 267 319
#     4  10  19  34  58  85 112 138 171 218 270 324
#
# _framework density 18.846613999999999
#
# number of rings (size 3 to 8) (size 9 to 14) (size 15 to 20)
#    0.000    1.667    0.000    9.500    0.000    0.667 
#    0.000    3.333    0.000    3.000    0.000    0.000 
#    0.000    0.000    0.000    0.000    0.000    0.000 
#
# Total GULP energy -297595.614449 kJ/mol
# GULP energy per Si atom -12399.817269 kJ/mol
# Density = 1.880372 g / cm^3
# Si number density = 18.846614 Si / 1000 Ang^3
#
#
#
# Elastic Constant Matrix: (Units=GPa)
#
#
# Indices 1 2 3 4 5 6 
#
# 1 100.8177 47.0920 25.8797 0.0000 5.7749 0.0000
# 2 47.0920 99.3776 46.5200 0.0000 17.3966 0.0000
# 3 25.8797 46.5200 127.9551 0.0000 4.5040 0.0000
# 4 0.0000 0.0000 0.0000 10.7716 0.0000 0.3035
# 5 5.7749 17.3966 4.5040 0.0000 22.0422 0.0000
# 6 0.0000 0.0000 0.0000 0.3035 0.0000 11.0777
#
#
#
# Elastic Compliance Matrix: (Units=1/GPa)
#
#
# Indices 1 2 3 4 5 6 
#
# 1 0.012808 -0.006156 -0.000408 0.000000 0.001586 0.000000
# 2 -0.006156 0.017020 -0.004560 0.000000 -0.010889 0.000000
# 3 -0.000408 -0.004560 0.009493 0.000000 0.001766 0.000000
# 4 0.000000 0.000000 0.000000 0.092909 0.000000 -0.002545
# 5 0.001586 -0.010889 0.001766 0.000000 0.053185 0.000000
# 6 0.000000 0.000000 0.000000 -0.002545 0.000000 0.090341
#
#
# Mechanical properties :
#
#
# Convention : Reuss Voigt Hill
#
# Bulk Modulus (GPa) = 58.56815 63.01489 60.79152
# Shear Modulus (GPa) = 16.46385 22.68888 19.57636
#
# Velocity S-wave (km/s) = 2.95883 3.47345 3.22642
# Velocity P-wave (km/s) = 6.54344 7.04235 6.79747
#
# Compressibility (1/GPa) = 0.01707413
#
# Stress axis : x y z
#
# Youngs Moduli (GPa) = 78.07424 58.75322 105.33651
#
# Poissons Ratio (x) = 0.36169 0.04301
# Poissons Ratio (y) = 0.48063 0.48030
# Poissons Ratio (z) = 0.03188 0.26789
#
# Static dielectric constant tensor:
#      x y z
#    x 3.683410 0.000000 -0.105120 
#    y 0.000000 2.941460 0.000000 
#    z -0.105120 0.000000 3.628400 
# 
# 
# High freq. dielectric constant tensor:
#      x y z
#    x 1.749680 0.000000 0.000330 
#    y 0.000000 1.670110 0.000000 
#    z 0.000330 0.000000 1.748410 
# 
# From -- ./inp_files/195951.got.cif
#   From: 2010.06.25/outbox.cif.g09.slc.cpg/sg12_98_cif.got.tgz:195951.got - 2010.06.28 00:19:55.
