data_PCOD8083416
_publ_section_title
;
Structure prediction by ZEFSAII (Michael W. Deem and Ramdas Pophale) SiO2 
 PCOD8083416
Probable space group: C 2/M
;
_chemical_formula_sum "Si O2"
_cell_formula_units_Z 56
_cell_length_a 22.597739
_cell_length_b 11.120198
_cell_length_c 11.860147
_cell_angle_alpha 90.000000
_cell_angle_beta 71.194902
_cell_angle_gamma 90.000000
_cell_volume 2821.262676
_symmetry_space_group_name_H-M "C 2/M"
_symmetry_group_IT_number 12
_symmetry_cell_setting 'monoclinic'
loop_
_space_group_symop_operation_xyz
x,y,z
-x,y,-z
-x,-y,-z
x,-y,z
1/2+x,1/2+y,z
1/2-x,1/2+y,-z
1/2-x,1/2-y,-z
1/2+x,1/2-y,z
loop_
_atom_site_type_symbol
_atom_site_label
_atom_site_fract_x
_atom_site_fract_y
_atom_site_fract_z
Si Si1 0.014737 0.362996 0.611882
Si Si2 0.603808 0.204365 0.183684
Si Si3 0.188339 0.636841 0.318383
Si Si4 0.817346 0.762582 0.207535
Si Si5 0.286154 0.869675 0.019937
Si Si6 0.432594 0.358929 0.000234
Si Si7 0.851780 0.640934 0.410221
O O1 0.031016 0.500000 0.574205
O O2 0.960482 0.355173 0.737456
O O3 0.000000 0.299494 0.500000
O O4 0.077553 0.308059 0.625349
O O5 0.645097 0.229615 0.271843
O O6 0.647466 0.116079 0.084004
O O7 0.586814 0.317082 0.114175
O O8 0.163969 0.500000 0.314104
O O9 0.260178 0.643038 0.234109
O O10 0.183505 0.671125 0.452071
O O11 0.800581 0.646360 0.142658
O O12 0.880873 0.822951 0.124321
O O13 0.820199 0.719133 0.333301
O O14 0.251174 0.000000 0.024753
O O15 0.250000 0.750000 0.000000
O O16 0.437384 0.500000 0.989385
O O17 0.500000 0.306061 0.000000
O O18 0.848361 0.500000 0.382152
#
# Coordination Sequence:
#
# PCOD8083416 Si02
#       7
#     8   8   8   8   8   8   8
#     4  10  18  32  57  86 114 148 186 229 288 353
#     4  11  21  36  60  89 116 150 195 247 294 361
#     4  11  21  36  58  88 121 156 194 241 300 364
#     4  11  22  38  58  86 116 158 199 246 302 355
#     4  11  23  37  57  84 120 159 201 251 303 359
#     4  10  23  42  62  84 114 158 208 255 301 356
#     4  10  21  36  57  86 121 152 191 242 298 360
#
# _framework density 19.849269
#
# number of rings (size 3 to 8) (size 9 to 14) (size 15 to 20)
#    0.000    1.429    2.857    3.429    0.000    2.286 
#    0.000    0.000    0.000   11.143    0.000    0.000 
#    0.000    0.000    0.000    0.000    0.000    0.000 
#
# Total GULP energy -346902.463645 kJ/mol
# GULP energy per Si atom -12389.373702 kJ/mol
# Density = 1.980409 g / cm^3
# Si number density = 19.849269 Si / 1000 Ang^3
#
#
#
# Elastic Constant Matrix: (Units=GPa)
#
#
# Indices 1 2 3 4 5 6 
#
# 1 112.3243 36.7722 42.5627 0.0000 -11.5548 0.0000
# 2 36.7722 82.1848 32.8471 0.0000 10.0532 0.0000
# 3 42.5627 32.8471 130.6264 0.0000 5.8909 0.0000
# 4 0.0000 0.0000 0.0000 17.1263 0.0000 3.0814
# 5 -11.5548 10.0532 5.8909 0.0000 44.3548 0.0000
# 6 0.0000 0.0000 0.0000 3.0814 0.0000 25.3070
#
#
#
# Elastic Compliance Matrix: (Units=1/GPa)
#
#
# Indices 1 2 3 4 5 6 
#
# 1 0.012056 -0.004787 -0.002933 0.000000 0.004615 0.000000
# 2 -0.004787 0.015740 -0.002194 0.000000 -0.004523 0.000000
# 3 -0.002933 -0.002194 0.009230 0.000000 -0.001493 0.000000
# 4 0.000000 0.000000 0.000000 0.059697 0.000000 -0.007269
# 5 0.004615 -0.004523 -0.001493 0.000000 0.024971 0.000000
# 6 0.000000 0.000000 0.000000 -0.007269 0.000000 0.040400
#
#
# Mechanical properties :
#
#
# Convention : Reuss Voigt Hill
#
# Bulk Modulus (GPa) = 58.14480 61.05550 59.60015
# Shear Modulus (GPa) = 26.64481 31.55452 29.09967
#
# Velocity S-wave (km/s) = 3.66779 3.99144 3.83303
# Velocity P-wave (km/s) = 6.87704 7.21585 7.04848
#
# Compressibility (1/GPa) = 0.01719844
#
# Stress axis : x y z
#
# Youngs Moduli (GPa) = 82.94736 63.53383 108.34155
#
# Poissons Ratio (x) = 0.30411 0.31773
# Poissons Ratio (y) = 0.39704 0.23773
# Poissons Ratio (z) = 0.24326 0.13941
#
# Static dielectric constant tensor:
#      x y z
#    x 3.882700 0.000000 0.045060 
#    y 0.000000 3.295690 0.000000 
#    z 0.045060 0.000000 3.799000 
# 
# 
# High freq. dielectric constant tensor:
#      x y z
#    x 1.786070 0.000000 -0.001820 
#    y 0.000000 1.730500 0.000000 
#    z -0.001820 0.000000 1.793220 
# 
# From -- ./inp_files/164838.got.cif
#   From: 2010.06.25/outbox.cif.g09.slc.cpg/sg12_83_cif.got.tgz:164838.got - 2010.06.28 00:19:55.
