data_PCOD8083596
_publ_section_title
;
Structure prediction by ZEFSAII (Michael W. Deem and Ramdas Pophale) SiO2 
 PCOD8083596
Probable space group: C 2/M
;
_chemical_formula_sum "Si O2"
_cell_formula_units_Z 56
_cell_length_a 20.138076
_cell_length_b 8.817965
_cell_length_c 29.676677
_cell_angle_alpha 90.000000
_cell_angle_beta 145.568320
_cell_angle_gamma 90.000000
_cell_volume 2979.718199
_symmetry_space_group_name_H-M "C 2/M"
_symmetry_group_IT_number 12
_symmetry_cell_setting 'monoclinic'
loop_
_space_group_symop_operation_xyz
x,y,z
-x,y,-z
-x,-y,-z
x,-y,z
1/2+x,1/2+y,z
1/2-x,1/2+y,-z
1/2-x,1/2-y,-z
1/2+x,1/2-y,z
loop_
_atom_site_type_symbol
_atom_site_label
_atom_site_fract_x
_atom_site_fract_y
_atom_site_fract_z
Si Si1 0.528892 0.320487 0.155325
Si Si2 0.261824 0.677665 0.310553
Si Si3 0.224960 0.326381 0.587305
Si Si4 0.821377 0.322517 0.999591
Si Si5 0.042458 0.176060 0.336745
Si Si6 0.401085 0.323167 0.173489
Si Si7 0.494180 0.176997 0.403500
O O1 0.529519 0.500000 0.152476
O O2 0.660267 0.258178 0.224544
O O3 0.449508 0.256038 0.069297
O O4 0.472761 0.257625 0.170710
O O5 0.246747 0.500000 0.296699
O O6 0.251788 0.720759 0.357153
O O7 0.385166 0.726781 0.359318
O O8 0.224807 0.500000 0.604251
O O9 0.325667 0.300991 0.606905
O O10 0.101953 0.281724 0.496281
O O11 0.837276 0.500000 0.016837
O O12 0.750000 0.250000 0.000000
O O13 0.739694 0.292296 0.909586
O O14 0.027075 0.279265 0.371440
O O15 0.950911 0.241707 0.248216
O O16 0.017798 0.000000 0.334623
O O17 0.429582 0.500000 0.189367
O O18 0.464054 0.000000 0.389018
#
# Coordination Sequence:
#
# PCOD8083596 Si02
#       7
#     8   8   8   8   8   8   8
#     4  10  18  33  54  78 110 146 180 224 280 332
#     4  12  24  37  57  83 110 144 187 234 277 331
#     4  10  21  39  61  81 109 146 184 229 282 332
#     4   9  16  27  46  78 112 144 181 224 272 324
#     4  10  19  36  59  82 111 148 185 225 274 327
#     4   8  15  29  52  78 109 144 177 217 271 324
#     4  11  24  39  55  80 112 149 187 228 279 331
#
# _framework density 18.793723
#
# number of rings (size 3 to 8) (size 9 to 14) (size 15 to 20)
#    0.000    2.000    1.429    4.286    0.000    3.429 
#    0.000    1.429    0.000    0.857    0.000    6.000 
#    0.000    0.000    0.000    0.000    0.000    0.000 
#
# Total GULP energy -347139.465306 kJ/mol
# GULP energy per Si atom -12397.838047 kJ/mol
# Density = 1.875095 g / cm^3
# Si number density = 18.793723 Si / 1000 Ang^3
#
#
#
# Elastic Constant Matrix: (Units=GPa)
#
#
# Indices 1 2 3 4 5 6 
#
# 1 55.1588 22.5868 21.5405 0.0000 20.4699 -0.0001
# 2 22.5868 89.2103 49.6171 0.0001 11.4171 -0.0001
# 3 21.5405 49.6171 143.5664 0.0000 18.2169 0.0000
# 4 0.0000 0.0001 0.0000 30.5479 0.0000 2.3931
# 5 20.4699 11.4171 18.2169 0.0000 41.7012 0.0000
# 6 -0.0001 -0.0001 0.0000 2.3931 0.0000 27.4653
#
#
#
# Elastic Compliance Matrix: (Units=1/GPa)
#
#
# Indices 1 2 3 4 5 6 
#
# 1 0.024020 -0.004318 -0.000810 0.000000 -0.010254 0.000000
# 2 -0.004318 0.014783 -0.004464 0.000000 0.000023 0.000000
# 3 -0.000810 -0.004464 0.008919 0.000000 -0.002276 0.000000
# 4 0.000000 0.000000 0.000000 0.032960 0.000000 -0.002872
# 5 -0.010254 0.000023 -0.002276 0.000000 0.030002 0.000000
# 6 0.000000 0.000000 0.000000 -0.002872 0.000000 0.036660
#
#
# Mechanical properties :
#
#
# Convention : Reuss Voigt Hill
#
# Bulk Modulus (GPa) = 35.04378 52.82493 43.93436
# Shear Modulus (GPa) = 28.40260 32.88894 30.64577
#
# Velocity S-wave (km/s) = 3.89174 4.18783 4.04250
# Velocity P-wave (km/s) = 6.23548 7.18002 6.72435
#
# Compressibility (1/GPa) = 0.02853574
#
# Stress axis : x y z
#
# Youngs Moduli (GPa) = 41.63248 67.64667 112.12599
#
# Poissons Ratio (x) = 0.29213 0.09085
# Poissons Ratio (y) = 0.17979 0.50052
# Poissons Ratio (z) = 0.03373 0.30197
#
# Static dielectric constant tensor:
#      x y z
#    x 3.145790 0.000000 0.121520 
#    y 0.000000 3.384990 0.000000 
#    z 0.121520 0.000000 4.097390 
# 
# 
# High freq. dielectric constant tensor:
#      x y z
#    x 1.690310 0.000000 0.012750 
#    y 0.000000 1.722850 0.000000 
#    z 0.012750 0.000000 1.755430 
# 
# From -- ./inp_files/275507.got.cif
#   From: 2010.06.25/outbox.cif.g09.slc.cpg/sg12_138_cif.got.tgz:275507.got - 2010.06.28 00:19:55.
