data_PCOD8083096
_publ_section_title
;
Structure prediction by ZEFSAII (Michael W. Deem and Ramdas Pophale) SiO2 
 PCOD8083096
Probable space group: C 2/M
;
_chemical_formula_sum "Si O2"
_cell_formula_units_Z 56
_cell_length_a 20.486519
_cell_length_b 21.324524
_cell_length_c 15.055057
_cell_angle_alpha 90.000000
_cell_angle_beta 27.575744
_cell_angle_gamma 90.000000
_cell_volume 3044.644820
_symmetry_space_group_name_H-M "C 2/M"
_symmetry_group_IT_number 12
_symmetry_cell_setting 'monoclinic'
loop_
_space_group_symop_operation_xyz
x,y,z
-x,y,-z
-x,-y,-z
x,-y,z
1/2+x,1/2+y,z
1/2-x,1/2+y,-z
1/2-x,1/2-y,-z
1/2+x,1/2-y,z
loop_
_atom_site_type_symbol
_atom_site_label
_atom_site_fract_x
_atom_site_fract_y
_atom_site_fract_z
Si Si1 0.394813 0.000000 0.494589
Si Si2 0.039098 0.314291 0.854052
Si Si3 0.306878 0.757142 0.583029
Si Si4 0.951882 0.377746 0.326638
Si Si5 0.768961 0.882213 0.013395
Si Si6 0.961147 0.833600 0.643148
Si Si7 0.708642 0.000000 0.190738
Si Si8 0.727855 0.262325 0.873014
O O1 0.370071 0.938116 0.464255
O O2 0.549494 0.000000 0.348799
O O3 0.285417 0.000000 0.708965
O O4 0.166470 0.264448 0.701110
O O5 0.067006 0.375310 0.758064
O O6 0.000000 0.337889 0.000000
O O7 0.909889 0.280058 0.962334
O O8 0.384652 0.812842 0.439784
O O9 0.399440 0.693883 0.478739
O O10 0.269067 0.785032 0.725092
O O11 0.114332 0.381719 0.158038
O O12 0.789770 0.939860 0.055040
O O13 0.802434 0.820744 0.028643
O O14 0.886373 0.886722 0.793581
O O15 0.856204 0.775333 0.760282
O O16 0.000000 0.863015 0.500000
#
# Coordination Sequence:
#
# PCOD8083096 Si02
#       8
#     4   8   8   8   8   8   4   8
#     4   9  20  34  53  79 105 137 175 215 254 305
#     4  10  21  34  50  78 111 140 173 216 262 310
#     4  10  20  31  52  81 110 138 169 216 264 314
#     4  11  19  33  53  76 107 141 177 215 260 309
#     4  11  19  32  54  77 106 141 174 216 264 310
#     4  10  19  31  51  79 103 135 176 214 260 313
#     4   9  20  34  51  81 109 131 171 221 260 301
#     4  10  18  32  53  79 109 137 171 214 265 313
#
# _framework density 18.392951
#
# number of rings (size 3 to 8) (size 9 to 14) (size 15 to 20)
#    0.000    1.857    2.857    2.571    0.000    1.143 
#    0.000    0.714    0.000    3.429    0.000    7.000 
#    0.000    0.000    0.000    0.000    0.000    0.000 
#
# Total GULP energy -347155.460809 kJ/mol
# GULP energy per Si atom -12398.409315 kJ/mol
# Density = 1.835109 g / cm^3
# Si number density = 18.392951 Si / 1000 Ang^3
#
#
#
# Elastic Constant Matrix: (Units=GPa)
#
#
# Indices 1 2 3 4 5 6 
#
# 1 86.3273 43.1274 34.6904 0.0050 27.5926 -0.0011
# 2 43.1274 68.4201 32.5113 0.0063 32.9947 -0.0008
# 3 34.6904 32.5113 87.0691 0.0031 32.9171 0.0005
# 4 0.0050 0.0063 0.0031 21.5662 -0.0003 5.7152
# 5 27.5926 32.9947 32.9171 -0.0003 37.1954 -0.0002
# 6 -0.0011 -0.0008 0.0005 5.7152 -0.0002 17.0913
#
#
#
# Elastic Compliance Matrix: (Units=1/GPa)
#
#
# Indices 1 2 3 4 5 6 
#
# 1 0.017965 -0.008329 -0.002709 -0.000002 -0.003541 0.000001
# 2 -0.008329 0.029527 -0.000211 -0.000008 -0.019827 0.000003
# 3 -0.002709 -0.000211 0.017752 -0.000002 -0.013513 0.000000
# 4 -0.000002 -0.000008 -0.000002 0.050878 0.000010 -0.017013
# 5 -0.003541 -0.019827 -0.013513 0.000010 0.059059 -0.000004
# 6 0.000001 0.000003 0.000000 -0.017013 -0.000004 0.064198
#
#
# Mechanical properties :
#
#
# Convention : Reuss Voigt Hill
#
# Bulk Modulus (GPa) = 23.39373 51.38608 37.38990
# Shear Modulus (GPa) = 18.10759 23.93640 21.02199
#
# Velocity S-wave (km/s) = 3.14105 3.61139 3.38440
# Velocity P-wave (km/s) = 5.08934 6.73707 5.97032
#
# Compressibility (1/GPa) = 0.04274650
#
# Stress axis : x y z
#
# Youngs Moduli (GPa) = 55.66247 33.86682 56.33140
#
# Poissons Ratio (x) = 0.28208 0.15260
# Poissons Ratio (y) = 0.46362 0.01189
# Poissons Ratio (z) = 0.15078 0.00715
#
# Static dielectric constant tensor:
#      x y z
#    x 3.600950 0.000000 0.341050 
#    y 0.000000 3.160430 0.000010 
#    z 0.341050 0.000010 3.642240 
# 
# 
# High freq. dielectric constant tensor:
#      x y z
#    x 1.717910 0.000000 0.020920 
#    y 0.000000 1.674560 0.000000 
#    z 0.020920 0.000000 1.719770 
# 
# From -- ./inp_files/227608.got.cif
#   From: 2010.06.25/outbox.cif.g09.slc.cpg/sg12_114_cif.got.tgz:227608.got - 2010.06.28 00:19:55.
