data_PCOD8083153
_publ_section_title
;
Structure prediction by ZEFSAII (Michael W. Deem and Ramdas Pophale) SiO2 
 PCOD8083153
Probable space group: C 2/M
;
_chemical_formula_sum "Si O2"
_cell_formula_units_Z 56
_cell_length_a 15.515198
_cell_length_b 8.630897
_cell_length_c 19.923998
_cell_angle_alpha 90.000000
_cell_angle_beta 91.580651
_cell_angle_gamma 90.000000
_cell_volume 2667.008867
_symmetry_space_group_name_H-M "C 2/M"
_symmetry_group_IT_number 12
_symmetry_cell_setting 'monoclinic'
loop_
_space_group_symop_operation_xyz
x,y,z
-x,y,-z
-x,-y,-z
x,-y,z
1/2+x,1/2+y,z
1/2-x,1/2+y,-z
1/2-x,1/2-y,-z
1/2+x,1/2-y,z
loop_
_atom_site_type_symbol
_atom_site_label
_atom_site_fract_x
_atom_site_fract_y
_atom_site_fract_z
Si Si1 0.336593 0.178657 0.208850
Si Si2 0.596834 0.681841 0.334252
Si Si3 0.578267 0.181050 0.651281
Si Si4 0.348802 0.677165 0.077848
Si Si5 0.850105 0.681097 0.800469
Si Si6 0.836140 0.181086 0.933228
Si Si7 0.743933 0.183306 0.573443
O O1 0.399020 0.219355 0.271204
O O2 0.385942 0.217824 0.139556
O O3 0.250163 0.278987 0.213050
O O4 0.308880 0.000000 0.210690
O O5 0.605066 0.500000 0.323162
O O6 0.507829 0.725157 0.369865
O O7 0.595798 0.765883 0.262571
O O8 0.675907 0.744574 0.380805
O O9 0.655303 0.240616 0.605446
O O10 0.561332 0.000000 0.639985
O O11 0.364883 0.500000 0.098382
O O12 0.247199 0.709239 0.069088
O O13 0.388866 0.711619 0.004237
O O14 0.862915 0.500000 0.810832
O O15 0.888711 0.769085 0.867590
O O16 0.809865 0.000000 0.928764
O O17 0.750000 0.250000 0.500000
O O18 0.746713 0.000000 0.570094
#
# Coordination Sequence:
#
# PCOD8083153 Si02
#       7
#     8   8   8   8   8   8   8
#     4  10  18  32  54  78 114 156 196 245 301 351
#     4  11  23  41  63  90 123 159 199 244 295 351
#     4  10  22  41  62  89 124 160 199 244 293 350
#     4   9  16  25  41  71 107 145 196 247 295 352
#     4  11  20  31  53  82 113 152 201 248 295 354
#     4   9  16  26  42  68 107 150 192 245 301 350
#     4  10  23  44  67  92 126 159 194 238 290 349
#
# _framework density 20.997305999999998
#
# number of rings (size 3 to 8) (size 9 to 14) (size 15 to 20)
#    0.000    2.000    1.429    4.714    0.000    5.143 
#    0.000    2.857    0.000    0.857    0.000    6.000 
#    0.000    0.000    0.000    0.000    0.000    0.000 
#
# Total GULP energy -347077.857814 kJ/mol
# GULP energy per Si atom -12395.637779 kJ/mol
# Density = 2.094952 g / cm^3
# Si number density = 20.997306 Si / 1000 Ang^3
#
#
#
# Elastic Constant Matrix: (Units=GPa)
#
#
# Indices 1 2 3 4 5 6 
#
# 1 91.7922 20.4948 48.4835 0.0000 -14.5429 0.0000
# 2 20.4948 68.1727 36.8548 0.0000 -4.0183 0.0000
# 3 48.4835 36.8548 161.8450 0.0000 -13.8374 0.0000
# 4 0.0000 0.0000 0.0000 37.5029 0.0000 -2.6432
# 5 -14.5429 -4.0183 -13.8374 0.0000 8.5304 0.0000
# 6 0.0000 0.0000 0.0000 -2.6432 0.0000 25.0001
#
#
#
# Elastic Compliance Matrix: (Units=1/GPa)
#
#
# Indices 1 2 3 4 5 6 
#
# 1 0.016281 -0.002244 -0.002419 0.000000 0.022776 0.000000
# 2 -0.002244 0.017066 -0.003313 0.000000 -0.001162 0.000000
# 3 -0.002419 -0.003313 0.008327 0.000000 0.007822 0.000000
# 4 0.000000 0.000000 0.000000 0.026865 0.000000 0.002840
# 5 0.022776 -0.001162 0.007822 0.000000 0.168198 0.000000
# 6 0.000000 0.000000 0.000000 0.002840 0.000000 0.040300
#
#
# Mechanical properties :
#
#
# Convention : Reuss Voigt Hill
#
# Bulk Modulus (GPa) = 38.87906 59.27513 49.07710
# Shear Modulus (GPa) = 16.58024 28.60515 22.59270
#
# Velocity S-wave (km/s) = 2.81310 3.69497 3.28377
# Velocity P-wave (km/s) = 5.39516 6.81872 6.14828
#
# Compressibility (1/GPa) = 0.02572078
#
# Stress axis : x y z
#
# Youngs Moduli (GPa) = 61.41976 58.59591 120.09632
#
# Poissons Ratio (x) = 0.13152 0.29051
# Poissons Ratio (y) = 0.13786 0.39790
# Poissons Ratio (z) = 0.14857 0.19414
#
# Static dielectric constant tensor:
#      x y z
#    x 3.459360 0.000000 -0.132240 
#    y 0.000000 3.646070 0.000000 
#    z -0.132240 0.000000 3.474450 
# 
# 
# High freq. dielectric constant tensor:
#      x y z
#    x 1.784130 0.000000 -0.004100 
#    y 0.000000 1.818810 0.000000 
#    z -0.004100 0.000000 1.839020 
# 
# From -- ./inp_files/308939.got.cif
#   From: 2010.06.25/outbox.cif.g09.slc.cpg/sg12_155_cif.got.tgz:308939.got - 2010.06.28 00:19:55.
