data_PCOD8083164
_publ_section_title
;
Structure prediction by ZEFSAII (Michael W. Deem and Ramdas Pophale) SiO2 
 PCOD8083164
Probable space group: C 2/M
;
_chemical_formula_sum "Si O2"
_cell_formula_units_Z 40
_cell_length_a 19.322912
_cell_length_b 12.646840
_cell_length_c 27.279861
_cell_angle_alpha 90.000000
_cell_angle_beta 19.254604
_cell_angle_gamma 90.000000
_cell_volume 2198.382694
_symmetry_space_group_name_H-M "C 2/M"
_symmetry_group_IT_number 12
_symmetry_cell_setting 'monoclinic'
loop_
_space_group_symop_operation_xyz
x,y,z
-x,y,-z
-x,-y,-z
x,-y,z
1/2+x,1/2+y,z
1/2-x,1/2+y,-z
1/2-x,1/2-y,-z
1/2+x,1/2-y,z
loop_
_atom_site_type_symbol
_atom_site_label
_atom_site_fract_x
_atom_site_fract_y
_atom_site_fract_z
Si Si1 0.055559 0.125182 0.672534
Si Si2 0.690219 0.381370 0.410129
Si Si3 0.526171 0.286800 0.167939
Si Si4 0.321426 0.879595 0.658634
Si Si5 0.023884 0.744350 0.603800
O O1 0.938239 0.200025 0.710676
O O2 0.302868 0.152601 0.503186
O O3 0.958313 0.157302 0.789742
O O4 0.020647 0.000000 0.686789
O O5 0.500000 0.370887 0.500000
O O6 0.768245 0.500000 0.363844
O O7 0.627279 0.340704 0.505462
O O8 0.887501 0.317800 0.258463
O O9 0.411540 0.369205 0.207933
O O10 0.750000 0.250000 0.000000
O O11 0.500000 0.841369 0.500000
O O12 0.337373 0.809035 0.697192
O O13 0.364976 0.000000 0.643927
#
# Coordination Sequence:
#
# PCOD8083164 Si02
#       5
#     8   8   8   8   8
#     4  10  20  34  56  85 116 147 181 230 288 337
#     4  10  18  32  54  79 107 142 184 229 277 324
#     4  11  22  37  55  81 117 149 188 231 276 334
#     4  11  19  35  63  86 107 144 194 237 276 326
#     4  10  18  33  56  87 112 139 184 240 281 327
#
# _framework density 18.195193
#
# number of rings (size 3 to 8) (size 9 to 14) (size 15 to 20)
#    0.000    1.600    6.000    1.800    0.000    1.600 
#    0.000    2.000    0.000    2.400    0.000    0.000 
#    0.000    0.000    0.000    0.000    0.000    0.000 
#
# Total GULP energy -247936.899446 kJ/mol
# GULP energy per Si atom -12396.844972 kJ/mol
# Density = 1.815378 g / cm^3
# Si number density = 18.195193 Si / 1000 Ang^3
#
#
#
# Elastic Constant Matrix: (Units=GPa)
#
#
# Indices 1 2 3 4 5 6 
#
# 1 133.1231 48.7764 32.9111 0.0464 0.3035 -0.0298
# 2 48.7764 123.8213 25.2354 -0.0128 4.9300 -0.0128
# 3 32.9111 25.2354 79.6184 0.0181 -1.9721 0.0530
# 4 0.0464 -0.0128 0.0181 14.0522 0.0410 -3.8425
# 5 0.3035 4.9300 -1.9721 0.0410 15.7058 0.0288
# 6 -0.0298 -0.0128 0.0530 -3.8425 0.0288 28.8858
#
#
#
# Elastic Compliance Matrix: (Units=1/GPa)
#
#
# Indices 1 2 3 4 5 6 
#
# 1 0.009364 -0.003121 -0.002871 -0.000029 0.000438 0.000009
# 2 -0.003121 0.009824 -0.001904 0.000035 -0.003263 0.000012
# 3 -0.002871 -0.001904 0.014411 -0.000028 0.002463 -0.000036
# 4 -0.000029 0.000035 -0.000028 0.073850 -0.000225 0.009824
# 5 0.000438 -0.003263 0.002463 -0.000225 0.064996 -0.000100
# 6 0.000009 0.000012 -0.000036 0.009824 -0.000100 0.035926
#
#
# Mechanical properties :
#
#
# Convention : Reuss Voigt Hill
#
# Bulk Modulus (GPa) = 56.15866 61.15652 58.65759
# Shear Modulus (GPa) = 21.72971 27.03809 24.38390
#
# Velocity S-wave (km/s) = 3.45955 3.85905 3.66475
# Velocity P-wave (km/s) = 6.84759 7.31715 7.08626
#
# Compressibility (1/GPa) = 0.01780669
#
# Stress axis : x y z
#
# Youngs Moduli (GPa) = 106.79021 101.79483 69.39083
#
# Poissons Ratio (x) = 0.31772 0.19920
# Poissons Ratio (y) = 0.33331 0.13214
# Poissons Ratio (z) = 0.30656 0.19385
#
# Static dielectric constant tensor:
#      x y z
#    x 3.620050 0.000030 -0.124710 
#    y 0.000030 3.548270 0.000140 
#    z -0.124710 0.000140 2.830590 
# 
# 
# High freq. dielectric constant tensor:
#      x y z
#    x 1.717520 0.000000 -0.009990 
#    y 0.000000 1.724390 0.000020 
#    z -0.009990 0.000020 1.645090 
# 
# From -- ./inp_files/223555.got.cif
#   From: 2010.06.25/outbox.cif.g09.slc.cpg/sg12_112_cif.got.tgz:223555.got - 2010.06.28 00:19:55.
