data_PCOD8083141
_publ_section_title
;
Structure prediction by ZEFSAII (Michael W. Deem and Ramdas Pophale) SiO2 
 PCOD8083141
Probable space group: C 2/M
;
_chemical_formula_sum "Si O2"
_cell_formula_units_Z 64
_cell_length_a 18.255535
_cell_length_b 23.503361
_cell_length_c 25.870401
_cell_angle_alpha 90.000000
_cell_angle_beta 18.876804
_cell_angle_gamma 90.000000
_cell_volume 3591.270545
_symmetry_space_group_name_H-M "C 2/M"
_symmetry_group_IT_number 12
_symmetry_cell_setting 'monoclinic'
loop_
_space_group_symop_operation_xyz
x,y,z
-x,y,-z
-x,-y,-z
x,-y,z
1/2+x,1/2+y,z
1/2-x,1/2+y,-z
1/2-x,1/2-y,-z
1/2+x,1/2-y,z
loop_
_atom_site_type_symbol
_atom_site_label
_atom_site_fract_x
_atom_site_fract_y
_atom_site_fract_z
Si Si1 0.478659 0.679680 0.074893
Si Si2 0.442993 0.436015 0.598105
Si Si3 0.382588 0.753415 0.627104
Si Si4 0.919135 0.646334 0.187899
Si Si5 0.626499 0.438027 0.970589
Si Si6 0.692898 0.769600 0.594851
Si Si7 0.085930 0.609109 0.692409
Si Si8 0.723086 0.273069 0.075493
O O1 0.235055 0.699245 0.258554
O O2 0.500000 0.670993 0.000000
O O3 0.532037 0.617454 0.064819
O O4 0.658188 0.728054 0.966793
O O5 0.500000 0.430378 0.500000
O O6 0.374762 0.500000 0.659028
O O7 0.224489 0.395515 0.753883
O O8 0.665120 0.418023 0.482101
O O9 0.500000 0.784857 0.500000
O O10 0.214169 0.706007 0.715952
O O11 0.570097 0.720842 0.534894
O O12 0.966411 0.616984 0.211490
O O13 0.158013 0.664284 0.001279
O O14 0.579954 0.500000 0.028279
O O15 0.900383 0.430391 0.787494
O O16 0.500000 0.439606 0.000000
O O17 0.750000 0.750000 0.500000
O O18 0.568566 0.830207 0.675874
O O19 0.535405 0.723689 0.731187
O O20 0.750000 0.250000 0.000000
#
# Coordination Sequence:
#
# PCOD8083141 Si02
#       8
#     8   8   8   8   8   8   8   8
#     4  10  20  33  51  74 105 135 174 221 259 309
#     4   9  17  29  50  81 109 136 176 226 273 313
#     4  11  19  33  52  77 111 148 174 207 270 332
#     4  10  18  32  54  77 108 145 176 216 266 329
#     4  10  21  35  51  72 101 143 184 224 269 311
#     4  12  22  31  50  83 114 142 175 219 266 319
#     4  11  18  33  52  78 111 139 176 223 270 323
#     4  11  19  33  51  74 108 148 174 205 264 323
#
# _framework density 17.820990999999999
#
# number of rings (size 3 to 8) (size 9 to 14) (size 15 to 20)
#    0.000    1.500    5.000    2.250    1.750    0.500 
#    0.000    0.000    0.000    0.375    0.000    3.500 
#    0.000    0.000    0.000    0.000    0.000    0.000 
#
# Total GULP energy -396423.332450 kJ/mol
# GULP energy per Si atom -12388.229139 kJ/mol
# Density = 1.778043 g / cm^3
# Si number density = 17.820991 Si / 1000 Ang^3
#
#
#
# Elastic Constant Matrix: (Units=GPa)
#
#
# Indices 1 2 3 4 5 6 
#
# 1 62.8310 10.9582 30.9435 0.2543 -7.4670 -0.1087
# 2 10.9582 104.1495 33.7538 -0.3119 -4.8544 0.0603
# 3 30.9435 33.7538 90.4210 0.3379 -6.2910 -0.1073
# 4 0.2543 -0.3119 0.3379 28.3529 0.1477 -2.9137
# 5 -7.4670 -4.8544 -6.2910 0.1477 35.7041 0.1624
# 6 -0.1087 0.0603 -0.1073 -2.9137 0.1624 11.2747
#
#
#
# Elastic Compliance Matrix: (Units=1/GPa)
#
#
# Indices 1 2 3 4 5 6 
#
# 1 0.019444 0.000206 -0.006526 -0.000104 0.002945 0.000055
# 2 0.000206 0.010947 -0.004102 0.000156 0.000808 -0.000067
# 3 -0.006526 -0.004102 0.014873 -0.000162 0.000699 0.000049
# 4 -0.000104 0.000156 -0.000162 0.036238 -0.000222 0.009365
# 5 0.002945 0.000808 0.000699 -0.000222 0.028860 -0.000442
# 6 0.000055 -0.000067 0.000049 0.009365 -0.000442 0.091122
#
#
# Mechanical properties :
#
#
# Convention : Reuss Voigt Hill
#
# Bulk Modulus (GPa) = 40.94665 45.41249 43.17957
# Shear Modulus (GPa) = 21.69506 27.18272 24.43889
#
# Velocity S-wave (km/s) = 3.49289 3.90977 3.70720
# Velocity P-wave (km/s) = 6.26846 6.77640 6.52738
#
# Compressibility (1/GPa) = 0.02442202
#
# Stress axis : x y z
#
# Youngs Moduli (GPa) = 51.42961 91.34619 67.23642
#
# Poissons Ratio (x) = -0.01881 0.43876
# Poissons Ratio (y) = -0.01059 0.27577
# Poissons Ratio (z) = 0.33561 0.37466
#
# Static dielectric constant tensor:
#      x y z
#    x 2.601860 0.038860 -0.056860 
#    y 0.038860 4.036470 -0.021040 
#    z -0.056860 -0.021040 3.426530 
# 
# 
# High freq. dielectric constant tensor:
#      x y z
#    x 1.670590 -0.000030 -0.040210 
#    y -0.000030 1.677420 0.000150 
#    z -0.040210 0.000150 1.682830 
# 
# From -- ./inp_files/364882.got.cif
#   From: 2010.06.25/outbox.cif.g09.slc.cpg/sg12_183_cif.got.tgz:364882.got - 2010.06.28 00:19:55.
