data_PCOD8083867
_publ_section_title
;
Structure prediction by ZEFSAII (Michael W. Deem and Ramdas Pophale) SiO2 
 PCOD8083867
Probable space group: C 2/M
;
_chemical_formula_sum "Si O2"
_cell_formula_units_Z 56
_cell_length_a 27.618539
_cell_length_b 8.621397
_cell_length_c 17.446563
_cell_angle_alpha 90.000000
_cell_angle_beta 43.737261
_cell_angle_gamma 90.000000
_cell_volume 2872.021732
_symmetry_space_group_name_H-M "C 2/M"
_symmetry_group_IT_number 12
_symmetry_cell_setting 'monoclinic'
loop_
_space_group_symop_operation_xyz
x,y,z
-x,y,-z
-x,-y,-z
x,-y,z
1/2+x,1/2+y,z
1/2-x,1/2+y,-z
1/2-x,1/2-y,-z
1/2+x,1/2-y,z
loop_
_atom_site_type_symbol
_atom_site_label
_atom_site_fract_x
_atom_site_fract_y
_atom_site_fract_z
Si Si1 0.948003 0.180850 0.757312
Si Si2 0.915797 0.320356 0.950341
Si Si3 0.426464 0.683481 0.613095
Si Si4 0.575047 0.822739 0.804479
Si Si5 0.185022 0.181963 0.381552
Si Si6 0.904542 0.679257 0.390562
Si Si7 0.331557 0.678581 0.177655
O O1 0.910148 0.277351 0.867336
O O2 0.912479 0.230142 0.717452
O O3 0.030406 0.216915 0.656822
O O4 0.938520 0.000000 0.785500
O O5 0.897743 0.500000 0.981250
O O6 0.993259 0.281776 0.892114
O O7 0.860040 0.220345 0.061089
O O8 0.500000 0.756365 0.500000
O O9 0.431254 0.500000 0.600866
O O10 0.362993 0.745471 0.633330
O O11 0.611818 0.794174 0.680440
O O12 0.608581 0.709937 0.828223
O O13 0.585097 0.000000 0.820168
O O14 0.163503 0.269976 0.484051
O O15 0.265087 0.216316 0.272022
O O16 0.175032 0.000000 0.405686
O O17 0.923772 0.500000 0.382644
O O18 0.309625 0.500000 0.204777
#
# Coordination Sequence:
#
# PCOD8083867 Si02
#       7
#     8   8   8   8   8   8   8
#     4  10  18  33  59  88 116 145 186 234 280 328
#     4  10  21  39  61  85 114 147 189 233 279 333
#     4   9  17  33  58  88 114 144 187 230 275 332
#     4   9  20  38  60  83 111 148 188 230 279 333
#     4  11  22  38  59  81 114 155 190 229 283 337
#     4  10  20  35  55  85 119 148 185 232 280 334
#     4  12  25  39  56  82 114 148 191 236 281 336
#
# _framework density 19.498460000000001
#
# number of rings (size 3 to 8) (size 9 to 14) (size 15 to 20)
#    0.000    1.857    1.429    4.286    0.000    5.714 
#    0.000    4.286    0.000    0.000    0.000    0.000 
#    0.000    0.000    0.000    0.000    0.000    0.000 
#
# Total GULP energy -347297.247713 kJ/mol
# GULP energy per Si atom -12403.473133 kJ/mol
# Density = 1.945408 g / cm^3
# Si number density = 19.498460 Si / 1000 Ang^3
#
#
#
# Elastic Constant Matrix: (Units=GPa)
#
#
# Indices 1 2 3 4 5 6 
#
# 1 35.5129 20.7991 23.1329 0.0244 16.5816 -0.0177
# 2 20.7991 52.7682 14.0088 0.0302 9.9703 -0.0286
# 3 23.1329 14.0088 109.9895 0.0318 16.8693 -0.0218
# 4 0.0244 0.0302 0.0318 32.2000 -0.0147 3.2404
# 5 16.5816 9.9703 16.8693 -0.0147 22.6889 0.0103
# 6 -0.0177 -0.0286 -0.0218 3.2404 0.0103 21.9951
#
#
#
# Elastic Compliance Matrix: (Units=1/GPa)
#
#
# Indices 1 2 3 4 5 6 
#
# 1 0.053222 -0.014189 -0.004941 -0.000039 -0.028987 0.000039
# 2 -0.014189 0.024642 -0.000095 -0.000015 -0.000388 0.000023
# 3 -0.004941 -0.000095 0.010816 -0.000010 -0.004390 0.000010
# 4 -0.000039 -0.000015 -0.000010 0.031523 0.000065 -0.004644
# 5 -0.028987 -0.000388 -0.004390 0.000065 0.068694 -0.000070
# 6 0.000039 0.000023 0.000010 -0.004644 -0.000070 0.046149
#
#
# Mechanical properties :
#
#
# Convention : Reuss Voigt Hill
#
# Bulk Modulus (GPa) = 19.90784 34.90579 27.40682
# Shear Modulus (GPa) = 17.22716 24.73213 20.97964
#
# Velocity S-wave (km/s) = 2.97562 3.56534 3.28375
# Velocity P-wave (km/s) = 4.69445 5.90674 5.33514
#
# Compressibility (1/GPa) = 0.05023146
#
# Stress axis : x y z
#
# Youngs Moduli (GPa) = 18.78915 40.58075 92.45411
#
# Poissons Ratio (x) = 0.57581 0.45677
# Poissons Ratio (y) = 0.26661 0.00875
# Poissons Ratio (z) = 0.09283 0.00384
#
# Static dielectric constant tensor:
#      x y z
#    x 3.554750 -0.000010 0.219740 
#    y -0.000010 3.384480 0.000020 
#    z 0.219740 0.000020 3.525530 
# 
# 
# High freq. dielectric constant tensor:
#      x y z
#    x 1.748880 0.000000 0.020830 
#    y 0.000000 1.752300 0.000000 
#    z 0.020830 0.000000 1.760340 
# 
# From -- ./inp_files/288420.got.cif
#   From: 2010.06.25/outbox.cif.g09.slc.cpg/sg12_145_cif.got.tgz:288420.got - 2010.06.28 00:19:55.
