data_PCOD8083882
_publ_section_title
;
Structure prediction by ZEFSAII (Michael W. Deem and Ramdas Pophale) SiO2 
 PCOD8083882
Probable space group: C 2/M
;
_chemical_formula_sum "Si O2"
_cell_formula_units_Z 64
_cell_length_a 17.445474
_cell_length_b 30.356263
_cell_length_c 8.651193
_cell_angle_alpha 90.000000
_cell_angle_beta 43.120559
_cell_angle_gamma 90.000000
_cell_volume 3131.614544
_symmetry_space_group_name_H-M "C 2/M"
_symmetry_group_IT_number 12
_symmetry_cell_setting 'monoclinic'
loop_
_space_group_symop_operation_xyz
x,y,z
-x,y,-z
-x,-y,-z
x,-y,z
1/2+x,1/2+y,z
1/2-x,1/2+y,-z
1/2-x,1/2-y,-z
1/2+x,1/2-y,z
loop_
_atom_site_type_symbol
_atom_site_label
_atom_site_fract_x
_atom_site_fract_y
_atom_site_fract_z
Si Si1 0.329781 0.832346 0.904887
Si Si2 0.422629 0.676893 0.238558
Si Si3 0.302066 0.820003 0.586869
Si Si4 0.746188 0.950401 0.784983
Si Si5 0.600890 0.898753 0.751576
Si Si6 0.446381 0.075723 0.737534
Si Si7 0.619617 0.630286 0.392471
Si Si8 0.505188 0.230580 0.170559
O O1 0.291551 0.826252 0.785621
O O2 0.420233 0.871840 0.776777
O O3 0.386417 0.789190 0.899575
O O4 0.218695 0.842700 0.165633
O O5 0.315380 0.697510 0.307641
O O6 0.381783 0.642995 0.426464
O O7 0.501307 0.716396 0.187844
O O8 0.500000 0.650697 0.000000
O O9 0.332426 0.864771 0.452608
O O10 0.394733 0.783560 0.423807
O O11 0.685175 0.925324 0.735311
O O12 0.857578 0.922143 0.658269
O O13 0.780208 0.000000 0.689733
O O14 0.665970 0.951227 0.054644
O O15 0.540414 0.933927 0.728449
O O16 0.500000 0.875604 0.000000
O O17 0.500000 0.059040 0.500000
O O18 0.500000 0.642655 0.500000
O O19 0.500000 0.214658 0.000000
#
# Coordination Sequence:
#
# PCOD8083882 Si02
#       8
#     8   8   8   8   8   8   8   8
#     4  11  22  37  65  95 125 164 218 258 312 377
#     4  11  25  43  60  89 124 167 212 262 312 365
#     4  12  20  37  62  92 123 171 209 257 301 375
#     4  10  23  40  62  93 125 166 211 257 318 381
#     4  10  19  33  62  91 124 161 204 251 312 375
#     4  10  18  33  59  95 132 165 202 249 315 378
#     4  11  24  44  67  90 121 167 210 264 319 376
#     4  11  23  38  61  93 130 165 210 256 310 373
#
# _framework density 20.436741000000001
#
# number of rings (size 3 to 8) (size 9 to 14) (size 15 to 20)
#    0.000    1.250    3.750    2.625    1.750    4.750 
#    0.000    3.750    0.000    0.375    0.000    0.000 
#    0.000    0.000    0.000    0.000    0.000    0.000 
#
# Total GULP energy -396692.890758 kJ/mol
# GULP energy per Si atom -12396.652836 kJ/mol
# Density = 2.039023 g / cm^3
# Si number density = 20.436741 Si / 1000 Ang^3
#
#
#
# Elastic Constant Matrix: (Units=GPa)
#
#
# Indices 1 2 3 4 5 6 
#
# 1 99.5765 21.6035 46.3723 0.0000 3.1320 0.0000
# 2 21.6035 80.3794 37.2910 0.0000 3.3508 0.0000
# 3 46.3723 37.2910 149.0653 0.0000 14.2599 0.0000
# 4 0.0000 0.0000 0.0000 10.4477 0.0000 -1.2908
# 5 3.1320 3.3508 14.2599 0.0000 42.0327 0.0000
# 6 0.0000 0.0000 0.0000 -1.2908 0.0000 7.7049
#
#
#
# Elastic Compliance Matrix: (Units=1/GPa)
#
#
# Indices 1 2 3 4 5 6 
#
# 1 0.011947 -0.001681 -0.003332 0.000000 0.000374 0.000000
# 2 -0.001681 0.014311 -0.003059 0.000000 0.000022 0.000000
# 3 -0.003332 -0.003059 0.008747 0.000000 -0.002475 0.000000
# 4 0.000000 0.000000 0.000000 0.097738 0.000000 0.016374
# 5 0.000374 0.000022 -0.002475 0.000000 0.024601 0.000000
# 6 0.000000 0.000000 0.000000 0.016374 0.000000 0.132531
#
#
# Mechanical properties :
#
#
# Convention : Reuss Voigt Hill
#
# Bulk Modulus (GPa) = 53.01904 59.95054 56.48479
# Shear Modulus (GPa) = 16.00989 26.95402 21.48196
#
# Velocity S-wave (km/s) = 2.80194 3.63561 3.24565
# Velocity P-wave (km/s) = 6.03880 6.85725 6.46100
#
# Compressibility (1/GPa) = 0.01886115
#
# Stress axis : x y z
#
# Youngs Moduli (GPa) = 83.70252 69.87540 114.32320
#
# Poissons Ratio (x) = 0.11745 0.38091
# Poissons Ratio (y) = 0.14069 0.34976
# Poissons Ratio (z) = 0.27889 0.21378
#
# Static dielectric constant tensor:
#      x y z
#    x 3.802540 0.000000 0.090570 
#    y 0.000000 3.359580 0.000000 
#    z 0.090570 0.000000 3.927020 
# 
# 
# High freq. dielectric constant tensor:
#      x y z
#    x 1.802120 0.000000 0.006080 
#    y 0.000000 1.763180 0.000000 
#    z 0.006080 0.000000 1.812760 
# 
# From -- ./inp_files/80722.got.cif
#   From: 2010.06.25/outbox.cif.g09.slc.cpg/sg12_41_cif.got.tgz:80722.got - 2010.06.28 00:19:55.
