data_PCOD8083768
_publ_section_title
;
Structure prediction by ZEFSAII (Michael W. Deem and Ramdas Pophale) SiO2 
 PCOD8083768
Probable space group: C 2/M
;
_chemical_formula_sum "Si O2"
_cell_formula_units_Z 56
_cell_length_a 19.656811
_cell_length_b 8.523110
_cell_length_c 21.980739
_cell_angle_alpha 90.000000
_cell_angle_beta 132.468858
_cell_angle_gamma 90.000000
_cell_volume 2716.442480
_symmetry_space_group_name_H-M "C 2/M"
_symmetry_group_IT_number 12
_symmetry_cell_setting 'monoclinic'
loop_
_space_group_symop_operation_xyz
x,y,z
-x,y,-z
-x,-y,-z
x,-y,z
1/2+x,1/2+y,z
1/2-x,1/2+y,-z
1/2-x,1/2-y,-z
1/2+x,1/2-y,z
loop_
_atom_site_type_symbol
_atom_site_label
_atom_site_fract_x
_atom_site_fract_y
_atom_site_fract_z
Si Si1 0.720131 0.814925 0.870231
Si Si2 0.582715 0.184793 0.435339
Si Si3 0.071198 0.184968 0.864076
Si Si4 0.398874 0.316693 0.681028
Si Si5 0.421854 0.815815 0.001177
Si Si6 0.876346 0.687105 0.309903
Si Si7 0.291350 0.185121 0.381224
O O1 0.671558 0.733707 0.899133
O O2 0.827294 0.774215 0.930246
O O3 0.671240 0.749337 0.779978
O O4 0.708375 0.000000 0.870624
O O5 0.623321 0.227340 0.394450
O O6 0.479667 0.254237 0.377399
O O7 0.646414 0.258280 0.526895
O O8 0.579878 0.000000 0.440992
O O9 0.994103 0.239433 0.768966
O O10 0.068553 0.000000 0.874476
O O11 0.046545 0.271657 0.911863
O O12 0.401429 0.500000 0.668214
O O13 0.315651 0.272243 0.675739
O O14 0.404106 0.000000 0.985212
O O15 0.500000 0.761817 0.000000
O O16 0.875279 0.500000 0.308467
O O17 0.821636 0.755457 0.334770
O O18 0.306808 0.000000 0.390614
#
# Coordination Sequence:
#
# PCOD8083768 Si02
#       7
#     8   8   8   8   8   8   8
#     4  11  22  39  65  91 120 156 200 245 289 351
#     4  10  18  33  57  83 113 151 197 243 288 341
#     4  11  23  40  63  88 120 160 201 243 291 350
#     4  10  21  35  55  83 117 154 192 239 289 344
#     4  11  26  45  65  91 123 152 186 238 298 357
#     4   9  18  32  55  86 115 148 193 243 287 336
#     4   9  18  32  53  82 116 153 195 243 290 338
#
# _framework density 20.615196999999998
#
# number of rings (size 3 to 8) (size 9 to 14) (size 15 to 20)
#    0.000    1.857    1.429    2.571    2.000    3.429 
#    0.000    0.000    0.000    4.286    0.000    0.000 
#    0.000    0.000    0.000    0.000    0.000    0.000 
#
# Total GULP energy -347248.318452 kJ/mol
# GULP energy per Si atom -12401.725659 kJ/mol
# Density = 2.056828 g / cm^3
# Si number density = 20.615197 Si / 1000 Ang^3
#
#
#
# Elastic Constant Matrix: (Units=GPa)
#
#
# Indices 1 2 3 4 5 6 
#
# 1 147.8538 16.0221 41.8730 0.0000 -8.5216 0.0000
# 2 16.0221 21.9005 10.2715 0.0000 -0.5537 0.0000
# 3 41.8730 10.2715 98.0635 0.0000 -2.7141 0.0000
# 4 0.0000 0.0000 0.0000 20.8196 0.0000 -3.3710
# 5 -8.5216 -0.5537 -2.7141 0.0000 38.8790 0.0000
# 6 0.0000 0.0000 0.0000 -3.3710 0.0000 23.9293
#
#
#
# Elastic Compliance Matrix: (Units=1/GPa)
#
#
# Indices 1 2 3 4 5 6 
#
# 1 0.008188 -0.004555 -0.002977 0.000000 0.001522 0.000000
# 2 -0.004555 0.050559 -0.003365 0.000000 -0.000513 0.000000
# 3 -0.002977 -0.003365 0.011825 0.000000 0.000125 0.000000
# 4 0.000000 0.000000 0.000000 0.049153 0.000000 0.006924
# 5 0.001522 -0.000513 0.000125 0.000000 0.026056 0.000000
# 6 0.000000 0.000000 0.000000 0.006924 0.000000 0.042765
#
#
# Mechanical properties :
#
#
# Convention : Reuss Voigt Hill
#
# Bulk Modulus (GPa) = 20.50144 44.90567 32.70356
# Shear Modulus (GPa) = 22.06546 30.03567 26.05057
#
# Velocity S-wave (km/s) = 3.27517 3.82116 3.55865
# Velocity P-wave (km/s) = 4.92633 6.42639 5.72570
#
# Compressibility (1/GPa) = 0.04877706
#
# Stress axis : x y z
#
# Youngs Moduli (GPa) = 122.13155 19.77890 84.57008
#
# Poissons Ratio (x) = 0.09010 0.25176
# Poissons Ratio (y) = 0.55637 0.28455
# Poissons Ratio (z) = 0.36358 0.06655
#
# Static dielectric constant tensor:
#      x y z
#    x 3.888140 0.000000 -0.035120 
#    y 0.000000 3.334030 0.000000 
#    z -0.035120 0.000000 3.946950 
# 
# 
# High freq. dielectric constant tensor:
#      x y z
#    x 1.820020 0.000000 -0.000360 
#    y 0.000000 1.770810 0.000000 
#    z -0.000360 0.000000 1.818560 
# 
# From -- ./inp_files/342552.got.cif
#   From: 2010.06.25/outbox.cif.g09.slc.cpg/sg12_172_cif.got.tgz:342552.got - 2010.06.28 00:19:55.
