data_PCOD8083332
_publ_section_title
;
Structure prediction by ZEFSAII (Michael W. Deem and Ramdas Pophale) SiO2 
 PCOD8083332
Probable space group: C 2/M
;
_chemical_formula_sum "Si O2"
_cell_formula_units_Z 48
_cell_length_a 23.163469
_cell_length_b 8.986419
_cell_length_c 12.340730
_cell_angle_alpha 90.000000
_cell_angle_beta 69.371442
_cell_angle_gamma 90.000000
_cell_volume 2404.103504
_symmetry_space_group_name_H-M "C 2/M"
_symmetry_group_IT_number 12
_symmetry_cell_setting 'monoclinic'
loop_
_space_group_symop_operation_xyz
x,y,z
-x,y,-z
-x,-y,-z
x,-y,z
1/2+x,1/2+y,z
1/2-x,1/2+y,-z
1/2-x,1/2-y,-z
1/2+x,1/2-y,z
loop_
_atom_site_type_symbol
_atom_site_label
_atom_site_fract_x
_atom_site_fract_y
_atom_site_fract_z
Si Si1 0.510520 0.825405 0.611067
Si Si2 0.331214 0.674146 0.253073
Si Si3 0.101256 0.322699 0.175631
Si Si4 0.650431 0.825377 0.543689
Si Si5 0.928830 0.323850 0.040840
Si Si6 0.302106 0.174301 0.717593
O O1 0.500000 0.752535 0.500000
O O2 0.460763 0.758944 0.727596
O O3 0.578410 0.790599 0.608328
O O4 0.498648 0.000000 0.609269
O O5 0.343633 0.500000 0.253030
O O6 0.315692 0.736810 0.382799
O O7 0.390889 0.751730 0.163407
O O8 0.270418 0.709271 0.220858
O O9 0.100489 0.500000 0.174706
O O10 0.160438 0.260315 0.203701
O O11 0.101527 0.266410 0.051560
O O12 0.672143 0.761069 0.413154
O O13 0.665355 0.000000 0.544358
O O14 0.924261 0.500000 0.057575
O O15 0.000000 0.272814 0.000000
O O16 0.315336 0.000000 0.704515
#
# Coordination Sequence:
#
# PCOD8083332 Si02
#       6
#     8   8   8   8   8   8
#     4   9  14  24  49  84 108 124 160 217 271 308
#     4  11  23  36  51  75 110 148 182 212 259 319
#     4   9  16  29  51  80 110 134 167 221 271 309
#     4  10  18  32  56  82 108 138 180 224 263 307
#     4  10  21  38  59  82 104 131 176 227 269 312
#     4   9  18  32  51  79 110 141 176 218 265 316
#
# _framework density 19.965862000000001
#
# number of rings (size 3 to 8) (size 9 to 14) (size 15 to 20)
#    0.000    2.333    1.667    2.000    0.000    3.667 
#    0.000    0.833    0.000    2.500    0.000    0.000 
#    0.000    0.000    0.000    0.000    0.000    0.000 
#
# Total GULP energy -297522.313744 kJ/mol
# GULP energy per Si atom -12396.763073 kJ/mol
# Density = 1.992042 g / cm^3
# Si number density = 19.965862 Si / 1000 Ang^3
#
#
#
# Elastic Constant Matrix: (Units=GPa)
#
#
# Indices 1 2 3 4 5 6 
#
# 1 115.6096 29.9902 44.1907 0.0000 11.5039 0.0000
# 2 29.9902 28.5270 21.0405 0.0000 -0.1071 0.0000
# 3 44.1907 21.0405 98.1831 0.0000 10.6244 0.0000
# 4 0.0000 0.0000 0.0000 15.3905 0.0000 0.9884
# 5 11.5039 -0.1071 10.6244 0.0000 38.1804 0.0000
# 6 0.0000 0.0000 0.0000 0.9884 0.0000 15.0604
#
#
#
# Elastic Compliance Matrix: (Units=1/GPa)
#
#
# Indices 1 2 3 4 5 6 
#
# 1 0.013140 -0.011537 -0.003103 0.000000 -0.003128 0.000000
# 2 -0.011537 0.052032 -0.006547 0.000000 0.005444 0.000000
# 3 -0.003103 -0.006547 0.013286 0.000000 -0.002780 0.000000
# 4 0.000000 0.000000 0.000000 0.065250 0.000000 -0.004282
# 5 -0.003128 0.005444 -0.002780 0.000000 0.027923 0.000000
# 6 0.000000 0.000000 0.000000 -0.004282 0.000000 0.066680
#
#
# Mechanical properties :
#
#
# Convention : Reuss Voigt Hill
#
# Bulk Modulus (GPa) = 27.71330 48.08471 37.89900
# Shear Modulus (GPa) = 17.08154 23.53282 20.30718
#
# Velocity S-wave (km/s) = 2.92813 3.43688 3.19265
# Velocity P-wave (km/s) = 5.03412 6.31548 5.71085
#
# Compressibility (1/GPa) = 0.03608376
#
# Stress axis : x y z
#
# Youngs Moduli (GPa) = 76.10336 19.21881 75.26901
#
# Poissons Ratio (x) = 0.22172 0.23358
# Poissons Ratio (y) = 0.87799 0.49279
# Poissons Ratio (z) = 0.23617 0.12583
#
# Static dielectric constant tensor:
#      x y z
#    x 3.886940 0.000000 0.135560 
#    y 0.000000 2.972010 0.000000 
#    z 0.135560 0.000000 3.728250 
# 
# 
# High freq. dielectric constant tensor:
#      x y z
#    x 1.796620 0.000000 0.003800 
#    y 0.000000 1.709470 0.000000 
#    z 0.003800 0.000000 1.784420 
# 
# From -- ./inp_files/164720.got.cif
#   From: 2010.06.25/outbox.cif.g09.slc.cpg/sg12_83_cif.got.tgz:164720.got - 2010.06.28 00:19:55.
