data_PCOD8083331
_publ_section_title
;
Structure prediction by ZEFSAII (Michael W. Deem and Ramdas Pophale) SiO2 
 PCOD8083331
Probable space group: C 2/M
;
_chemical_formula_sum "Si O2"
_cell_formula_units_Z 56
_cell_length_a 13.077876
_cell_length_b 21.282419
_cell_length_c 11.035777
_cell_angle_alpha 90.000000
_cell_angle_beta 97.009963
_cell_angle_gamma 90.000000
_cell_volume 3048.614783
_symmetry_space_group_name_H-M "C 2/M"
_symmetry_group_IT_number 12
_symmetry_cell_setting 'monoclinic'
loop_
_space_group_symop_operation_xyz
x,y,z
-x,y,-z
-x,-y,-z
x,-y,z
1/2+x,1/2+y,z
1/2-x,1/2+y,-z
1/2-x,1/2-y,-z
1/2+x,1/2-y,z
loop_
_atom_site_type_symbol
_atom_site_label
_atom_site_fract_x
_atom_site_fract_y
_atom_site_fract_z
Si Si1 0.607493 0.768750 0.077672
Si Si2 0.594929 0.879666 0.245440
Si Si3 0.604993 0.426391 0.568285
Si Si4 0.200436 0.927497 0.829754
Si Si5 0.235011 0.153596 0.054205
Si Si6 0.372955 0.926874 0.239667
Si Si7 0.678024 0.073248 0.496677
O O1 0.598933 0.807153 0.202447
O O2 0.658522 0.701256 0.111667
O O3 0.500000 0.755653 0.000000
O O4 0.672630 0.807943 0.991075
O O5 0.678394 0.921277 0.185011
O O6 0.482191 0.906722 0.199875
O O7 0.617285 0.883753 0.391828
O O8 0.500000 0.395046 0.500000
O O9 0.587514 0.500000 0.578744
O O10 0.632516 0.401120 0.707081
O O11 0.699705 0.412062 0.491237
O O12 0.176127 0.000000 0.854249
O O13 0.173190 0.885702 0.942716
O O14 0.279184 0.106485 0.159471
O O15 0.366973 0.908868 0.379959
O O16 0.355956 0.000000 0.217291
O O17 0.657670 0.000000 0.461627
#
# Coordination Sequence:
#
# PCOD8083331 Si02
#       7
#     8   8   8   8   8   8   8
#     4  10  20  39  56  72 100 144 196 230 261 309
#     4  10  18  32  56  82 106 145 179 222 272 327
#     4   8  14  28  49  70 101 144 181 210 249 314
#     4   9  17  30  51  81 110 134 174 227 277 328
#     4  10  21  35  54  79 105 144 182 226 273 319
#     4  11  20  32  54  86 121 143 168 218 284 342
#     4   9  18  31  50  82 118 143 168 215 282 339
#
# _framework density 18.368998999999999
#
# number of rings (size 3 to 8) (size 9 to 14) (size 15 to 20)
#    0.000    2.429    1.429    3.000    0.000    1.143 
#    2.571    2.857    0.000    0.857    0.000    0.000 
#    0.000    0.000    0.000    0.000    0.000    0.000 
#
# Total GULP energy -347154.082760 kJ/mol
# GULP energy per Si atom -12398.360099 kJ/mol
# Density = 1.832719 g / cm^3
# Si number density = 18.368999 Si / 1000 Ang^3
#
#
#
# Elastic Constant Matrix: (Units=GPa)
#
#
# Indices 1 2 3 4 5 6 
#
# 1 80.3789 43.6793 44.1045 0.0000 20.9554 0.0000
# 2 43.6793 94.9366 65.3101 0.0000 4.5449 0.0000
# 3 44.1045 65.3101 107.2960 0.0000 12.0592 0.0000
# 4 0.0000 0.0000 0.0000 13.8659 0.0000 -10.5780
# 5 20.9554 4.5449 12.0592 0.0000 26.1987 0.0000
# 6 0.0000 0.0000 0.0000 -10.5780 0.0000 19.4887
#
#
#
# Elastic Compliance Matrix: (Units=1/GPa)
#
#
# Indices 1 2 3 4 5 6 
#
# 1 0.021921 -0.007444 -0.002799 0.000000 -0.014954 0.000000
# 2 -0.007444 0.020754 -0.010374 0.000000 0.007129 0.000000
# 3 -0.002799 -0.010374 0.017222 0.000000 -0.003889 0.000000
# 4 0.000000 0.000000 0.000000 0.123085 0.000000 0.066808
# 5 -0.014954 0.007129 -0.003889 0.000000 0.050684 0.000000
# 6 0.000000 0.000000 0.000000 0.066808 0.000000 0.087573
#
#
# Mechanical properties :
#
#
# Convention : Reuss Voigt Hill
#
# Bulk Modulus (GPa) = 53.58255 65.42215 59.50235
# Shear Modulus (GPa) = 13.56142 20.54518 17.05330
#
# Velocity S-wave (km/s) = 2.72007 3.34798 3.05023
# Velocity P-wave (km/s) = 6.25288 7.11605 6.69838
#
# Compressibility (1/GPa) = 0.01866279
#
# Stress axis : x y z
#
# Youngs Moduli (GPa) = 45.61901 48.18457 58.06570
#
# Poissons Ratio (x) = 0.35870 0.16250
# Poissons Ratio (y) = 0.33960 0.60236
# Poissons Ratio (z) = 0.12767 0.49985
#
# Static dielectric constant tensor:
#      x y z
#    x 3.452300 0.000000 0.111400 
#    y 0.000000 3.249090 0.000000 
#    z 0.111400 0.000000 3.439450 
# 
# 
# High freq. dielectric constant tensor:
#      x y z
#    x 1.708780 0.000000 0.009110 
#    y 0.000000 1.685160 0.000000 
#    z 0.009110 0.000000 1.709390 
# 
# From -- ./inp_files/133300.got.cif
#   From: 2010.06.25/outbox.cif.g09.slc.cpg/sg12_67_cif.got.tgz:133300.got - 2010.06.28 00:19:55.
