data_PCOD8083340
_publ_section_title
;
Structure prediction by ZEFSAII (Michael W. Deem and Ramdas Pophale) SiO2 
 PCOD8083340
Probable space group: C 2/M
;
_chemical_formula_sum "Si O2"
_cell_formula_units_Z 64
_cell_length_a 18.077237
_cell_length_b 12.541395
_cell_length_c 28.977595
_cell_angle_alpha 90.000000
_cell_angle_beta 146.957862
_cell_angle_gamma 90.000000
_cell_volume 3582.122546
_symmetry_space_group_name_H-M "C 2/M"
_symmetry_group_IT_number 12
_symmetry_cell_setting 'monoclinic'
loop_
_space_group_symop_operation_xyz
x,y,z
-x,y,-z
-x,-y,-z
x,-y,z
1/2+x,1/2+y,z
1/2-x,1/2+y,-z
1/2-x,1/2-y,-z
1/2+x,1/2-y,z
loop_
_atom_site_type_symbol
_atom_site_label
_atom_site_fract_x
_atom_site_fract_y
_atom_site_fract_z
Si Si1 0.427806 0.372651 0.508177
Si Si2 0.231811 0.875828 0.933321
Si Si3 0.381037 0.739659 0.211986
Si Si4 0.859507 0.380652 0.668670
Si Si5 0.868918 0.382760 0.777231
Si Si6 0.443844 0.722720 0.082601
Si Si7 0.905285 0.876262 0.318009
Si Si8 0.118898 0.122331 0.098640
O O1 0.500000 0.325688 0.500000
O O2 0.437323 0.500000 0.511740
O O3 0.269506 0.336024 0.427431
O O4 0.499808 0.327422 0.591926
O O5 0.146548 0.844796 0.843273
O O6 0.149173 0.860014 0.937882
O O7 0.274536 0.000000 0.951854
O O8 0.361441 0.797186 0.003476
O O9 0.505106 0.813563 0.263192
O O10 0.433773 0.679701 0.284719
O O11 0.247840 0.808799 0.151740
O O12 0.895674 0.500000 0.671124
O O13 0.806597 0.380720 0.693661
O O14 0.929066 0.500000 0.819481
O O15 0.751135 0.355671 0.751676
O O16 0.990199 0.299493 0.844857
O O17 0.560383 0.657866 0.117377
O O18 0.937832 0.000000 0.329324
O O19 0.165861 0.000000 0.126118
O O20 0.000000 0.138302 0.000000
#
# Coordination Sequence:
#
# PCOD8083340 Si02
#       8
#     8   8   8   8   8   8   8   8
#     4   9  16  31  55  82 108 136 177 225 273 323
#     4  11  24  38  55  81 110 144 182 227 275 323
#     4  12  22  37  53  79 118 144 181 222 271 334
#     4  10  20  34  55  81 110 141 178 227 276 318
#     4  10  18  32  56  83 107 137 181 228 268 313
#     4  11  21  40  57  78 107 145 186 226 265 328
#     4  10  20  33  55  82 110 142 176 222 274 325
#     4  11  23  39  57  78 106 145 187 229 272 319
#
# _framework density 17.866501
#
# number of rings (size 3 to 8) (size 9 to 14) (size 15 to 20)
#    0.000    1.500    5.000    1.500    0.000    0.500 
#    0.000    0.625    0.000    0.000    0.000    0.000 
#    0.000    4.000    0.000    0.000    0.000    0.000 
#
# Total GULP energy -396754.884853 kJ/mol
# GULP energy per Si atom -12398.590152 kJ/mol
# Density = 1.782584 g / cm^3
# Si number density = 17.866501 Si / 1000 Ang^3
#
#
#
# Elastic Constant Matrix: (Units=GPa)
#
#
# Indices 1 2 3 4 5 6 
#
# 1 74.1591 29.4935 21.9262 0.0000 -5.7949 0.0000
# 2 29.4935 60.4822 31.8345 0.0000 -3.1215 0.0000
# 3 21.9262 31.8345 90.6237 0.0001 -13.7881 0.0000
# 4 0.0000 0.0000 0.0001 23.5966 0.0000 -1.6114
# 5 -5.7949 -3.1215 -13.7881 0.0000 29.3000 0.0000
# 6 0.0000 0.0000 0.0000 -1.6114 0.0000 14.6019
#
#
#
# Elastic Compliance Matrix: (Units=1/GPa)
#
#
# Indices 1 2 3 4 5 6 
#
# 1 0.016995 -0.007583 -0.001142 0.000000 0.002016 0.000000
# 2 -0.007583 0.023712 -0.006828 0.000000 -0.002186 0.000000
# 3 -0.001142 -0.006828 0.014610 0.000000 0.005922 0.000000
# 4 0.000000 0.000000 0.000000 0.042701 0.000000 0.004712
# 5 0.002016 -0.002186 0.005922 0.000000 0.037082 0.000000
# 6 0.000000 0.000000 0.000000 0.004712 0.000000 0.069004
#
#
# Mechanical properties :
#
#
# Convention : Reuss Voigt Hill
#
# Bulk Modulus (GPa) = 41.29845 43.53036 42.41441
# Shear Modulus (GPa) = 20.55237 22.96707 21.75972
#
# Velocity S-wave (km/s) = 3.39533 3.58925 3.49364
# Velocity P-wave (km/s) = 6.20776 6.44935 6.32971
#
# Compressibility (1/GPa) = 0.02421398
#
# Stress axis : x y z
#
# Youngs Moduli (GPa) = 58.83995 42.17216 68.44463
#
# Poissons Ratio (x) = 0.31978 0.07813
# Poissons Ratio (y) = 0.44616 0.46732
# Poissons Ratio (z) = 0.06717 0.28794
#
# Static dielectric constant tensor:
#      x y z
#    x 3.212610 0.000000 -0.085510 
#    y 0.000000 3.086250 0.000000 
#    z -0.085510 0.000000 3.373960 
# 
# 
# High freq. dielectric constant tensor:
#      x y z
#    x 1.690680 0.000000 -0.003380 
#    y 0.000000 1.669290 0.000000 
#    z -0.003380 0.000000 1.697640 
# 
# From -- ./inp_files/296508.got.cif
#   From: 2010.06.25/outbox.cif.g09.slc.cpg/sg12_149_cif.got.tgz:296508.got - 2010.06.28 00:19:55.
