data_PCOD8083148
_publ_section_title
;
Structure prediction by ZEFSAII (Michael W. Deem and Ramdas Pophale) SiO2 
 PCOD8083148
Probable space group: C 2/M
;
_chemical_formula_sum "Si O2"
_cell_formula_units_Z 36
_cell_length_a 24.826647
_cell_length_b 10.468407
_cell_length_c 7.469604
_cell_angle_alpha 90.000000
_cell_angle_beta 102.435398
_cell_angle_gamma 90.000000
_cell_volume 1895.771668
_symmetry_space_group_name_H-M "C 2/M"
_symmetry_group_IT_number 12
_symmetry_cell_setting 'monoclinic'
loop_
_space_group_symop_operation_xyz
x,y,z
-x,y,-z
-x,-y,-z
x,-y,z
1/2+x,1/2+y,z
1/2-x,1/2+y,-z
1/2-x,1/2-y,-z
1/2+x,1/2-y,z
loop_
_atom_site_type_symbol
_atom_site_label
_atom_site_fract_x
_atom_site_fract_y
_atom_site_fract_z
Si Si1 0.889296 0.354014 0.340712
Si Si2 0.702725 0.147741 0.001086
Si Si3 0.952575 0.138924 0.827528
Si Si4 0.132019 0.643485 0.277964
Si Si5 0.000000 0.788459 0.500000
O O1 0.901720 0.500000 0.314846
O O2 0.856545 0.330136 0.504359
O O3 0.949557 0.292400 0.382358
O O4 0.849700 0.305123 0.153612
O O5 0.687636 0.155394 0.201075
O O6 0.719662 0.000000 0.964265
O O7 0.750000 0.250000 0.000000
O O8 0.910374 0.253044 0.825864
O O9 0.976588 0.127704 0.644384
O O10 0.925246 0.000000 0.848366
O O11 0.000000 0.169053 0.000000
O O12 0.107142 0.500000 0.236411
#
# Coordination Sequence:
#
# PCOD8083148 Si02
#       5
#     8   8   8   8   4
#     4   9  18  33  54  79 106 135 171 214 256 302
#     4  10  21  37  55  77 104 135 173 216 259 305
#     4  10  20  32  48  74 108 140 169 207 255 306
#     4   9  19  35  53  74 100 132 173 216 255 301
#     4  10  18  32  54  78 105 138 173 208 255 306
#
# _framework density 18.989629000000001
#
# number of rings (size 3 to 8) (size 9 to 14) (size 15 to 20)
#    0.000    2.444    0.000    2.000    0.000    3.111 
#    0.000    5.556    0.000    0.000    0.000    0.000 
#    0.000    0.000    0.000    0.000    0.000    0.000 
#
# Total GULP energy -223047.203801 kJ/mol
# GULP energy per Si atom -12391.511322 kJ/mol
# Density = 1.894641 g / cm^3
# Si number density = 18.989629 Si / 1000 Ang^3
#
#
#
# Elastic Constant Matrix: (Units=GPa)
#
#
# Indices 1 2 3 4 5 6 
#
# 1 80.3864 44.7680 19.2001 0.0000 -0.5052 0.0000
# 2 44.7680 94.4894 15.9114 0.0000 5.6955 0.0000
# 3 19.2001 15.9114 56.6752 0.0000 1.6250 0.0000
# 4 0.0000 0.0000 0.0000 41.0049 0.0000 29.4343
# 5 -0.5052 5.6955 1.6250 0.0000 31.3994 0.0000
# 6 0.0000 0.0000 0.0000 29.4343 0.0000 65.0591
#
#
#
# Elastic Compliance Matrix: (Units=1/GPa)
#
#
# Indices 1 2 3 4 5 6 
#
# 1 0.017763 -0.007881 -0.003860 0.000000 0.001915 0.000000
# 2 -0.007881 0.014714 -0.001383 0.000000 -0.002724 0.000000
# 3 -0.003860 -0.001383 0.019364 0.000000 -0.000813 0.000000
# 4 0.000000 0.000000 0.000000 0.036117 0.000000 -0.016340
# 5 0.001915 -0.002724 -0.000813 0.000000 0.032415 0.000000
# 6 0.000000 0.000000 0.000000 -0.016340 0.000000 0.022763
#
#
# Mechanical properties :
#
#
# Convention : Reuss Voigt Hill
#
# Bulk Modulus (GPa) = 39.07366 43.47889 41.27627
# Shear Modulus (GPa) = 28.10330 37.60413 32.85372
#
# Velocity S-wave (km/s) = 3.85116 4.45482 4.16394
# Velocity P-wave (km/s) = 6.35580 7.02897 6.70084
#
# Compressibility (1/GPa) = 0.02559269
#
# Stress axis : x y z
#
# Youngs Moduli (GPa) = 56.29643 67.96069 51.64324
#
# Poissons Ratio (x) = 0.53563 0.19934
# Poissons Ratio (y) = 0.44370 0.07142
# Poissons Ratio (z) = 0.21730 0.09398
#
# Static dielectric constant tensor:
#      x y z
#    x 3.395850 0.000000 0.228260 
#    y 0.000000 3.479600 0.000000 
#    z 0.228260 0.000000 4.980800 
# 
# 
# High freq. dielectric constant tensor:
#      x y z
#    x 1.710940 0.000000 -0.018770 
#    y 0.000000 1.741780 0.000000 
#    z -0.018770 0.000000 1.749260 
# 
# From -- ./inp_files/92420.got.cif
#   From: 2010.06.25/outbox.cif.g09.slc.cpg/sg12_47_cif.got.tgz:92420.got - 2010.06.28 00:19:55.
