data_PCOD8083431
_publ_section_title
;
Structure prediction by ZEFSAII (Michael W. Deem and Ramdas Pophale) SiO2 
 PCOD8083431
Probable space group: C 2/M
;
_chemical_formula_sum "Si O2"
_cell_formula_units_Z 40
_cell_length_a 26.630044
_cell_length_b 14.794702
_cell_length_c 15.121808
_cell_angle_alpha 90.000000
_cell_angle_beta 19.357203
_cell_angle_gamma 90.000000
_cell_volume 1974.732920
_symmetry_space_group_name_H-M "C 2/M"
_symmetry_group_IT_number 12
_symmetry_cell_setting 'monoclinic'
loop_
_space_group_symop_operation_xyz
x,y,z
-x,y,-z
-x,-y,-z
x,-y,z
1/2+x,1/2+y,z
1/2-x,1/2+y,-z
1/2-x,1/2-y,-z
1/2+x,1/2-y,z
loop_
_atom_site_type_symbol
_atom_site_label
_atom_site_fract_x
_atom_site_fract_y
_atom_site_fract_z
Si Si1 0.796474 0.400495 0.047302
Si Si2 0.327118 0.105468 0.798929
Si Si3 0.809549 0.777901 0.122392
Si Si4 0.416982 0.787676 0.230985
Si Si5 0.131179 0.402861 0.539522
O O1 0.729193 0.500000 0.186230
O O2 0.746006 0.322135 0.199866
O O3 0.754261 0.375439 0.016492
O O4 0.977159 0.408334 0.740835
O O5 0.500000 0.142098 0.500000
O O6 0.211788 0.155215 0.924310
O O7 0.323941 0.000000 0.780502
O O8 0.723688 0.817513 0.349773
O O9 0.984323 0.772214 0.863394
O O10 0.250000 0.750000 0.500000
O O11 0.402006 0.886286 0.301214
O O12 0.500000 0.797234 0.000000
O O13 0.216109 0.500000 0.389034
#
# Coordination Sequence:
#
# PCOD8083431 Si02
#       5
#     8   8   8   8   8
#     4   9  19  34  55  87 124 162 203 248 304 375
#     4  10  18  32  57  91 127 164 207 254 308 378
#     4  11  20  34  62  89 122 161 214 256 310 373
#     4  11  23  42  62  88 124 165 213 269 324 371
#     4  10  20  37  63  93 121 158 207 258 310 378
#
# _framework density 20.255904000000001
#
# number of rings (size 3 to 8) (size 9 to 14) (size 15 to 20)
#    0.000    1.800    4.000    1.200    0.000    0.400 
#    0.000    3.000    0.000   10.200    0.000    0.000 
#    0.000    0.000    0.000    0.000    0.000    0.000 
#
# Total GULP energy -247768.690087 kJ/mol
# GULP energy per Si atom -12388.434504 kJ/mol
# Density = 2.020980 g / cm^3
# Si number density = 20.255904 Si / 1000 Ang^3
#
#
#
# Elastic Constant Matrix: (Units=GPa)
#
#
# Indices 1 2 3 4 5 6 
#
# 1 141.4783 63.7714 47.7588 0.0001 2.3307 -0.0002
# 2 63.7714 136.7607 52.9142 -0.0002 14.4427 0.0002
# 3 47.7588 52.9142 67.0820 -0.0001 12.7113 0.0000
# 4 0.0001 -0.0002 -0.0001 30.8324 -0.0001 7.8249
# 5 2.3307 14.4427 12.7113 -0.0001 31.0225 0.0002
# 6 -0.0002 0.0002 0.0000 7.8249 0.0002 16.7370
#
#
#
# Elastic Compliance Matrix: (Units=1/GPa)
#
#
# Indices 1 2 3 4 5 6 
#
# 1 0.010194 -0.002932 -0.005484 0.000000 0.002846 0.000000
# 2 -0.002932 0.011443 -0.006474 0.000000 -0.002455 0.000000
# 3 -0.005484 -0.006474 0.025228 0.000000 -0.006911 0.000000
# 4 0.000000 0.000000 0.000000 0.036800 0.000000 -0.017205
# 5 0.002846 -0.002455 -0.006911 0.000000 0.035995 0.000000
# 6 0.000000 0.000000 0.000000 -0.017205 0.000000 0.067791
#
#
# Mechanical properties :
#
#
# Convention : Reuss Voigt Hill
#
# Bulk Modulus (GPa) = 58.53134 74.91221 66.72177
# Shear Modulus (GPa) = 22.42884 27.77683 25.10284
#
# Velocity S-wave (km/s) = 3.33118 3.70712 3.52417
# Velocity P-wave (km/s) = 6.61471 7.44223 7.04064
#
# Compressibility (1/GPa) = 0.01708487
#
# Stress axis : x y z
#
# Youngs Moduli (GPa) = 98.09326 87.38698 39.63907
#
# Poissons Ratio (x) = 0.25625 0.21739
# Poissons Ratio (y) = 0.28764 0.25661
# Poissons Ratio (z) = 0.53796 0.56572
#
# Static dielectric constant tensor:
#      x y z
#    x 4.030930 0.000000 0.078330 
#    y 0.000000 3.888650 0.000000 
#    z 0.078330 0.000000 3.380540 
# 
# 
# High freq. dielectric constant tensor:
#      x y z
#    x 1.809740 0.000000 0.006020 
#    y 0.000000 1.789520 0.000000 
#    z 0.006020 0.000000 1.750420 
# 
# From -- ./inp_files/129309.got.cif
#   From: 2010.06.25/outbox.cif.g09.slc.cpg/sg12_65_cif.got.tgz:129309.got - 2010.06.28 00:19:55.
