data_PCOD8083277
_publ_section_title
;
Structure prediction by ZEFSAII (Michael W. Deem and Ramdas Pophale) SiO2 
 PCOD8083277
Probable space group: C 2/M
;
_chemical_formula_sum "Si O2"
_cell_formula_units_Z 32
_cell_length_a 9.758008
_cell_length_b 15.272604
_cell_length_c 16.463992
_cell_angle_alpha 90.000000
_cell_angle_beta 37.852682
_cell_angle_gamma 90.000000
_cell_volume 1505.630286
_symmetry_space_group_name_H-M "C 2/M"
_symmetry_group_IT_number 12
_symmetry_cell_setting 'monoclinic'
loop_
_space_group_symop_operation_xyz
x,y,z
-x,y,-z
-x,-y,-z
x,-y,z
1/2+x,1/2+y,z
1/2-x,1/2+y,-z
1/2-x,1/2-y,-z
1/2+x,1/2-y,z
loop_
_atom_site_type_symbol
_atom_site_label
_atom_site_fract_x
_atom_site_fract_y
_atom_site_fract_z
Si Si1 0.807246 0.598669 0.821328
Si Si2 0.784590 0.895799 0.646725
Si Si3 0.898358 0.836666 0.929231
Si Si4 0.725942 0.897272 0.854026
O O1 0.785262 0.500000 0.796107
O O2 0.654536 0.668537 0.842873
O O3 0.063816 0.631390 0.699237
O O4 0.729642 0.594869 0.952046
O O5 0.772392 0.855614 0.743656
O O6 0.000000 0.856456 0.500000
O O7 0.800852 0.000000 0.644029
O O8 0.920226 0.872328 0.826908
O O9 0.750000 0.750000 0.000000
O O10 0.705507 0.000000 0.852666
O O11 0.500000 0.858168 0.000000
#
# Coordination Sequence:
#
# PCOD8083277 Si02
#       4
#     8   8   8   8
#     4  10  20  36  56  79 112 150 187 227 284 336
#     4   9  18  33  56  84 113 146 186 231 278 332
#     4  11  22  32  53  83 115 142 183 236 282 329
#     4  10  18  32  55  83 110 141 185 232 277 327
#
# _framework density 21.253557000000001
#
# number of rings (size 3 to 8) (size 9 to 14) (size 15 to 20)
#    0.000    2.000    2.500    3.000    3.500    0.000 
#    0.000    1.250    0.000   12.000    0.000    0.000 
#    0.000    0.000    0.000    0.000    0.000    1.000 
#
# Total GULP energy -198257.858713 kJ/mol
# GULP energy per Si atom -12391.116170 kJ/mol
# Density = 2.120518 g / cm^3
# Si number density = 21.253557 Si / 1000 Ang^3
#
#
#
# Elastic Constant Matrix: (Units=GPa)
#
#
# Indices 1 2 3 4 5 6 
#
# 1 187.3416 41.3298 95.0219 0.0043 -14.1256 -0.0032
# 2 41.3298 37.2308 16.0665 0.0079 -2.6847 -0.0020
# 3 95.0219 16.0665 150.4757 0.0276 -9.1804 -0.0050
# 4 0.0043 0.0079 0.0276 12.0736 -0.0066 -4.4870
# 5 -14.1256 -2.6847 -9.1804 -0.0066 38.0117 -0.0015
# 6 -0.0032 -0.0020 -0.0050 -4.4870 -0.0015 25.7012
#
#
#
# Elastic Compliance Matrix: (Units=1/GPa)
#
#
# Indices 1 2 3 4 5 6 
#
# 1 0.010131 -0.008807 -0.005344 0.000016 0.001852 0.000002
# 2 -0.008807 0.035874 0.001711 -0.000025 -0.000326 -0.000002
# 3 -0.005344 0.001711 0.009869 -0.000022 0.000518 -0.000002
# 4 0.000016 -0.000025 -0.000022 0.088572 0.000015 0.015463
# 5 0.001852 -0.000326 0.000518 0.000015 0.027098 0.000004
# 6 0.000002 -0.000002 -0.000002 0.015463 0.000004 0.041608
#
#
# Mechanical properties :
#
#
# Convention : Reuss Voigt Hill
#
# Bulk Modulus (GPa) = 32.26379 75.54274 53.90327
# Shear Modulus (GPa) = 20.13176 29.99929 25.06553
#
# Velocity S-wave (km/s) = 3.08103 3.76106 3.43790
# Velocity P-wave (km/s) = 5.27924 7.38116 6.41685
#
# Compressibility (1/GPa) = 0.03099450
#
# Stress axis : x y z
#
# Youngs Moduli (GPa) = 98.70721 27.87545 101.32462
#
# Poissons Ratio (x) = 0.24549 0.54150
# Poissons Ratio (y) = 0.86927 -0.17336
# Poissons Ratio (z) = 0.52751 -0.04769
#
# Static dielectric constant tensor:
#      x y z
#    x 4.367550 -0.000050 0.064830 
#    y -0.000050 3.407000 0.000020 
#    z 0.064830 0.000020 3.925590 
# 
# 
# High freq. dielectric constant tensor:
#      x y z
#    x 1.850130 0.000000 -0.000290 
#    y 0.000000 1.804530 0.000000 
#    z -0.000290 0.000000 1.790080 
# 
# From -- ./inp_files/45238.got.cif
#   From: 2010.06.25/outbox.cif.g09.slc.cpg/sg12_23_cif.got.tgz:45238.got - 2010.06.28 00:19:55.
