data_PCOD8083026
_publ_section_title
;
Structure prediction by ZEFSAII (Michael W. Deem and Ramdas Pophale) SiO2 
 PCOD8083026
Probable space group: C 2/M
;
_chemical_formula_sum "Si O2"
_cell_formula_units_Z 44
_cell_length_a 8.886633
_cell_length_b 22.655674
_cell_length_c 14.952211
_cell_angle_alpha 90.000000
_cell_angle_beta 129.347479
_cell_angle_gamma 90.000000
_cell_volume 2327.963304
_symmetry_space_group_name_H-M "C 2/M"
_symmetry_group_IT_number 12
_symmetry_cell_setting 'monoclinic'
loop_
_space_group_symop_operation_xyz
x,y,z
-x,y,-z
-x,-y,-z
x,-y,z
1/2+x,1/2+y,z
1/2-x,1/2+y,-z
1/2-x,1/2-y,-z
1/2+x,1/2-y,z
loop_
_atom_site_type_symbol
_atom_site_label
_atom_site_fract_x
_atom_site_fract_y
_atom_site_fract_z
Si Si1 0.258248 0.142884 0.166270
Si Si2 0.080837 0.434675 0.222389
Si Si3 0.000000 0.402034 0.000000
Si Si4 0.637640 0.672181 0.633631
Si Si5 0.859606 0.165484 0.075145
Si Si6 0.500257 0.249574 0.267505
O O1 0.394916 0.085332 0.211558
O O2 0.369236 0.196275 0.257761
O O3 0.059560 0.126217 0.143285
O O4 0.222338 0.171548 0.055120
O O5 0.146466 0.500000 0.279014
O O6 0.008728 0.440741 0.092667
O O7 0.253924 0.387900 0.297283
O O8 0.196024 0.362950 0.076314
O O9 0.500000 0.655597 0.500000
O O10 0.505428 0.695364 0.666102
O O11 0.782987 0.724661 0.661237
O O12 0.920753 0.228312 0.140680
#
# Coordination Sequence:
#
# PCOD8083026 Si02
#       6
#     8   8   4   8   8   8
#     4   9  20  32  52  82 113 145 180 213 277 332
#     4  10  21  38  57  79 110 146 187 228 269 323
#     4  10  19  34  58  84 110 142 183 230 272 326
#     4  11  23  37  57  83 111 147 185 226 275 321
#     4  10  18  32  52  82 114 144 172 220 275 330
#     4  11  19  35  54  81 113 142 179 226 276 325
#
# _framework density 18.900641
#
# number of rings (size 3 to 8) (size 9 to 14) (size 15 to 20)
#    0.000    1.818    3.636    1.364    0.000    1.818 
#    0.000    8.182    0.000    0.000    0.000    1.273 
#    0.000    0.000    0.000    0.000    0.000    0.000 
#
# Total GULP energy -272643.275893 kJ/mol
# GULP energy per Si atom -12392.876177 kJ/mol
# Density = 1.885762 g / cm^3
# Si number density = 18.900641 Si / 1000 Ang^3
#
#
#
# Elastic Constant Matrix: (Units=GPa)
#
#
# Indices 1 2 3 4 5 6 
#
# 1 94.8203 45.3531 9.7440 0.0000 11.2373 0.0000
# 2 45.3531 121.2282 35.8287 0.0000 5.5664 0.0000
# 3 9.7440 35.8287 69.2945 0.0000 4.9115 0.0000
# 4 0.0000 0.0000 0.0000 12.4066 0.0000 2.3607
# 5 11.2373 5.5664 4.9115 0.0000 18.6529 0.0000
# 6 0.0000 0.0000 0.0000 2.3607 0.0000 10.2991
#
#
#
# Elastic Compliance Matrix: (Units=1/GPa)
#
#
# Indices 1 2 3 4 5 6 
#
# 1 0.013733 -0.005183 0.001249 0.000000 -0.007055 0.000000
# 2 -0.005183 0.011740 -0.005416 0.000000 0.001045 0.000000
# 3 0.001249 -0.005416 0.017318 0.000000 -0.003696 0.000000
# 4 0.000000 0.000000 0.000000 0.084278 0.000000 -0.019318
# 5 -0.007055 0.001045 -0.003696 0.000000 0.058523 0.000000
# 6 0.000000 0.000000 0.000000 -0.019318 0.000000 0.101524
#
#
# Mechanical properties :
#
#
# Convention : Reuss Voigt Hill
#
# Bulk Modulus (GPa) = 41.50793 51.91051 46.70922
# Shear Modulus (GPa) = 15.93136 21.23287 18.58211
#
# Velocity S-wave (km/s) = 2.90642 3.35534 3.13892
# Velocity P-wave (km/s) = 5.76818 6.52194 6.15660
#
# Compressibility (1/GPa) = 0.02409178
#
# Stress axis : x y z
#
# Youngs Moduli (GPa) = 72.81693 85.17525 57.74438
#
# Poissons Ratio (x) = 0.44145 -0.07211
# Poissons Ratio (y) = 0.37740 0.31273
# Poissons Ratio (z) = -0.09093 0.46128
#
# Static dielectric constant tensor:
#      x y z
#    x 3.596240 0.000000 0.109680 
#    y 0.000000 3.119740 0.000000 
#    z 0.109680 0.000000 3.231270 
# 
# 
# High freq. dielectric constant tensor:
#      x y z
#    x 1.742330 0.000000 0.010220 
#    y 0.000000 1.706050 0.000000 
#    z 0.010220 0.000000 1.711090 
# 
# From -- ./inp_files/120840.got.cif
#   From: 2010.06.25/outbox.cif.g09.slc.cpg/sg12_61_cif.got.tgz:120840.got - 2010.06.28 00:19:55.
