data_PCOD8083909
_publ_section_title
;
Structure prediction by ZEFSAII (Michael W. Deem and Ramdas Pophale) SiO2 
 PCOD8083909
Probable space group: C 2/M
;
_chemical_formula_sum "Si O2"
_cell_formula_units_Z 48
_cell_length_a 32.175894
_cell_length_b 13.891864
_cell_length_c 9.384034
_cell_angle_alpha 90.000000
_cell_angle_beta 30.976030
_cell_angle_gamma 90.000000
_cell_volume 2158.825448
_symmetry_space_group_name_H-M "C 2/M"
_symmetry_group_IT_number 12
_symmetry_cell_setting 'monoclinic'
loop_
_space_group_symop_operation_xyz
x,y,z
-x,y,-z
-x,-y,-z
x,-y,z
1/2+x,1/2+y,z
1/2-x,1/2+y,-z
1/2-x,1/2-y,-z
1/2+x,1/2-y,z
loop_
_atom_site_type_symbol
_atom_site_label
_atom_site_fract_x
_atom_site_fract_y
_atom_site_fract_z
Si Si1 0.414800 0.716088 0.462530
Si Si2 0.845499 0.711225 0.106319
Si Si3 0.951668 0.891319 0.788226
Si Si4 0.111153 0.392198 0.290824
Si Si5 0.319533 0.217104 0.491882
Si Si6 0.734864 0.606652 0.981035
O O1 0.489192 0.643063 0.257693
O O2 0.439863 0.818923 0.459350
O O3 0.390305 0.726341 0.369124
O O4 0.337084 0.681222 0.782253
O O5 0.750856 0.708053 0.344231
O O6 0.857751 0.675051 0.233292
O O7 0.874333 0.822401 0.006580
O O8 0.895081 0.641025 0.855809
O O9 0.000000 0.884790 0.500000
O O10 0.922519 0.000000 0.905508
O O11 0.075333 0.500000 0.410322
O O12 0.204886 0.390171 0.062246
O O13 0.284937 0.132299 0.692144
O O14 0.697756 0.500000 0.070994
#
# Coordination Sequence:
#
# PCOD8083909 Si02
#       6
#     8   8   8   8   8   8
#     4  11  19  39  60  90 123 161 199 250 302 360
#     4  11  21  39  56  86 122 160 201 249 298 355
#     4  11  23  39  64  94 124 159 199 247 310 368
#     4  10  19  34  59  86 111 149 206 252 289 345
#     4  10  21  36  60  80 124 164 198 247 301 348
#     4  10  18  33  61  90 113 151 204 250 298 353
#
# _framework density 22.234311999999999
#
# number of rings (size 3 to 8) (size 9 to 14) (size 15 to 20)
#    0.000    1.500    5.000    1.500    0.000    3.333 
#    0.000    6.667    0.000    0.000    0.000    5.833 
#    0.000    0.000    0.000    0.000    0.000    0.000 
#
# Total GULP energy -297596.511605 kJ/mol
# GULP energy per Si atom -12399.854650 kJ/mol
# Density = 2.218371 g / cm^3
# Si number density = 22.234312 Si / 1000 Ang^3
#
#
#
# Elastic Constant Matrix: (Units=GPa)
#
#
# Indices 1 2 3 4 5 6 
#
# 1 132.3558 33.3285 23.0955 0.0000 25.6160 0.0000
# 2 33.3285 126.1971 13.4397 0.0000 13.9698 0.0000
# 3 23.0955 13.4397 31.3613 0.0000 22.7639 0.0000
# 4 0.0000 0.0000 0.0000 19.5211 0.0000 -3.3356
# 5 25.6160 13.9698 22.7639 0.0000 39.9540 0.0000
# 6 0.0000 0.0000 0.0000 -3.3356 0.0000 28.0784
#
#
#
# Elastic Compliance Matrix: (Units=1/GPa)
#
#
# Indices 1 2 3 4 5 6 
#
# 1 0.009258 -0.001689 -0.003776 0.000000 -0.003194 0.000000
# 2 -0.001689 0.008664 -0.001801 0.000000 -0.000920 0.000000
# 3 -0.003776 -0.001801 0.056655 0.000000 -0.029229 0.000000
# 4 0.000000 0.000000 0.000000 0.052288 0.000000 0.006212
# 5 -0.003194 -0.000920 -0.029229 0.000000 0.044051 0.000000
# 6 0.000000 0.000000 0.000000 0.006212 0.000000 0.036352
#
#
# Mechanical properties :
#
#
# Convention : Reuss Voigt Hill
#
# Bulk Modulus (GPa) = 16.65432 47.73797 32.19614
# Shear Modulus (GPa) = 20.67703 32.18073 26.42888
#
# Velocity S-wave (km/s) = 3.05283 3.80853 3.45142
# Velocity P-wave (km/s) = 4.46464 6.39194 5.51316
#
# Compressibility (1/GPa) = 0.06004450
#
# Stress axis : x y z
#
# Youngs Moduli (GPa) = 108.01824 115.42126 17.65085
#
# Poissons Ratio (x) = 0.19498 0.06664
# Poissons Ratio (y) = 0.18248 0.03179
# Poissons Ratio (z) = 0.40784 0.20786
#
# Static dielectric constant tensor:
#      x y z
#    x 4.346380 0.000000 0.080990 
#    y 0.000000 3.980340 0.000000 
#    z 0.080990 0.000000 3.573200 
# 
# 
# High freq. dielectric constant tensor:
#      x y z
#    x 1.895100 0.000000 0.000870 
#    y 0.000000 1.856720 0.000000 
#    z 0.000870 0.000000 1.838400 
# 
# From -- ./inp_files/111488.got.cif
#   From: 2010.06.25/outbox.cif.g09.slc.cpg/sg12_56_cif.got.tgz:111488.got - 2010.06.28 00:19:55.
