data_PCOD8083147
_publ_section_title
;
Structure prediction by ZEFSAII (Michael W. Deem and Ramdas Pophale) SiO2 
 PCOD8083147
Probable space group: C 2/M
;
_chemical_formula_sum "Si O2"
_cell_formula_units_Z 48
_cell_length_a 25.470993
_cell_length_b 17.429685
_cell_length_c 12.475585
_cell_angle_alpha 90.000000
_cell_angle_beta 30.695508
_cell_angle_gamma 90.000000
_cell_volume 2827.295753
_symmetry_space_group_name_H-M "C 2/M"
_symmetry_group_IT_number 12
_symmetry_cell_setting 'monoclinic'
loop_
_space_group_symop_operation_xyz
x,y,z
-x,y,-z
-x,-y,-z
x,-y,z
1/2+x,1/2+y,z
1/2-x,1/2+y,-z
1/2-x,1/2-y,-z
1/2+x,1/2-y,z
loop_
_atom_site_type_symbol
_atom_site_label
_atom_site_fract_x
_atom_site_fract_y
_atom_site_fract_z
Si Si1 0.455434 0.711069 0.415844
Si Si2 0.178524 0.687323 0.685115
Si Si3 0.499481 0.181346 0.154469
Si Si4 0.616720 0.913709 0.110811
Si Si5 0.197698 0.086995 0.371625
Si Si6 0.135271 0.728990 0.219984
O O1 0.455883 0.748383 0.298851
O O2 0.407135 0.627351 0.483802
O O3 0.387573 0.764939 0.613944
O O4 0.568939 0.708209 0.268964
O O5 0.250000 0.750000 0.500000
O O6 0.097035 0.649673 0.745124
O O7 0.253622 0.625187 0.607297
O O8 0.098634 0.717447 0.916964
O O9 0.532758 0.110112 0.169647
O O10 0.610690 0.857084 0.223056
O O11 0.593524 0.000000 0.190891
O O12 0.727823 0.908264 0.860997
O O13 0.171147 0.000000 0.448999
O O14 0.250000 0.750000 0.000000
#
# Coordination Sequence:
#
# PCOD8083147 Si02
#       6
#     8   8   8   8   8   8
#     4  10  19  33  51  77 103 134 176 212 256 305
#     4  10  18  32  54  78 102 136 178 212 253 309
#     4   9  19  31  51  79 102 137 174 211 257 308
#     4   9  18  33  52  77 109 138 169 216 264 302
#     4  10  19  32  52  79 109 137 169 215 262 304
#     4  10  19  33  53  76 101 138 176 211 250 313
#
# _framework density 16.977353999999998
#
# number of rings (size 3 to 8) (size 9 to 14) (size 15 to 20)
#    0.000    2.333    3.333    0.000    0.000    0.667 
#    0.000   12.500    0.000    2.000    0.000    0.000 
#    0.000    0.000    0.000    0.000    0.000    0.000 
#
# Total GULP energy -297347.317783 kJ/mol
# GULP energy per Si atom -12389.471574 kJ/mol
# Density = 1.693871 g / cm^3
# Si number density = 16.977354 Si / 1000 Ang^3
#
#
#
# Elastic Constant Matrix: (Units=GPa)
#
#
# Indices 1 2 3 4 5 6 
#
# 1 88.9758 58.1147 54.5647 0.0000 -7.1555 0.0000
# 2 58.1147 128.3720 52.5334 0.0000 -5.0238 0.0000
# 3 54.5647 52.5334 86.5533 0.0000 -6.7972 0.0000
# 4 0.0000 0.0000 0.0000 21.3645 0.0000 -0.5057
# 5 -7.1555 -5.0238 -6.7972 0.0000 34.6009 0.0000
# 6 0.0000 0.0000 0.0000 -0.5057 0.0000 23.9280
#
#
#
# Elastic Compliance Matrix: (Units=1/GPa)
#
#
# Indices 1 2 3 4 5 6 
#
# 1 0.020878 -0.005394 -0.009761 0.000000 0.001617 0.000000
# 2 -0.005394 0.011760 -0.003749 0.000000 -0.000144 0.000000
# 3 -0.009761 -0.003749 0.020091 0.000000 0.001384 0.000000
# 4 0.000000 0.000000 0.000000 0.046830 0.000000 0.000990
# 5 0.001617 -0.000144 0.001384 0.000000 0.029486 0.000000
# 6 0.000000 0.000000 0.000000 0.000990 0.000000 0.041813
#
#
# Mechanical properties :
#
#
# Convention : Reuss Voigt Hill
#
# Bulk Modulus (GPa) = 67.01564 70.48075 68.74820
# Shear Modulus (GPa) = 23.40383 25.22454 24.31418
#
# Velocity S-wave (km/s) = 3.71689 3.85876 3.78849
# Velocity P-wave (km/s) = 7.61443 7.83952 7.72779
#
# Compressibility (1/GPa) = 0.01492189
#
# Stress axis : x y z
#
# Youngs Moduli (GPa) = 47.89710 85.03314 49.77305
#
# Poissons Ratio (x) = 0.45865 0.48584
# Poissons Ratio (y) = 0.25835 0.18659
# Poissons Ratio (z) = 0.46753 0.31877
#
# Static dielectric constant tensor:
#      x y z
#    x 3.436990 0.000000 0.171890 
#    y 0.000000 3.030320 0.000000 
#    z 0.171890 0.000000 3.699670 
# 
# 
# High freq. dielectric constant tensor:
#      x y z
#    x 1.667440 0.000000 -0.002450 
#    y 0.000000 1.621300 0.000000 
#    z -0.002450 0.000000 1.658090 
# 
# From -- ./inp_files/143113.got.cif
#   From: 2010.06.25/outbox.cif.g09.slc.cpg/sg12_72_cif.got.tgz:143113.got - 2010.06.28 00:19:55.
