data_PCOD8083074
_publ_section_title
;
Structure prediction by ZEFSAII (Michael W. Deem and Ramdas Pophale) SiO2 
 PCOD8083074
Probable space group: C 2/M
;
_chemical_formula_sum "Si O2"
_cell_formula_units_Z 56
_cell_length_a 25.395836
_cell_length_b 8.641315
_cell_length_c 25.752072
_cell_angle_alpha 90.000000
_cell_angle_beta 145.771901
_cell_angle_gamma 90.000000
_cell_volume 3178.838806
_symmetry_space_group_name_H-M "C 2/M"
_symmetry_group_IT_number 12
_symmetry_cell_setting 'monoclinic'
loop_
_space_group_symop_operation_xyz
x,y,z
-x,y,-z
-x,-y,-z
x,-y,z
1/2+x,1/2+y,z
1/2-x,1/2+y,-z
1/2-x,1/2-y,-z
1/2+x,1/2-y,z
loop_
_atom_site_type_symbol
_atom_site_label
_atom_site_fract_x
_atom_site_fract_y
_atom_site_fract_z
Si Si1 0.863095 0.817534 0.904209
Si Si2 0.964546 0.316199 0.593840
Si Si3 0.323462 0.816080 0.391471
Si Si4 0.148651 0.181653 0.406268
Si Si5 0.659630 0.816601 0.710326
Si Si6 0.376982 0.682135 0.731947
Si Si7 0.977731 0.681212 0.905172
O O1 0.754672 0.764850 0.816752
O O2 0.906462 0.774307 0.883864
O O3 0.873873 0.000000 0.921245
O O4 0.916056 0.728311 0.993687
O O5 0.957931 0.500000 0.592880
O O6 0.901809 0.254190 0.495018
O O7 0.929534 0.244164 0.618701
O O8 0.070614 0.258201 0.670557
O O9 0.343866 0.747519 0.350936
O O10 0.222931 0.757754 0.328940
O O11 0.325679 0.000000 0.392518
O O12 0.250000 0.250000 0.500000
O O13 0.113822 0.228292 0.320619
O O14 0.158619 0.000000 0.419901
O O15 0.656949 0.000000 0.702974
O O16 0.388762 0.500000 0.750242
O O17 0.457856 0.771188 0.829610
O O18 0.963958 0.500000 0.902682
#
# Coordination Sequence:
#
# PCOD8083074 Si02
#       7
#     8   8   8   8   8   8   8
#     4  10  18  32  53  76 105 141 175 209 250 313
#     4  10  19  33  53  78 106 138 174 215 253 300
#     4   9  15  28  50  77 104 135 172 208 246 298
#     4  11  22  36  54  76 103 138 178 217 257 303
#     4   9  17  29  52  80 104 135 177 211 248 301
#     4  10  19  34  54  74 100 138 177 212 254 308
#     4  11  21  32  49  78 107 134 168 217 271 309
#
# _framework density 17.616496999999999
#
# number of rings (size 3 to 8) (size 9 to 14) (size 15 to 20)
#    0.000    2.000    2.857    3.429    0.000    2.857 
#    0.000    1.429    0.000    1.714    0.000    0.000 
#    0.000    0.000    0.000    0.000    0.000    0.000 
#
# Total GULP energy -347200.823959 kJ/mol
# GULP energy per Si atom -12400.029427 kJ/mol
# Density = 1.757640 g / cm^3
# Si number density = 17.616497 Si / 1000 Ang^3
#
#
#
# Elastic Constant Matrix: (Units=GPa)
#
#
# Indices 1 2 3 4 5 6 
#
# 1 136.6137 23.1490 78.0248 0.0000 0.9963 0.0000
# 2 23.1490 37.9307 33.3991 0.0000 -7.0589 -0.0002
# 3 78.0248 33.3991 156.1373 0.0000 -2.1207 0.0000
# 4 0.0000 0.0000 0.0000 17.4043 0.0000 -4.9190
# 5 0.9963 -7.0589 -2.1207 0.0000 23.8229 0.0000
# 6 0.0000 -0.0002 0.0000 -4.9190 0.0000 22.1810
#
#
#
# Elastic Compliance Matrix: (Units=1/GPa)
#
#
# Indices 1 2 3 4 5 6 
#
# 1 0.010445 -0.002536 -0.004699 0.000000 -0.001607 0.000000
# 2 -0.002536 0.035155 -0.006117 0.000000 0.009978 0.000000
# 3 -0.004699 -0.006117 0.010051 0.000000 -0.000721 0.000000
# 4 0.000000 0.000000 0.000000 0.061299 0.000000 0.013594
# 5 -0.001607 0.009978 -0.000721 0.000000 0.044936 0.000000
# 6 0.000000 0.000000 0.000000 0.013594 0.000000 0.048098
#
#
# Mechanical properties :
#
#
# Convention : Reuss Voigt Hill
#
# Bulk Modulus (GPa) = 34.54562 66.64750 50.59656
# Shear Modulus (GPa) = 20.29735 25.75559 23.02647
#
# Velocity S-wave (km/s) = 3.39806 3.82778 3.61930
# Velocity P-wave (km/s) = 5.92015 7.57961 6.80068
#
# Compressibility (1/GPa) = 0.02894723
#
# Stress axis : x y z
#
# Youngs Moduli (GPa) = 95.73884 28.44563 99.48786
#
# Poissons Ratio (x) = 0.07214 0.46749
# Poissons Ratio (y) = 0.24279 0.60858
# Poissons Ratio (z) = 0.44987 0.17400
#
# Static dielectric constant tensor:
#      x y z
#    x 3.256940 0.000000 0.018140 
#    y 0.000000 2.993590 0.000000 
#    z 0.018140 0.000000 3.501440 
# 
# 
# High freq. dielectric constant tensor:
#      x y z
#    x 1.661020 0.000000 -0.002510 
#    y 0.000000 1.658160 0.000000 
#    z -0.002510 0.000000 1.689700 
# 
# From -- ./inp_files/348641.got.cif
#   From: 2010.06.25/outbox.cif.g09.slc.cpg/sg12_175_cif.got.tgz:348641.got - 2010.06.28 00:19:55.
