data_PCOD8083288
_publ_section_title
;
Structure prediction by ZEFSAII (Michael W. Deem and Ramdas Pophale) SiO2 
 PCOD8083288
Probable space group: C 2/M
;
_chemical_formula_sum "Si O2"
_cell_formula_units_Z 64
_cell_length_a 24.139086
_cell_length_b 8.623402
_cell_length_c 29.909382
_cell_angle_alpha 90.000000
_cell_angle_beta 146.593443
_cell_angle_gamma 90.000000
_cell_volume 3427.870361
_symmetry_space_group_name_H-M "C 2/M"
_symmetry_group_IT_number 12
_symmetry_cell_setting 'monoclinic'
loop_
_space_group_symop_operation_xyz
x,y,z
-x,y,-z
-x,-y,-z
x,-y,z
1/2+x,1/2+y,z
1/2-x,1/2+y,-z
1/2-x,1/2-y,-z
1/2+x,1/2-y,z
loop_
_atom_site_type_symbol
_atom_site_label
_atom_site_fract_x
_atom_site_fract_y
_atom_site_fract_z
Si Si1 0.349435 0.180039 0.958414
Si Si2 0.955229 0.179381 0.868571
Si Si3 0.912986 0.319636 0.300024
Si Si4 0.145611 0.319461 0.838550
Si Si5 0.962147 0.319657 0.777440
Si Si6 0.119556 0.180246 0.446159
Si Si7 0.791007 0.319978 0.819418
Si Si8 0.315116 0.319797 0.609007
O O1 0.246466 0.220788 0.915028
O O2 0.339782 0.225150 0.899859
O O3 0.375095 0.000000 0.982531
O O4 0.437702 0.281730 0.038137
O O5 0.955686 0.215131 0.816657
O O6 0.868574 0.280504 0.832894
O O7 0.931352 0.000000 0.860381
O O8 0.934658 0.500000 0.320336
O O9 0.902074 0.270930 0.240931
O O10 0.811795 0.274117 0.258215
O O11 0.006810 0.227022 0.384120
O O12 0.174137 0.500000 0.857584
O O13 0.066740 0.276957 0.823795
O O14 0.959080 0.500000 0.788340
O O15 0.868706 0.282181 0.682675
O O16 0.197279 0.276053 0.529102
O O17 0.136004 0.224861 0.405492
O O18 0.138336 0.000000 0.467378
O O19 0.763858 0.500000 0.800063
O O20 0.328584 0.500000 0.629363
#
# Coordination Sequence:
#
# PCOD8083288 Si02
#       8
#     8   8   8   8   8   8   8   8
#     4  10  21  37  59  83 108 139 179 230 280 325
#     4  12  25  39  56  79 107 145 188 228 274 328
#     4  10  18  32  55  84 114 143 180 227 276 323
#     4   9  19  34  54  80 110 144 180 221 274 328
#     4  11  22  38  57  78 111 150 185 225 273 329
#     4  10  19  31  52  82 115 148 183 222 270 322
#     4  10  21  38  59  83 109 140 182 231 279 325
#     4  10  20  33  52  80 114 148 184 225 269 321
#
# _framework density 18.670483999999998
#
# number of rings (size 3 to 8) (size 9 to 14) (size 15 to 20)
#    0.000    1.750    1.250    3.750    0.000    6.000 
#    0.000    0.000    0.000    0.750    0.000    5.250 
#    0.000    0.000    0.000    0.000    0.000    0.000 
#
# Total GULP energy -396983.752931 kJ/mol
# GULP energy per Si atom -12405.742279 kJ/mol
# Density = 1.862799 g / cm^3
# Si number density = 18.670484 Si / 1000 Ang^3
#
#
#
# Elastic Constant Matrix: (Units=GPa)
#
#
# Indices 1 2 3 4 5 6 
#
# 1 69.4318 11.3778 71.6148 0.0000 -15.1654 -0.0007
# 2 11.3778 49.9725 25.2081 0.0008 -2.9651 -0.0045
# 3 71.6148 25.2081 -1.5881 0.0001 79.8038 0.0013
# 4 0.0000 0.0008 0.0001 34.6642 0.0000 4.2790
# 5 -15.1654 -2.9651 79.8038 0.0000 -22.2056 -0.0007
# 6 -0.0007 -0.0045 0.0013 4.2790 -0.0007 28.9187
#
#
#
# Elastic Compliance Matrix: (Units=1/GPa)
#
#
# Indices 1 2 3 4 5 6 
#
# 1 0.013228 -0.003340 -0.000623 0.000000 -0.010828 0.000000
# 2 -0.003340 0.020994 -0.000871 -0.000001 -0.003652 0.000003
# 3 -0.000623 -0.000871 0.003588 0.000000 0.013436 0.000000
# 4 0.000000 -0.000001 0.000000 0.029385 0.000000 -0.004348
# 5 -0.010828 -0.003652 0.013436 0.000000 0.011138 -0.000001
# 6 0.000000 0.000003 0.000000 -0.004348 -0.000001 0.035223
#
#
# Mechanical properties :
#
#
# Convention : Reuss Voigt Hill
#
# Bulk Modulus (GPa) = 35.53394 37.13528 36.33461
# Shear Modulus (GPa) = 37.70637 8.91648 23.31143
#
# Velocity S-wave (km/s) = 4.49884 2.18771 3.53735
# Velocity P-wave (km/s) = 6.78672 5.12976 6.01556
#
# Compressibility (1/GPa) = 0.02814211
#
# Stress axis : x y z
#
# Youngs Moduli (GPa) = 75.59869 47.63265 278.71107
#
# Poissons Ratio (x) = 0.15908 0.17371
# Poissons Ratio (y) = 0.25248 0.24269
# Poissons Ratio (z) = 0.04712 0.04148
#
# Static dielectric constant tensor:
#      x y z
#    x 3.273360 0.000000 0.153930 
#    y 0.000000 3.432760 0.000000 
#    z 0.153930 0.000000 3.397100 
# 
# 
# High freq. dielectric constant tensor:
#      x y z
#    x 1.700880 0.000000 0.019460 
#    y 0.000000 1.735990 0.000000 
#    z 0.019460 0.000000 1.725070 
# 
# From -- ./inp_files/238664.got.cif
#   From: 2010.06.25/outbox.cif.g09.slc.cpg/sg12_120_cif.got.tgz:238664.got - 2010.06.28 00:19:55.
