data_PCOD8083629
_publ_section_title
;
Structure prediction by ZEFSAII (Michael W. Deem and Ramdas Pophale) SiO2 
 PCOD8083629
Probable space group: C 2/M
;
_chemical_formula_sum "Si O2"
_cell_formula_units_Z 28
_cell_length_a 17.973295
_cell_length_b 7.636981
_cell_length_c 17.680787
_cell_angle_alpha 90.000000
_cell_angle_beta 42.890417
_cell_angle_gamma 90.000000
_cell_volume 1651.740772
_symmetry_space_group_name_H-M "C 2/M"
_symmetry_group_IT_number 12
_symmetry_cell_setting 'monoclinic'
loop_
_space_group_symop_operation_xyz
x,y,z
-x,y,-z
-x,-y,-z
x,-y,z
1/2+x,1/2+y,z
1/2-x,1/2+y,-z
1/2-x,1/2-y,-z
1/2+x,1/2-y,z
loop_
_atom_site_type_symbol
_atom_site_label
_atom_site_fract_x
_atom_site_fract_y
_atom_site_fract_z
Si Si1 0.424606 0.000000 0.482643
Si Si2 0.373667 0.200957 0.921754
Si Si3 0.174029 0.000000 0.665523
Si Si4 0.015050 0.000000 0.076570
Si Si5 0.561617 0.808654 0.671386
O O1 0.500000 0.000000 0.500000
O O2 0.298178 0.000000 0.601476
O O3 0.448280 0.173401 0.412957
O O4 0.418553 0.324485 0.954136
O O5 0.442649 0.240234 0.793920
O O6 0.384242 0.000000 0.939908
O O7 0.250000 0.250000 0.000000
O O8 0.151571 0.168143 0.629333
O O9 0.101153 0.000000 0.794748
O O10 0.000000 0.000000 0.000000
O O11 0.598818 0.000000 0.675785
#
# Coordination Sequence:
#
# PCOD8083629 Si02
#       5
#     4   8   4   4   8
#     4  10  20  34  54  79 106 129 168 229 264 288
#     4  10  18  33  55  78 105 141 177 212 256 316
#     4  10  18  36  59  70 100 148 176 196 263 320
#     4  10  22  34  52  83 110 135 174 223 262 304
#     4   8  19  33  53  77 101 134 180 206 247 317
#
# _framework density 16.951812
#
# number of rings (size 3 to 8) (size 9 to 14) (size 15 to 20)
#    0.857    1.714    1.429    0.857    0.000    2.857 
#    0.000    0.714    0.000    0.000    0.000    0.000 
#    0.000    0.000    0.000    0.000    0.000    0.000 
#
# Total GULP energy -173482.156998 kJ/mol
# GULP energy per Si atom -12391.582643 kJ/mol
# Density = 1.691323 g / cm^3
# Si number density = 16.951812 Si / 1000 Ang^3
#
#
#
# Elastic Constant Matrix: (Units=GPa)
#
#
# Indices 1 2 3 4 5 6 
#
# 1 150.0294 62.4955 82.5945 0.0000 0.8264 0.0000
# 2 62.4955 115.9026 43.6105 0.0000 -4.0647 0.0000
# 3 82.5945 43.6105 97.7714 0.0000 -9.5742 0.0000
# 4 0.0000 0.0000 0.0000 23.2934 0.0000 1.6006
# 5 0.8264 -4.0647 -9.5742 0.0000 32.3315 0.0000
# 6 0.0000 0.0000 0.0000 1.6006 0.0000 20.1032
#
#
#
# Elastic Compliance Matrix: (Units=1/GPa)
#
#
# Indices 1 2 3 4 5 6 
#
# 1 0.014098 -0.003741 -0.010630 0.000000 -0.003979 0.000000
# 2 -0.003741 0.011361 -0.001810 0.000000 0.000988 0.000000
# 3 -0.010630 -0.001810 0.020618 0.000000 0.006150 0.000000
# 4 0.000000 0.000000 0.000000 0.043167 0.000000 -0.003437
# 5 -0.003979 0.000988 0.006150 0.000000 0.032976 0.000000
# 6 0.000000 0.000000 0.000000 -0.003437 0.000000 0.050017
#
#
# Mechanical properties :
#
#
# Convention : Reuss Voigt Hill
#
# Bulk Modulus (GPa) = 72.92365 82.34492 77.63428
# Shear Modulus (GPa) = 23.90377 26.81250 25.35814
#
# Velocity S-wave (km/s) = 3.75921 3.98136 3.87188
# Velocity P-wave (km/s) = 7.87107 8.35562 8.11696
#
# Compressibility (1/GPa) = 0.01371297
#
# Stress axis : x y z
#
# Youngs Moduli (GPa) = 70.93186 88.01969 48.50177
#
# Poissons Ratio (x) = 0.32932 0.51559
# Poissons Ratio (y) = 0.26539 0.08780
# Poissons Ratio (z) = 0.75403 0.15933
#
# Static dielectric constant tensor:
#      x y z
#    x 2.756340 0.000000 -0.013550 
#    y 0.000000 3.328410 0.000000 
#    z -0.013550 0.000000 3.318840 
# 
# 
# High freq. dielectric constant tensor:
#      x y z
#    x 1.613860 0.000000 -0.007310 
#    y 0.000000 1.660110 0.000000 
#    z -0.007310 0.000000 1.671160 
# 
# From -- ./inp_files/266585.got.cif
#   From: 2010.06.25/outbox.cif.g09.slc.cpg/sg12_134_cif.got.tgz:266585.got - 2010.06.28 00:19:55.
