data_PCOD8083467
_publ_section_title
;
Structure prediction by ZEFSAII (Michael W. Deem and Ramdas Pophale) SiO2 
 PCOD8083467
Probable space group: C 2/M
;
_chemical_formula_sum "Si O2"
_cell_formula_units_Z 48
_cell_length_a 21.919435
_cell_length_b 12.835450
_cell_length_c 16.855061
_cell_angle_alpha 90.000000
_cell_angle_beta 149.658923
_cell_angle_gamma 90.000000
_cell_volume 2395.455573
_symmetry_space_group_name_H-M "C 2/M"
_symmetry_group_IT_number 12
_symmetry_cell_setting 'monoclinic'
loop_
_space_group_symop_operation_xyz
x,y,z
-x,y,-z
-x,-y,-z
x,-y,z
1/2+x,1/2+y,z
1/2-x,1/2+y,-z
1/2-x,1/2-y,-z
1/2+x,1/2-y,z
loop_
_atom_site_type_symbol
_atom_site_label
_atom_site_fract_x
_atom_site_fract_y
_atom_site_fract_z
Si Si1 0.765169 0.618480 0.354689
Si Si2 0.819486 0.194082 0.902952
Si Si3 0.557777 0.620211 0.244173
Si Si4 0.320879 0.618769 0.206710
Si Si5 0.525971 0.731131 0.365888
Si Si6 0.675598 0.884813 0.887122
O O1 0.814842 0.500000 0.407923
O O2 0.684621 0.639715 0.186884
O O3 0.683652 0.634901 0.340554
O O4 0.873795 0.700602 0.477458
O O5 0.770691 0.313707 0.841830
O O6 0.731445 0.132806 0.863438
O O7 0.956595 0.189952 0.087273
O O8 0.515048 0.500000 0.195961
O O9 0.581608 0.656273 0.361180
O O10 0.318600 0.500000 0.234827
O O11 0.458010 0.663441 0.358235
O O12 0.279651 0.631042 0.068912
O O13 0.433439 0.807525 0.217144
O O14 0.621211 0.000000 0.830918
#
# Coordination Sequence:
#
# PCOD8083467 Si02
#       6
#     8   8   8   8   8   8
#     4  11  25  38  55  86 121 153 186 234 289 337
#     4  11  20  38  60  88 116 147 189 237 288 338
#     4  11  21  38  62  84 112 155 198 231 272 337
#     4  10  20  36  61  87 111 148 193 236 282 338
#     4  11  20  37  56  86 115 149 188 233 287 334
#     4  10  18  32  59  86 111 144 188 237 282 334
#
# _framework density 20.037942000000001
#
# number of rings (size 3 to 8) (size 9 to 14) (size 15 to 20)
#    0.000    1.333    3.333    4.500    0.000    4.000 
#    0.000    6.667    0.000    5.000    0.000    0.000 
#    0.000    0.000    0.000    0.000    0.000    0.000 
#
# Total GULP energy -297654.221294 kJ/mol
# GULP energy per Si atom -12402.259221 kJ/mol
# Density = 1.999233 g / cm^3
# Si number density = 20.037942 Si / 1000 Ang^3
#
#
#
# Elastic Constant Matrix: (Units=GPa)
#
#
# Indices 1 2 3 4 5 6 
#
# 1 41.2623 19.6632 -1.4728 0.0000 -0.3195 0.0000
# 2 19.6632 115.8534 31.6307 0.0000 14.0275 0.0000
# 3 -1.4728 31.6307 57.5310 0.0000 6.4362 0.0000
# 4 0.0000 0.0000 0.0000 31.0719 0.0000 2.2287
# 5 -0.3195 14.0275 6.4362 0.0000 21.0882 0.0000
# 6 0.0000 0.0000 0.0000 2.2287 0.0000 26.7318
#
#
#
# Elastic Compliance Matrix: (Units=1/GPa)
#
#
# Indices 1 2 3 4 5 6 
#
# 1 0.027260 -0.006020 0.003638 0.000000 0.003307 0.000000
# 2 -0.006020 0.012075 -0.006092 0.000000 -0.006264 0.000000
# 3 0.003638 -0.006092 0.021085 0.000000 -0.002328 0.000000
# 4 0.000000 0.000000 0.000000 0.032377 0.000000 -0.002699
# 5 0.003307 -0.006264 -0.002328 0.000000 0.052347 0.000000
# 6 0.000000 0.000000 0.000000 -0.002699 0.000000 0.037634
#
#
# Mechanical properties :
#
#
# Convention : Reuss Voigt Hill
#
# Bulk Modulus (GPa) = 23.00426 34.92099 28.96262
# Shear Modulus (GPa) = 23.34079 26.76676 25.05378
#
# Velocity S-wave (km/s) = 3.41666 3.65883 3.53982
# Velocity P-wave (km/s) = 5.20289 5.94261 5.58501
#
# Compressibility (1/GPa) = 0.04347021
#
# Stress axis : x y z
#
# Youngs Moduli (GPa) = 36.68438 82.81447 47.42702
#
# Poissons Ratio (x) = 0.49857 -0.17253
# Poissons Ratio (y) = 0.22085 0.28894
# Poissons Ratio (z) = -0.13345 0.50453
#
# Static dielectric constant tensor:
#      x y z
#    x 3.422560 0.000000 0.075720 
#    y 0.000000 3.928360 0.000000 
#    z 0.075720 0.000000 3.423430 
# 
# 
# High freq. dielectric constant tensor:
#      x y z
#    x 1.766290 0.000000 0.003080 
#    y 0.000000 1.793820 0.000000 
#    z 0.003080 0.000000 1.766930 
# 
# From -- ./inp_files/284101.got.cif
#   From: 2010.06.25/outbox.cif.g09.slc.cpg/sg12_143_cif.got.tgz:284101.got - 2010.06.28 00:19:55.
