data_PCOD8083837
_publ_section_title
;
Structure prediction by ZEFSAII (Michael W. Deem and Ramdas Pophale) SiO2 
 PCOD8083837
Probable space group: C 2/M
;
_chemical_formula_sum "Si O2"
_cell_formula_units_Z 56
_cell_length_a 28.586723
_cell_length_b 14.541822
_cell_length_c 11.527362
_cell_angle_alpha 90.000000
_cell_angle_beta 143.472835
_cell_angle_gamma 90.000000
_cell_volume 2852.192651
_symmetry_space_group_name_H-M "C 2/M"
_symmetry_group_IT_number 12
_symmetry_cell_setting 'monoclinic'
loop_
_space_group_symop_operation_xyz
x,y,z
-x,y,-z
-x,-y,-z
x,-y,z
1/2+x,1/2+y,z
1/2-x,1/2+y,-z
1/2-x,1/2-y,-z
1/2+x,1/2-y,z
loop_
_atom_site_type_symbol
_atom_site_label
_atom_site_fract_x
_atom_site_fract_y
_atom_site_fract_z
Si Si1 0.234586 0.105350 0.014441
Si Si2 0.984115 0.106773 0.600863
Si Si3 0.973238 0.606112 0.317138
Si Si4 0.121047 0.777032 0.937497
Si Si5 0.639229 0.895725 0.546702
Si Si6 0.690305 0.604669 0.677685
Si Si7 0.243995 0.741202 0.624122
O O1 0.170534 0.177257 0.932226
O O2 0.246424 0.123620 0.900850
O O3 0.203175 0.000000 0.969070
O O4 0.317455 0.120806 0.243304
O O5 0.896578 0.136074 0.459312
O O6 0.000000 0.134848 0.500000
O O7 0.041822 0.164550 0.798353
O O8 0.999835 0.000000 0.653442
O O9 0.944818 0.500000 0.251777
O O10 0.901478 0.671335 0.135771
O O11 0.000000 0.629953 0.500000
O O12 0.047306 0.624821 0.380008
O O13 0.171080 0.785876 0.155225
O O14 0.677059 0.832681 0.522915
O O15 0.652238 0.000000 0.531562
O O16 0.691982 0.500000 0.641006
O O17 0.720259 0.660811 0.628373
O O18 0.250000 0.750000 0.500000
#
# Coordination Sequence:
#
# PCOD8083837 Si02
#       7
#     8   8   8   8   8   8   8
#     4   9  18  33  57  91 117 144 180 228 296 359
#     4  10  18  33  58  93 125 142 168 222 299 372
#     4  10  22  36  54  88 125 152 181 224 285 356
#     4  11  21  34  60  84 117 153 184 235 287 343
#     4   9  20  39  61  82 116 153 189 236 287 342
#     4  10  21  37  59  85 119 150 184 234 288 345
#     4  11  26  42  57  80 111 156 210 246 273 318
#
# _framework density 19.634018000000001
#
# number of rings (size 3 to 8) (size 9 to 14) (size 15 to 20)
#    0.000    2.000    1.429    1.714    4.000    2.857 
#    0.000    2.857    0.000    3.429    0.000    0.000 
#    0.000    0.000    0.000    0.000    0.000    0.000 
#
# Total GULP energy -347239.426474 kJ/mol
# GULP energy per Si atom -12401.408088 kJ/mol
# Density = 1.958933 g / cm^3
# Si number density = 19.634018 Si / 1000 Ang^3
#
#
#
# Elastic Constant Matrix: (Units=GPa)
#
#
# Indices 1 2 3 4 5 6 
#
# 1 108.4900 48.9482 45.2888 0.0000 -19.2769 0.0000
# 2 48.9482 95.1154 40.0921 0.0000 -1.8626 0.0000
# 3 45.2888 40.0921 71.9253 0.0000 -6.0982 0.0000
# 4 0.0000 0.0000 0.0000 26.1193 0.0000 9.0813
# 5 -19.2769 -1.8626 -6.0982 0.0000 28.3096 0.0000
# 6 0.0000 0.0000 0.0000 9.0813 0.0000 29.5160
#
#
#
# Elastic Compliance Matrix: (Units=1/GPa)
#
#
# Indices 1 2 3 4 5 6 
#
# 1 0.015847 -0.005354 -0.006223 0.000000 0.009098 0.000000
# 2 -0.005354 0.015568 -0.005631 0.000000 -0.003835 0.000000
# 3 -0.006223 -0.005631 0.020952 0.000000 -0.000094 0.000000
# 4 0.000000 0.000000 0.000000 0.042872 0.000000 -0.013191
# 5 0.009098 -0.003835 -0.000094 0.000000 0.041246 0.000000
# 6 0.000000 0.000000 0.000000 -0.013191 0.000000 0.037938
#
#
# Mechanical properties :
#
#
# Convention : Reuss Voigt Hill
#
# Bulk Modulus (GPa) = 55.70713 60.46545 58.08629
# Shear Modulus (GPa) = 23.27487 26.20243 24.73865
#
# Velocity S-wave (km/s) = 3.44675 3.65710 3.55348
# Velocity P-wave (km/s) = 6.65391 6.97823 6.81800
#
# Compressibility (1/GPa) = 0.01795102
#
# Stress axis : x y z
#
# Youngs Moduli (GPa) = 63.10189 64.23631 47.72733
#
# Poissons Ratio (x) = 0.34394 0.29699
# Poissons Ratio (y) = 0.33787 0.26876
# Poissons Ratio (z) = 0.39265 0.36173
#
# Static dielectric constant tensor:
#      x y z
#    x 3.217510 0.000000 0.326580 
#    y 0.000000 3.781190 0.000000 
#    z 0.326580 0.000000 3.630330 
# 
# 
# High freq. dielectric constant tensor:
#      x y z
#    x 1.729070 0.000000 0.033420 
#    y 0.000000 1.785830 0.000000 
#    z 0.033420 0.000000 1.754200 
# 
# From -- ./inp_files/183557.got.cif
#   From: 2010.06.25/outbox.cif.g09.slc.cpg/sg12_92_cif.got.tgz:183557.got - 2010.06.28 00:19:55.
