data_PCOD8083371
_publ_section_title
;
Structure prediction by ZEFSAII (Michael W. Deem and Ramdas Pophale) SiO2 
 PCOD8083371
Probable space group: C 2/M
;
_chemical_formula_sum "Si O2"
_cell_formula_units_Z 56
_cell_length_a 13.557761
_cell_length_b 22.186000
_cell_length_c 13.157277
_cell_angle_alpha 90.000000
_cell_angle_beta 136.144522
_cell_angle_gamma 90.000000
_cell_volume 2741.997319
_symmetry_space_group_name_H-M "C 2/M"
_symmetry_group_IT_number 12
_symmetry_cell_setting 'monoclinic'
loop_
_space_group_symop_operation_xyz
x,y,z
-x,y,-z
-x,-y,-z
x,-y,z
1/2+x,1/2+y,z
1/2-x,1/2+y,-z
1/2-x,1/2-y,-z
1/2+x,1/2-y,z
loop_
_atom_site_type_symbol
_atom_site_label
_atom_site_fract_x
_atom_site_fract_y
_atom_site_fract_z
Si Si1 0.866032 0.852696 0.454256
Si Si2 0.686759 0.069621 0.201743
Si Si3 0.509967 0.879057 0.782617
Si Si4 0.210220 0.928115 0.943662
Si Si5 0.642773 0.235917 0.327863
Si Si6 0.911941 0.133431 0.724079
Si Si7 0.376483 0.929192 0.483602
O O1 0.822796 0.917429 0.375155
O O2 0.738932 0.806989 0.328504
O O3 0.901226 0.862451 0.596169
O O4 0.000000 0.823356 0.500000
O O5 0.546491 0.101445 0.146308
O O6 0.736170 0.092576 0.127499
O O7 0.649509 0.000000 0.169963
O O8 0.494180 0.806845 0.748806
O O9 0.411826 0.911943 0.625755
O O10 0.673170 0.900491 0.891626
O O11 0.057496 0.900312 0.861553
O O12 0.200178 0.000000 0.947190
O O13 0.750000 0.250000 0.500000
O O14 0.588872 0.297370 0.234779
O O15 0.773596 0.099263 0.664313
O O16 0.500000 0.905327 0.500000
O O17 0.358979 0.000000 0.461543
#
# Coordination Sequence:
#
# PCOD8083371 Si02
#       7
#     8   8   8   8   8   8   8
#     4  10  18  32  56  88 119 153 190 240 293 345
#     4  10  19  32  55  88 124 160 193 223 282 369
#     4  11  21  39  59  84 122 157 191 243 293 353
#     4  11  23  35  58  93 126 159 188 231 304 370
#     4   9  19  37  57  83 111 154 199 238 286 343
#     4  11  21  39  58  86 120 152 197 255 294 342
#     4  11  23  39  61  84 106 152 210 252 294 341
#
# _framework density 20.423068000000001
#
# number of rings (size 3 to 8) (size 9 to 14) (size 15 to 20)
#    0.000    1.571    5.714    2.143    0.000    3.143 
#    0.000    0.714    0.000    6.000    0.000    0.000 
#    0.000    0.000    0.000    0.000    0.000    0.000 
#
# Total GULP energy -346898.661304 kJ/mol
# GULP energy per Si atom -12389.237904 kJ/mol
# Density = 2.037658 g / cm^3
# Si number density = 20.423068 Si / 1000 Ang^3
#
#
#
# Elastic Constant Matrix: (Units=GPa)
#
#
# Indices 1 2 3 4 5 6 
#
# 1 78.0732 30.3972 25.9800 0.0000 32.7499 0.0000
# 2 30.3972 121.0185 40.7768 0.0000 28.8742 0.0000
# 3 25.9800 40.7768 82.7244 0.0000 42.3556 0.0000
# 4 0.0000 0.0000 0.0000 31.3411 0.0000 10.2137
# 5 32.7499 28.8742 42.3556 0.0000 38.3300 0.0000
# 6 0.0000 0.0000 0.0000 10.2137 0.0000 11.4203
#
#
#
# Elastic Compliance Matrix: (Units=1/GPa)
#
#
# Indices 1 2 3 4 5 6 
#
# 1 0.021511 -0.001828 0.006565 0.000000 -0.024257 0.000000
# 2 -0.001828 0.010456 -0.003102 0.000000 -0.002888 0.000000
# 3 0.006565 -0.003102 0.030471 0.000000 -0.036944 0.000000
# 4 0.000000 0.000000 0.000000 0.045032 0.000000 -0.040274
# 5 -0.024257 -0.002888 -0.036944 0.000000 0.089815 0.000000
# 6 0.000000 0.000000 0.000000 -0.040274 0.000000 0.123582
#
#
# Mechanical properties :
#
#
# Convention : Reuss Voigt Hill
#
# Bulk Modulus (GPa) = 15.21831 52.90268 34.06049
# Shear Modulus (GPa) = 14.72763 28.52909 21.62836
#
# Velocity S-wave (km/s) = 2.68829 3.74157 3.25778
# Velocity P-wave (km/s) = 4.13565 6.68023 5.55559
#
# Compressibility (1/GPa) = 0.06571032
#
# Stress axis : x y z
#
# Youngs Moduli (GPa) = 46.48865 95.63555 32.81789
#
# Poissons Ratio (x) = 0.17478 -0.21545
# Poissons Ratio (y) = 0.08496 0.10178
# Poissons Ratio (z) = -0.30520 0.29661
#
# Static dielectric constant tensor:
#      x y z
#    x 4.053510 0.000000 0.450510 
#    y 0.000000 4.327260 0.000000 
#    z 0.450510 0.000000 3.871310 
# 
# 
# High freq. dielectric constant tensor:
#      x y z
#    x 1.783940 0.000000 0.023980 
#    y 0.000000 1.800040 0.000000 
#    z 0.023980 0.000000 1.785220 
# 
# From -- ./inp_files/217754.got.cif
#   From: 2010.06.25/outbox.cif.g09.slc.cpg/sg12_109_cif.got.tgz:217754.got - 2010.06.28 00:19:55.
