data_PCOD8083852
_publ_section_title
;
Structure prediction by ZEFSAII (Michael W. Deem and Ramdas Pophale) SiO2 
 PCOD8083852
Probable space group: C 2/M
;
_chemical_formula_sum "Si O2"
_cell_formula_units_Z 56
_cell_length_a 22.019187
_cell_length_b 9.443692
_cell_length_c 29.916233
_cell_angle_alpha 90.000000
_cell_angle_beta 153.942429
_cell_angle_gamma 90.000000
_cell_volume 2732.659601
_symmetry_space_group_name_H-M "C 2/M"
_symmetry_group_IT_number 12
_symmetry_cell_setting 'monoclinic'
loop_
_space_group_symop_operation_xyz
x,y,z
-x,y,-z
-x,-y,-z
x,-y,z
1/2+x,1/2+y,z
1/2-x,1/2+y,-z
1/2-x,1/2-y,-z
1/2+x,1/2-y,z
loop_
_atom_site_type_symbol
_atom_site_label
_atom_site_fract_x
_atom_site_fract_y
_atom_site_fract_z
Si Si1 0.718196 0.783584 0.157395
Si Si2 0.592803 0.663535 0.471182
Si Si3 0.489180 0.654101 0.678811
Si Si4 0.539373 0.841168 0.959731
Si Si5 0.337908 0.845389 0.318043
Si Si6 0.898105 0.668369 0.699092
Si Si7 0.936687 0.166934 0.812546
O O1 0.612601 0.868620 0.119667
O O2 0.772393 0.654385 0.224308
O O3 0.853171 0.870980 0.232774
O O4 0.635133 0.748604 0.056894
O O5 0.562705 0.500000 0.458490
O O6 0.601069 0.700676 0.423914
O O7 0.465121 0.740893 0.410426
O O8 0.736829 0.708270 0.588614
O O9 0.437773 0.500000 0.662883
O O10 0.477657 0.776990 0.707789
O O11 0.537145 0.746668 0.913748
O O12 0.600079 0.000000 0.990865
O O13 0.221290 0.809599 0.277294
O O14 0.398688 0.000000 0.366480
O O15 0.921917 0.500000 0.719952
O O16 0.961523 0.754622 0.782194
O O17 0.974470 0.000000 0.834640
#
# Coordination Sequence:
#
# PCOD8083852 Si02
#       7
#     8   8   8   8   8   8   8
#     4   9  18  32  56  87 113 137 170 214 266 316
#     4   9  20  36  56  81 107 136 175 222 270 315
#     4  10  19  34  55  80 109 139 171 214 265 317
#     4  10  18  33  59  86 110 139 174 215 262 318
#     4   9  19  34  55  82 111 140 174 217 266 318
#     4  11  23  38  54  75 104 143 186 223 261 312
#     4  10  22  38  53  76 109 144 179 219 266 315
#
# _framework density 20.492854999999999
#
# number of rings (size 3 to 8) (size 9 to 14) (size 15 to 20)
#    0.000    2.286    0.000    3.000    0.000    9.143 
#    0.000    6.429    0.000    0.000    0.000    0.000 
#    0.000    0.000    0.000    0.000    0.000    0.000 
#
# Total GULP energy -346933.509180 kJ/mol
# GULP energy per Si atom -12390.482471 kJ/mol
# Density = 2.044621 g / cm^3
# Si number density = 20.492855 Si / 1000 Ang^3
#
#
#
# Elastic Constant Matrix: (Units=GPa)
#
#
# Indices 1 2 3 4 5 6 
#
# 1 41.9979 26.5336 -2.2517 -0.0001 -17.3409 0.0001
# 2 26.5336 77.4502 6.6339 -0.0013 -9.3739 -0.0003
# 3 -2.2517 6.6339 48.8620 -0.0018 -14.3812 0.0001
# 4 -0.0001 -0.0013 -0.0018 19.4328 -0.0003 -0.1210
# 5 -17.3409 -9.3739 -14.3812 -0.0003 29.9571 -0.0001
# 6 0.0001 -0.0003 0.0001 -0.1210 -0.0001 25.6099
#
#
#
# Elastic Compliance Matrix: (Units=1/GPa)
#
#
# Indices 1 2 3 4 5 6 
#
# 1 0.043483 -0.012649 0.011604 0.000001 0.026783 0.000000
# 2 -0.012649 0.017119 -0.004059 0.000001 -0.003914 0.000000
# 3 0.011604 -0.004059 0.026965 0.000003 0.018392 0.000000
# 4 0.000001 0.000001 0.000003 0.051461 0.000003 0.000243
# 5 0.026783 -0.003914 0.018392 0.000003 0.056489 0.000000
# 6 0.000000 0.000000 0.000000 0.000243 0.000000 0.039049
#
#
# Mechanical properties :
#
#
# Convention : Reuss Voigt Hill
#
# Bulk Modulus (GPa) = 12.92686 25.57129 19.24907
# Shear Modulus (GPa) = 18.48019 24.15956 21.31988
#
# Velocity S-wave (km/s) = 3.00624 3.43727 3.22896
# Velocity P-wave (km/s) = 4.28621 5.31586 4.82856
#
# Compressibility (1/GPa) = 0.07735831
#
# Stress axis : x y z
#
# Youngs Moduli (GPa) = 22.99743 58.41476 37.08551
#
# Poissons Ratio (x) = 0.73890 -0.43034
# Poissons Ratio (y) = 0.29090 0.15053
# Poissons Ratio (z) = -0.26686 0.23711
#
# Static dielectric constant tensor:
#      x y z
#    x 3.490050 0.000000 -0.135170 
#    y 0.000000 3.538950 0.000000 
#    z -0.135170 0.000000 3.764690 
# 
# 
# High freq. dielectric constant tensor:
#      x y z
#    x 1.783810 0.000000 -0.010300 
#    y 0.000000 1.793400 0.000000 
#    z -0.010300 0.000000 1.796190 
# 
# From -- ./inp_files/380708.got.cif
#   From: 2010.06.25/outbox.cif.g09.slc.cpg/sg12_191_cif.got.tgz:380708.got - 2010.06.28 00:19:55.
