data_PCOD8083297
_publ_section_title
;
Structure prediction by ZEFSAII (Michael W. Deem and Ramdas Pophale) SiO2 
 PCOD8083297
Probable space group: C 2/M
;
_chemical_formula_sum "Si O2"
_cell_formula_units_Z 52
_cell_length_a 26.322325
_cell_length_b 10.150421
_cell_length_c 22.669696
_cell_angle_alpha 90.000000
_cell_angle_beta 152.760319
_cell_angle_gamma 90.000000
_cell_volume 2772.349637
_symmetry_space_group_name_H-M "C 2/M"
_symmetry_group_IT_number 12
_symmetry_cell_setting 'monoclinic'
loop_
_space_group_symop_operation_xyz
x,y,z
-x,y,-z
-x,-y,-z
x,-y,z
1/2+x,1/2+y,z
1/2-x,1/2+y,-z
1/2-x,1/2-y,-z
1/2+x,1/2-y,z
loop_
_atom_site_type_symbol
_atom_site_label
_atom_site_fract_x
_atom_site_fract_y
_atom_site_fract_z
Si Si1 0.217772 0.356286 0.797756
Si Si2 0.490262 0.263728 0.556806
Si Si3 0.712439 0.000000 0.002118
Si Si4 0.939261 0.348432 0.876472
Si Si5 0.248454 0.349427 0.694260
Si Si6 0.104338 0.731520 0.946026
Si Si7 0.911864 0.000000 0.131647
Si Si8 0.060817 0.000000 0.709883
O O1 0.251654 0.500000 0.856354
O O2 0.263251 0.338497 0.779140
O O3 0.277830 0.250720 0.900293
O O4 0.085252 0.345511 0.662657
O O5 0.500000 0.320964 0.500000
O O6 0.374127 0.194941 0.451297
O O7 0.510174 0.375735 0.624808
O O8 0.632625 0.871856 0.923213
O O9 0.803937 0.000000 0.150151
O O10 0.778372 0.000000 0.007958
O O11 0.897568 0.500000 0.837055
O O12 0.836942 0.250944 0.757653
O O13 0.000000 0.308579 0.000000
O O14 0.020250 0.333478 0.904827
O O15 0.269502 0.500000 0.694474
O O16 0.055458 0.868231 0.870286
O O17 0.979884 0.000000 0.263694
#
# Coordination Sequence:
#
# PCOD8083297 Si02
#       8
#     8   8   4   8   8   8   4   4
#     4  10  18  32  55  86 122 156 191 239 292 355
#     4  10  20  35  57  88 120 157 196 246 306 358
#     4  10  22  37  56  86 124 148 199 246 296 350
#     4  11  24  38  57  89 127 163 195 241 294 360
#     4  10  22  36  56  86 121 157 196 236 291 360
#     4  12  20  38  59  89 122 160 197 238 302 352
#     4  10  24  37  63  87 117 163 200 250 295 356
#     4  10  21  36  57  87 119 151 193 250 298 355
#
# _framework density 18.756653
#
# number of rings (size 3 to 8) (size 9 to 14) (size 15 to 20)
#    0.462    1.077    4.615    1.154    2.154    2.154 
#    1.385    0.000    1.692    0.923    0.000    0.000 
#    0.000    0.000    0.000    0.000    0.000    0.000 
#
# Total GULP energy -322301.903921 kJ/mol
# GULP energy per Si atom -12396.227074 kJ/mol
# Density = 1.871396 g / cm^3
# Si number density = 18.756653 Si / 1000 Ang^3
#
#
#
# Elastic Constant Matrix: (Units=GPa)
#
#
# Indices 1 2 3 4 5 6 
#
# 1 58.1600 22.0156 14.2692 0.0000 7.0008 0.0000
# 2 22.0156 117.3586 28.7723 0.0000 4.1931 0.0000
# 3 14.2692 28.7723 67.4882 0.0000 10.1247 0.0000
# 4 0.0000 0.0000 0.0000 -2.2102 0.0000 14.3656
# 5 7.0008 4.1931 10.1247 0.0000 29.4082 0.0000
# 6 0.0000 0.0000 0.0000 14.3656 0.0000 24.8229
#
#
#
# Elastic Compliance Matrix: (Units=1/GPa)
#
#
# Indices 1 2 3 4 5 6 
#
# 1 0.019277 -0.002926 -0.002322 0.000000 -0.003372 0.000000
# 2 -0.002926 0.009960 -0.003711 0.000000 0.000554 0.000000
# 3 -0.002322 -0.003711 0.017639 0.000000 -0.004991 0.000000
# 4 0.000000 0.000000 0.000000 -0.095022 0.000000 0.054991
# 5 -0.003372 0.000554 -0.004991 0.000000 0.036446 0.000000
# 6 0.000000 0.000000 0.000000 0.054991 0.000000 0.008461
#
#
# Mechanical properties :
#
#
# Convention : Reuss Voigt Hill
#
# Bulk Modulus (GPa) = 34.53318 41.45789 37.99554
# Shear Modulus (GPa) = 205.48976 22.26750 113.87863
#
# Velocity S-wave (km/s) = 10.47824 3.44928 7.80035
# Velocity P-wave (km/s) = 12.83910 6.16558 10.07117
#
# Compressibility (1/GPa) = 0.02895765
#
# Stress axis : x y z
#
# Youngs Moduli (GPa) = 51.87416 100.40389 56.69236
#
# Poissons Ratio (x) = 0.29383 0.13166
# Poissons Ratio (y) = 0.15181 0.21036
# Poissons Ratio (z) = 0.12047 0.37255
#
# Static dielectric constant tensor:
#      x y z
#    x 3.217870 0.000000 0.007780 
#    y 0.000000 3.550370 0.000000 
#    z 0.007780 0.000000 3.214490 
# 
# 
# High freq. dielectric constant tensor:
#      x y z
#    x 1.709030 0.000000 0.001870 
#    y 0.000000 1.742820 0.000000 
#    z 0.001870 0.000000 1.705060 
# 
# From -- ./inp_files/351324.got.cif
#   From: 2010.06.25/outbox.cif.g09.slc.cpg/sg12_176_cif.got.tgz:351324.got - 2010.06.28 00:19:55.
