data_PCOD8083536
_publ_section_title
;
Structure prediction by ZEFSAII (Michael W. Deem and Ramdas Pophale) SiO2 
 PCOD8083536
Probable space group: C 2/M
;
_chemical_formula_sum "Si O2"
_cell_formula_units_Z 56
_cell_length_a 9.240123
_cell_length_b 27.304213
_cell_length_c 13.127905
_cell_angle_alpha 90.000000
_cell_angle_beta 107.902035
_cell_angle_gamma 90.000000
_cell_volume 3151.735314
_symmetry_space_group_name_H-M "C 2/M"
_symmetry_group_IT_number 12
_symmetry_cell_setting 'monoclinic'
loop_
_space_group_symop_operation_xyz
x,y,z
-x,y,-z
-x,-y,-z
x,-y,z
1/2+x,1/2+y,z
1/2-x,1/2+y,-z
1/2-x,1/2-y,-z
1/2+x,1/2-y,z
loop_
_atom_site_type_symbol
_atom_site_label
_atom_site_fract_x
_atom_site_fract_y
_atom_site_fract_z
Si Si1 0.325933 0.445394 0.978303
Si Si2 0.036123 0.555993 0.394557
Si Si3 0.420567 0.790080 0.087791
Si Si4 0.448082 0.111277 0.183776
Si Si5 0.126033 0.943877 0.603831
Si Si6 0.224699 0.096796 0.829418
Si Si7 0.608686 0.315090 0.938224
O O1 0.295278 0.500000 0.928619
O O2 0.207692 0.406662 0.904048
O O3 0.500000 0.429160 0.000000
O O4 0.301831 0.445788 0.094488
O O5 0.981772 0.500000 0.365081
O O6 0.214874 0.560898 0.418536
O O7 0.000000 0.573943 0.500000
O O8 0.945188 0.591305 0.298100
O O9 0.461828 0.829490 0.185004
O O10 0.466989 0.734165 0.129126
O O11 0.500000 0.806831 0.000000
O O12 0.241512 0.793568 0.035926
O O13 0.596843 0.092187 0.157123
O O14 0.124405 0.912664 0.707257
O O15 0.000000 0.922211 0.500000
O O16 0.088391 0.000000 0.623394
O O17 0.166363 0.148209 0.863769
O O18 0.500000 0.340310 0.000000
#
# Coordination Sequence:
#
# PCOD8083536 Si02
#       7
#     8   8   8   8   8   8   8
#     4  11  23  34  46  74 110 138 165 207 262 313
#     4   9  19  35  54  76 100 131 174 218 258 305
#     4  10  18  33  52  77 106 141 172 207 257 315
#     4  11  20  34  55  76 102 137 175 212 257 315
#     4   9  19  35  54  74  99 135 176 215 257 307
#     4  11  20  34  53  77 103 137 176 214 255 311
#     4  10  20  32  51  77 110 138 172 211 255 312
#
# _framework density 17.767990000000001
#
# number of rings (size 3 to 8) (size 9 to 14) (size 15 to 20)
#    0.000    1.857    2.857    1.714    0.000    3.429 
#    0.000    2.857    0.000    0.857    0.000    4.000 
#    0.000    0.000    0.000    0.000    0.000    0.000 
#
# Total GULP energy -346968.405149 kJ/mol
# GULP energy per Si atom -12391.728755 kJ/mol
# Density = 1.772755 g / cm^3
# Si number density = 17.767990 Si / 1000 Ang^3
#
#
#
# Elastic Constant Matrix: (Units=GPa)
#
#
# Indices 1 2 3 4 5 6 
#
# 1 85.8356 20.3658 46.4614 0.0000 -3.8034 0.0000
# 2 20.3658 102.7283 44.9394 0.0000 -7.1906 0.0000
# 3 46.4614 44.9394 116.2775 0.0000 -8.0006 0.0000
# 4 0.0000 0.0000 0.0000 22.1051 0.0000 -6.0926
# 5 -3.8034 -7.1906 -8.0006 0.0000 29.5786 0.0000
# 6 0.0000 0.0000 0.0000 -6.0926 0.0000 22.0887
#
#
#
# Elastic Compliance Matrix: (Units=1/GPa)
#
#
# Indices 1 2 3 4 5 6 
#
# 1 0.014882 -0.000408 -0.005771 0.000000 0.000253 0.000000
# 2 -0.000408 0.011806 -0.004286 0.000000 0.001658 0.000000
# 3 -0.005771 -0.004286 0.012676 0.000000 0.001645 0.000000
# 4 0.000000 0.000000 0.000000 0.048961 0.000000 0.013504
# 5 0.000253 0.001658 0.001645 0.000000 0.034689 0.000000
# 6 0.000000 0.000000 0.000000 0.013504 0.000000 0.048997
#
#
# Mechanical properties :
#
#
# Convention : Reuss Voigt Hill
#
# Bulk Modulus (GPa) = 54.24787 58.70827 56.47807
# Shear Modulus (GPa) = 25.11485 27.62613 26.37049
#
# Velocity S-wave (km/s) = 3.76372 3.94741 3.85666
# Velocity P-wave (km/s) = 7.03455 7.34094 7.18938
#
# Compressibility (1/GPa) = 0.01843390
#
# Stress axis : x y z
#
# Youngs Moduli (GPa) = 67.19453 84.70101 78.89055
#
# Poissons Ratio (x) = 0.03455 0.45531
# Poissons Ratio (y) = 0.02741 0.33811
# Poissons Ratio (z) = 0.38781 0.36301
#
# Static dielectric constant tensor:
#      x y z
#    x 3.413290 0.000000 -0.011350 
#    y 0.000000 3.515750 0.000000 
#    z -0.011350 0.000000 3.143100 
# 
# 
# High freq. dielectric constant tensor:
#      x y z
#    x 1.702560 0.000000 -0.004080 
#    y 0.000000 1.688410 0.000000 
#    z -0.004080 0.000000 1.650500 
# 
# From -- ./inp_files/125331.got.cif
#   From: 2010.06.25/outbox.cif.g09.slc.cpg/sg12_63_cif.got.tgz:125331.got - 2010.06.28 00:19:55.
