data_PCOD8083072
_publ_section_title
;
Structure prediction by ZEFSAII (Michael W. Deem and Ramdas Pophale) SiO2 
 PCOD8083072
Probable space group: C 2/M
;
_chemical_formula_sum "Si O2"
_cell_formula_units_Z 48
_cell_length_a 13.099806
_cell_length_b 13.266436
_cell_length_c 15.262500
_cell_angle_alpha 90.000000
_cell_angle_beta 85.941264
_cell_angle_gamma 90.000000
_cell_volume 2645.783085
_symmetry_space_group_name_H-M "C 2/M"
_symmetry_group_IT_number 12
_symmetry_cell_setting 'monoclinic'
loop_
_space_group_symop_operation_xyz
x,y,z
-x,y,-z
-x,-y,-z
x,-y,z
1/2+x,1/2+y,z
1/2-x,1/2+y,-z
1/2-x,1/2-y,-z
1/2+x,1/2-y,z
loop_
_atom_site_type_symbol
_atom_site_label
_atom_site_fract_x
_atom_site_fract_y
_atom_site_fract_z
Si Si1 0.564054 0.116172 0.697762
Si Si2 0.879338 0.115175 0.780221
Si Si3 0.698089 0.754531 0.807489
Si Si4 0.645174 0.208835 0.333703
Si Si5 0.055311 0.884928 0.909659
Si Si6 0.380004 0.888564 0.492718
O O1 0.602262 0.183676 0.775317
O O2 0.443555 0.132183 0.690287
O O3 0.633252 0.145493 0.607778
O O4 0.581452 0.000000 0.720014
O O5 0.783692 0.166478 0.838714
O O6 0.892133 0.176256 0.687112
O O7 0.980944 0.123860 0.831163
O O8 0.853038 0.000000 0.759425
O O9 0.751727 0.685929 0.728286
O O10 0.656048 0.682406 0.886582
O O11 0.668183 0.192266 0.435954
O O12 0.090494 0.000000 0.922471
O O13 0.000000 0.843878 0.000000
O O14 0.500000 0.896213 0.500000
O O15 0.331347 0.000000 0.511054
#
# Coordination Sequence:
#
# PCOD8083072 Si02
#       6
#     8   8   8   8   8   8
#     4  10  18  32  53  76 103 140 174 208 251 293
#     4   9  19  35  52  75 103 134 167 206 257 307
#     4  10  19  33  54  79  99 137 166 213 248 303
#     4   9  18  30  51  77 101 137 171 216 242 292
#     4  10  21  38  57  76 102 133 164 203 259 315
#     4   8  15  28  47  73 105 135 171 211 247 286
#
# _framework density 18.142075999999999
#
# number of rings (size 3 to 8) (size 9 to 14) (size 15 to 20)
#    1.000    1.667    1.667    2.000    0.000    2.667 
#    0.000    0.000    0.000    7.500    0.000    0.000 
#    0.000    0.000    0.000    0.000    0.000    0.000 
#
# Total GULP energy -297316.387707 kJ/mol
# GULP energy per Si atom -12388.182821 kJ/mol
# Density = 1.810078 g / cm^3
# Si number density = 18.142076 Si / 1000 Ang^3
#
#
#
# Elastic Constant Matrix: (Units=GPa)
#
#
# Indices 1 2 3 4 5 6 
#
# 1 39.0449 19.5648 4.8664 0.0000 -15.5585 0.0000
# 2 19.5648 94.0124 47.8327 0.0000 -19.8347 0.0000
# 3 4.8664 47.8327 66.2139 0.0000 -24.2525 0.0000
# 4 0.0000 0.0000 0.0000 25.3393 0.0000 -7.5501
# 5 -15.5585 -19.8347 -24.2525 0.0000 25.4236 0.0000
# 6 0.0000 0.0000 0.0000 -7.5501 0.0000 22.3509
#
#
#
# Elastic Compliance Matrix: (Units=1/GPa)
#
#
# Indices 1 2 3 4 5 6 
#
# 1 0.041944 -0.010016 0.016435 0.000000 0.033532 0.000000
# 2 -0.010016 0.019303 -0.015274 0.000000 -0.005641 0.000000
# 3 0.016435 -0.015274 0.037270 0.000000 0.033695 0.000000
# 4 0.000000 0.000000 0.000000 0.043881 0.000000 0.014823
# 5 0.033532 -0.005641 0.033695 0.000000 0.087596 0.000000
# 6 0.000000 0.000000 0.000000 0.014823 0.000000 0.049748
#
#
# Mechanical properties :
#
#
# Convention : Reuss Voigt Hill
#
# Bulk Modulus (GPa) = 12.37531 38.19989 25.28760
# Shear Modulus (GPa) = 15.41363 23.08991 19.25177
#
# Velocity S-wave (km/s) = 2.91796 3.57140 3.26109
# Velocity P-wave (km/s) = 4.26484 6.17318 5.30552
#
# Compressibility (1/GPa) = 0.08080604
#
# Stress axis : x y z
#
# Youngs Moduli (GPa) = 23.84135 51.80651 26.83101
#
# Poissons Ratio (x) = 0.51891 -0.44097
# Poissons Ratio (y) = 0.23880 0.40982
# Poissons Ratio (z) = -0.39183 0.79130
#
# Static dielectric constant tensor:
#      x y z
#    x 3.113260 0.000000 -0.044600 
#    y 0.000000 3.304150 0.000000 
#    z -0.044600 0.000000 3.262450 
# 
# 
# High freq. dielectric constant tensor:
#      x y z
#    x 1.688040 0.000000 0.001270 
#    y 0.000000 1.696800 0.000000 
#    z 0.001270 0.000000 1.678910 
# 
# From -- ./inp_files/269474.got.cif
#   From: 2010.06.25/outbox.cif.g09.slc.cpg/sg12_135_cif.got.tgz:269474.got - 2010.06.28 00:19:55.
