data_PCOD8083755
_publ_section_title
;
Structure prediction by ZEFSAII (Michael W. Deem and Ramdas Pophale) SiO2 
 PCOD8083755
Probable space group: C 2/M
;
_chemical_formula_sum "Si O2"
_cell_formula_units_Z 64
_cell_length_a 20.664913
_cell_length_b 8.658271
_cell_length_c 21.694044
_cell_angle_alpha 90.000000
_cell_angle_beta 118.199801
_cell_angle_gamma 90.000000
_cell_volume 3420.830478
_symmetry_space_group_name_H-M "C 2/M"
_symmetry_group_IT_number 12
_symmetry_cell_setting 'monoclinic'
loop_
_space_group_symop_operation_xyz
x,y,z
-x,y,-z
-x,-y,-z
x,-y,z
1/2+x,1/2+y,z
1/2-x,1/2+y,-z
1/2-x,1/2-y,-z
1/2+x,1/2-y,z
loop_
_atom_site_type_symbol
_atom_site_label
_atom_site_fract_x
_atom_site_fract_y
_atom_site_fract_z
Si Si1 0.044883 0.179679 0.208252
Si Si2 0.905887 0.683346 0.572188
Si Si3 0.471139 0.680162 0.050635
Si Si4 0.327545 0.682189 0.053639
Si Si5 0.669681 0.182199 0.337037
Si Si6 0.828863 0.316250 0.412990
Si Si7 0.569740 0.182497 0.652144
Si Si8 0.595981 0.819648 0.799674
O O1 0.126297 0.234037 0.262153
O O2 0.032498 0.211450 0.130167
O O3 0.987888 0.279437 0.222204
O O4 0.032391 0.000000 0.217527
O O5 0.909331 0.500000 0.573332
O O6 0.861983 0.742769 0.612108
O O7 0.863746 0.741754 0.492628
O O8 0.987959 0.754203 0.610081
O O9 0.459345 0.500000 0.033855
O O10 0.392263 0.747735 0.037877
O O11 0.500000 0.758386 0.000000
O O12 0.323574 0.500000 0.047406
O O13 0.346329 0.727406 0.132351
O O14 0.250000 0.750000 0.000000
O O15 0.753183 0.229988 0.368920
O O16 0.660737 0.000000 0.325990
O O17 0.817209 0.500000 0.406339
O O18 0.881431 0.256955 0.382058
O O19 0.608352 0.228486 0.734054
O O20 0.561648 0.000000 0.644519
O O21 0.609229 0.000000 0.816241
#
# Coordination Sequence:
#
# PCOD8083755 Si02
#       8
#     8   8   8   8   8   8   8   8
#     4  10  19  33  56  82 105 136 181 222 259 311
#     4   9  17  32  56  80 100 135 181 223 262 316
#     4   8  16  33  56  80 103 130 170 218 259 303
#     4  10  20  35  56  82 111 141 179 219 264 313
#     4  11  21  35  53  75 110 144 175 215 270 323
#     4  10  20  34  54  79 106 135 178 227 268 311
#     4   9  17  32  55  81 104 135 179 223 265 314
#     4  10  18  33  57  81 108 141 179 218 266 319
#
# _framework density 18.708908000000001
#
# number of rings (size 3 to 8) (size 9 to 14) (size 15 to 20)
#    0.000    2.375    1.250    3.000    0.000    1.500 
#    2.250    1.875    0.000   13.500    0.000    0.000 
#    0.000    0.000    0.000    0.000    0.000    0.000 
#
# Total GULP energy -396771.211719 kJ/mol
# GULP energy per Si atom -12399.100366 kJ/mol
# Density = 1.866633 g / cm^3
# Si number density = 18.708908 Si / 1000 Ang^3
#
#
#
# Elastic Constant Matrix: (Units=GPa)
#
#
# Indices 1 2 3 4 5 6 
#
# 1 103.8137 13.5904 67.5262 0.0000 9.7739 0.0000
# 2 13.5904 35.9983 27.2298 0.0000 0.5526 0.0000
# 3 67.5262 27.2298 138.7605 0.0000 10.6035 0.0000
# 4 0.0000 0.0000 0.0000 25.8632 0.0000 5.5475
# 5 9.7739 0.5526 10.6035 0.0000 34.8844 0.0000
# 6 0.0000 0.0000 0.0000 5.5475 0.0000 24.9986
#
#
#
# Elastic Compliance Matrix: (Units=1/GPa)
#
#
# Indices 1 2 3 4 5 6 
#
# 1 0.014221 -0.000254 -0.006723 0.000000 -0.001937 0.000000
# 2 -0.000254 0.032699 -0.006408 0.000000 0.001501 0.000000
# 3 -0.006723 -0.006408 0.011859 0.000000 -0.001620 0.000000
# 4 0.000000 0.000000 0.000000 0.040597 0.000000 -0.009009
# 5 -0.001937 0.001501 -0.001620 0.000000 0.029677 0.000000
# 6 0.000000 0.000000 0.000000 -0.009009 0.000000 0.042002
#
#
# Mechanical properties :
#
#
# Convention : Reuss Voigt Hill
#
# Bulk Modulus (GPa) = 31.23977 55.02947 43.13462
# Shear Modulus (GPa) = 23.98143 28.49763 26.23953
#
# Velocity S-wave (km/s) = 3.58413 3.90707 3.74908
# Velocity P-wave (km/s) = 5.81911 7.05910 6.46889
#
# Compressibility (1/GPa) = 0.03201048
#
# Stress axis : x y z
#
# Youngs Moduli (GPa) = 70.31835 30.58202 84.32151
#
# Poissons Ratio (x) = 0.00777 0.56686
# Poissons Ratio (y) = 0.01786 0.54031
# Poissons Ratio (z) = 0.47272 0.19596
#
# Static dielectric constant tensor:
#      x y z
#    x 3.647630 0.000000 -0.143300 
#    y 0.000000 3.110510 0.000000 
#    z -0.143300 0.000000 3.658940 
# 
# 
# High freq. dielectric constant tensor:
#      x y z
#    x 1.719560 0.000000 0.001160 
#    y 0.000000 1.696560 0.000000 
#    z 0.001160 0.000000 1.740080 
# 
# From -- ./inp_files/320000.got.cif
#   From: 2010.06.25/outbox.cif.g09.slc.cpg/sg12_160_cif.got.tgz:320000.got - 2010.06.28 00:19:55.
