data_PCOD8083253
_publ_section_title
;
Structure prediction by ZEFSAII (Michael W. Deem and Ramdas Pophale) SiO2 
 PCOD8083253
Probable space group: C 2/M
;
_chemical_formula_sum "Si O2"
_cell_formula_units_Z 40
_cell_length_a 29.217238
_cell_length_b 8.624635
_cell_length_c 16.437796
_cell_angle_alpha 90.000000
_cell_angle_beta 28.283737
_cell_angle_gamma 90.000000
_cell_volume 1962.698568
_symmetry_space_group_name_H-M "C 2/M"
_symmetry_group_IT_number 12
_symmetry_cell_setting 'monoclinic'
loop_
_space_group_symop_operation_xyz
x,y,z
-x,y,-z
-x,-y,-z
x,-y,z
1/2+x,1/2+y,z
1/2-x,1/2+y,-z
1/2-x,1/2-y,-z
1/2+x,1/2-y,z
loop_
_atom_site_type_symbol
_atom_site_label
_atom_site_fract_x
_atom_site_fract_y
_atom_site_fract_z
Si Si1 0.699200 0.181746 0.501425
Si Si2 0.704816 0.316194 0.812350
Si Si3 0.507121 0.678858 0.191837
Si Si4 0.966096 0.178353 0.665129
Si Si5 0.857207 0.318641 0.700743
O O1 0.750000 0.250000 0.500000
O O2 0.750307 0.253887 0.340955
O O3 0.585924 0.218334 0.679757
O O4 0.714039 0.000000 0.479599
O O5 0.716174 0.500000 0.792966
O O6 0.763821 0.254689 0.798461
O O7 0.592238 0.269349 0.996764
O O8 0.478461 0.500000 0.223316
O O9 0.549853 0.706116 0.214767
O O10 0.869151 0.226082 0.767292
O O11 0.051355 0.288738 0.500712
O O12 0.992217 0.000000 0.606020
O O13 0.848686 0.500000 0.733231
#
# Coordination Sequence:
#
# PCOD8083253 Si02
#       5
#     8   8   8   8   8
#     4  11  23  42  64  86 113 146 188 236 289 343
#     4   9  20  38  60  84 114 153 192 229 279 345
#     4  10  21  39  61  85 115 152 191 232 282 340
#     4  10  19  31  52  83 117 149 187 235 282 322
#     4  10  18  32  55  80 112 155 197 226 268 336
#
# _framework density 20.380103999999999
#
# number of rings (size 3 to 8) (size 9 to 14) (size 15 to 20)
#    0.000    2.000    2.000    3.000    0.000    2.400 
#    0.000    8.000    0.000    0.000    0.000    0.000 
#    0.000    0.000    0.000    0.000    0.000    0.000 
#
# Total GULP energy -247969.023540 kJ/mol
# GULP energy per Si atom -12398.451177 kJ/mol
# Density = 2.033372 g / cm^3
# Si number density = 20.380104 Si / 1000 Ang^3
#
#
#
# Elastic Constant Matrix: (Units=GPa)
#
#
# Indices 1 2 3 4 5 6 
#
# 1 148.4581 33.2493 62.4150 0.0000 -0.8825 0.0000
# 2 33.2493 48.1571 14.7469 -0.0004 -0.0807 0.0001
# 3 62.4150 14.7469 108.6756 -0.0001 -11.8908 0.0001
# 4 0.0000 -0.0004 -0.0001 22.5676 0.0001 -1.6027
# 5 -0.8825 -0.0807 -11.8908 0.0001 15.0899 0.0000
# 6 0.0000 0.0001 0.0001 -1.6027 0.0000 34.7052
#
#
#
# Elastic Compliance Matrix: (Units=1/GPa)
#
#
# Indices 1 2 3 4 5 6 
#
# 1 0.010267 -0.005385 -0.005585 0.000000 -0.003829 0.000000
# 2 -0.005385 0.024570 -0.000286 0.000000 -0.000409 0.000000
# 3 -0.005585 -0.000286 0.013583 0.000000 0.010376 0.000000
# 4 0.000000 0.000000 0.000000 0.044457 0.000000 0.002053
# 5 -0.003829 -0.000409 0.010376 0.000000 0.074220 0.000000
# 6 0.000000 0.000000 0.000000 0.002053 0.000000 0.028909
#
#
# Mechanical properties :
#
#
# Convention : Reuss Voigt Hill
#
# Bulk Modulus (GPa) = 38.59712 58.45703 48.52708
# Shear Modulus (GPa) = 22.01142 27.46451 24.73796
#
# Velocity S-wave (km/s) = 3.28997 3.67497 3.48778
# Velocity P-wave (km/s) = 5.78028 6.83760 6.33105
#
# Compressibility (1/GPa) = 0.02590867
#
# Stress axis : x y z
#
# Youngs Moduli (GPa) = 97.39721 40.69960 73.61952
#
# Poissons Ratio (x) = 0.21917 0.41116
# Poissons Ratio (y) = 0.52448 0.02106
# Poissons Ratio (z) = 0.54396 0.01164
#
# Static dielectric constant tensor:
#      x y z
#    x 3.954370 0.000000 0.065410 
#    y 0.000000 3.555350 0.000000 
#    z 0.065410 0.000000 3.869690 
# 
# 
# High freq. dielectric constant tensor:
#      x y z
#    x 1.804240 0.000000 0.001230 
#    y 0.000000 1.775230 0.000000 
#    z 0.001230 0.000000 1.788660 
# 
# From -- ./inp_files/211251.got.cif
#   From: 2010.06.25/outbox.cif.g09.slc.cpg/sg12_106_cif.got.tgz:211251.got - 2010.06.28 00:19:55.
