data_PCOD8083068
_publ_section_title
;
Structure prediction by ZEFSAII (Michael W. Deem and Ramdas Pophale) SiO2 
 PCOD8083068
Probable space group: C 2/M
;
_chemical_formula_sum "Si O2"
_cell_formula_units_Z 64
_cell_length_a 25.504867
_cell_length_b 9.053456
_cell_length_c 16.344276
_cell_angle_alpha 90.000000
_cell_angle_beta 62.454392
_cell_angle_gamma 90.000000
_cell_volume 3346.200298
_symmetry_space_group_name_H-M "C 2/M"
_symmetry_group_IT_number 12
_symmetry_cell_setting 'monoclinic'
loop_
_space_group_symop_operation_xyz
x,y,z
-x,y,-z
-x,-y,-z
x,-y,z
1/2+x,1/2+y,z
1/2-x,1/2+y,-z
1/2-x,1/2-y,-z
1/2+x,1/2-y,z
loop_
_atom_site_type_symbol
_atom_site_label
_atom_site_fract_x
_atom_site_fract_y
_atom_site_fract_z
Si Si1 0.163958 0.672873 0.376492
Si Si2 0.116149 0.675233 0.105385
Si Si3 0.227679 0.825283 0.596916
Si Si4 0.332275 0.826109 0.100622
Si Si5 0.622516 0.827255 0.755806
Si Si6 0.544794 0.823645 0.537391
Si Si7 0.706625 0.826306 0.173948
Si Si8 0.492171 0.825885 0.258115
O O1 0.157838 0.500000 0.393516
O O2 0.226715 0.726060 0.366025
O O3 0.108741 0.743573 0.465307
O O4 0.163541 0.713635 0.281024
O O5 0.112390 0.500000 0.114543
O O6 0.171812 0.730823 0.119145
O O7 0.054580 0.743389 0.183296
O O8 0.126720 0.726213 0.004494
O O9 0.250000 0.750000 0.500000
O O10 0.163732 0.764368 0.665500
O O11 0.224612 0.000000 0.587771
O O12 0.366288 0.777951 0.158642
O O13 0.268694 0.753184 0.138628
O O14 0.322063 0.000000 0.105474
O O15 0.555822 0.788295 0.777308
O O16 0.635996 0.000000 0.733929
O O17 0.500000 0.768451 0.500000
O O18 0.526436 0.759913 0.639767
O O19 0.546066 0.000000 0.539886
O O20 0.719733 0.000000 0.161517
O O21 0.498922 0.000000 0.263195
#
# Coordination Sequence:
#
# PCOD8083068 Si02
#       8
#     8   8   8   8   8   8   8   8
#     4   9  17  28  45  71  99 128 162 202 251 302
#     4   9  18  31  50  76 103 134 175 223 270 310
#     4  11  21  34  52  75 104 136 173 214 255 307
#     4  10  20  33  50  76 107 137 173 217 265 316
#     4  10  20  34  52  74 105 140 174 214 259 313
#     4   9  15  24  41  67  98 127 159 205 257 303
#     4  10  18  32  53  76 103 134 173 219 265 316
#     4   9  17  30  48  72 102 135 172 217 264 311
#
# _framework density 19.126172
#
# number of rings (size 3 to 8) (size 9 to 14) (size 15 to 20)
#    0.000    2.375    1.250    2.250    0.000    5.500 
#    0.000    2.500    0.000    1.500    0.000    1.750 
#    0.000    5.000    0.000    0.000    0.000    0.000 
#
# Total GULP energy -396698.145585 kJ/mol
# GULP energy per Si atom -12396.817050 kJ/mol
# Density = 1.908264 g / cm^3
# Si number density = 19.126172 Si / 1000 Ang^3
#
#
#
# Elastic Constant Matrix: (Units=GPa)
#
#
# Indices 1 2 3 4 5 6 
#
# 1 129.8508 20.1182 69.9228 0.0000 1.3809 0.0000
# 2 20.1182 22.4253 19.6469 0.0000 2.4366 0.0000
# 3 69.9228 19.6469 145.7193 0.0000 5.4556 0.0000
# 4 0.0000 0.0000 0.0000 17.4944 0.0000 -1.9581
# 5 1.3809 2.4366 5.4556 0.0000 37.9932 0.0000
# 6 0.0000 0.0000 0.0000 -1.9581 0.0000 19.4406
#
#
#
# Elastic Compliance Matrix: (Units=1/GPa)
#
#
# Indices 1 2 3 4 5 6 
#
# 1 0.011062 -0.006035 -0.004518 0.000000 0.000634 0.000000
# 2 -0.006035 0.054054 -0.004294 0.000000 -0.002631 0.000000
# 3 -0.004518 -0.004294 0.009645 0.000000 -0.000945 0.000000
# 4 0.000000 0.000000 0.000000 0.057813 0.000000 0.005823
# 5 0.000634 -0.002631 -0.000945 0.000000 0.026602 0.000000
# 6 0.000000 0.000000 0.000000 0.005823 0.000000 0.052025
#
#
# Mechanical properties :
#
#
# Convention : Reuss Voigt Hill
#
# Bulk Modulus (GPa) = 22.18881 57.48567 39.83724
# Shear Modulus (GPa) = 19.53757 27.53949 23.53853
#
# Velocity S-wave (km/s) = 3.19957 3.79870 3.51194
# Velocity P-wave (km/s) = 5.02754 7.02577 6.10891
#
# Compressibility (1/GPa) = 0.04506777
#
# Stress axis : x y z
#
# Youngs Moduli (GPa) = 90.39599 18.50008 103.68151
#
# Poissons Ratio (x) = 0.11164 0.46847
# Poissons Ratio (y) = 0.54551 0.44518
# Poissons Ratio (z) = 0.40844 0.07943
#
# Static dielectric constant tensor:
#      x y z
#    x 4.720300 0.000000 -0.012220 
#    y 0.000000 2.965030 0.000000 
#    z -0.012220 0.000000 3.743730 
# 
# 
# High freq. dielectric constant tensor:
#      x y z
#    x 1.754430 0.000000 0.003170 
#    y 0.000000 1.679130 0.000000 
#    z 0.003170 0.000000 1.761400 
# 
# From -- ./inp_files/243830.got.cif
#   From: 2010.06.25/outbox.cif.g09.slc.cpg/sg12_122_cif.got.tgz:243830.got - 2010.06.28 00:19:55.
