data_PCOD8083978
_publ_section_title
;
Structure prediction by ZEFSAII (Michael W. Deem and Ramdas Pophale) SiO2 
 PCOD8083978
Probable space group: C 2/M
;
_chemical_formula_sum "Si O2"
_cell_formula_units_Z 44
_cell_length_a 27.213436
_cell_length_b 11.755666
_cell_length_c 11.256299
_cell_angle_alpha 90.000000
_cell_angle_beta 45.451198
_cell_angle_gamma 90.000000
_cell_volume 2566.282549
_symmetry_space_group_name_H-M "C 2/M"
_symmetry_group_IT_number 12
_symmetry_cell_setting 'monoclinic'
loop_
_space_group_symop_operation_xyz
x,y,z
-x,y,-z
-x,-y,-z
x,-y,z
1/2+x,1/2+y,z
1/2-x,1/2+y,-z
1/2-x,1/2-y,-z
1/2+x,1/2-y,z
loop_
_atom_site_type_symbol
_atom_site_label
_atom_site_fract_x
_atom_site_fract_y
_atom_site_fract_z
Si Si1 0.616581 0.500000 0.579133
Si Si2 0.125998 0.225184 0.418949
Si Si3 0.159131 0.000000 0.771310
Si Si4 0.044400 0.000000 0.149622
Si Si5 0.386916 0.296034 0.835176
Si Si6 0.001806 0.625671 0.356278
Si Si7 0.738760 0.627714 0.812147
O O1 0.639728 0.611815 0.469917
O O2 0.657325 0.500000 0.633743
O O3 0.535805 0.500000 0.741047
O O4 0.115066 0.187907 0.302438
O O5 0.060092 0.292919 0.582490
O O6 0.190182 0.308760 0.325128
O O7 0.200010 0.887746 0.750522
O O8 0.082802 0.000000 0.957881
O O9 0.064776 0.892971 0.194013
O O10 0.423946 0.177248 0.807130
O O11 0.309623 0.299558 0.017344
O O12 0.994447 0.500000 0.311272
O O13 0.000000 0.615573 0.500000
O O14 0.750790 0.500000 0.846237
#
# Coordination Sequence:
#
# PCOD8083978 Si02
#       7
#     4   8   4   4   8   8   8
#     4  12  22  32  55  85 103 137 183 228 262 300
#     4  11  21  31  53  83 111 133 173 217 273 316
#     4   8  21  38  56  74  98 144 193 213 259 308
#     4  10  18  36  57  79 108 135 171 225 269 318
#     4  10  18  34  54  80 109 139 167 216 268 331
#     4   9  18  31  49  76 108 139 167 202 259 328
#     4   9  20  38  55  70 106 147 179 212 267 315
#
# _framework density 17.145423999999998
#
# number of rings (size 3 to 8) (size 9 to 14) (size 15 to 20)
#    0.545    1.636    2.727    1.909    0.000    2.182 
#    1.636    0.000    0.000    0.000    0.000    5.091 
#    0.000    0.000    0.000    0.000    0.000    0.000 
#
# Total GULP energy -272682.934498 kJ/mol
# GULP energy per Si atom -12394.678841 kJ/mol
# Density = 1.710640 g / cm^3
# Si number density = 17.145424 Si / 1000 Ang^3
#
#
#
# Elastic Constant Matrix: (Units=GPa)
#
#
# Indices 1 2 3 4 5 6 
#
# 1 59.4451 34.3747 40.3845 0.0000 5.9635 0.0000
# 2 34.3747 119.9157 51.7549 0.0000 -3.2170 0.0000
# 3 40.3845 51.7549 79.8760 0.0000 -11.9804 0.0000
# 4 0.0000 0.0000 0.0000 22.3609 0.0000 -14.2712
# 5 5.9635 -3.2170 -11.9804 0.0000 31.0358 0.0000
# 6 0.0000 0.0000 0.0000 -14.2712 0.0000 14.7367
#
#
#
# Elastic Compliance Matrix: (Units=1/GPa)
#
#
# Indices 1 2 3 4 5 6 
#
# 1 0.029748 -0.002201 -0.015397 0.000000 -0.011888 0.000000
# 2 -0.002201 0.011835 -0.006696 0.000000 -0.000935 0.000000
# 3 -0.015397 -0.006696 0.026517 0.000000 0.012501 0.000000
# 4 0.000000 0.000000 0.000000 0.117088 0.000000 0.113389
# 5 -0.011888 -0.000935 0.012501 0.000000 0.039234 0.000000
# 6 0.000000 0.000000 0.000000 0.113389 0.000000 0.177664
#
#
# Mechanical properties :
#
#
# Convention : Reuss Voigt Hill
#
# Bulk Modulus (GPa) = 51.24944 56.91833 54.08389
# Shear Modulus (GPa) = 10.93668 22.47487 16.70578
#
# Velocity S-wave (km/s) = 2.52836 3.62448 3.12486
# Velocity P-wave (km/s) = 6.20318 7.12638 6.68074
#
# Compressibility (1/GPa) = 0.01951241
#
# Stress axis : x y z
#
# Youngs Moduli (GPa) = 33.61611 84.49596 37.71126
#
# Poissons Ratio (x) = 0.18598 0.58064
# Poissons Ratio (y) = 0.07399 0.25250
# Poissons Ratio (z) = 0.51758 0.56576
#
# Static dielectric constant tensor:
#      x y z
#    x 3.058220 0.000000 -0.198500 
#    y 0.000000 3.398820 0.000000 
#    z -0.198500 0.000000 3.048670 
# 
# 
# High freq. dielectric constant tensor:
#      x y z
#    x 1.649300 0.000000 -0.023810 
#    y 0.000000 1.664310 0.000000 
#    z -0.023810 0.000000 1.646060 
# 
# From -- ./inp_files/188242.got.cif
#   From: 2010.06.25/outbox.cif.g09.slc.cpg/sg12_95_cif.got.tgz:188242.got - 2010.06.28 00:19:55.
