data_PCOD8083995
_publ_section_title
;
Structure prediction by ZEFSAII (Michael W. Deem and Ramdas Pophale) SiO2 
 PCOD8083995
Probable space group: C 2/M
;
_chemical_formula_sum "Si O2"
_cell_formula_units_Z 64
_cell_length_a 20.018976
_cell_length_b 9.025882
_cell_length_c 24.386977
_cell_angle_alpha 90.000000
_cell_angle_beta 53.620026
_cell_angle_gamma 90.000000
_cell_volume 3547.643172
_symmetry_space_group_name_H-M "C 2/M"
_symmetry_group_IT_number 12
_symmetry_cell_setting 'monoclinic'
loop_
_space_group_symop_operation_xyz
x,y,z
-x,y,-z
-x,-y,-z
x,-y,z
1/2+x,1/2+y,z
1/2-x,1/2+y,-z
1/2-x,1/2-y,-z
1/2+x,1/2-y,z
loop_
_atom_site_type_symbol
_atom_site_label
_atom_site_fract_x
_atom_site_fract_y
_atom_site_fract_z
Si Si1 0.048487 0.824770 0.424535
Si Si2 0.648290 0.673970 0.178117
Si Si3 0.266373 0.325885 0.687121
Si Si4 0.499081 0.326013 0.330857
Si Si5 0.459016 0.829943 0.851834
Si Si6 0.607159 0.829139 0.699859
Si Si7 0.541928 0.828689 0.922299
Si Si8 0.785168 0.175742 0.176509
O O1 0.145157 0.782809 0.381608
O O2 0.009604 0.761563 0.387040
O O3 0.000000 0.754605 0.500000
O O4 0.037659 0.000000 0.429644
O O5 0.665365 0.500000 0.167571
O O6 0.580490 0.718307 0.256817
O O7 0.615423 0.728340 0.134828
O O8 0.733456 0.757094 0.150906
O O9 0.260746 0.500000 0.704868
O O10 0.198471 0.280957 0.674859
O O11 0.253266 0.235222 0.748637
O O12 0.487576 0.500000 0.337155
O O13 0.416885 0.258264 0.343465
O O14 0.544744 0.790612 0.779533
O O15 0.473385 0.796155 0.908869
O O16 0.434138 0.000000 0.853862
O O17 0.604336 0.000000 0.685740
O O18 0.620103 0.724060 0.875511
O O19 0.570827 0.000000 0.905072
O O20 0.500000 0.789353 0.000000
O O21 0.779328 0.000000 0.178223
#
# Coordination Sequence:
#
# PCOD8083995 Si02
#       8
#     8   8   8   8   8   8   8   8
#     4   9  17  31  53  78 103 137 181 224 265 315
#     4  10  19  33  54  79 107 140 180 223 270 317
#     4  10  18  34  55  77 105 139 183 224 265 319
#     4   9  17  30  50  75 104 135 171 220 265 313
#     4   9  17  32  53  80 109 136 173 218 268 319
#     4   9  17  29  50  75 103 136 169 216 264 313
#     4  10  21  39  61  82 110 147 180 215 267 327
#     4  12  23  34  54  83 112 141 180 228 270 313
#
# _framework density 18.040144999999999
#
# number of rings (size 3 to 8) (size 9 to 14) (size 15 to 20)
#    0.000    2.250    2.500    1.500    0.000    1.750 
#    0.000    1.250    0.000    1.500    0.000    0.000 
#    0.000    0.000    0.000    0.000    0.000    0.000 
#
# Total GULP energy -396829.721901 kJ/mol
# GULP energy per Si atom -12400.928809 kJ/mol
# Density = 1.799908 g / cm^3
# Si number density = 18.040145 Si / 1000 Ang^3
#
#
#
# Elastic Constant Matrix: (Units=GPa)
#
#
# Indices 1 2 3 4 5 6 
#
# 1 116.0370 37.7962 21.6435 0.0004 14.1239 -0.0003
# 2 37.7962 61.4328 18.2620 0.0003 -0.3585 -0.0002
# 3 21.6435 18.2620 56.4470 0.0005 12.4993 -0.0003
# 4 0.0004 0.0003 0.0005 9.5599 -0.0002 4.5687
# 5 14.1239 -0.3585 12.4993 -0.0002 27.0092 0.0000
# 6 -0.0003 -0.0002 -0.0003 4.5687 0.0000 32.6019
#
#
#
# Elastic Compliance Matrix: (Units=1/GPa)
#
#
# Indices 1 2 3 4 5 6 
#
# 1 0.011784 -0.006996 -0.000969 0.000000 -0.005807 0.000000
# 2 -0.006996 0.022426 -0.006071 0.000000 0.006766 0.000000
# 3 -0.000969 -0.006071 0.022236 -0.000001 -0.009864 0.000000
# 4 0.000000 0.000000 -0.000001 0.112112 0.000001 -0.015711
# 5 -0.005807 0.006766 -0.009864 0.000001 0.044716 0.000000
# 6 0.000000 0.000000 0.000000 -0.015711 0.000000 0.032875
#
#
# Mechanical properties :
#
#
# Convention : Reuss Voigt Hill
#
# Bulk Modulus (GPa) = 35.24402 43.25779 39.25091
# Shear Modulus (GPa) = 17.62553 24.24854 20.93703
#
# Velocity S-wave (km/s) = 3.12912 3.67023 3.41042
# Velocity P-wave (km/s) = 5.71262 6.48008 6.10842
#
# Compressibility (1/GPa) = 0.02837360
#
# Stress axis : x y z
#
# Youngs Moduli (GPa) = 84.85878 44.59017 44.97247
#
# Poissons Ratio (x) = 0.31195 0.04359
# Poissons Ratio (y) = 0.59367 0.27304
# Poissons Ratio (z) = 0.08225 0.27072
#
# Static dielectric constant tensor:
#      x y z
#    x 3.608370 0.000000 0.116470 
#    y 0.000000 3.151040 0.000000 
#    z 0.116470 0.000000 3.236850 
# 
# 
# High freq. dielectric constant tensor:
#      x y z
#    x 1.716080 0.000000 0.008460 
#    y 0.000000 1.679850 0.000000 
#    z 0.008460 0.000000 1.668580 
# 
# From -- ./inp_files/345928.got.cif
#   From: 2010.06.25/outbox.cif.g09.slc.cpg/sg12_173_cif.got.tgz:345928.got - 2010.06.28 00:19:55.
