data_PCOD8083966
_publ_section_title
;
Structure prediction by ZEFSAII (Michael W. Deem and Ramdas Pophale) SiO2 
 PCOD8083966
Probable space group: C 2/M
;
_chemical_formula_sum "Si O2"
_cell_formula_units_Z 40
_cell_length_a 22.828531
_cell_length_b 12.978721
_cell_length_c 18.070144
_cell_angle_alpha 90.000000
_cell_angle_beta 154.680610
_cell_angle_gamma 90.000000
_cell_volume 2289.675644
_symmetry_space_group_name_H-M "C 2/M"
_symmetry_group_IT_number 12
_symmetry_cell_setting 'monoclinic'
loop_
_space_group_symop_operation_xyz
x,y,z
-x,y,-z
-x,-y,-z
x,-y,z
1/2+x,1/2+y,z
1/2-x,1/2+y,-z
1/2-x,1/2-y,-z
1/2+x,1/2-y,z
loop_
_atom_site_type_symbol
_atom_site_label
_atom_site_fract_x
_atom_site_fract_y
_atom_site_fract_z
Si Si1 0.835641 0.184237 0.992331
Si Si2 0.348275 0.121520 0.352397
Si Si3 0.624879 0.383529 0.363155
Si Si4 0.142386 0.310964 0.476430
Si Si5 0.853892 0.615184 0.096647
O O1 0.831542 0.307004 0.002949
O O2 0.991191 0.145776 0.162807
O O3 0.760848 0.161651 0.830853
O O4 0.767674 0.123964 0.982920
O O5 0.500000 0.151811 0.500000
O O6 0.311600 0.179739 0.386318
O O7 0.333627 0.000000 0.347144
O O8 0.617049 0.500000 0.383864
O O9 0.754774 0.372698 0.458457
O O10 0.638148 0.309457 0.449558
O O11 0.993829 0.362064 0.299609
O O12 0.854713 0.500000 0.064833
#
# Coordination Sequence:
#
# PCOD8083966 Si02
#       5
#     8   8   8   8   8
#     4  10  21  32  51  79 104 132 173 214 256 304
#     4  11  20  33  53  77 106 135 168 217 262 301
#     4  10  20  36  54  77 107 137 171 215 257 299
#     4  10  21  34  55  80 103 137 177 208 252 316
#     4  10  18  34  54  73 101 139 176 209 247 305
#
# _framework density 17.469722000000001
#
# number of rings (size 3 to 8) (size 9 to 14) (size 15 to 20)
#    0.000    1.800    2.000    3.600    0.000    0.800 
#    0.000    3.000    0.000    1.200    0.000    8.400 
#    0.000    0.000    0.000    0.000    0.000    0.000 
#
# Total GULP energy -248074.698469 kJ/mol
# GULP energy per Si atom -12403.734923 kJ/mol
# Density = 1.742996 g / cm^3
# Si number density = 17.469722 Si / 1000 Ang^3
#
#
#
# Elastic Constant Matrix: (Units=GPa)
#
#
# Indices 1 2 3 4 5 6 
#
# 1 59.8940 41.6653 21.2771 0.0000 -16.7717 0.0000
# 2 41.6653 143.0935 25.7490 0.0000 -12.9986 0.0000
# 3 21.2771 25.7490 68.7067 0.0000 -11.1303 0.0000
# 4 0.0000 0.0000 0.0000 15.5117 0.0001 1.1665
# 5 -16.7717 -12.9986 -11.1303 0.0001 31.7380 0.0000
# 6 0.0000 0.0000 0.0000 1.1665 0.0000 16.2165
#
#
#
# Elastic Compliance Matrix: (Units=1/GPa)
#
#
# Indices 1 2 3 4 5 6 
#
# 1 0.024628 -0.005602 -0.004019 0.000000 0.009311 0.000000
# 2 -0.005602 0.008917 -0.001585 0.000000 0.000136 0.000000
# 3 -0.004019 -0.001585 0.016904 0.000000 0.003155 0.000000
# 4 0.000000 0.000000 0.000000 0.064818 0.000000 -0.004662
# 5 0.009311 0.000136 0.003155 0.000000 0.037590 0.000000
# 6 0.000000 0.000000 0.000000 -0.004662 0.000000 0.062001
#
#
# Mechanical properties :
#
#
# Convention : Reuss Voigt Hill
#
# Bulk Modulus (GPa) = 35.66657 49.89743 42.78200
# Shear Modulus (GPa) = 20.27433 24.89343 22.58388
#
# Velocity S-wave (km/s) = 3.41037 3.77894 3.59938
# Velocity P-wave (km/s) = 5.99733 6.90397 6.46656
#
# Compressibility (1/GPa) = 0.02803746
#
# Stress axis : x y z
#
# Youngs Moduli (GPa) = 40.60376 112.14285 59.15624
#
# Poissons Ratio (x) = 0.62824 0.23775
# Poissons Ratio (y) = 0.22747 0.09376
# Poissons Ratio (z) = 0.16319 0.17774
#
# Static dielectric constant tensor:
#      x y z
#    x 3.109820 0.000000 0.187340 
#    y 0.000000 3.388510 0.000000 
#    z 0.187340 0.000000 3.329950 
# 
# 
# High freq. dielectric constant tensor:
#      x y z
#    x 1.660510 0.000000 0.019620 
#    y 0.000000 1.679160 0.000000 
#    z 0.019620 0.000000 1.680960 
# 
# From -- ./inp_files/59096.got.cif
#   From: 2010.06.25/outbox.cif.g09.slc.cpg/sg12_30_cif.got.tgz:59096.got - 2010.06.28 00:19:55.
