data_PCOD8083247
_publ_section_title
;
Structure prediction by ZEFSAII (Michael W. Deem and Ramdas Pophale) SiO2 
 PCOD8083247
Probable space group: C 2/M
;
_chemical_formula_sum "Si O2"
_cell_formula_units_Z 48
_cell_length_a 18.298085
_cell_length_b 8.924307
_cell_length_c 17.892343
_cell_angle_alpha 90.000000
_cell_angle_beta 60.386833
_cell_angle_gamma 90.000000
_cell_volume 2540.140269
_symmetry_space_group_name_H-M "C 2/M"
_symmetry_group_IT_number 12
_symmetry_cell_setting 'monoclinic'
loop_
_space_group_symop_operation_xyz
x,y,z
-x,y,-z
-x,-y,-z
x,-y,z
1/2+x,1/2+y,z
1/2-x,1/2+y,-z
1/2-x,1/2-y,-z
1/2+x,1/2-y,z
loop_
_atom_site_type_symbol
_atom_site_label
_atom_site_fract_x
_atom_site_fract_y
_atom_site_fract_z
Si Si1 0.417352 0.176239 0.243649
Si Si2 0.751456 0.324255 0.419187
Si Si3 0.911235 0.670035 0.769205
Si Si4 0.747795 0.823291 0.845858
Si Si5 0.818241 0.672044 0.676043
Si Si6 0.084508 0.176184 0.915523
O O1 0.338781 0.218060 0.335283
O O2 0.499263 0.229297 0.249261
O O3 0.420155 0.267797 0.166536
O O4 0.418639 0.000000 0.224865
O O5 0.736888 0.500000 0.434526
O O6 0.750000 0.250000 0.500000
O O7 0.675816 0.252002 0.407658
O O8 0.897379 0.500000 0.802407
O O9 0.832831 0.764707 0.844188
O O10 0.905042 0.681228 0.680741
O O11 0.748282 0.764910 0.759095
O O12 0.661768 0.753540 0.922134
O O13 0.743995 0.000000 0.851526
O O14 0.789486 0.500000 0.680741
O O15 0.098763 0.000000 0.909642
O O16 0.000000 0.224509 0.000000
#
# Coordination Sequence:
#
# PCOD8083247 Si02
#       6
#     8   8   8   8   8   8
#     4  10  20  37  59  84 111 143 187 232 275 328
#     4  11  22  35  56  84 113 147 187 230 275 331
#     4   8  17  33  56  81 108 144 180 223 279 331
#     4  10  18  32  55  80 106 142 182 219 269 331
#     4   9  17  33  56  77 105 143 179 221 275 326
#     4  11  23  37  56  83 113 147 187 229 276 328
#
# _framework density 18.896594
#
# number of rings (size 3 to 8) (size 9 to 14) (size 15 to 20)
#    1.000    1.167    1.667    2.500    0.000    2.667 
#    0.000    1.667    0.000    5.000    0.000    0.000 
#    0.000    0.000    0.000    0.000    0.000    0.000 
#
# Total GULP energy -297352.692649 kJ/mol
# GULP energy per Si atom -12389.695527 kJ/mol
# Density = 1.885358 g / cm^3
# Si number density = 18.896594 Si / 1000 Ang^3
#
#
#
# Elastic Constant Matrix: (Units=GPa)
#
#
# Indices 1 2 3 4 5 6 
#
# 1 90.7377 27.5475 18.5518 0.0000 -7.0098 -0.0001
# 2 27.5475 96.3895 29.9253 -0.0001 -5.9021 -0.0004
# 3 18.5518 29.9253 61.8932 0.0000 -7.3313 0.0000
# 4 0.0000 -0.0001 0.0000 25.9048 0.0000 2.8965
# 5 -7.0098 -5.9021 -7.3313 0.0000 13.3967 0.0000
# 6 -0.0001 -0.0004 0.0000 2.8965 0.0000 26.3221
#
#
#
# Elastic Compliance Matrix: (Units=1/GPa)
#
#
# Indices 1 2 3 4 5 6 
#
# 1 0.012579 -0.002728 -0.001940 0.000000 0.004319 0.000000
# 2 -0.002728 0.012865 -0.005240 0.000000 0.001373 0.000000
# 3 -0.001940 -0.005240 0.020187 0.000000 0.007724 0.000000
# 4 0.000000 0.000000 0.000000 0.039084 0.000000 -0.004301
# 5 0.004319 0.001373 0.007724 0.000000 0.081736 0.000000
# 6 0.000000 0.000000 0.000000 -0.004301 0.000000 0.038464
#
#
# Mechanical properties :
#
#
# Convention : Reuss Voigt Hill
#
# Bulk Modulus (GPa) = 38.73727 44.56330 41.65028
# Shear Modulus (GPa) = 21.42828 24.65778 23.04303
#
# Velocity S-wave (km/s) = 3.37111 3.61623 3.49582
# Velocity P-wave (km/s) = 5.97466 6.40859 6.19543
#
# Compressibility (1/GPa) = 0.02581493
#
# Stress axis : x y z
#
# Youngs Moduli (GPa) = 79.49541 77.72911 49.53776
#
# Poissons Ratio (x) = 0.21208 0.09609
# Poissons Ratio (y) = 0.21690 0.25957
# Poissons Ratio (z) = 0.15421 0.40729
#
# Static dielectric constant tensor:
#      x y z
#    x 3.701720 0.000000 -0.042900 
#    y 0.000000 3.415300 0.000000 
#    z -0.042900 0.000000 3.195760 
# 
# 
# High freq. dielectric constant tensor:
#      x y z
#    x 1.742000 0.000000 0.002350 
#    y 0.000000 1.741650 0.000000 
#    z 0.002350 0.000000 1.694800 
# 
# From -- ./inp_files/274047.got.cif
#   From: 2010.06.25/outbox.cif.g09.slc.cpg/sg12_138_cif.got.tgz:274047.got - 2010.06.28 00:19:55.
