data_PCOD8083033
_publ_section_title
;
Structure prediction by ZEFSAII (Michael W. Deem and Ramdas Pophale) SiO2 
 PCOD8083033
Probable space group: C 2/M
;
_chemical_formula_sum "Si O2"
_cell_formula_units_Z 56
_cell_length_a 28.563067
_cell_length_b 9.002499
_cell_length_c 17.817272
_cell_angle_alpha 90.000000
_cell_angle_beta 43.316829
_cell_angle_gamma 90.000000
_cell_volume 3143.066419
_symmetry_space_group_name_H-M "C 2/M"
_symmetry_group_IT_number 12
_symmetry_cell_setting 'monoclinic'
loop_
_space_group_symop_operation_xyz
x,y,z
-x,y,-z
-x,-y,-z
x,-y,z
1/2+x,1/2+y,z
1/2-x,1/2+y,-z
1/2-x,1/2-y,-z
1/2+x,1/2-y,z
loop_
_atom_site_type_symbol
_atom_site_label
_atom_site_fract_x
_atom_site_fract_y
_atom_site_fract_z
Si Si1 0.317758 0.324308 0.632720
Si Si2 0.575798 0.826621 0.383544
Si Si3 0.959286 0.675873 0.736827
Si Si4 0.064891 0.677108 0.072576
Si Si5 0.888027 0.325027 0.418742
Si Si6 0.664583 0.823111 0.829850
Si Si7 0.086404 0.675657 0.776951
O O1 0.322161 0.500000 0.623779
O O2 0.370167 0.266628 0.633250
O O3 0.332589 0.260424 0.532921
O O4 0.242429 0.269397 0.744053
O O5 0.500000 0.791824 0.500000
O O6 0.581388 0.773416 0.290038
O O7 0.592736 0.000000 0.373654
O O8 0.963237 0.500000 0.734371
O O9 0.922658 0.733205 0.855995
O O10 0.037348 0.731762 0.642345
O O11 0.064885 0.500000 0.070749
O O12 0.991260 0.736655 0.130283
O O13 0.124152 0.740106 0.949557
O O14 0.879646 0.500000 0.442159
O O15 0.877150 0.282142 0.344144
O O16 0.629454 0.756742 0.795638
O O17 0.660625 0.000000 0.832464
O O18 0.082897 0.500000 0.788188
#
# Coordination Sequence:
#
# PCOD8083033 Si02
#       7
#     8   8   8   8   8   8   8
#     4  11  22  31  42  67 104 132 151 180 233 294
#     4  10  18  32  53  70  89 118 158 201 234 268
#     4   8  14  26  47  72  88 109 152 203 239 262
#     4   8  13  24  45  69  93 119 154 196 234 269
#     4   9  16  30  49  70  93 119 158 200 231 265
#     4   9  17  28  40  64 102 132 149 184 237 279
#     4   8  14  25  47  71  89 118 163 201 227 264
#
# _framework density 17.816996
#
# number of rings (size 3 to 8) (size 9 to 14) (size 15 to 20)
#    0.000    3.000    1.429    2.571    0.000    2.571 
#    0.000    0.714    0.000    0.857    0.000    9.000 
#    0.000    9.143    0.000    0.000    0.000    0.000 
#
# Total GULP energy -347008.031433 kJ/mol
# GULP energy per Si atom -12393.143980 kJ/mol
# Density = 1.777644 g / cm^3
# Si number density = 17.816996 Si / 1000 Ang^3
#
#
#
# Elastic Constant Matrix: (Units=GPa)
#
#
# Indices 1 2 3 4 5 6 
#
# 1 103.0121 24.6709 85.6955 -0.0061 14.7027 0.0008
# 2 24.6709 26.1368 32.3621 -0.0061 -0.4069 0.0043
# 3 85.6955 32.3621 162.0353 0.0045 11.1467 0.0008
# 4 -0.0061 -0.0061 0.0045 14.7022 -0.0010 0.4008
# 5 14.7027 -0.4069 11.1467 -0.0010 27.5934 -0.0002
# 6 0.0008 0.0043 0.0008 0.4008 -0.0002 13.0425
#
#
#
# Elastic Compliance Matrix: (Units=1/GPa)
#
#
# Indices 1 2 3 4 5 6 
#
# 1 0.019552 -0.008479 -0.008148 0.000007 -0.007251 0.000002
# 2 -0.008479 0.055184 -0.007101 0.000022 0.008201 -0.000018
# 3 -0.008148 -0.007101 0.011939 -0.000010 -0.000586 0.000002
# 4 0.000007 0.000022 -0.000010 0.068074 0.000003 -0.002092
# 5 -0.007251 0.008201 -0.000586 0.000003 0.040462 -0.000002
# 6 0.000002 -0.000018 0.000002 -0.002092 -0.000002 0.076736
#
#
# Mechanical properties :
#
#
# Convention : Reuss Voigt Hill
#
# Bulk Modulus (GPa) = 25.49836 64.07125 44.78481
# Shear Modulus (GPa) = 15.03863 20.96468 18.00166
#
# Velocity S-wave (km/s) = 2.90842 3.43398 3.18207
# Velocity P-wave (km/s) = 5.06171 7.19457 6.22024
#
# Compressibility (1/GPa) = 0.03921820
#
# Stress axis : x y z
#
# Youngs Moduli (GPa) = 51.14691 18.12111 83.75743
#
# Poissons Ratio (x) = 0.15366 0.68244
# Poissons Ratio (y) = 0.43369 0.59478
# Poissons Ratio (z) = 0.41674 0.12868
#
# Static dielectric constant tensor:
#      x y z
#    x 3.567540 -0.000010 0.296760 
#    y -0.000010 2.701700 0.000020 
#    z 0.296760 0.000020 3.628920 
# 
# 
# High freq. dielectric constant tensor:
#      x y z
#    x 1.690280 0.000000 0.018670 
#    y 0.000000 1.625790 0.000000 
#    z 0.018670 0.000000 1.694270 
# 
# From -- ./inp_files/295051.got.cif
#   From: 2010.06.25/outbox.cif.g09.slc.cpg/sg12_148_cif.got.tgz:295051.got - 2010.06.28 00:19:55.
