data_PCOD8083775
_publ_section_title
;
Structure prediction by ZEFSAII (Michael W. Deem and Ramdas Pophale) SiO2 
 PCOD8083775
Probable space group: C 2/M
;
_chemical_formula_sum "Si O2"
_cell_formula_units_Z 56
_cell_length_a 31.272168
_cell_length_b 13.764216
_cell_length_c 9.692968
_cell_angle_alpha 90.000000
_cell_angle_beta 134.267491
_cell_angle_gamma 90.000000
_cell_volume 2987.673848
_symmetry_space_group_name_H-M "C 2/M"
_symmetry_group_IT_number 12
_symmetry_cell_setting 'monoclinic'
loop_
_space_group_symop_operation_xyz
x,y,z
-x,y,-z
-x,-y,-z
x,-y,z
1/2+x,1/2+y,z
1/2-x,1/2+y,-z
1/2-x,1/2-y,-z
1/2+x,1/2-y,z
loop_
_atom_site_type_symbol
_atom_site_label
_atom_site_fract_x
_atom_site_fract_y
_atom_site_fract_z
Si Si1 0.902123 0.207051 0.527092
Si Si2 0.874256 0.885679 0.185817
Si Si3 0.445530 0.890713 0.977312
Si Si4 0.854177 0.388466 0.536522
Si Si5 0.123970 0.114626 0.244988
Si Si6 0.458893 0.297491 0.157901
Si Si7 0.279370 0.613288 0.749323
O O1 0.867409 0.158906 0.321812
O O2 0.890224 0.323246 0.506271
O O3 0.874257 0.163700 0.603086
O O4 0.971368 0.182286 0.669633
O O5 0.928469 0.832833 0.229690
O O6 0.888213 0.000000 0.223400
O O7 0.812200 0.864511 0.967796
O O8 0.384131 0.880454 0.754543
O O9 0.453775 0.000000 0.053128
O O10 0.500000 0.861859 0.000000
O O11 0.445178 0.817160 0.105022
O O12 0.855632 0.500000 0.486750
O O13 0.787384 0.344364 0.398341
O O14 0.181024 0.155079 0.287523
O O15 0.125352 0.000000 0.266068
O O16 0.064246 0.142889 0.026797
O O17 0.273779 0.500000 0.711114
#
# Coordination Sequence:
#
# PCOD8083775 Si02
#       7
#     8   8   8   8   8   8   8
#     4  12  22  33  55  85 111 142 187 228 270 329
#     4  10  23  40  56  77 114 153 183 224 274 324
#     4  10  18  33  57  85 112 139 179 233 283 320
#     4  10  20  36  60  83 109 144 181 227 281 327
#     4  10  20  34  54  81 112 142 183 233 271 318
#     4  11  20  36  53  82 111 145 187 220 273 333
#     4   8  18  38  58  77 107 147 184 221 273 330
#
# _framework density 18.743677999999999
#
# number of rings (size 3 to 8) (size 9 to 14) (size 15 to 20)
#    0.000    1.857    2.857    2.571    0.000    4.571 
#    0.000    0.714    0.000    1.714    0.000    0.000 
#    0.000    0.000    0.000    0.000    0.000    0.000 
#
# Total GULP energy -347205.647721 kJ/mol
# GULP energy per Si atom -12400.201704 kJ/mol
# Density = 1.870102 g / cm^3
# Si number density = 18.743678 Si / 1000 Ang^3
#
#
#
# Elastic Constant Matrix: (Units=GPa)
#
#
# Indices 1 2 3 4 5 6 
#
# 1 77.2306 27.4941 55.3210 0.0000 3.3334 0.0000
# 2 27.4941 85.3882 26.9602 0.0000 -6.3736 0.0000
# 3 55.3210 26.9602 96.5364 0.0000 -1.3182 0.0000
# 4 0.0000 0.0000 0.0000 25.8124 0.0000 -1.1015
# 5 3.3334 -6.3736 -1.3182 0.0000 40.2589 0.0000
# 6 0.0000 0.0000 0.0000 -1.1015 0.0000 25.3869
#
#
#
# Elastic Compliance Matrix: (Units=1/GPa)
#
#
# Indices 1 2 3 4 5 6 
#
# 1 0.023238 -0.003821 -0.012290 0.000000 -0.002931 0.000000
# 2 -0.003821 0.013622 -0.001581 0.000000 0.002421 0.000000
# 3 -0.012290 -0.001581 0.017862 0.000000 0.001352 0.000000
# 4 0.000000 0.000000 0.000000 0.038813 0.000000 0.001684
# 5 -0.002931 0.002421 0.001352 0.000000 0.025510 0.000000
# 6 0.000000 0.000000 0.000000 0.001684 0.000000 0.039463
#
#
# Mechanical properties :
#
#
# Convention : Reuss Voigt Hill
#
# Bulk Modulus (GPa) = 51.71416 53.18954 52.45185
# Shear Modulus (GPa) = 24.95782 28.25030 26.60406
#
# Velocity S-wave (km/s) = 3.65298 3.88647 3.77153
# Velocity P-wave (km/s) = 6.74110 6.96982 6.85641
#
# Compressibility (1/GPa) = 0.01933706
#
# Stress axis : x y z
#
# Youngs Moduli (GPa) = 43.03217 73.41292 55.98556
#
# Poissons Ratio (x) = 0.28051 0.68806
# Poissons Ratio (y) = 0.16443 0.08854
# Poissons Ratio (z) = 0.52886 0.11610
#
# Static dielectric constant tensor:
#      x y z
#    x 3.469600 0.000000 0.218940 
#    y 0.000000 3.567190 0.000000 
#    z 0.218940 0.000000 3.475830 
# 
# 
# High freq. dielectric constant tensor:
#      x y z
#    x 1.710910 0.000000 0.015970 
#    y 0.000000 1.731850 0.000000 
#    z 0.015970 0.000000 1.724380 
# 
# From -- ./inp_files/86341.got.cif
#   From: 2010.06.25/outbox.cif.g09.slc.cpg/sg12_44_cif.got.tgz:86341.got - 2010.06.28 00:19:55.
