data_PCOD8083840
_publ_section_title
;
Structure prediction by ZEFSAII (Michael W. Deem and Ramdas Pophale) SiO2 
 PCOD8083840
Probable space group: C 2/M
;
_chemical_formula_sum "Si O2"
_cell_formula_units_Z 64
_cell_length_a 16.371761
_cell_length_b 17.391747
_cell_length_c 25.171135
_cell_angle_alpha 90.000000
_cell_angle_beta 27.982253
_cell_angle_gamma 90.000000
_cell_volume 3362.773414
_symmetry_space_group_name_H-M "C 2/M"
_symmetry_group_IT_number 12
_symmetry_cell_setting 'monoclinic'
loop_
_space_group_symop_operation_xyz
x,y,z
-x,y,-z
-x,-y,-z
x,-y,z
1/2+x,1/2+y,z
1/2-x,1/2+y,-z
1/2-x,1/2-y,-z
1/2+x,1/2-y,z
loop_
_atom_site_type_symbol
_atom_site_label
_atom_site_fract_x
_atom_site_fract_y
_atom_site_fract_z
Si Si1 0.646428 0.088681 0.850711
Si Si2 0.393323 0.312152 0.651045
Si Si3 0.140045 0.711302 0.228414
Si Si4 0.102496 0.913847 0.887409
Si Si5 0.266205 0.219824 0.431962
Si Si6 0.507002 0.588460 0.162979
Si Si7 0.307400 0.819350 0.619701
Si Si8 0.783891 0.656635 0.081428
O O1 0.773718 0.112093 0.728499
O O2 0.738797 0.099248 0.855152
O O3 0.591705 0.000000 0.874499
O O4 0.477776 0.145090 0.946264
O O5 0.402235 0.274702 0.703685
O O6 0.593548 0.332281 0.518095
O O7 0.306523 0.255272 0.658462
O O8 0.235144 0.642524 0.203488
O O9 0.252999 0.754270 0.117423
O O10 0.952935 0.677991 0.315115
O O11 0.974843 0.896582 0.910865
O O12 0.176817 0.000000 0.839177
O O13 0.000000 0.902447 0.000000
O O14 0.250000 0.250000 0.500000
O O15 0.269311 0.294462 0.392697
O O16 0.536555 0.500000 0.160866
O O17 0.310555 0.612427 0.290209
O O18 0.647156 0.638797 0.113651
O O19 0.500000 0.853122 0.500000
#
# Coordination Sequence:
#
# PCOD8083840 Si02
#       8
#     8   8   8   8   8   8   8   8
#     4  10  20  36  56  83 120 150 182 239 303 349
#     4   9  19  33  55  79 110 145 191 227 287 345
#     4  10  18  33  59  81 110 146 196 232 279 345
#     4  10  23  40  57  80 120 161 189 235 294 350
#     4   9  18  34  55  81 107 144 189 242 281 336
#     4  11  21  37  59  87 118 151 195 242 300 352
#     4  10  19  35  56  82 114 148 190 243 291 339
#     4  10  20  34  59  88 113 147 187 243 295 349
#
# _framework density 19.03191
#
# number of rings (size 3 to 8) (size 9 to 14) (size 15 to 20)
#    0.000    2.125    2.500    1.500    3.500    0.250 
#    2.250    1.875    0.000    3.375    0.000    0.000 
#    0.000    0.000    0.000    0.000    0.000    0.000 
#
# Total GULP energy -396534.125471 kJ/mol
# GULP energy per Si atom -12391.691421 kJ/mol
# Density = 1.898859 g / cm^3
# Si number density = 19.031910 Si / 1000 Ang^3
#
#
#
# Elastic Constant Matrix: (Units=GPa)
#
#
# Indices 1 2 3 4 5 6 
#
# 1 102.2876 28.6701 29.0630 0.0020 -8.0734 -0.0001
# 2 28.6701 61.8915 34.4533 0.0005 -8.0181 -0.0007
# 3 29.0630 34.4533 87.1847 0.0505 -11.1296 -0.0060
# 4 0.0020 0.0005 0.0505 15.2247 -0.0059 0.8271
# 5 -8.0734 -8.0181 -11.1296 -0.0059 30.9466 -0.0025
# 6 -0.0001 -0.0007 -0.0060 0.8271 -0.0025 21.3924
#
#
#
# Elastic Compliance Matrix: (Units=1/GPa)
#
#
# Indices 1 2 3 4 5 6 
#
# 1 0.011606 -0.004040 -0.002117 0.000006 0.001220 -0.000001
# 2 -0.004040 0.022313 -0.007198 0.000025 0.002139 -0.000002
# 3 -0.002117 -0.007198 0.015419 -0.000050 0.003128 0.000006
# 4 0.000006 0.000025 -0.000050 0.065821 0.000002 -0.002545
# 5 0.001220 0.002139 0.003128 0.000002 0.034311 0.000005
# 6 -0.000001 -0.000002 0.000006 -0.002545 0.000005 0.046844
#
#
# Mechanical properties :
#
#
# Convention : Reuss Voigt Hill
#
# Bulk Modulus (GPa) = 44.19053 48.41518 46.30286
# Shear Modulus (GPa) = 21.68572 24.12457 22.90515
#
# Velocity S-wave (km/s) = 3.37922 3.56418 3.47293
# Velocity P-wave (km/s) = 6.20444 6.51399 6.36110
#
# Compressibility (1/GPa) = 0.02262928
#
# Stress axis : x y z
#
# Youngs Moduli (GPa) = 86.15878 44.81771 64.85408
#
# Poissons Ratio (x) = 0.18107 0.13728
# Poissons Ratio (y) = 0.34809 0.46680
# Poissons Ratio (z) = 0.18238 0.32258
#
# Static dielectric constant tensor:
#      x y z
#    x 3.655710 0.000010 -0.097540 
#    y 0.000010 3.193170 0.000040 
#    z -0.097540 0.000040 3.924980 
# 
# 
# High freq. dielectric constant tensor:
#      x y z
#    x 1.747080 0.000000 -0.003280 
#    y 0.000000 1.699560 0.000000 
#    z -0.003280 0.000000 1.744490 
# 
# From -- ./inp_files/340791.got.cif
#   From: 2010.06.25/outbox.cif.g09.slc.cpg/sg12_171_cif.got.tgz:340791.got - 2010.06.28 00:19:55.
