data_PCOD8083730
_publ_section_title
;
Structure prediction by ZEFSAII (Michael W. Deem and Ramdas Pophale) SiO2 
 PCOD8083730
Probable space group: C 2/M
;
_chemical_formula_sum "Si O2"
_cell_formula_units_Z 48
_cell_length_a 17.798298
_cell_length_b 18.361828
_cell_length_c 14.146061
_cell_angle_alpha 90.000000
_cell_angle_beta 28.883562
_cell_angle_gamma 90.000000
_cell_volume 2233.084178
_symmetry_space_group_name_H-M "C 2/M"
_symmetry_group_IT_number 12
_symmetry_cell_setting 'monoclinic'
loop_
_space_group_symop_operation_xyz
x,y,z
-x,y,-z
-x,-y,-z
x,-y,z
1/2+x,1/2+y,z
1/2-x,1/2+y,-z
1/2-x,1/2-y,-z
1/2+x,1/2-y,z
loop_
_atom_site_type_symbol
_atom_site_label
_atom_site_fract_x
_atom_site_fract_y
_atom_site_fract_z
Si Si1 0.526496 0.419655 0.173554
Si Si2 0.637973 0.253364 0.474446
Si Si3 0.377655 0.704140 0.060734
Si Si4 0.558804 0.863598 0.037796
Si Si5 0.586185 0.622698 0.314000
Si Si6 0.200325 0.641909 0.556039
O O1 0.564742 0.500000 0.090644
O O2 0.552373 0.422202 0.257161
O O3 0.343469 0.403885 0.356808
O O4 0.638603 0.358902 0.001343
O O5 0.717567 0.229054 0.287595
O O6 0.473915 0.293371 0.633202
O O7 0.745791 0.308301 0.414969
O O8 0.616161 0.182738 0.562223
O O9 0.454825 0.775960 0.929942
O O10 0.500000 0.670181 0.000000
O O11 0.733912 0.886621 0.861644
O O12 0.500000 0.886950 0.000000
O O13 0.443217 0.903462 0.240288
O O14 0.500000 0.588177 0.500000
#
# Coordination Sequence:
#
# PCOD8083730 Si02
#       6
#     8   8   8   8   8   8
#     4  11  25  40  58  86 127 176 213 239 287 369
#     4  10  18  33  56  92 122 149 189 254 316 351
#     4  11  18  35  61  93 125 154 196 251 308 365
#     4  11  19  35  62  95 118 146 196 267 335 361
#     4  11  22  38  61  93 125 154 199 263 320 367
#     4  10  18  34  58  82 123 157 198 249 295 361
#
# _framework density 21.494935000000002
#
# number of rings (size 3 to 8) (size 9 to 14) (size 15 to 20)
#    0.000    1.333    6.667    3.000    0.000    3.333 
#    0.000    0.833    0.000    2.000    0.000    3.500 
#    0.000    0.000    0.000    0.000    0.000    0.000 
#
# Total GULP energy -297349.318358 kJ/mol
# GULP energy per Si atom -12389.554932 kJ/mol
# Density = 2.144601 g / cm^3
# Si number density = 21.494935 Si / 1000 Ang^3
#
#
#
# Elastic Constant Matrix: (Units=GPa)
#
#
# Indices 1 2 3 4 5 6 
#
# 1 53.2927 -2.4520 15.8568 -0.0026 -3.5200 0.0023
# 2 -2.4520 51.0499 9.7929 0.0004 7.5096 -0.0006
# 3 15.8568 9.7929 104.3352 0.0064 -9.3289 -0.0032
# 4 -0.0026 0.0004 0.0064 15.8399 0.0005 1.3767
# 5 -3.5200 7.5096 -9.3289 0.0005 38.5493 -0.0016
# 6 0.0023 -0.0006 -0.0032 1.3767 -0.0016 10.6159
#
#
#
# Elastic Compliance Matrix: (Units=1/GPa)
#
#
# Indices 1 2 3 4 5 6 
#
# 1 0.019796 0.001424 -0.003072 0.000005 0.000787 -0.000006
# 2 0.001424 0.020821 -0.002578 0.000001 -0.004550 -0.000001
# 3 -0.003072 -0.002578 0.010541 -0.000005 0.002773 0.000005
# 4 0.000005 0.000001 -0.000005 0.063851 -0.000002 -0.008280
# 5 0.000787 -0.004550 0.002773 -0.000002 0.027570 0.000005
# 6 -0.000006 -0.000001 0.000005 -0.008280 0.000005 0.095272
#
#
# Mechanical properties :
#
#
# Convention : Reuss Voigt Hill
#
# Bulk Modulus (GPa) = 23.41496 28.34146 25.87821
# Shear Modulus (GPa) = 19.19110 25.36637 22.27874
#
# Velocity S-wave (km/s) = 2.99125 3.43900 3.22291
# Velocity P-wave (km/s) = 4.77985 5.38356 5.09067
#
# Compressibility (1/GPa) = 0.04270774
#
# Stress axis : x y z
#
# Youngs Moduli (GPa) = 50.51573 48.02887 94.86602
#
# Poissons Ratio (x) = -0.06841 0.29142
# Poissons Ratio (y) = -0.07195 0.24452
# Poissons Ratio (z) = 0.15518 0.12380
#
# Static dielectric constant tensor:
#      x y z
#    x 3.990220 -0.000010 0.142620 
#    y -0.000010 3.351940 0.000000 
#    z 0.142620 0.000000 3.945680 
# 
# 
# High freq. dielectric constant tensor:
#      x y z
#    x 1.842230 0.000000 0.009430 
#    y 0.000000 1.783790 0.000000 
#    z 0.009430 0.000000 1.850960 
# 
# From -- ./inp_files/226747.got.cif
#   From: 2010.06.25/outbox.cif.g09.slc.cpg/sg12_114_cif.got.tgz:226747.got - 2010.06.28 00:19:55.
