data_PCOD8083999
_publ_section_title
;
Structure prediction by ZEFSAII (Michael W. Deem and Ramdas Pophale) SiO2 
 PCOD8083999
Probable space group: C 2/M
;
_chemical_formula_sum "Si O2"
_cell_formula_units_Z 40
_cell_length_a 9.082136
_cell_length_b 19.694860
_cell_length_c 24.388416
_cell_angle_alpha 90.000000
_cell_angle_beta 146.856366
_cell_angle_gamma 90.000000
_cell_volume 2385.092141
_symmetry_space_group_name_H-M "C 2/M"
_symmetry_group_IT_number 12
_symmetry_cell_setting 'monoclinic'
loop_
_space_group_symop_operation_xyz
x,y,z
-x,y,-z
-x,-y,-z
x,-y,z
1/2+x,1/2+y,z
1/2-x,1/2+y,-z
1/2-x,1/2-y,-z
1/2+x,1/2-y,z
loop_
_atom_site_type_symbol
_atom_site_label
_atom_site_fract_x
_atom_site_fract_y
_atom_site_fract_z
Si Si1 0.642256 0.920620 0.599401
Si Si2 0.187987 0.579644 0.395657
Si Si3 0.959501 0.312540 0.737157
Si Si4 0.400438 0.680403 0.270089
Si Si5 0.044876 0.734995 0.074397
O O1 0.500000 0.894761 0.500000
O O2 0.464302 0.899784 0.596140
O O3 0.932835 0.886691 0.690164
O O4 0.694569 0.000000 0.614127
O O5 0.500000 0.600166 0.500000
O O6 0.159571 0.500000 0.373733
O O7 0.049303 0.619433 0.302062
O O8 0.720709 0.316784 0.706832
O O9 0.914770 0.247592 0.682898
O O10 0.252442 0.301077 0.858235
O O11 0.161780 0.676819 0.150579
O O12 0.750000 0.750000 0.000000
O O13 0.000000 0.706140 0.000000
#
# Coordination Sequence:
#
# PCOD8083999 Si02
#       5
#     8   8   8   8   8
#     4  10  21  37  56  78 109 145 178 215 265 320
#     4  10  21  37  56  78 109 145 177 216 266 319
#     4  10  20  33  55  84 107 140 178 221 264 314
#     4  10  20  33  55  84 107 140 177 223 262 315
#     4  10  18  34  55  80 107 138 175 219 270 316
#
# _framework density 16.770841000000001
#
# number of rings (size 3 to 8) (size 9 to 14) (size 15 to 20)
#    1.200    0.800    2.000    2.400    2.800    3.200 
#    0.000    4.000    0.000    2.400    0.000    0.000 
#    0.000    0.000    0.000    0.000    0.000    0.000 
#
# Total GULP energy -247796.791605 kJ/mol
# GULP energy per Si atom -12389.839580 kJ/mol
# Density = 1.673267 g / cm^3
# Si number density = 16.770841 Si / 1000 Ang^3
#
#
#
# Elastic Constant Matrix: (Units=GPa)
#
#
# Indices 1 2 3 4 5 6 
#
# 1 165.8666 47.1946 52.2520 -0.0005 4.2254 -0.0013
# 2 47.1946 46.9640 38.6497 -0.0016 -2.5012 -0.0005
# 3 52.2520 38.6497 95.9227 0.0003 4.8378 -0.0013
# 4 -0.0005 -0.0016 0.0003 14.8226 -0.0005 4.0098
# 5 4.2254 -2.5012 4.8378 -0.0005 38.7488 -0.0009
# 6 -0.0013 -0.0005 -0.0013 4.0098 -0.0009 29.5507
#
#
#
# Elastic Compliance Matrix: (Units=1/GPa)
#
#
# Indices 1 2 3 4 5 6 
#
# 1 0.008704 -0.007421 -0.001690 -0.000001 -0.001217 0.000000
# 2 -0.007421 0.038714 -0.011798 0.000004 0.004781 -0.000001
# 3 -0.001690 -0.011798 0.016230 -0.000002 -0.002604 0.000001
# 4 -0.000001 0.000004 -0.000002 0.070036 0.000001 -0.009503
# 5 -0.001217 0.004781 -0.002604 0.000001 0.026574 0.000001
# 6 0.000000 -0.000001 0.000001 -0.009503 0.000001 0.035130
#
#
# Mechanical properties :
#
#
# Convention : Reuss Voigt Hill
#
# Bulk Modulus (GPa) = 45.80508 64.99399 55.39953
# Shear Modulus (GPa) = 20.45158 28.00155 24.22656
#
# Velocity S-wave (km/s) = 3.49588 4.09058 3.80487
# Velocity P-wave (km/s) = 6.60807 7.81976 7.23931
#
# Compressibility (1/GPa) = 0.02183164
#
# Stress axis : x y z
#
# Youngs Moduli (GPa) = 114.89377 25.83074 61.61259
#
# Poissons Ratio (x) = 0.19168 0.10411
# Poissons Ratio (y) = 0.85258 0.72688
# Poissons Ratio (z) = 0.19415 0.30474
#
# Static dielectric constant tensor:
#      x y z
#    x 3.214950 0.000000 0.035280 
#    y 0.000000 2.904800 0.000000 
#    z 0.035280 0.000000 3.063870 
# 
# 
# High freq. dielectric constant tensor:
#      x y z
#    x 1.672890 0.000000 0.003080 
#    y 0.000000 1.618820 0.000000 
#    z 0.003080 0.000000 1.639020 
# 
# From -- ./inp_files/196262.got.cif
#   From: 2010.06.25/outbox.cif.g09.slc.cpg/sg12_99_cif.got.tgz:196262.got - 2010.06.28 00:19:55.
