data_PCOD8083673
_publ_section_title
;
Structure prediction by ZEFSAII (Michael W. Deem and Ramdas Pophale) SiO2 
 PCOD8083673
Probable space group: C 2/M
;
_chemical_formula_sum "Si O2"
_cell_formula_units_Z 56
_cell_length_a 20.614986
_cell_length_b 9.265272
_cell_length_c 22.250136
_cell_angle_alpha 90.000000
_cell_angle_beta 132.165932
_cell_angle_gamma 90.000000
_cell_volume 3150.007337
_symmetry_space_group_name_H-M "C 2/M"
_symmetry_group_IT_number 12
_symmetry_cell_setting 'monoclinic'
loop_
_space_group_symop_operation_xyz
x,y,z
-x,y,-z
-x,-y,-z
x,-y,z
1/2+x,1/2+y,z
1/2-x,1/2+y,-z
1/2-x,1/2-y,-z
1/2+x,1/2-y,z
loop_
_atom_site_type_symbol
_atom_site_label
_atom_site_fract_x
_atom_site_fract_y
_atom_site_fract_z
Si Si1 0.235986 0.168802 0.818652
Si Si2 0.435530 0.166744 0.263091
Si Si3 0.876017 0.664316 0.581940
Si Si4 0.985157 0.669898 0.162590
Si Si5 0.822980 0.670410 0.749062
Si Si6 0.311646 0.169329 0.992248
Si Si7 0.760172 0.832211 0.600707
O O1 0.143380 0.247438 0.756133
O O2 0.295025 0.212598 0.798785
O O3 0.216553 0.000000 0.807902
O O4 0.288950 0.218149 0.910717
O O5 0.520014 0.188391 0.358335
O O6 0.456807 0.230686 0.210100
O O7 0.408030 0.000000 0.241389
O O8 0.855811 0.500000 0.590358
O O9 0.838266 0.770816 0.608500
O O10 0.832657 0.694580 0.490183
O O11 0.995405 0.500000 0.174800
O O12 0.912282 0.712480 0.067958
O O13 0.078856 0.731978 0.200150
O O14 0.816813 0.500000 0.734388
O O15 0.757401 0.748982 0.662137
O O16 0.297107 0.000000 0.992822
O O17 0.250000 0.250000 0.000000
O O18 0.777819 0.000000 0.623132
#
# Coordination Sequence:
#
# PCOD8083673 Si02
#       7
#     8   8   8   8   8   8   8
#     4  10  22  35  52  78 108 138 170 217 266 305
#     4  10  18  33  56  78 101 137 177 211 252 312
#     4   9  18  33  53  78 106 137 173 212 258 308
#     4   9  17  31  55  77  97 135 178 209 248 307
#     4  10  20  37  54  73 107 144 174 209 260 315
#     4  10  19  33  52  78 104 131 172 216 258 303
#     4  10  19  31  52  81 107 133 171 219 261 301
#
# _framework density 17.777736000000001
#
# number of rings (size 3 to 8) (size 9 to 14) (size 15 to 20)
#    0.000    2.286    2.857    0.429    0.000    2.286 
#    0.000    4.286    0.000    4.286    0.000    3.000 
#    0.000    0.000    0.000    0.000    0.000    0.000 
#
# Total GULP energy -347207.616750 kJ/mol
# GULP energy per Si atom -12400.272027 kJ/mol
# Density = 1.773727 g / cm^3
# Si number density = 17.777736 Si / 1000 Ang^3
#
#
#
# Elastic Constant Matrix: (Units=GPa)
#
#
# Indices 1 2 3 4 5 6 
#
# 1 111.8950 38.2008 60.3895 0.0000 -2.3548 0.0000
# 2 38.2008 44.4901 42.8853 0.0000 -4.4960 0.0000
# 3 60.3895 42.8853 135.3898 0.0000 -1.4290 0.0000
# 4 0.0000 0.0000 0.0000 26.3160 0.0000 -0.0210
# 5 -2.3548 -4.4960 -1.4290 0.0000 30.1359 0.0000
# 6 0.0000 0.0000 0.0000 -0.0210 0.0000 26.7671
#
#
#
# Elastic Compliance Matrix: (Units=1/GPa)
#
#
# Indices 1 2 3 4 5 6 
#
# 1 0.013667 -0.008481 -0.003413 0.000000 -0.000359 0.000000
# 2 -0.008481 0.038197 -0.008267 0.000000 0.004644 0.000000
# 3 -0.003413 -0.008267 0.011517 0.000000 -0.000954 0.000000
# 4 0.000000 0.000000 0.000000 0.038000 0.000000 0.000030
# 5 -0.000359 0.004644 -0.000954 0.000000 0.033803 0.000000
# 6 0.000000 0.000000 0.000000 0.000030 0.000000 0.037359
#
#
# Mechanical properties :
#
#
# Convention : Reuss Voigt Hill
#
# Bulk Modulus (GPa) = 43.36850 63.85844 53.61347
# Shear Modulus (GPa) = 22.67031 26.66375 24.66703
#
# Velocity S-wave (km/s) = 3.57488 3.87698 3.72899
# Velocity P-wave (km/s) = 6.44108 7.48597 6.98309
#
# Compressibility (1/GPa) = 0.02305821
#
# Stress axis : x y z
#
# Youngs Moduli (GPa) = 73.16889 26.17982 86.82613
#
# Poissons Ratio (x) = 0.22203 0.29638
# Poissons Ratio (y) = 0.62054 0.71782
# Poissons Ratio (z) = 0.24976 0.21644
#
# Static dielectric constant tensor:
#      x y z
#    x 3.198990 0.000000 0.080750 
#    y 0.000000 3.145310 0.000000 
#    z 0.080750 0.000000 3.620860 
# 
# 
# High freq. dielectric constant tensor:
#      x y z
#    x 1.668080 0.000000 0.007280 
#    y 0.000000 1.669880 0.000000 
#    z 0.007280 0.000000 1.702930 
# 
# From -- ./inp_files/275578.got.cif
#   From: 2010.06.25/outbox.cif.g09.slc.cpg/sg12_138_cif.got.tgz:275578.got - 2010.06.28 00:19:55.
