data_PCOD8083337
_publ_section_title
;
Structure prediction by ZEFSAII (Michael W. Deem and Ramdas Pophale) SiO2 
 PCOD8083337
Probable space group: C 2/M
;
_chemical_formula_sum "Si O2"
_cell_formula_units_Z 56
_cell_length_a 21.425800
_cell_length_b 8.776255
_cell_length_c 15.286598
_cell_angle_alpha 90.000000
_cell_angle_beta 91.965275
_cell_angle_gamma 90.000000
_cell_volume 2872.774886
_symmetry_space_group_name_H-M "C 2/M"
_symmetry_group_IT_number 12
_symmetry_cell_setting 'monoclinic'
loop_
_space_group_symop_operation_xyz
x,y,z
-x,y,-z
-x,-y,-z
x,-y,z
1/2+x,1/2+y,z
1/2-x,1/2+y,-z
1/2-x,1/2-y,-z
1/2+x,1/2-y,z
loop_
_atom_site_type_symbol
_atom_site_label
_atom_site_fract_x
_atom_site_fract_y
_atom_site_fract_z
Si Si1 0.590654 0.679825 0.439955
Si Si2 0.240690 0.676653 0.763184
Si Si3 0.433477 0.675264 0.021665
Si Si4 0.957610 0.179321 0.377308
Si Si5 0.614644 0.323834 0.791989
Si Si6 0.718858 0.821167 0.412886
Si Si7 0.196174 0.179035 0.057228
O O1 0.601095 0.500000 0.426051
O O2 0.527901 0.742433 0.390608
O O3 0.585890 0.720529 0.542384
O O4 0.647327 0.771190 0.400939
O O5 0.240892 0.500000 0.737901
O O6 0.176020 0.722996 0.805451
O O7 0.247892 0.771808 0.674931
O O8 0.293176 0.712424 0.839094
O O9 0.436546 0.500000 0.992435
O O10 0.427267 0.694030 0.124830
O O11 0.500000 0.754376 0.000000
O O12 0.372353 0.747349 0.970861
O O13 0.925662 0.245702 0.289510
O O14 0.964961 0.000000 0.371757
O O15 0.633178 0.500000 0.776336
O O16 0.750000 0.750000 0.500000
O O17 0.725296 0.000000 0.422713
O O18 0.197787 0.000000 0.036839
O O19 0.250000 0.250000 0.000000
#
# Coordination Sequence:
#
# PCOD8083337 Si02
#       7
#     8   8   8   8   8   8   8
#     4   9  17  34  55  79 113 147 187 233 284 342
#     4  11  23  37  57  85 115 153 197 241 295 354
#     4   9  18  32  53  83 115 148 193 247 294 342
#     4   8  16  30  54  82 107 146 190 232 280 340
#     4  10  18  32  56  82 110 149 198 243 287 342
#     4  12  25  40  58  83 116 151 191 239 291 344
#     4  10  20  36  59  85 115 152 194 244 295 348
#
# _framework density 19.493347
#
# number of rings (size 3 to 8) (size 9 to 14) (size 15 to 20)
#    0.000    2.143    1.429    3.429    0.000    2.857 
#    0.000    6.429    0.000    1.714    0.000    0.000 
#    0.000    0.000    0.000    0.000    0.000    0.000 
#
# Total GULP energy -347136.007480 kJ/mol
# GULP energy per Si atom -12397.714553 kJ/mol
# Density = 1.944898 g / cm^3
# Si number density = 19.493347 Si / 1000 Ang^3
#
#
#
# Elastic Constant Matrix: (Units=GPa)
#
#
# Indices 1 2 3 4 5 6 
#
# 1 134.4135 27.4621 52.5708 0.0000 2.2624 0.0000
# 2 27.4621 64.3226 31.0197 0.0000 0.0948 0.0000
# 3 52.5708 31.0197 109.5341 0.0000 14.5157 0.0000
# 4 0.0000 0.0000 0.0000 21.5539 0.0000 -2.8627
# 5 2.2624 0.0948 14.5157 0.0000 35.9590 0.0000
# 6 0.0000 0.0000 0.0000 -2.8627 0.0000 25.5111
#
#
#
# Elastic Compliance Matrix: (Units=1/GPa)
#
#
# Indices 1 2 3 4 5 6 
#
# 1 0.009442 -0.002061 -0.004089 0.000000 0.001062 0.000000
# 2 -0.002061 0.018611 -0.004535 0.000000 0.001911 0.000000
# 3 -0.004089 -0.004535 0.013038 0.000000 -0.004994 0.000000
# 4 0.000000 0.000000 0.000000 0.047097 0.000000 0.005285
# 5 0.001062 0.001911 -0.004994 0.000000 0.029754 0.000000
# 6 0.000000 0.000000 0.000000 0.005285 0.000000 0.039792
#
#
# Mechanical properties :
#
#
# Convention : Reuss Voigt Hill
#
# Bulk Modulus (GPa) = 50.70486 58.93060 54.81773
# Shear Modulus (GPa) = 26.92870 29.75264 28.34067
#
# Velocity S-wave (km/s) = 3.72079 3.91102 3.81709
# Velocity P-wave (km/s) = 6.67285 7.11980 6.89994
#
# Compressibility (1/GPa) = 0.01972197
#
# Stress axis : x y z
#
# Youngs Moduli (GPa) = 105.90848 53.73305 76.69920
#
# Poissons Ratio (x) = 0.11074 0.31361
# Poissons Ratio (y) = 0.21828 0.34779
# Poissons Ratio (z) = 0.43304 0.24365
#
# Static dielectric constant tensor:
#      x y z
#    x 4.014920 0.000000 0.431240 
#    y 0.000000 3.220310 0.000000 
#    z 0.431240 0.000000 3.922060 
# 
# 
# High freq. dielectric constant tensor:
#      x y z
#    x 1.770130 0.000000 0.008720 
#    y 0.000000 1.719480 0.000000 
#    z 0.008720 0.000000 1.767140 
# 
# From -- ./inp_files/231041.got.cif
#   From: 2010.06.25/outbox.cif.g09.slc.cpg/sg12_116_cif.got.tgz:231041.got - 2010.06.28 00:19:55.
