data_PCOD8083587
_publ_section_title
;
Structure prediction by ZEFSAII (Michael W. Deem and Ramdas Pophale) SiO2 
 PCOD8083587
Probable space group: C 2/M
;
_chemical_formula_sum "Si O2"
_cell_formula_units_Z 56
_cell_length_a 21.921884
_cell_length_b 18.162085
_cell_length_c 20.498544
_cell_angle_alpha 90.000000
_cell_angle_beta 161.329643
_cell_angle_gamma 90.000000
_cell_volume 2612.662577
_symmetry_space_group_name_H-M "C 2/M"
_symmetry_group_IT_number 12
_symmetry_cell_setting 'monoclinic'
loop_
_space_group_symop_operation_xyz
x,y,z
-x,y,-z
-x,-y,-z
x,-y,z
1/2+x,1/2+y,z
1/2-x,1/2+y,-z
1/2-x,1/2-y,-z
1/2+x,1/2-y,z
loop_
_atom_site_type_symbol
_atom_site_label
_atom_site_fract_x
_atom_site_fract_y
_atom_site_fract_z
Si Si1 0.481704 0.851004 0.409195
Si Si2 0.667303 0.080890 0.281442
Si Si3 0.360509 0.085478 0.555669
Si Si4 0.628529 0.851126 0.931010
Si Si5 0.981702 0.081467 0.711187
Si Si6 0.631248 0.730652 0.035858
Si Si7 0.256144 0.227437 0.712831
O O1 0.500000 0.886395 0.500000
O O2 0.596772 0.903628 0.477158
O O3 0.259045 0.844016 0.161048
O O4 0.563095 0.766904 0.493587
O O5 0.825008 0.083802 0.496570
O O6 0.724242 0.142651 0.287503
O O7 0.663749 0.000000 0.244488
O O8 0.458559 0.095317 0.101425
O O9 0.137172 0.104743 0.343964
O O10 0.399903 0.000000 0.615391
O O11 0.496165 0.141688 0.733040
O O12 0.631922 0.769669 0.965641
O O13 0.845059 0.865667 0.129705
O O14 0.068528 0.000000 0.807593
O O15 0.727770 0.777359 0.192801
O O16 0.414404 0.719261 0.839150
#
# Coordination Sequence:
#
# PCOD8083587 Si02
#       7
#     8   8   8   8   8   8   8
#     4  10  21  38  59  77 101 138 175 218 267 313
#     4   9  17  30  50  77 107 141 180 216 252 299
#     4  10  22  37  54  80 106 132 173 220 268 319
#     4  10  18  33  54  76 105 138 171 210 255 310
#     4   9  17  31  50  71 103 141 169 205 260 311
#     4   9  19  34  54  78 104 139 179 213 256 311
#     4   9  18  35  53  75 109 141 176 220 256 300
#
# _framework density 21.434073999999999
#
# number of rings (size 3 to 8) (size 9 to 14) (size 15 to 20)
#    0.000    2.571    0.000    3.000    0.000    2.000 
#    0.000   17.143    0.000    5.571    0.000    7.000 
#    0.000    0.000    0.000    0.000    0.000    0.000 
#
# Total GULP energy -346887.067556 kJ/mol
# GULP energy per Si atom -12388.823841 kJ/mol
# Density = 2.138529 g / cm^3
# Si number density = 21.434074 Si / 1000 Ang^3
#
#
#
# Elastic Constant Matrix: (Units=GPa)
#
#
# Indices 1 2 3 4 5 6 
#
# 1 112.7205 13.0303 22.1784 -0.0147 16.2033 -0.0288
# 2 13.0303 19.9269 0.3780 0.0527 4.9496 -0.0194
# 3 22.1784 0.3780 77.0015 -0.0177 24.2311 -0.0537
# 4 -0.0147 0.0527 -0.0177 11.3822 -0.0033 8.3142
# 5 16.2033 4.9496 24.2311 -0.0033 30.0937 -0.0050
# 6 -0.0288 -0.0194 -0.0537 8.3142 -0.0050 29.3496
#
#
#
# Elastic Compliance Matrix: (Units=1/GPa)
#
#
# Indices 1 2 3 4 5 6 
#
# 1 0.010394 -0.006020 -0.002029 0.000045 -0.002973 -0.000011
# 2 -0.006020 0.056436 0.004497 -0.000369 -0.009662 0.000143
# 3 -0.002029 0.004497 0.017999 -0.000028 -0.014140 0.000040
# 4 0.000045 -0.000369 -0.000028 0.110781 0.000066 -0.031382
# 5 -0.002973 -0.009662 -0.014140 0.000066 0.047804 -0.000046
# 6 -0.000011 0.000143 0.000040 -0.031382 -0.000046 0.042962
#
#
# Mechanical properties :
#
#
# Convention : Reuss Voigt Hill
#
# Bulk Modulus (GPa) = 12.86577 31.20249 22.03413
# Shear Modulus (GPa) = 15.65501 25.76925 20.71213
#
# Velocity S-wave (km/s) = 2.70549 3.47112 3.11194
# Velocity P-wave (km/s) = 3.97178 5.53660 4.81814
#
# Compressibility (1/GPa) = 0.07772562
#
# Stress axis : x y z
#
# Youngs Moduli (GPa) = 96.21048 17.71933 55.56014
#
# Poissons Ratio (x) = 0.10667 0.11271
# Poissons Ratio (y) = 0.57917 -0.24988
# Poissons Ratio (z) = 0.19518 -0.07969
#
# Static dielectric constant tensor:
#      x y z
#    x 3.991040 0.000000 0.291670 
#    y 0.000000 3.480620 -0.000130 
#    z 0.291670 -0.000130 3.976260 
# 
# 
# High freq. dielectric constant tensor:
#      x y z
#    x 1.847410 -0.000010 0.020020 
#    y -0.000010 1.798410 -0.000020 
#    z 0.020020 -0.000020 1.845020 
# 
# From -- ./inp_files/322737.got.cif
#   From: 2010.06.25/outbox.cif.g09.slc.cpg/sg12_162_cif.got.tgz:322737.got - 2010.06.28 00:19:55.
