data_PCOD8083878
_publ_section_title
;
Structure prediction by ZEFSAII (Michael W. Deem and Ramdas Pophale) SiO2 
 PCOD8083878
Probable space group: C 2/M
;
_chemical_formula_sum "Si O2"
_cell_formula_units_Z 40
_cell_length_a 21.285391
_cell_length_b 18.292955
_cell_length_c 13.326402
_cell_angle_alpha 90.000000
_cell_angle_beta 23.624272
_cell_angle_gamma 90.000000
_cell_volume 2079.400093
_symmetry_space_group_name_H-M "C 2/M"
_symmetry_group_IT_number 12
_symmetry_cell_setting 'monoclinic'
loop_
_space_group_symop_operation_xyz
x,y,z
-x,y,-z
-x,-y,-z
x,-y,z
1/2+x,1/2+y,z
1/2-x,1/2+y,-z
1/2-x,1/2-y,-z
1/2+x,1/2-y,z
loop_
_atom_site_type_symbol
_atom_site_label
_atom_site_fract_x
_atom_site_fract_y
_atom_site_fract_z
Si Si1 0.907819 0.157239 0.232035
Si Si2 0.062549 0.696157 0.700497
Si Si3 0.104448 0.417591 0.941550
Si Si4 0.040238 0.082305 0.641210
Si Si5 0.072362 0.775355 0.283616
O O1 0.954078 0.239419 0.194188
O O2 0.724711 0.153238 0.474757
O O3 0.957241 0.100097 0.244936
O O4 0.000000 0.131868 0.000000
O O5 0.044635 0.729307 0.615945
O O6 0.927522 0.636674 0.919059
O O7 0.059239 0.500000 0.038333
O O8 0.285030 0.409746 0.654009
O O9 0.000000 0.391987 0.000000
O O10 0.932532 0.138458 0.736428
O O11 0.975690 0.000000 0.719432
O O12 0.000000 0.761572 0.500000
O O13 0.250000 0.750000 0.000000
#
# Coordination Sequence:
#
# PCOD8083878 Si02
#       5
#     8   8   8   8   8
#     4  10  21  32  57  90 121 154 185 242 308 364
#     4  10  21  35  58  85 120 152 202 245 297 350
#     4  10  18  33  59  91 123 149 186 239 301 361
#     4  10  22  39  62  91 119 152 195 249 302 359
#     4  11  25  42  63  86 117 164 212 253 288 345
#
# _framework density 19.236317
#
# number of rings (size 3 to 8) (size 9 to 14) (size 15 to 20)
#    0.000    1.800    2.000    1.800   11.200    0.800 
#    0.000    1.000    0.000    1.200    0.000    0.000 
#    0.000    0.000    0.000    0.000    0.000    0.000 
#
# Total GULP energy -248002.961182 kJ/mol
# GULP energy per Si atom -12400.148059 kJ/mol
# Density = 1.919253 g / cm^3
# Si number density = 19.236317 Si / 1000 Ang^3
#
#
#
# Elastic Constant Matrix: (Units=GPa)
#
#
# Indices 1 2 3 4 5 6 
#
# 1 86.2858 38.7709 36.7323 -0.0006 20.0548 -0.0002
# 2 38.7709 121.9833 54.9232 0.0017 11.1217 0.0008
# 3 36.7323 54.9232 93.9621 0.0007 19.6291 0.0005
# 4 -0.0006 0.0017 0.0007 28.6571 0.0007 -3.5511
# 5 20.0548 11.1217 19.6291 0.0007 37.3560 0.0000
# 6 -0.0002 0.0008 0.0005 -3.5511 0.0000 23.7019
#
#
#
# Elastic Compliance Matrix: (Units=1/GPa)
#
#
# Indices 1 2 3 4 5 6 
#
# 1 0.015641 -0.003033 -0.003118 0.000001 -0.005855 0.000000
# 2 -0.003033 0.011715 -0.005924 -0.000001 0.001253 0.000000
# 3 -0.003118 -0.005924 0.016407 0.000000 -0.005184 0.000000
# 4 0.000001 -0.000001 0.000000 0.035555 -0.000001 0.005327
# 5 -0.005855 0.001253 -0.005184 -0.000001 0.032264 0.000000
# 6 0.000000 0.000000 0.000000 0.005327 0.000000 0.042989
#
#
# Mechanical properties :
#
#
# Convention : Reuss Voigt Hill
#
# Bulk Modulus (GPa) = 50.98857 62.56487 56.77672
# Shear Modulus (GPa) = 26.98940 29.39664 28.19302
#
# Velocity S-wave (km/s) = 3.74979 3.91344 3.83249
# Velocity P-wave (km/s) = 6.73141 7.28114 7.01166
#
# Compressibility (1/GPa) = 0.01961224
#
# Stress axis : x y z
#
# Youngs Moduli (GPa) = 63.93579 85.36201 60.94998
#
# Poissons Ratio (x) = 0.25894 0.19005
# Poissons Ratio (y) = 0.19395 0.36104
# Poissons Ratio (z) = 0.19936 0.50565
#
# Static dielectric constant tensor:
#      x y z
#    x 3.622840 0.000010 -0.072310 
#    y 0.000010 3.662770 0.000000 
#    z -0.072310 0.000000 3.490860 
# 
# 
# High freq. dielectric constant tensor:
#      x y z
#    x 1.740340 0.000000 0.002510 
#    y 0.000000 1.749190 0.000000 
#    z 0.002510 0.000000 1.744870 
# 
# From -- ./inp_files/98991.got.cif
#   From: 2010.06.25/outbox.cif.g09.slc.cpg/sg12_50_cif.got.tgz:98991.got - 2010.06.28 00:19:55.
