data_PCOD8083555
_publ_section_title
;
Structure prediction by ZEFSAII (Michael W. Deem and Ramdas Pophale) SiO2 
 PCOD8083555
Probable space group: C 2/M
;
_chemical_formula_sum "Si O2"
_cell_formula_units_Z 64
_cell_length_a 24.863929
_cell_length_b 13.941097
_cell_length_c 15.865593
_cell_angle_alpha 90.000000
_cell_angle_beta 140.100822
_cell_angle_gamma 90.000000
_cell_volume 3527.590166
_symmetry_space_group_name_H-M "C 2/M"
_symmetry_group_IT_number 12
_symmetry_cell_setting 'monoclinic'
loop_
_space_group_symop_operation_xyz
x,y,z
-x,y,-z
-x,-y,-z
x,-y,z
1/2+x,1/2+y,z
1/2-x,1/2+y,-z
1/2-x,1/2-y,-z
1/2+x,1/2-y,z
loop_
_atom_site_type_symbol
_atom_site_label
_atom_site_fract_x
_atom_site_fract_y
_atom_site_fract_z
Si Si1 0.376789 0.609361 0.336862
Si Si2 0.138037 0.793294 0.510935
Si Si3 0.949349 0.611527 0.193101
Si Si4 0.440933 0.270358 0.751771
Si Si5 0.978235 0.710932 0.387738
Si Si6 0.935572 0.893417 0.998718
Si Si7 0.176393 0.243070 0.229751
Si Si8 0.689845 0.891504 0.106616
O O1 0.406236 0.500000 0.352577
O O2 0.370094 0.620602 0.430869
O O3 0.438427 0.684808 0.364839
O O4 0.284368 0.631607 0.190382
O O5 0.116036 0.824857 0.388085
O O6 0.227376 0.739109 0.624195
O O7 0.067100 0.717644 0.448844
O O8 0.974266 0.500000 0.225764
O O9 0.026062 0.668642 0.242826
O O10 0.923977 0.649176 0.256797
O O11 0.866147 0.632086 0.040741
O O12 0.521541 0.335310 0.872900
O O13 0.383112 0.248994 0.761690
O O14 0.000000 0.653948 0.500000
O O15 0.914182 0.000000 0.005794
O O16 0.848950 0.847241 0.859900
O O17 0.000000 0.897346 0.000000
O O18 0.159620 0.335322 0.152451
O O19 0.681387 0.000000 0.125953
#
# Coordination Sequence:
#
# PCOD8083555 Si02
#       8
#     8   8   8   8   8   8   8   8
#     4   9  18  34  56  80 106 135 170 219 276 327
#     4   9  19  32  51  79 109 139 176 219 266 314
#     4  10  20  34  52  76 105 136 174 220 264 313
#     4  10  19  33  52  79 108 147 184 214 261 310
#     4   9  19  35  53  76 100 138 175 213 270 325
#     4   9  18  32  51  74 102 143 186 219 258 307
#     4  10  18  33  53  75 112 147 177 219 260 314
#     4   9  18  32  53  80 106 135 173 219 269 315
#
# _framework density 18.142696999999998
#
# number of rings (size 3 to 8) (size 9 to 14) (size 15 to 20)
#    0.000    2.625    1.250    0.375    0.000    4.000 
#    0.000    5.625    0.000    9.000    0.000    0.000 
#    0.000    0.000    0.000    0.000    0.000    0.000 
#
# Total GULP energy -396433.069431 kJ/mol
# GULP energy per Si atom -12388.533420 kJ/mol
# Density = 1.810140 g / cm^3
# Si number density = 18.142697 Si / 1000 Ang^3
#
#
#
# Elastic Constant Matrix: (Units=GPa)
#
#
# Indices 1 2 3 4 5 6 
#
# 1 83.5640 43.1365 58.2391 0.0000 -7.3561 0.0000
# 2 43.1365 96.6904 64.7828 0.0000 -6.4721 0.0000
# 3 58.2391 64.7828 149.9519 0.0000 -11.9447 0.0000
# 4 0.0000 0.0000 0.0000 14.0435 0.0000 -6.5117
# 5 -7.3561 -6.4721 -11.9447 0.0000 29.6359 0.0000
# 6 0.0000 0.0000 0.0000 -6.5117 0.0000 15.2769
#
#
#
# Elastic Compliance Matrix: (Units=1/GPa)
#
#
# Indices 1 2 3 4 5 6 
#
# 1 0.017843 -0.004640 -0.004807 0.000000 0.001478 0.000000
# 2 -0.004640 0.015775 -0.004990 0.000000 0.000282 0.000000
# 3 -0.004807 -0.004990 0.010859 0.000000 0.002093 0.000000
# 4 0.000000 0.000000 0.000000 0.088747 0.000000 0.037828
# 5 0.001478 0.000282 0.002093 0.000000 0.035015 0.000000
# 6 0.000000 0.000000 0.000000 0.037828 0.000000 0.081582
#
#
# Mechanical properties :
#
#
# Convention : Reuss Voigt Hill
#
# Bulk Modulus (GPa) = 64.10239 73.61368 68.85803
# Shear Modulus (GPa) = 17.61199 22.72778 20.16988
#
# Velocity S-wave (km/s) = 3.11906 3.54322 3.33789
# Velocity P-wave (km/s) = 6.95561 7.57642 7.27264
#
# Compressibility (1/GPa) = 0.01560004
#
# Stress axis : x y z
#
# Youngs Moduli (GPa) = 56.04489 63.39149 92.09196
#
# Poissons Ratio (x) = 0.29416 0.44273
# Poissons Ratio (y) = 0.26007 0.45958
# Poissons Ratio (z) = 0.26943 0.31635
#
# Static dielectric constant tensor:
#      x y z
#    x 3.240690 0.000000 -0.144190 
#    y 0.000000 3.273450 0.000000 
#    z -0.144190 0.000000 4.041790 
# 
# 
# High freq. dielectric constant tensor:
#      x y z
#    x 1.686860 0.000000 -0.005280 
#    y 0.000000 1.681230 0.000000 
#    z -0.005280 0.000000 1.727020 
# 
# From -- ./inp_files/240710.got.cif
#   From: 2010.06.25/outbox.cif.g09.slc.cpg/sg12_121_cif.got.tgz:240710.got - 2010.06.28 00:19:55.
