data_PCOD8083290
_publ_section_title
;
Structure prediction by ZEFSAII (Michael W. Deem and Ramdas Pophale) SiO2 
 PCOD8083290
Probable space group: C 2/M
;
_chemical_formula_sum "Si O2"
_cell_formula_units_Z 64
_cell_length_a 9.119614
_cell_length_b 19.359114
_cell_length_c 23.217901
_cell_angle_alpha 90.000000
_cell_angle_beta 53.841153
_cell_angle_gamma 90.000000
_cell_volume 3309.521404
_symmetry_space_group_name_H-M "C 2/M"
_symmetry_group_IT_number 12
_symmetry_cell_setting 'monoclinic'
loop_
_space_group_symop_operation_xyz
x,y,z
-x,y,-z
-x,-y,-z
x,-y,z
1/2+x,1/2+y,z
1/2-x,1/2+y,-z
1/2-x,1/2-y,-z
1/2+x,1/2-y,z
loop_
_atom_site_type_symbol
_atom_site_label
_atom_site_fract_x
_atom_site_fract_y
_atom_site_fract_z
Si Si1 0.516429 0.173465 0.649597
Si Si2 0.198794 0.921888 0.478415
Si Si3 0.144070 0.289540 0.843374
Si Si4 0.787371 0.195811 0.684532
Si Si5 0.053723 0.077762 0.632341
Si Si6 0.684680 0.580155 0.727383
Si Si7 0.147575 0.319376 0.012256
Si Si8 0.930698 0.841204 0.865361
O O1 0.654239 0.134367 0.575220
O O2 0.618915 0.203468 0.681030
O O3 0.421770 0.239667 0.641986
O O4 0.362261 0.120800 0.706415
O O5 0.203420 0.919643 0.547034
O O6 0.000000 0.902355 0.500000
O O7 0.250003 0.000000 0.445939
O O8 0.209406 0.311474 0.766110
O O9 0.083677 0.209213 0.856237
O O10 0.311040 0.296185 0.848657
O O11 0.971458 0.339446 0.903259
O O12 0.888631 0.124372 0.648580
O O13 0.135699 0.104567 0.673752
O O14 0.979010 0.000000 0.657666
O O15 0.729281 0.500000 0.718585
O O16 0.521664 0.595775 0.809766
O O17 0.250000 0.250000 0.000000
O O18 0.298767 0.370971 0.948127
O O19 0.000000 0.299566 0.000000
#
# Coordination Sequence:
#
# PCOD8083290 Si02
#       8
#     8   8   8   8   8   8   8   8
#     4  12  25  39  60  89 117 152 196 243 297 349
#     4  10  21  42  65  85 114 153 196 240 287 351
#     4  10  18  32  55  84 117 148 186 233 283 339
#     4  12  22  37  61  87 121 151 186 246 291 341
#     4  10  22  41  63  85 112 154 194 234 291 348
#     4  11  23  39  59  85 116 154 198 243 291 347
#     4   8  16  28  49  80 113 145 186 226 276 337
#     4  10  18  33  55  83 118 149 186 236 286 338
#
# _framework density 19.338144
#
# number of rings (size 3 to 8) (size 9 to 14) (size 15 to 20)
#    0.000    1.625    3.750    1.875    0.000    1.500 
#    0.000    1.875    0.000    4.125    0.000    0.875 
#    0.000    0.000    0.000    0.000    0.000    0.000 
#
# Total GULP energy -396468.906163 kJ/mol
# GULP energy per Si atom -12389.653318 kJ/mol
# Density = 1.929413 g / cm^3
# Si number density = 19.338144 Si / 1000 Ang^3
#
#
#
# Elastic Constant Matrix: (Units=GPa)
#
#
# Indices 1 2 3 4 5 6 
#
# 1 84.5136 40.3780 18.9537 0.0000 -11.0976 0.0002
# 2 40.3780 79.7477 36.9506 0.0000 -9.2713 0.0000
# 3 18.9537 36.9506 126.7651 0.0000 -13.2218 -0.0001
# 4 0.0000 0.0000 0.0000 25.5553 0.0000 1.0043
# 5 -11.0976 -9.2713 -13.2218 0.0000 22.9932 0.0000
# 6 0.0002 0.0000 -0.0001 1.0043 0.0000 22.0372
#
#
#
# Elastic Compliance Matrix: (Units=1/GPa)
#
#
# Indices 1 2 3 4 5 6 
#
# 1 0.016091 -0.007750 0.000359 0.000000 0.004848 0.000000
# 2 -0.007750 0.018521 -0.004097 0.000000 0.001372 0.000000
# 3 0.000359 -0.004097 0.009441 0.000000 0.003950 0.000000
# 4 0.000000 0.000000 0.000000 0.039201 0.000000 -0.001787
# 5 0.004848 0.001372 0.003950 0.000000 0.048655 0.000000
# 6 0.000000 0.000000 0.000000 -0.001787 0.000000 0.045459
#
#
# Mechanical properties :
#
#
# Convention : Reuss Voigt Hill
#
# Bulk Modulus (GPa) = 47.44420 53.73233 50.58826
# Shear Modulus (GPa) = 24.11133 27.10009 25.60571
#
# Velocity S-wave (km/s) = 3.53488 3.74756 3.64277
# Velocity P-wave (km/s) = 6.42244 6.82434 6.62644
#
# Compressibility (1/GPa) = 0.02107739
#
# Stress axis : x y z
#
# Youngs Moduli (GPa) = 62.14570 53.99195 105.91893
#
# Poissons Ratio (x) = 0.41844 -0.03800
# Poissons Ratio (y) = 0.48163 0.43394
# Poissons Ratio (z) = -0.02229 0.22120
#
# Static dielectric constant tensor:
#      x y z
#    x 3.630850 0.000000 -0.037100 
#    y 0.000000 3.264040 0.000000 
#    z -0.037100 0.000000 4.352750 
# 
# 
# High freq. dielectric constant tensor:
#      x y z
#    x 1.755550 0.000000 -0.005450 
#    y 0.000000 1.715700 0.000000 
#    z -0.005450 0.000000 1.772130 
# 
# From -- ./inp_files/333590.got.cif
#   From: 2010.06.25/outbox.cif.g09.slc.cpg/sg12_167_cif.got.tgz:333590.got - 2010.06.28 00:19:55.
