data_PCOD8083818
_publ_section_title
;
Structure prediction by ZEFSAII (Michael W. Deem and Ramdas Pophale) SiO2 
 PCOD8083818
Probable space group: C 2/M
;
_chemical_formula_sum "Si O2"
_cell_formula_units_Z 52
_cell_length_a 13.563813
_cell_length_b 13.405477
_cell_length_c 13.549381
_cell_angle_alpha 90.000000
_cell_angle_beta 108.702681
_cell_angle_gamma 90.000000
_cell_volume 2333.581877
_symmetry_space_group_name_H-M "C 2/M"
_symmetry_group_IT_number 12
_symmetry_cell_setting 'monoclinic'
loop_
_space_group_symop_operation_xyz
x,y,z
-x,y,-z
-x,-y,-z
x,-y,z
1/2+x,1/2+y,z
1/2-x,1/2+y,-z
1/2-x,1/2-y,-z
1/2+x,1/2-y,z
loop_
_atom_site_type_symbol
_atom_site_label
_atom_site_fract_x
_atom_site_fract_y
_atom_site_fract_z
Si Si1 0.937056 0.884941 0.725926
Si Si2 0.253782 0.389511 0.309749
Si Si3 0.556820 0.107457 0.386434
Si Si4 0.197201 0.787570 0.159931
Si Si5 0.000000 0.722221 0.000000
Si Si6 0.926699 0.302573 0.180932
Si Si7 0.638861 0.290550 0.492483
O O1 0.835131 0.859771 0.759974
O O2 0.903321 0.868798 0.601875
O O3 0.033018 0.811720 0.787258
O O4 0.970497 0.000000 0.752086
O O5 0.282928 0.500000 0.280801
O O6 0.164060 0.393347 0.361437
O O7 0.216654 0.324221 0.206110
O O8 0.356038 0.341793 0.397434
O O9 0.464675 0.126152 0.279795
O O10 0.562408 0.193916 0.471120
O O11 0.539063 0.000000 0.431833
O O12 0.302636 0.818098 0.138350
O O13 0.102824 0.789658 0.051080
O O14 0.025522 0.659391 0.908749
O O15 0.750000 0.250000 0.500000
#
# Coordination Sequence:
#
# PCOD8083818 Si02
#       7
#     8   8   8   8   4   8   8
#     4  10  20  37  59  87 122 162 200 241 294 355
#     4  10  18  33  58  85 118 156 198 244 291 345
#     4   9  17  33  56  83 119 154 191 240 286 339
#     4  11  21  38  60  88 118 153 200 250 305 358
#     4  10  20  42  62  86 110 154 194 250 308 360
#     4  10  21  38  61  86 120 152 199 245 305 365
#     4   9  15  32  56  88 117 161 200 234 284 349
#
# _framework density 22.283341
#
# number of rings (size 3 to 8) (size 9 to 14) (size 15 to 20)
#    0.000    2.154    6.154    0.923    0.000    1.846 
#    0.000   10.769    0.000   12.923    0.000    0.000 
#    0.000    0.000    0.000    0.000    0.000    0.000 
#
# Total GULP energy -322134.447617 kJ/mol
# GULP energy per Si atom -12389.786447 kJ/mol
# Density = 2.223262 g / cm^3
# Si number density = 22.283341 Si / 1000 Ang^3
#
#
#
# Elastic Constant Matrix: (Units=GPa)
#
#
# Indices 1 2 3 4 5 6 
#
# 1 105.5647 15.3990 29.4942 0.0000 19.6369 0.0000
# 2 15.3990 110.6865 30.5876 0.0000 1.6641 0.0000
# 3 29.4942 30.5876 107.7254 0.0000 26.4758 0.0000
# 4 0.0000 0.0000 0.0000 11.3636 0.0000 7.3735
# 5 19.6369 1.6641 26.4758 0.0000 20.4945 0.0000
# 6 0.0000 0.0000 0.0000 7.3735 0.0000 -3.7841
#
#
#
# Elastic Compliance Matrix: (Units=1/GPa)
#
#
# Indices 1 2 3 4 5 6 
#
# 1 0.011762 -0.001442 -0.000102 0.000000 -0.011021 0.000000
# 2 -0.001442 0.010222 -0.003873 0.000000 0.005555 0.000000
# 3 -0.000102 -0.003873 0.015105 0.000000 -0.019101 0.000000
# 4 0.000000 0.000000 0.000000 0.038863 0.000000 0.075727
# 5 -0.011021 0.005555 -0.019101 0.000000 0.083577 0.000000
# 6 0.000000 0.000000 0.000000 0.075727 0.000000 -0.116704
#
#
# Mechanical properties :
#
#
# Convention : Reuss Voigt Hill
#
# Bulk Modulus (GPa) = 38.08960 52.77092 45.43026
# Shear Modulus (GPa) = 80.11379 22.18117 51.14748
#
# Velocity S-wave (km/s) = 6.00253 3.15844 4.79615
# Velocity P-wave (km/s) = 8.07285 6.08557 7.14861
#
# Compressibility (1/GPa) = 0.02625389
#
# Stress axis : x y z
#
# Youngs Moduli (GPa) = 85.02073 97.82911 66.20352
#
# Poissons Ratio (x) = 0.14111 0.00677
# Poissons Ratio (y) = 0.12263 0.25639
# Poissons Ratio (z) = 0.00869 0.37887
#
# Static dielectric constant tensor:
#      x y z
#    x 3.978690 0.000000 0.208960 
#    y 0.000000 5.966530 0.000000 
#    z 0.208960 0.000000 3.975680 
# 
# 
# High freq. dielectric constant tensor:
#      x y z
#    x 1.881610 0.000000 0.009230 
#    y 0.000000 1.847430 0.000000 
#    z 0.009230 0.000000 1.872990 
# 
# From -- ./inp_files/214943.got.cif
#   From: 2010.06.25/outbox.cif.g09.slc.cpg/sg12_108_cif.got.tgz:214943.got - 2010.06.28 00:19:55.
