data_PCOD8083206
_publ_section_title
;
Structure prediction by ZEFSAII (Michael W. Deem and Ramdas Pophale) SiO2 
 PCOD8083206
Probable space group: C 2/M
;
_chemical_formula_sum "Si O2"
_cell_formula_units_Z 48
_cell_length_a 20.723578
_cell_length_b 8.888554
_cell_length_c 15.079202
_cell_angle_alpha 90.000000
_cell_angle_beta 70.663669
_cell_angle_gamma 90.000000
_cell_volume 2620.946095
_symmetry_space_group_name_H-M "C 2/M"
_symmetry_group_IT_number 12
_symmetry_cell_setting 'monoclinic'
loop_
_space_group_symop_operation_xyz
x,y,z
-x,y,-z
-x,-y,-z
x,-y,z
1/2+x,1/2+y,z
1/2-x,1/2+y,-z
1/2-x,1/2-y,-z
1/2+x,1/2-y,z
loop_
_atom_site_type_symbol
_atom_site_label
_atom_site_fract_x
_atom_site_fract_y
_atom_site_fract_z
Si Si1 0.897559 0.177822 0.398155
Si Si2 0.311993 0.178146 0.281512
Si Si3 0.051852 0.178424 0.297692
Si Si4 0.543302 0.678174 0.106193
Si Si5 0.159691 0.821074 0.388927
Si Si6 0.397954 0.322086 0.101010
O O1 0.862327 0.257595 0.332058
O O2 0.862690 0.236566 0.504126
O O3 0.976850 0.225208 0.365396
O O4 0.889343 0.000000 0.389112
O O5 0.235579 0.238102 0.334358
O O6 0.334398 0.236668 0.174427
O O7 0.314411 0.000000 0.282551
O O8 0.065404 0.242795 0.192091
O O9 0.108169 0.247092 0.338650
O O10 0.058338 0.000000 0.293478
O O11 0.539498 0.500000 0.110808
O O12 0.467139 0.734302 0.117601
O O13 0.597131 0.725966 0.005122
O O14 0.155984 0.000000 0.388485
O O15 0.387605 0.500000 0.116226
#
# Coordination Sequence:
#
# PCOD8083206 Si02
#       6
#     8   8   8   8   8   8
#     4  10  18  32  55  75  91 123 171 211 235 272
#     4  11  21  32  46  71 106 135 156 190 244 298
#     4   9  15  28  52  78  96 118 160 211 247 272
#     4   8  14  26  50  78  96 114 156 213 246 267
#     4   9  19  31  46  73 104 128 157 200 246 287
#     4   9  16  30  51  75  96 120 163 206 238 277
#
# _framework density 18.313998000000002
#
# number of rings (size 3 to 8) (size 9 to 14) (size 15 to 20)
#    0.000    2.667    1.667    2.500    0.000    2.000 
#    0.000    3.333    0.000    4.000    0.000    0.000 
#    0.000    0.000    0.000    0.000    0.000    0.000 
#
# Total GULP energy -297509.584246 kJ/mol
# GULP energy per Si atom -12396.232677 kJ/mol
# Density = 1.827231 g / cm^3
# Si number density = 18.313998 Si / 1000 Ang^3
#
#
#
# Elastic Constant Matrix: (Units=GPa)
#
#
# Indices 1 2 3 4 5 6 
#
# 1 81.4638 22.9934 45.5393 0.0000 -15.4532 0.0000
# 2 22.9934 25.1835 23.6551 0.0000 -4.0253 0.0000
# 3 45.5393 23.6551 158.8312 0.0000 -18.5538 0.0000
# 4 0.0000 0.0000 0.0000 21.0564 0.0000 -6.0588
# 5 -15.4532 -4.0253 -18.5538 0.0000 22.1697 0.0000
# 6 0.0000 0.0000 0.0000 -6.0588 0.0000 14.8639
#
#
#
# Elastic Compliance Matrix: (Units=1/GPa)
#
#
# Indices 1 2 3 4 5 6 
#
# 1 0.019217 -0.013866 -0.002410 0.000000 0.008861 0.000000
# 2 -0.013866 0.056342 -0.004821 0.000000 -0.003470 0.000000
# 3 -0.002410 -0.004821 0.008209 0.000000 0.004315 0.000000
# 4 0.000000 0.000000 0.000000 0.053802 0.000000 0.021931
# 5 0.008861 -0.003470 0.004315 0.000000 0.054264 0.000000
# 6 0.000000 0.000000 0.000000 0.021931 0.000000 0.076216
#
#
# Mechanical properties :
#
#
# Convention : Reuss Voigt Hill
#
# Bulk Modulus (GPa) = 24.05291 49.98379 37.01835
# Shear Modulus (GPa) = 15.42721 23.17072 19.29897
#
# Velocity S-wave (km/s) = 2.90551 3.56081 3.24972
# Velocity P-wave (km/s) = 4.94147 6.65265 5.85986
#
# Compressibility (1/GPa) = 0.04157500
#
# Stress axis : x y z
#
# Youngs Moduli (GPa) = 52.03727 17.74862 121.81864
#
# Poissons Ratio (x) = 0.24610 0.29354
# Poissons Ratio (y) = 0.72156 0.58728
# Poissons Ratio (z) = 0.12539 0.08556
#
# Static dielectric constant tensor:
#      x y z
#    x 3.441550 0.000000 0.058100 
#    y 0.000000 2.840560 0.000000 
#    z 0.058100 0.000000 3.896510 
# 
# 
# High freq. dielectric constant tensor:
#      x y z
#    x 1.696050 0.000000 -0.002350 
#    y 0.000000 1.653040 0.000000 
#    z -0.002350 0.000000 1.733940 
# 
# From -- ./inp_files/229814.got.cif
#   From: 2010.06.25/outbox.cif.g09.slc.cpg/sg12_115_cif.got.tgz:229814.got - 2010.06.28 00:19:55.
