data_PCOD8083516
_publ_section_title
;
Structure prediction by ZEFSAII (Michael W. Deem and Ramdas Pophale) SiO2 
 PCOD8083516
Probable space group: C 2/M
;
_chemical_formula_sum "Si O2"
_cell_formula_units_Z 48
_cell_length_a 19.725592
_cell_length_b 12.220143
_cell_length_c 13.739181
_cell_angle_alpha 90.000000
_cell_angle_beta 122.302409
_cell_angle_gamma 90.000000
_cell_volume 2799.283566
_symmetry_space_group_name_H-M "C 2/M"
_symmetry_group_IT_number 12
_symmetry_cell_setting 'monoclinic'
loop_
_space_group_symop_operation_xyz
x,y,z
-x,y,-z
-x,-y,-z
x,-y,z
1/2+x,1/2+y,z
1/2-x,1/2+y,-z
1/2-x,1/2-y,-z
1/2+x,1/2-y,z
loop_
_atom_site_type_symbol
_atom_site_label
_atom_site_fract_x
_atom_site_fract_y
_atom_site_fract_z
Si Si1 0.646095 0.128981 0.935272
Si Si2 0.628280 0.376165 0.623019
Si Si3 0.026918 0.123412 0.366406
Si Si4 0.507513 0.279591 0.861360
Si Si5 0.737056 0.754444 0.838921
Si Si6 0.112060 0.877110 0.089076
O O1 0.555568 0.163852 0.897705
O O2 0.667959 0.193507 0.853072
O O3 0.648318 0.000000 0.919812
O O4 0.711773 0.161344 0.066546
O O5 0.660052 0.500000 0.635880
O O6 0.559126 0.373588 0.649969
O O7 0.594551 0.333054 0.493527
O O8 0.699400 0.298595 0.713541
O O9 0.026315 0.198294 0.271332
O O10 0.048008 0.000000 0.351475
O O11 0.431360 0.286125 0.875842
O O12 0.572551 0.368970 0.950556
O O13 0.794180 0.851963 0.846117
O O14 0.100386 0.000000 0.120686
#
# Coordination Sequence:
#
# PCOD8083516 Si02
#       6
#     8   8   8   8   8   8
#     4  10  20  32  50  73  98 132 165 200 247 292
#     4   9  17  29  48  75  99 125 165 205 243 282
#     4   9  16  28  50  74  97 126 163 206 241 280
#     4  10  18  33  51  73  98 128 165 202 242 287
#     4  10  19  33  48  73 103 129 160 203 248 289
#     4  10  20  32  51  77 102 129 160 199 246 296
#
# _framework density 17.147244000000001
#
# number of rings (size 3 to 8) (size 9 to 14) (size 15 to 20)
#    0.000    2.333    1.667    4.000    0.000    0.000 
#    0.000    8.333    0.000    3.000    0.000    0.000 
#    0.000    0.000    0.000    0.000    0.000    0.000 
#
# Total GULP energy -297453.956430 kJ/mol
# GULP energy per Si atom -12393.914851 kJ/mol
# Density = 1.710822 g / cm^3
# Si number density = 17.147244 Si / 1000 Ang^3
#
#
#
# Elastic Constant Matrix: (Units=GPa)
#
#
# Indices 1 2 3 4 5 6 
#
# 1 63.0118 23.4991 25.6510 0.0000 0.6546 0.0000
# 2 23.4991 77.4599 39.5289 0.0000 0.1141 0.0000
# 3 25.6510 39.5289 118.8246 0.0000 -6.9685 0.0000
# 4 0.0000 0.0000 0.0000 20.3326 0.0000 1.1718
# 5 0.6546 0.1141 -6.9685 0.0000 20.1414 0.0000
# 6 0.0000 0.0000 0.0000 1.1718 0.0000 20.1536
#
#
#
# Elastic Compliance Matrix: (Units=1/GPa)
#
#
# Indices 1 2 3 4 5 6 
#
# 1 0.018566 -0.004264 -0.002678 0.000000 -0.001506 0.000000
# 2 -0.004264 0.016602 -0.004695 0.000000 -0.001580 0.000000
# 3 -0.002678 -0.004695 0.010781 0.000000 0.003844 0.000000
# 4 0.000000 0.000000 0.000000 0.049347 0.000000 -0.002869
# 5 -0.001506 -0.001580 0.003844 0.000000 0.051037 0.000000
# 6 0.000000 0.000000 0.000000 -0.002869 0.000000 0.049786
#
#
# Mechanical properties :
#
#
# Convention : Reuss Voigt Hill
#
# Bulk Modulus (GPa) = 44.10012 48.51713 46.30863
# Shear Modulus (GPa) = 22.03127 23.50000 22.76564
#
# Velocity S-wave (km/s) = 3.58834 3.70602 3.64765
# Velocity P-wave (km/s) = 6.55306 6.83144 6.69370
#
# Compressibility (1/GPa) = 0.02267567
#
# Stress axis : x y z
#
# Youngs Moduli (GPa) = 53.86251 60.23500 92.75468
#
# Poissons Ratio (x) = 0.25682 0.24838
# Poissons Ratio (y) = 0.22965 0.43549
# Poissons Ratio (z) = 0.14423 0.28281
#
# Static dielectric constant tensor:
#      x y z
#    x 3.082100 0.000000 -0.023940 
#    y 0.000000 2.969550 0.000000 
#    z -0.023940 0.000000 3.235170 
# 
# 
# High freq. dielectric constant tensor:
#      x y z
#    x 1.648080 0.000000 -0.001120 
#    y 0.000000 1.635560 0.000000 
#    z -0.001120 0.000000 1.658150 
# 
# From -- ./inp_files/231673.got.cif
#   From: 2010.06.25/outbox.cif.g09.slc.cpg/sg12_116_cif.got.tgz:231673.got - 2010.06.28 00:19:55.
