data_PCOD8083864
_publ_section_title
;
Structure prediction by ZEFSAII (Michael W. Deem and Ramdas Pophale) SiO2 
 PCOD8083864
Probable space group: C 2/M
;
_chemical_formula_sum "Si O2"
_cell_formula_units_Z 56
_cell_length_a 17.375480
_cell_length_b 16.911232
_cell_length_c 10.621200
_cell_angle_alpha 90.000000
_cell_angle_beta 117.794767
_cell_angle_gamma 90.000000
_cell_volume 2760.858514
_symmetry_space_group_name_H-M "C 2/M"
_symmetry_group_IT_number 12
_symmetry_cell_setting 'monoclinic'
loop_
_space_group_symop_operation_xyz
x,y,z
-x,y,-z
-x,-y,-z
x,-y,z
1/2+x,1/2+y,z
1/2-x,1/2+y,-z
1/2-x,1/2-y,-z
1/2+x,1/2-y,z
loop_
_atom_site_type_symbol
_atom_site_label
_atom_site_fract_x
_atom_site_fract_y
_atom_site_fract_z
Si Si1 0.058600 0.651585 0.164840
Si Si2 0.796986 0.407442 0.114583
Si Si3 0.024240 0.591930 0.655186
Si Si4 0.232567 0.592412 0.189319
Si Si5 0.572427 0.412608 0.659593
Si Si6 0.994756 0.829335 0.823979
Si Si7 0.375492 0.408836 0.890914
O O1 0.160708 0.642126 0.211130
O O2 0.043907 0.602343 0.282475
O O3 0.035057 0.740304 0.182212
O O4 0.000000 0.622146 0.000000
O O5 0.811700 0.500000 0.112775
O O6 0.885928 0.367066 0.229590
O O7 0.725053 0.387914 0.165535
O O8 0.768854 0.376198 0.956028
O O9 0.039095 0.500000 0.642138
O O10 0.000000 0.630268 0.500000
O O11 0.208231 0.500000 0.181942
O O12 0.330389 0.609328 0.316440
O O13 0.500000 0.419380 0.500000
O O14 0.580788 0.500000 0.732369
O O15 0.537762 0.343713 0.722544
O O16 0.909429 0.886707 0.776599
O O17 0.069097 0.850570 0.980046
O O18 0.394177 0.500000 0.938184
#
# Coordination Sequence:
#
# PCOD8083864 Si02
#       7
#     8   8   8   8   8   8   8
#     4  12  23  38  59  92 127 161 205 248 305 374
#     4   9  17  32  59  89 112 146 202 257 307 351
#     4  10  22  41  62  85 119 162 207 254 304 363
#     4  10  20  37  63  91 117 156 209 261 304 358
#     4  10  21  41  66  89 118 159 209 261 311 364
#     4  11  21  36  55  89 123 153 195 243 311 368
#     4  10  18  33  59  87 116 151 197 260 304 348
#
# _framework density 20.283545
#
# number of rings (size 3 to 8) (size 9 to 14) (size 15 to 20)
#    0.000    1.714    4.286    2.143    0.000    1.143 
#    5.143    2.857    0.000    0.000    0.000    0.000 
#    0.000    0.000    0.000    0.000    0.000    0.000 
#
# Total GULP energy -346931.686945 kJ/mol
# GULP energy per Si atom -12390.417391 kJ/mol
# Density = 2.023738 g / cm^3
# Si number density = 20.283545 Si / 1000 Ang^3
#
#
#
# Elastic Constant Matrix: (Units=GPa)
#
#
# Indices 1 2 3 4 5 6 
#
# 1 164.9117 28.8524 50.6481 0.0000 13.8314 0.0000
# 2 28.8524 57.6903 15.6184 0.0000 4.9883 0.0000
# 3 50.6481 15.6184 93.7478 0.0000 9.3018 0.0000
# 4 0.0000 0.0000 0.0000 10.5615 0.0000 -7.4321
# 5 13.8314 4.9883 9.3018 0.0000 34.2594 0.0000
# 6 0.0000 0.0000 0.0000 -7.4321 0.0000 30.3564
#
#
#
# Elastic Compliance Matrix: (Units=1/GPa)
#
#
# Indices 1 2 3 4 5 6 
#
# 1 0.007796 -0.002778 -0.003573 0.000000 -0.001773 0.000000
# 2 -0.002778 0.019260 -0.001583 0.000000 -0.001253 0.000000
# 3 -0.003573 -0.001583 0.013047 0.000000 -0.001869 0.000000
# 4 0.000000 0.000000 0.000000 0.114392 0.000000 0.028006
# 5 -0.001773 -0.001253 -0.001869 0.000000 0.030595 0.000000
# 6 0.000000 0.000000 0.000000 0.028006 0.000000 0.039799
#
#
# Mechanical properties :
#
#
# Convention : Reuss Voigt Hill
#
# Bulk Modulus (GPa) = 41.26562 56.28750 48.77656
# Shear Modulus (GPa) = 20.09359 29.78420 24.93889
#
# Velocity S-wave (km/s) = 3.15085 3.83612 3.51025
# Velocity P-wave (km/s) = 5.79877 6.88706 6.36621
#
# Compressibility (1/GPa) = 0.02423325
#
# Stress axis : x y z
#
# Youngs Moduli (GPa) = 128.27081 51.91980 76.64840
#
# Poissons Ratio (x) = 0.14425 0.27387
# Poissons Ratio (y) = 0.35638 0.12137
# Poissons Ratio (z) = 0.45832 0.08221
#
# Static dielectric constant tensor:
#      x y z
#    x 4.414550 0.000000 -0.255590 
#    y 0.000000 3.470700 0.000000 
#    z -0.255590 0.000000 3.867650 
# 
# 
# High freq. dielectric constant tensor:
#      x y z
#    x 1.812360 0.000000 0.002240 
#    y 0.000000 1.767940 0.000000 
#    z 0.002240 0.000000 1.762140 
# 
# From -- ./inp_files/156696.got.cif
#   From: 2010.06.25/outbox.cif.g09.slc.cpg/sg12_79_cif.got.tgz:156696.got - 2010.06.28 00:19:55.
