data_PCOD8083287
_publ_section_title
;
Structure prediction by ZEFSAII (Michael W. Deem and Ramdas Pophale) SiO2 
 PCOD8083287
Probable space group: C 2/M
;
_chemical_formula_sum "Si O2"
_cell_formula_units_Z 56
_cell_length_a 19.679433
_cell_length_b 8.735014
_cell_length_c 18.930238
_cell_angle_alpha 90.000000
_cell_angle_beta 83.530816
_cell_angle_gamma 90.000000
_cell_volume 3233.390006
_symmetry_space_group_name_H-M "C 2/M"
_symmetry_group_IT_number 12
_symmetry_cell_setting 'monoclinic'
loop_
_space_group_symop_operation_xyz
x,y,z
-x,y,-z
-x,-y,-z
x,-y,z
1/2+x,1/2+y,z
1/2-x,1/2+y,-z
1/2-x,1/2-y,-z
1/2+x,1/2-y,z
loop_
_atom_site_type_symbol
_atom_site_label
_atom_site_fract_x
_atom_site_fract_y
_atom_site_fract_z
Si Si1 0.208529 0.673263 0.297117
Si Si2 0.429426 0.326729 0.049146
Si Si3 0.740218 0.180148 0.577441
Si Si4 0.144468 0.173632 0.687248
Si Si5 0.625322 0.680710 0.183382
Si Si6 0.819899 0.679197 0.965909
Si Si7 0.529141 0.317748 0.802962
O O1 0.179746 0.500000 0.300663
O O2 0.202566 0.746650 0.376635
O O3 0.289601 0.674412 0.267248
O O4 0.166211 0.776472 0.248601
O O5 0.399852 0.500000 0.054570
O O6 0.442082 0.258955 0.125665
O O7 0.500000 0.326496 0.000000
O O8 0.377292 0.215339 0.016697
O O9 0.750000 0.250000 0.500000
O O10 0.664212 0.224638 0.616104
O O11 0.749412 0.000000 0.573211
O O12 0.078730 0.244224 0.734962
O O13 0.129547 0.000000 0.663876
O O14 0.625699 0.500000 0.172383
O O15 0.661039 0.754943 0.112265
O O16 0.547692 0.742702 0.200209
O O17 0.810979 0.500000 0.958995
O O18 0.750000 0.750000 0.000000
O O19 0.530341 0.500000 0.803383
#
# Coordination Sequence:
#
# PCOD8083287 Si02
#       7
#     8   8   8   8   8   8   8
#     4   9  19  34  53  80 112 143 176 218 265 317
#     4  10  19  37  59  79 106 144 186 228 279 335
#     4  10  18  32  55  84 113 143 179 222 268 319
#     4   8  17  33  53  80 109 141 180 218 263 319
#     4  11  21  37  57  79 106 143 183 221 273 331
#     4  12  26  40  54  76 106 141 184 237 285 334
#     4   9  18  34  57  79 106 144 182 222 268 327
#
# _framework density 17.319285000000001
#
# number of rings (size 3 to 8) (size 9 to 14) (size 15 to 20)
#    0.857    1.286    1.429    3.000    2.000    0.286 
#    0.000    2.143    0.000    0.857    0.000    6.000 
#    0.000    0.000    0.000    0.000    0.000    0.000 
#
# Total GULP energy -347036.210219 kJ/mol
# GULP energy per Si atom -12394.150365 kJ/mol
# Density = 1.727987 g / cm^3
# Si number density = 17.319285 Si / 1000 Ang^3
#
#
#
# Elastic Constant Matrix: (Units=GPa)
#
#
# Indices 1 2 3 4 5 6 
#
# 1 80.6134 33.6833 69.9408 0.0000 4.3106 0.0000
# 2 33.6833 95.3968 43.7211 0.0000 -0.9389 0.0000
# 3 69.9408 43.7211 133.8558 0.0000 -13.0972 0.0000
# 4 0.0000 0.0000 0.0000 31.0113 0.0000 3.1079
# 5 4.3106 -0.9389 -13.0972 0.0000 21.4120 0.0000
# 6 0.0000 0.0000 0.0000 3.1079 0.0000 20.5343
#
#
#
# Elastic Compliance Matrix: (Units=1/GPa)
#
#
# Indices 1 2 3 4 5 6 
#
# 1 0.027111 -0.003025 -0.014598 0.000000 -0.014520 0.000000
# 2 -0.003025 0.012750 -0.002627 0.000000 -0.000439 0.000000
# 3 -0.014598 -0.002627 0.017266 0.000000 0.013385 0.000000
# 4 0.000000 0.000000 0.000000 0.032743 0.000000 -0.004956
# 5 -0.014520 -0.000439 0.013385 0.000000 0.057794 0.000000
# 6 0.000000 0.000000 0.000000 -0.004956 0.000000 0.049449
#
#
# Mechanical properties :
#
#
# Convention : Reuss Voigt Hill
#
# Bulk Modulus (GPa) = 60.14368 67.17293 63.65831
# Shear Modulus (GPa) = 20.56292 25.42625 22.99458
#
# Velocity S-wave (km/s) = 3.44944 3.83572 3.64770
# Velocity P-wave (km/s) = 7.11805 7.64763 7.38759
#
# Compressibility (1/GPa) = 0.01662685
#
# Stress axis : x y z
#
# Youngs Moduli (GPa) = 36.88558 78.43003 57.91650
#
# Poissons Ratio (x) = 0.23724 0.84549
# Poissons Ratio (y) = 0.11157 0.15215
# Poissons Ratio (z) = 0.53847 0.20604
#
# Static dielectric constant tensor:
#      x y z
#    x 3.217190 0.000000 -0.078600 
#    y 0.000000 3.158780 0.000000 
#    z -0.078600 0.000000 3.191430 
# 
# 
# High freq. dielectric constant tensor:
#      x y z
#    x 1.657680 0.000000 -0.003670 
#    y 0.000000 1.663980 0.000000 
#    z -0.003670 0.000000 1.662050 
# 
# From -- ./inp_files/280339.got.cif
#   From: 2010.06.25/outbox.cif.g09.slc.cpg/sg12_141_cif.got.tgz:280339.got - 2010.06.28 00:19:55.
