data_PCOD8083729
_publ_section_title
;
Structure prediction by ZEFSAII (Michael W. Deem and Ramdas Pophale) SiO2 
 PCOD8083729
Probable space group: C 2/M
;
_chemical_formula_sum "Si O2"
_cell_formula_units_Z 40
_cell_length_a 8.008087
_cell_length_b 27.491175
_cell_length_c 9.181389
_cell_angle_alpha 90.000000
_cell_angle_beta 109.172543
_cell_angle_gamma 90.000000
_cell_volume 1909.184959
_symmetry_space_group_name_H-M "C 2/M"
_symmetry_group_IT_number 12
_symmetry_cell_setting 'monoclinic'
loop_
_space_group_symop_operation_xyz
x,y,z
-x,y,-z
-x,-y,-z
x,-y,z
1/2+x,1/2+y,z
1/2-x,1/2+y,-z
1/2-x,1/2-y,-z
1/2+x,1/2-y,z
loop_
_atom_site_type_symbol
_atom_site_label
_atom_site_fract_x
_atom_site_fract_y
_atom_site_fract_z
Si Si1 0.904255 0.402001 0.661220
Si Si2 0.965860 0.295962 0.334307
Si Si3 0.757131 0.443465 0.322859
Si Si4 0.559952 0.705941 0.181625
Si Si5 0.441512 0.382886 0.315097
O O1 0.832952 0.432155 0.503623
O O2 0.757854 0.405587 0.748042
O O3 0.919350 0.345023 0.628549
O O4 0.097723 0.424447 0.755198
O O5 0.762558 0.309860 0.252887
O O6 0.000000 0.269894 0.500000
O O7 0.033520 0.261253 0.225561
O O8 0.722835 0.500000 0.290653
O O9 0.569147 0.416436 0.252738
O O10 0.440056 0.670926 0.246810
O O11 0.500000 0.701515 0.000000
O O12 0.500000 0.380155 0.500000
#
# Coordination Sequence:
#
# PCOD8083729 Si02
#       5
#     8   8   8   8   8
#     4  10  18  33  56  87 123 155 199 252 310 363
#     4  12  21  39  62  87 124 168 212 254 308 372
#     4  10  19  34  58  93 129 155 198 268 319 357
#     4  12  25  40  59  91 131 168 210 258 310 371
#     4  10  20  37  59  89 124 163 210 250 307 371
#
# _framework density 20.951350000000001
#
# number of rings (size 3 to 8) (size 9 to 14) (size 15 to 20)
#    0.000    1.200    4.000    5.400    0.000    4.400 
#    0.000    0.000    0.000    0.600    0.000    1.400 
#    0.000    0.000    0.000    0.000    0.000    0.000 
#
# Total GULP energy -247940.691258 kJ/mol
# GULP energy per Si atom -12397.034563 kJ/mol
# Density = 2.090366 g / cm^3
# Si number density = 20.951350 Si / 1000 Ang^3
#
#
#
# Elastic Constant Matrix: (Units=GPa)
#
#
# Indices 1 2 3 4 5 6 
#
# 1 164.2642 30.6452 26.6238 0.0000 -9.3187 0.0000
# 2 30.6452 107.7699 15.6827 0.0000 -10.4310 0.0000
# 3 26.6238 15.6827 69.3619 0.0000 5.6762 0.0000
# 4 0.0000 0.0000 0.0000 7.0943 0.0000 -7.9686
# 5 -9.3187 -10.4310 5.6762 0.0000 16.8129 0.0000
# 6 0.0000 0.0000 0.0000 -7.9686 0.0000 35.0954
#
#
#
# Elastic Compliance Matrix: (Units=1/GPa)
#
#
# Indices 1 2 3 4 5 6 
#
# 1 0.006985 -0.001195 -0.002743 0.000000 0.004057 0.000000
# 2 -0.001195 0.010639 -0.002502 0.000000 0.006784 0.000000
# 3 -0.002743 -0.002502 0.016750 0.000000 -0.008728 0.000000
# 4 0.000000 0.000000 0.000000 0.189216 0.000000 0.042962
# 5 0.004057 0.006784 -0.008728 0.000000 0.068882 0.000000
# 6 0.000000 0.000000 0.000000 0.042962 0.000000 0.038248
#
#
# Mechanical properties :
#
#
# Convention : Reuss Voigt Hill
#
# Bulk Modulus (GPa) = 46.52227 54.14439 50.33333
# Shear Modulus (GPa) = 14.25452 29.69681 21.97567
#
# Velocity S-wave (km/s) = 2.61121 3.76894 3.24217
# Velocity P-wave (km/s) = 5.59860 6.69619 6.17184
#
# Compressibility (1/GPa) = 0.02149508
#
# Stress axis : x y z
#
# Youngs Moduli (GPa) = 143.15683 93.99034 59.70130
#
# Poissons Ratio (x) = 0.11227 0.16377
# Poissons Ratio (y) = 0.17100 0.14938
# Poissons Ratio (z) = 0.39270 0.23518
#
# Static dielectric constant tensor:
#      x y z
#    x 4.565410 0.000000 -0.156180 
#    y 0.000000 3.644550 0.000000 
#    z -0.156180 0.000000 3.219110 
# 
# 
# High freq. dielectric constant tensor:
#      x y z
#    x 1.851130 0.000000 -0.008700 
#    y 0.000000 1.818600 0.000000 
#    z -0.008700 0.000000 1.755410 
# 
# From -- ./inp_files/40540.got.cif
#   From: 2010.06.25/outbox.cif.g09.slc.cpg/sg12_21_cif.got.tgz:40540.got - 2010.06.28 00:19:55.
