data_PCOD8083501
_publ_section_title
;
Structure prediction by ZEFSAII (Michael W. Deem and Ramdas Pophale) SiO2 
 PCOD8083501
Probable space group: C 2/M
;
_chemical_formula_sum "Si O2"
_cell_formula_units_Z 48
_cell_length_a 19.267989
_cell_length_b 13.400975
_cell_length_c 9.907980
_cell_angle_alpha 90.000000
_cell_angle_beta 70.152099
_cell_angle_gamma 90.000000
_cell_volume 2406.365599
_symmetry_space_group_name_H-M "C 2/M"
_symmetry_group_IT_number 12
_symmetry_cell_setting 'monoclinic'
loop_
_space_group_symop_operation_xyz
x,y,z
-x,y,-z
-x,-y,-z
x,-y,z
1/2+x,1/2+y,z
1/2-x,1/2+y,-z
1/2-x,1/2-y,-z
1/2+x,1/2-y,z
loop_
_atom_site_type_symbol
_atom_site_label
_atom_site_fract_x
_atom_site_fract_y
_atom_site_fract_z
Si Si1 0.998800 0.386734 0.197677
Si Si2 0.852354 0.698132 0.937845
Si Si3 0.639577 0.799694 0.605228
Si Si4 0.705262 0.611610 0.455382
Si Si5 0.605972 0.889710 0.352601
Si Si6 0.291651 0.615275 0.855659
O O1 0.986681 0.500000 0.151881
O O2 0.064036 0.331595 0.067754
O O3 0.024298 0.390753 0.338368
O O4 0.923404 0.322692 0.241794
O O5 0.837039 0.647777 0.801146
O O6 0.842372 0.817745 0.922742
O O7 0.793109 0.654208 0.081439
O O8 0.663077 0.683588 0.588904
O O9 0.707506 0.871395 0.591848
O O10 0.608272 0.817493 0.477057
O O11 0.686407 0.500000 0.514347
O O12 0.681006 0.628130 0.316198
O O13 0.629645 0.000000 0.383696
O O14 0.297049 0.500000 0.897583
#
# Coordination Sequence:
#
# PCOD8083501 Si02
#       6
#     8   8   8   8   8   8
#     4   9  17  29  48  74  96 119 154 205 246 272
#     4   9  18  31  50  72  95 121 158 198 240 279
#     4  11  19  31  48  69  97 127 161 192 235 287
#     4  10  21  33  47  68  98 132 159 191 236 286
#     4   9  16  27  46  72  93 115 151 200 238 269
#     4  10  18  33  50  69 100 129 156 193 238 285
#
# _framework density 19.947094
#
# number of rings (size 3 to 8) (size 9 to 14) (size 15 to 20)
#    1.000    1.333    1.667    3.000    0.000    1.333 
#    0.000    1.667    0.000    6.000    0.000    0.000 
#    0.000    6.000    0.000    0.000    0.000    0.000 
#
# Total GULP energy -297365.712598 kJ/mol
# GULP energy per Si atom -12390.238025 kJ/mol
# Density = 1.990169 g / cm^3
# Si number density = 19.947094 Si / 1000 Ang^3
#
#
#
# Elastic Constant Matrix: (Units=GPa)
#
#
# Indices 1 2 3 4 5 6 
#
# 1 36.3919 35.1647 14.9924 0.0000 -30.2856 0.0000
# 2 35.1647 146.2249 27.2504 0.0000 -27.6775 0.0000
# 3 14.9924 27.2504 46.5172 0.0000 -19.4452 0.0000
# 4 0.0000 0.0000 0.0000 22.1827 0.0000 -6.2904
# 5 -30.2856 -27.6775 -19.4452 0.0000 31.6096 0.0000
# 6 0.0000 0.0000 0.0000 -6.2904 0.0000 20.3319
#
#
#
# Elastic Compliance Matrix: (Units=1/GPa)
#
#
# Indices 1 2 3 4 5 6 
#
# 1 0.161365 -0.013188 0.020893 0.000000 0.155910 0.000000
# 2 -0.013188 0.009484 -0.004195 0.000000 -0.006912 0.000000
# 3 0.020893 -0.004195 0.032380 0.000000 0.036264 0.000000
# 4 0.000000 0.000000 0.000000 0.049416 0.000000 0.015288
# 5 0.155910 -0.006912 0.036264 0.000000 0.197272 0.000000
# 6 0.000000 0.000000 0.000000 0.015288 0.000000 0.053914
#
#
# Mechanical properties :
#
#
# Convention : Reuss Voigt Hill
#
# Bulk Modulus (GPa) = 4.75630 42.66100 23.70865
# Shear Modulus (GPa) = 8.82001 24.93995 16.87998
#
# Velocity S-wave (km/s) = 2.10506 3.53980 2.91217
# Velocity P-wave (km/s) = 2.88063 6.17579 4.81863
#
# Compressibility (1/GPa) = 0.21024763
#
# Stress axis : x y z
#
# Youngs Moduli (GPa) = 6.19714 105.44402 30.88304
#
# Poissons Ratio (x) = 1.39064 -0.64523
# Poissons Ratio (y) = 0.08173 0.12954
# Poissons Ratio (z) = -0.12947 0.44230
#
# Static dielectric constant tensor:
#      x y z
#    x 3.336010 0.000000 -0.105140 
#    y 0.000000 3.601110 0.000000 
#    z -0.105140 0.000000 3.392500 
# 
# 
# High freq. dielectric constant tensor:
#      x y z
#    x 1.748680 0.000000 -0.003450 
#    y 0.000000 1.774330 0.000000 
#    z -0.003450 0.000000 1.765120 
# 
# From -- ./inp_files/164716.got.cif
#   From: 2010.06.25/outbox.cif.g09.slc.cpg/sg12_83_cif.got.tgz:164716.got - 2010.06.28 00:19:55.
