data_PCOD8083744
_publ_section_title
;
Structure prediction by ZEFSAII (Michael W. Deem and Ramdas Pophale) SiO2 
 PCOD8083744
Probable space group: C 2/M
;
_chemical_formula_sum "Si O2"
_cell_formula_units_Z 32
_cell_length_a 31.226549
_cell_length_b 8.866965
_cell_length_c 20.451427
_cell_angle_alpha 90.000000
_cell_angle_beta 161.141212
_cell_angle_gamma 90.000000
_cell_volume 1830.389179
_symmetry_space_group_name_H-M "C 2/M"
_symmetry_group_IT_number 12
_symmetry_cell_setting 'monoclinic'
loop_
_space_group_symop_operation_xyz
x,y,z
-x,y,-z
-x,-y,-z
x,-y,z
1/2+x,1/2+y,z
1/2-x,1/2+y,-z
1/2-x,1/2-y,-z
1/2+x,1/2-y,z
loop_
_atom_site_type_symbol
_atom_site_label
_atom_site_fract_x
_atom_site_fract_y
_atom_site_fract_z
Si Si1 0.895657 0.170369 0.570388
Si Si2 0.130333 0.179155 0.151661
Si Si3 0.349987 0.821960 0.093884
Si Si4 0.112846 0.170568 0.979289
O O1 0.756640 0.254986 0.371215
O O2 0.001787 0.257547 0.677074
O O3 0.956893 0.170613 0.732611
O O4 0.877073 0.000000 0.517579
O O5 0.136114 0.000000 0.162181
O O6 0.127566 0.238409 0.072954
O O7 0.000000 0.239484 0.000000
O O8 0.307017 0.772510 0.957771
O O9 0.348770 0.000000 0.099378
O O10 0.250000 0.750000 0.000000
O O11 0.169044 0.000000 0.057664
#
# Coordination Sequence:
#
# PCOD8083744 Si02
#       4
#     8   8   8   8
#     4   9  19  35  53  77 108 140 176 219 260 308
#     4  10  20  35  55  79 108 142 178 217 263 311
#     4  10  18  33  57  80 104 138 174 214 266 315
#     4   8  18  35  52  76 110 140 172 217 262 309
#
# _framework density 17.482620000000001
#
# number of rings (size 3 to 8) (size 9 to 14) (size 15 to 20)
#    1.500    1.250    0.000    2.250    0.000    2.500 
#    0.000    1.250    0.000    7.500    0.000    0.000 
#    0.000    0.000    0.000    0.000    0.000    0.000 
#
# Total GULP energy -198218.612941 kJ/mol
# GULP energy per Si atom -12388.663309 kJ/mol
# Density = 1.744283 g / cm^3
# Si number density = 17.482620 Si / 1000 Ang^3
#
#
#
# Elastic Constant Matrix: (Units=GPa)
#
#
# Indices 1 2 3 4 5 6 
#
# 1 69.4610 27.5884 -1.2789 0.0000 3.7039 0.0000
# 2 27.5884 72.8014 16.8022 0.0000 9.7838 0.0000
# 3 -1.2789 16.8022 50.6046 0.0000 9.3819 0.0000
# 4 0.0000 0.0000 0.0000 32.3591 0.0000 3.0504
# 5 3.7039 9.7838 9.3819 0.0000 28.1811 0.0000
# 6 0.0000 0.0000 0.0000 3.0504 0.0000 21.2042
#
#
#
# Elastic Compliance Matrix: (Units=1/GPa)
#
#
# Indices 1 2 3 4 5 6 
#
# 1 0.017330 -0.007144 0.002955 0.000000 -0.000781 0.000000
# 2 -0.007144 0.018203 -0.005571 0.000000 -0.003526 0.000000
# 3 0.002955 -0.005571 0.022806 0.000000 -0.006047 0.000000
# 4 0.000000 0.000000 0.000000 0.031328 0.000000 -0.004507
# 5 -0.000781 -0.003526 -0.006047 0.000000 0.038825 0.000000
# 6 0.000000 0.000000 0.000000 -0.004507 0.000000 0.047809
#
#
# Mechanical properties :
#
#
# Convention : Reuss Voigt Hill
#
# Bulk Modulus (GPa) = 25.76041 31.01005 28.38523
# Shear Modulus (GPa) = 23.95078 26.33256 25.14167
#
# Velocity S-wave (km/s) = 3.70534 3.88521 3.79634
# Velocity P-wave (km/s) = 5.75090 6.15651 5.95716
#
# Compressibility (1/GPa) = 0.03881926
#
# Stress axis : x y z
#
# Youngs Moduli (GPa) = 57.70266 54.93611 43.84722
#
# Poissons Ratio (x) = 0.39248 -0.12957
# Poissons Ratio (y) = 0.41225 0.24426
# Poissons Ratio (z) = -0.17051 0.30604
#
# Static dielectric constant tensor:
#      x y z
#    x 3.155990 0.000000 -0.003860 
#    y 0.000000 3.195070 0.000000 
#    z -0.003860 0.000000 3.060910 
# 
# 
# High freq. dielectric constant tensor:
#      x y z
#    x 1.660420 0.000000 0.000870 
#    y 0.000000 1.679200 0.000000 
#    z 0.000870 0.000000 1.656690 
# 
# From -- ./inp_files/138338.got.cif
#   From: 2010.06.25/outbox.cif.g09.slc.cpg/sg12_70_cif.got.tgz:138338.got - 2010.06.28 00:19:55.
