data_PCOD8083120
_publ_section_title
;
Structure prediction by ZEFSAII (Michael W. Deem and Ramdas Pophale) SiO2 
 PCOD8083120
Probable space group: C 2/M
;
_chemical_formula_sum "Si O2"
_cell_formula_units_Z 64
_cell_length_a 30.574402
_cell_length_b 14.327832
_cell_length_c 9.943449
_cell_angle_alpha 90.000000
_cell_angle_beta 59.353006
_cell_angle_gamma 90.000000
_cell_volume 3747.465583
_symmetry_space_group_name_H-M "C 2/M"
_symmetry_group_IT_number 12
_symmetry_cell_setting 'monoclinic'
loop_
_space_group_symop_operation_xyz
x,y,z
-x,y,-z
-x,-y,-z
x,-y,z
1/2+x,1/2+y,z
1/2-x,1/2+y,-z
1/2-x,1/2-y,-z
1/2+x,1/2-y,z
loop_
_atom_site_type_symbol
_atom_site_label
_atom_site_fract_x
_atom_site_fract_y
_atom_site_fract_z
Si Si1 0.767673 0.891032 0.599857
Si Si2 0.680216 0.894382 0.522999
Si Si3 0.128408 0.788986 0.588280
Si Si4 0.464281 0.606215 0.683030
Si Si5 0.237947 0.154366 0.092278
Si Si6 0.967295 0.107413 0.182287
Si Si7 0.820800 0.400059 0.781553
Si Si8 0.871005 0.208450 0.721214
O O1 0.726739 0.872687 0.548293
O O2 0.818885 0.842260 0.468883
O O3 0.747428 0.847364 0.772258
O O4 0.778361 0.000000 0.606047
O O5 0.635201 0.819809 0.620053
O O6 0.698616 0.878530 0.339836
O O7 0.659870 0.000000 0.577858
O O8 0.084169 0.832655 0.748744
O O9 0.111342 0.799668 0.460453
O O10 0.500000 0.611560 0.500000
O O11 0.445261 0.500000 0.736722
O O12 0.497095 0.644340 0.754679
O O13 0.416067 0.674333 0.745854
O O14 0.177093 0.139506 0.178188
O O15 0.250000 0.250000 0.000000
O O16 0.271939 0.082226 0.954806
O O17 0.951644 0.000000 0.230681
O O18 0.000000 0.121935 0.000000
O O19 0.850454 0.500000 0.736476
O O20 0.856924 0.316490 0.776999
#
# Coordination Sequence:
#
# PCOD8083120 Si02
#       8
#     8   8   8   8   8   8   8   8
#     4  10  19  31  50  76 103 135 173 206 240 297
#     4   9  19  34  51  74 102 135 173 205 242 294
#     4  10  18  32  54  73  97 134 167 203 249 295
#     4  10  19  33  54  73  94 125 160 204 247 294
#     4   9  18  31  47  72 104 134 164 202 246 290
#     4  10  21  37  52  73 101 125 157 203 259 304
#     4   9  17  32  50  70 104 137 160 201 251 287
#     4   9  18  31  50  75  97 126 171 203 233 297
#
# _framework density 17.078209999999999
#
# number of rings (size 3 to 8) (size 9 to 14) (size 15 to 20)
#    0.000    2.500    1.250    1.875    0.000    2.500 
#    6.750    0.000    0.000    1.500    0.000    0.000 
#    0.000    0.000    0.000    0.000    0.000    0.000 
#
# Total GULP energy -396573.114753 kJ/mol
# GULP energy per Si atom -12392.909836 kJ/mol
# Density = 1.703934 g / cm^3
# Si number density = 17.078210 Si / 1000 Ang^3
#
#
#
# Elastic Constant Matrix: (Units=GPa)
#
#
# Indices 1 2 3 4 5 6 
#
# 1 101.6339 57.7769 47.4314 0.0000 1.7922 0.0000
# 2 57.7769 103.1908 33.9109 0.0000 -6.0737 0.0000
# 3 47.4314 33.9109 64.7302 0.0000 -1.1093 0.0000
# 4 0.0000 0.0000 0.0000 20.6524 0.0000 -0.6274
# 5 1.7922 -6.0737 -1.1093 0.0000 22.3978 0.0000
# 6 0.0000 0.0000 0.0000 -0.6274 0.0000 30.1595
#
#
#
# Elastic Compliance Matrix: (Units=1/GPa)
#
#
# Indices 1 2 3 4 5 6 
#
# 1 0.018806 -0.007508 -0.009916 0.000000 -0.004032 0.000000
# 2 -0.007508 0.014892 -0.002222 0.000000 0.004529 0.000000
# 3 -0.009916 -0.002222 0.023902 0.000000 0.001375 0.000000
# 4 0.000000 0.000000 0.000000 0.048451 0.000000 0.001008
# 5 -0.004032 0.004529 0.001375 0.000000 0.046266 0.000000
# 6 0.000000 0.000000 0.000000 0.001008 0.000000 0.033178
#
#
# Mechanical properties :
#
#
# Convention : Reuss Voigt Hill
#
# Bulk Modulus (GPa) = 54.62257 60.86592 57.74425
# Shear Modulus (GPa) = 21.65521 23.33764 22.49642
#
# Velocity S-wave (km/s) = 3.56476 3.70065 3.63334
# Velocity P-wave (km/s) = 6.99976 7.34688 7.17542
#
# Compressibility (1/GPa) = 0.01830745
#
# Stress axis : x y z
#
# Youngs Moduli (GPa) = 53.17316 67.15214 41.83679
#
# Poissons Ratio (x) = 0.50421 0.41486
# Poissons Ratio (y) = 0.39925 0.09296
# Poissons Ratio (z) = 0.52727 0.14921
#
# Static dielectric constant tensor:
#      x y z
#    x 2.980740 0.000000 0.027100 
#    y 0.000000 3.444210 0.000000 
#    z 0.027100 0.000000 3.338950 
# 
# 
# High freq. dielectric constant tensor:
#      x y z
#    x 1.637550 0.000000 0.009530 
#    y 0.000000 1.663920 0.000000 
#    z 0.009530 0.000000 1.652640 
# 
# From -- ./inp_files/111625.got.cif
#   From: 2010.06.25/outbox.cif.g09.slc.cpg/sg12_56_cif.got.tgz:111625.got - 2010.06.28 00:19:55.
