data_PCOD8083089
_publ_section_title
;
Structure prediction by ZEFSAII (Michael W. Deem and Ramdas Pophale) SiO2 
 PCOD8083089
Probable space group: C 2/M
;
_chemical_formula_sum "Si O2"
_cell_formula_units_Z 64
_cell_length_a 23.957992
_cell_length_b 23.985775
_cell_length_c 11.480250
_cell_angle_alpha 90.000000
_cell_angle_beta 31.300155
_cell_angle_gamma 90.000000
_cell_volume 3427.354112
_symmetry_space_group_name_H-M "C 2/M"
_symmetry_group_IT_number 12
_symmetry_cell_setting 'monoclinic'
loop_
_space_group_symop_operation_xyz
x,y,z
-x,y,-z
-x,-y,-z
x,-y,z
1/2+x,1/2+y,z
1/2-x,1/2+y,-z
1/2-x,1/2-y,-z
1/2+x,1/2-y,z
loop_
_atom_site_type_symbol
_atom_site_label
_atom_site_fract_x
_atom_site_fract_y
_atom_site_fract_z
Si Si1 0.829237 0.670383 0.565044
Si Si2 0.974666 0.282249 0.682016
Si Si3 0.754623 0.939562 0.558320
Si Si4 0.451273 0.666063 0.460066
Si Si5 0.285102 0.560361 0.237786
Si Si6 0.127568 0.335451 0.778670
Si Si7 0.981193 0.063263 0.255201
Si Si8 0.229699 0.716007 0.814682
O O1 0.954597 0.671073 0.377353
O O2 0.776432 0.613117 0.708836
O O3 0.819197 0.676292 0.442632
O O4 0.773661 0.721102 0.733062
O O5 0.002661 0.221151 0.686606
O O6 0.000000 0.285580 0.500000
O O7 0.850769 0.292874 0.933230
O O8 0.742339 0.944657 0.443338
O O9 0.666583 0.895407 0.758970
O O10 0.876230 0.920470 0.368612
O O11 0.729949 0.000000 0.660092
O O12 0.500000 0.668847 0.500000
O O13 0.492027 0.607342 0.339328
O O14 0.322206 0.670892 0.678870
O O15 0.260243 0.500000 0.219515
O O16 0.413283 0.570145 0.012131
O O17 0.171636 0.291466 0.793477
O O18 0.000000 0.332902 0.000000
O O19 0.972631 0.000000 0.319727
#
# Coordination Sequence:
#
# PCOD8083089 Si02
#       8
#     8   8   8   8   8   8   8   8
#     4  10  21  35  56  83 110 147 184 218 278 334
#     4  10  22  38  58  80 106 145 187 231 273 322
#     4   9  18  32  51  79 110 144 184 220 264 324
#     4  10  22  36  55  80 107 141 185 224 270 321
#     4   9  18  32  53  80 109 142 179 221 265 322
#     4  11  20  35  56  80 116 147 179 226 279 324
#     4  10  18  32  53  78 111 144 178 222 272 319
#     4  11  21  38  56  80 116 142 180 231 276 326
#
# _framework density 18.673295
#
# number of rings (size 3 to 8) (size 9 to 14) (size 15 to 20)
#    0.000    2.000    2.500    1.500    0.000    7.500 
#    0.000    0.000    0.000    1.125    0.000    0.000 
#    0.000    0.000    0.000    0.000    0.000    0.000 
#
# Total GULP energy -396547.751329 kJ/mol
# GULP energy per Si atom -12392.117229 kJ/mol
# Density = 1.863079 g / cm^3
# Si number density = 18.673295 Si / 1000 Ang^3
#
#
#
# Elastic Constant Matrix: (Units=GPa)
#
#
# Indices 1 2 3 4 5 6 
#
# 1 59.8731 26.0656 20.9166 -0.0002 -7.5665 0.0001
# 2 26.0656 93.5709 20.7025 0.0003 -8.0312 -0.0001
# 3 20.9166 20.7025 78.9330 -0.0001 -8.0426 0.0001
# 4 -0.0002 0.0003 -0.0001 19.8009 0.0001 -8.9008
# 5 -7.5665 -8.0312 -8.0426 0.0001 29.5040 -0.0001
# 6 0.0001 -0.0001 0.0001 -8.9008 -0.0001 22.0168
#
#
#
# Elastic Compliance Matrix: (Units=1/GPa)
#
#
# Indices 1 2 3 4 5 6 
#
# 1 0.020431 -0.004574 -0.003916 0.000000 0.002927 0.000000
# 2 -0.004574 0.012529 -0.001899 0.000000 0.001720 0.000000
# 3 -0.003916 -0.001899 0.014451 0.000000 0.002418 0.000000
# 4 0.000000 0.000000 0.000000 0.061719 0.000000 0.024951
# 5 0.002927 0.001720 0.002418 0.000000 0.035772 0.000000
# 6 0.000000 0.000000 0.000000 0.024951 0.000000 0.055507
#
#
# Mechanical properties :
#
#
# Convention : Reuss Voigt Hill
#
# Bulk Modulus (GPa) = 37.54649 40.86072 39.20361
# Shear Modulus (GPa) = 21.73306 25.24383 23.48845
#
# Velocity S-wave (km/s) = 3.41524 3.68076 3.55048
# Velocity P-wave (km/s) = 5.97516 6.32404 6.15207
#
# Compressibility (1/GPa) = 0.02663365
#
# Stress axis : x y z
#
# Youngs Moduli (GPa) = 48.94472 79.81549 69.19860
#
# Poissons Ratio (x) = 0.36505 0.27100
# Poissons Ratio (y) = 0.22386 0.13140
# Poissons Ratio (z) = 0.19168 0.15156
#
# Static dielectric constant tensor:
#      x y z
#    x 3.226740 0.000000 -0.194550 
#    y 0.000000 3.885570 0.000000 
#    z -0.194550 0.000000 3.350610 
# 
# 
# High freq. dielectric constant tensor:
#      x y z
#    x 1.703740 0.000000 -0.016440 
#    y 0.000000 1.728580 0.000000 
#    z -0.016440 0.000000 1.719030 
# 
# From -- ./inp_files/135423.got.cif
#   From: 2010.06.25/outbox.cif.g09.slc.cpg/sg12_68_cif.got.tgz:135423.got - 2010.06.28 00:19:55.
