data_PCOD8083002
_publ_section_title
;
Structure prediction by ZEFSAII (Michael W. Deem and Ramdas Pophale) SiO2 
 PCOD8083002
Probable space group: C 2/M
;
_chemical_formula_sum "Si O2"
_cell_formula_units_Z 56
_cell_length_a 31.738406
_cell_length_b 8.915540
_cell_length_c 21.175567
_cell_angle_alpha 90.000000
_cell_angle_beta 152.139036
_cell_angle_gamma 90.000000
_cell_volume 2800.201177
_symmetry_space_group_name_H-M "C 2/M"
_symmetry_group_IT_number 12
_symmetry_cell_setting 'monoclinic'
loop_
_space_group_symop_operation_xyz
x,y,z
-x,y,-z
-x,-y,-z
x,-y,z
1/2+x,1/2+y,z
1/2-x,1/2+y,-z
1/2-x,1/2-y,-z
1/2+x,1/2-y,z
loop_
_atom_site_type_symbol
_atom_site_label
_atom_site_fract_x
_atom_site_fract_y
_atom_site_fract_z
Si Si1 0.426814 0.322434 0.780060
Si Si2 0.099875 0.827720 0.933938
Si Si3 0.166257 0.329266 0.453153
Si Si4 0.980978 0.667193 0.282552
Si Si5 0.319567 0.822094 0.737553
Si Si6 0.243677 0.174976 0.224100
Si Si7 0.448613 0.179135 0.493316
O O1 0.421390 0.500000 0.780927
O O2 0.522541 0.267699 0.879322
O O3 0.345171 0.264709 0.626712
O O4 0.410973 0.243202 0.826846
O O5 0.095761 0.751384 0.859605
O O6 0.079916 0.000000 0.894881
O O7 0.197342 0.800065 0.094349
O O8 0.197521 0.500000 0.479944
O O9 0.234695 0.246918 0.589361
O O10 0.072425 0.331110 0.365000
O O11 0.944619 0.500000 0.244728
O O12 0.999736 0.741560 0.376104
O O13 0.314421 0.768958 0.802925
O O14 0.319101 0.000000 0.733119
O O15 0.345539 0.236567 0.355351
O O16 0.240899 0.000000 0.239847
O O17 0.500000 0.241614 0.500000
O O18 0.447948 0.000000 0.493621
#
# Coordination Sequence:
#
# PCOD8083002 Si02
#       7
#     8   8   8   8   8   8   8
#     4  10  20  34  50  74 106 145 188 227 268 316
#     4   9  20  36  56  78 107 148 185 222 266 318
#     4  10  18  32  52  76 106 143 185 228 272 316
#     4   9  17  32  56  82 108 142 179 221 267 317
#     4  12  23  33  49  76 108 144 183 228 277 318
#     4  10  20  38  58  79 108 143 184 224 269 323
#     4   9  17  33  60  89 110 135 177 223 268 323
#
# _framework density 19.998563999999998
#
# number of rings (size 3 to 8) (size 9 to 14) (size 15 to 20)
#    0.000    2.143    1.429    2.571    0.000    2.286 
#    0.000    3.571    0.000    1.714    0.000    0.000 
#    0.000    0.000    0.000    0.000    0.000    0.000 
#
# Total GULP energy -347165.425362 kJ/mol
# GULP energy per Si atom -12398.765191 kJ/mol
# Density = 1.995305 g / cm^3
# Si number density = 19.998564 Si / 1000 Ang^3
#
#
#
# Elastic Constant Matrix: (Units=GPa)
#
#
# Indices 1 2 3 4 5 6 
#
# 1 105.9292 35.0633 50.1016 0.0000 -21.6888 0.0000
# 2 35.0633 87.2542 31.6984 0.0000 -11.8314 0.0000
# 3 50.1016 31.6984 93.4232 0.0000 -23.0799 0.0000
# 4 0.0000 0.0000 0.0000 24.0255 0.0000 -9.6108
# 5 -21.6888 -11.8314 -23.0799 0.0000 22.7108 0.0000
# 6 0.0000 0.0000 0.0000 -9.6108 0.0000 19.5769
#
#
#
# Elastic Compliance Matrix: (Units=1/GPa)
#
#
# Indices 1 2 3 4 5 6 
#
# 1 0.014159 -0.002975 -0.004842 0.000000 0.007051 0.000000
# 2 -0.002975 0.013860 -0.002704 0.000000 0.001631 0.000000
# 3 -0.004842 -0.002704 0.016994 0.000000 0.011238 0.000000
# 4 0.000000 0.000000 0.000000 0.051794 0.000000 0.025427
# 5 0.007051 0.001631 0.011238 0.000000 0.063037 0.000000
# 6 0.000000 0.000000 0.000000 0.025427 0.000000 0.063563
#
#
# Mechanical properties :
#
#
# Convention : Reuss Voigt Hill
#
# Bulk Modulus (GPa) = 41.71633 57.81479 49.76556
# Shear Modulus (GPa) = 19.80678 24.57886 22.19282
#
# Velocity S-wave (km/s) = 3.15049 3.50956 3.33486
# Velocity P-wave (km/s) = 5.84287 6.73757 6.30611
#
# Compressibility (1/GPa) = 0.02397143
#
# Stress axis : x y z
#
# Youngs Moduli (GPa) = 70.62806 72.15124 58.84273
#
# Poissons Ratio (x) = 0.21462 0.28491
# Poissons Ratio (y) = 0.21009 0.15913
# Poissons Ratio (z) = 0.34197 0.19512
#
# Static dielectric constant tensor:
#      x y z
#    x 3.734900 0.000000 -0.138330 
#    y 0.000000 3.538360 0.000000 
#    z -0.138330 0.000000 3.622610 
# 
# 
# High freq. dielectric constant tensor:
#      x y z
#    x 1.770100 0.000000 -0.013740 
#    y 0.000000 1.757710 0.000000 
#    z -0.013740 0.000000 1.775220 
# 
# From -- ./inp_files/281673.got.cif
#   From: 2010.06.25/outbox.cif.g09.slc.cpg/sg12_141_cif.got.tgz:281673.got - 2010.06.28 00:19:55.
