data_PCOD8083662
_publ_section_title
;
Structure prediction by ZEFSAII (Michael W. Deem and Ramdas Pophale) SiO2 
 PCOD8083662
Probable space group: C 2/M
;
_chemical_formula_sum "Si O2"
_cell_formula_units_Z 56
_cell_length_a 11.424287
_cell_length_b 30.583483
_cell_length_c 9.835007
_cell_angle_alpha 90.000000
_cell_angle_beta 55.400747
_cell_angle_gamma 90.000000
_cell_volume 2828.566661
_symmetry_space_group_name_H-M "C 2/M"
_symmetry_group_IT_number 12
_symmetry_cell_setting 'monoclinic'
loop_
_space_group_symop_operation_xyz
x,y,z
-x,y,-z
-x,-y,-z
x,-y,z
1/2+x,1/2+y,z
1/2-x,1/2+y,-z
1/2-x,1/2-y,-z
1/2+x,1/2-y,z
loop_
_atom_site_type_symbol
_atom_site_label
_atom_site_fract_x
_atom_site_fract_y
_atom_site_fract_z
Si Si1 0.906556 0.613671 0.930287
Si Si2 0.779917 0.679648 0.583791
Si Si3 0.181377 0.094107 0.519798
Si Si4 0.376326 0.383954 0.745525
Si Si5 0.494248 0.288503 0.664483
Si Si6 0.424778 0.197132 0.753366
Si Si7 0.042903 0.450785 0.625421
O O1 0.916120 0.665293 0.889046
O O2 0.959517 0.583885 0.772118
O O3 0.743072 0.600746 0.069530
O O4 0.000000 0.603749 0.000000
O O5 0.747439 0.629263 0.577404
O O6 0.653033 0.710548 0.618226
O O7 0.800101 0.683391 0.732294
O O8 0.920575 0.693691 0.414133
O O9 0.186500 0.113401 0.364462
O O10 0.285408 0.052512 0.465856
O O11 0.016156 0.084868 0.668728
O O12 0.415638 0.333762 0.748391
O O13 0.500000 0.278961 0.500000
O O14 0.409524 0.249064 0.796756
O O15 0.998469 0.500000 0.695220
O O16 0.000000 0.440381 0.500000
#
# Coordination Sequence:
#
# PCOD8083662 Si02
#       7
#     8   8   8   8   8   8   8
#     4  12  24  41  64  94 132 164 209 264 327 376
#     4  10  18  33  55  85 113 160 212 259 305 364
#     4  10  18  39  64  87 123 165 208 250 311 379
#     4  10  21  38  61  90 124 171 207 260 306 372
#     4  11  20  34  57  86 126 169 222 265 310 361
#     4  11  22  31  57  87 119 164 218 261 309 369
#     4  11  24  44  71 100 126 158 206 260 316 387
#
# _framework density 19.798013000000001
#
# number of rings (size 3 to 8) (size 9 to 14) (size 15 to 20)
#    0.000    1.286    7.143    1.286    0.000    0.857 
#    0.000    8.571    0.000    1.714    0.000    0.000 
#    0.000    0.000    0.000    0.000    0.000    0.000 
#
# Total GULP energy -347127.174148 kJ/mol
# GULP energy per Si atom -12397.399077 kJ/mol
# Density = 1.975295 g / cm^3
# Si number density = 19.798013 Si / 1000 Ang^3
#
#
#
# Elastic Constant Matrix: (Units=GPa)
#
#
# Indices 1 2 3 4 5 6 
#
# 1 129.6940 39.4968 45.6423 0.0000 -3.3745 0.0000
# 2 39.4968 72.2684 36.8697 0.0000 -1.4687 0.0000
# 3 45.6423 36.8697 86.6791 0.0000 -15.8135 0.0000
# 4 0.0000 0.0000 0.0000 14.6884 0.0000 -0.0518
# 5 -3.3745 -1.4687 -15.8135 0.0000 29.5026 0.0000
# 6 0.0000 0.0000 0.0000 -0.0518 0.0000 13.0849
#
#
#
# Elastic Compliance Matrix: (Units=1/GPa)
#
#
# Indices 1 2 3 4 5 6 
#
# 1 0.010187 -0.003503 -0.004093 0.000000 -0.001203 0.000000
# 2 -0.003503 0.019208 -0.006899 0.000000 -0.003142 0.000000
# 3 -0.004093 -0.006899 0.018264 0.000000 0.008978 0.000000
# 4 0.000000 0.000000 0.000000 0.068082 0.000000 0.000269
# 5 -0.001203 -0.003142 0.008978 0.000000 0.038414 0.000000
# 6 0.000000 0.000000 0.000000 0.000269 0.000000 0.076425
#
#
# Mechanical properties :
#
#
# Convention : Reuss Voigt Hill
#
# Bulk Modulus (GPa) = 53.56694 59.18436 56.37565
# Shear Modulus (GPa) = 18.81163 22.56401 20.68782
#
# Velocity S-wave (km/s) = 3.08584 3.37962 3.23607
# Velocity P-wave (km/s) = 6.30968 6.72221 6.51921
#
# Compressibility (1/GPa) = 0.01866823
#
# Stress axis : x y z
#
# Youngs Moduli (GPa) = 98.16840 52.06245 54.75103
#
# Poissons Ratio (x) = 0.18240 0.22411
# Poissons Ratio (y) = 0.34393 0.37771
# Poissons Ratio (z) = 0.40182 0.35916
#
# Static dielectric constant tensor:
#      x y z
#    x 4.011160 0.000000 -0.057770 
#    y 0.000000 3.515210 0.000000 
#    z -0.057770 0.000000 3.414580 
# 
# 
# High freq. dielectric constant tensor:
#      x y z
#    x 1.792230 0.000000 -0.001060 
#    y 0.000000 1.754750 0.000000 
#    z -0.001060 0.000000 1.743640 
# 
# From -- ./inp_files/54601.got.cif
#   From: 2010.06.25/outbox.cif.g09.slc.cpg/sg12_28_cif.got.tgz:54601.got - 2010.06.28 00:19:55.
