data_PCOD8083409
_publ_section_title
;
Structure prediction by ZEFSAII (Michael W. Deem and Ramdas Pophale) SiO2 
 PCOD8083409
Probable space group: C 2/M
;
_chemical_formula_sum "Si O2"
_cell_formula_units_Z 64
_cell_length_a 15.440461
_cell_length_b 8.986638
_cell_length_c 23.669351
_cell_angle_alpha 90.000000
_cell_angle_beta 89.956096
_cell_angle_gamma 90.000000
_cell_volume 3284.306902
_symmetry_space_group_name_H-M "C 2/M"
_symmetry_group_IT_number 12
_symmetry_cell_setting 'monoclinic'
loop_
_space_group_symop_operation_xyz
x,y,z
-x,y,-z
-x,-y,-z
x,-y,z
1/2+x,1/2+y,z
1/2-x,1/2+y,-z
1/2-x,1/2-y,-z
1/2+x,1/2-y,z
loop_
_atom_site_type_symbol
_atom_site_label
_atom_site_fract_x
_atom_site_fract_y
_atom_site_fract_z
Si Si1 0.658399 0.824960 0.003930
Si Si2 0.246595 0.173444 0.690740
Si Si3 0.084529 0.672270 0.379105
Si Si4 0.247947 0.176542 0.190886
Si Si5 0.904570 0.676014 0.114905
Si Si6 0.595362 0.824561 0.126139
Si Si7 0.842511 0.673985 0.498522
Si Si8 0.087658 0.825757 0.609502
O O1 0.602407 0.770405 0.950161
O O2 0.672262 0.000000 0.002003
O O3 0.750000 0.750000 0.000000
O O4 0.612204 0.776213 0.061574
O O5 0.335756 0.219315 0.660524
O O6 0.234949 0.271776 0.745923
O O7 0.167490 0.213235 0.649844
O O8 0.246320 0.000000 0.706858
O O9 0.061549 0.500000 0.370349
O O10 0.108583 0.706359 0.443467
O O11 0.001298 0.769965 0.361649
O O12 0.326017 0.241573 0.152266
O O13 0.157247 0.239706 0.169022
O O14 0.244196 0.000000 0.188529
O O15 0.899254 0.500000 0.116544
O O16 0.997100 0.726185 0.140162
O O17 0.608917 0.000000 0.134542
O O18 0.828435 0.500000 0.488719
O O19 0.750000 0.750000 0.500000
O O20 0.901525 0.739816 0.449212
O O21 0.083006 0.000000 0.597100
#
# Coordination Sequence:
#
# PCOD8083409 Si02
#       8
#     8   8   8   8   8   8   8   8
#     4  10  18  32  57  85 115 148 186 230 282 343
#     4  10  23  44  62  80 116 157 197 241 289 347
#     4  10  22  41  62  87 120 158 194 238 294 349
#     4  11  23  39  59  84 114 147 192 246 291 334
#     4   9  19  36  57  83 116 150 187 232 282 345
#     4  10  20  36  60  85 111 153 194 228 284 350
#     4  11  21  37  62  91 124 159 196 239 294 354
#     4  11  23  40  62  92 123 155 195 242 294 350
#
# _framework density 19.486608
#
# number of rings (size 3 to 8) (size 9 to 14) (size 15 to 20)
#    0.000    1.750    2.500    1.875    0.000    6.500 
#    0.000    5.625    0.000    1.500    0.000    0.000 
#    0.000    0.000    0.000    0.000    0.000    0.000 
#
# Total GULP energy -396873.581317 kJ/mol
# GULP energy per Si atom -12402.299416 kJ/mol
# Density = 1.944226 g / cm^3
# Si number density = 19.486608 Si / 1000 Ang^3
#
#
#
# Elastic Constant Matrix: (Units=GPa)
#
#
# Indices 1 2 3 4 5 6 
#
# 1 119.2215 22.8120 17.0700 0.0000 -3.8397 0.0000
# 2 22.8120 42.8298 22.5749 0.0000 0.5445 0.0000
# 3 17.0700 22.5749 79.8215 0.0000 -3.8082 0.0000
# 4 0.0000 0.0000 0.0000 30.1147 0.0000 -0.1379
# 5 -3.8397 0.5445 -3.8082 0.0000 13.1757 0.0000
# 6 0.0000 0.0000 0.0000 -0.1379 0.0000 34.4149
#
#
#
# Elastic Compliance Matrix: (Units=1/GPa)
#
#
# Indices 1 2 3 4 5 6 
#
# 1 0.009473 -0.004799 -0.000535 0.000000 0.002804 0.000000
# 2 -0.004799 0.030023 -0.007697 0.000000 -0.004864 0.000000
# 3 -0.000535 -0.007697 0.015034 0.000000 0.004508 0.000000
# 4 0.000000 0.000000 0.000000 0.033207 0.000000 0.000133
# 5 0.002804 -0.004864 0.004508 0.000000 0.078218 0.000000
# 6 0.000000 0.000000 0.000000 0.000133 0.000000 0.029058
#
#
# Mechanical properties :
#
#
# Convention : Reuss Voigt Hill
#
# Bulk Modulus (GPa) = 35.12635 40.75406 37.94020
# Shear Modulus (GPa) = 21.68593 27.50212 24.59402
#
# Velocity S-wave (km/s) = 3.33958 3.76085 3.55646
# Velocity P-wave (km/s) = 5.73894 6.31014 6.03131
#
# Compressibility (1/GPa) = 0.02846866
#
# Stress axis : x y z
#
# Youngs Moduli (GPa) = 105.56395 33.30774 66.51538
#
# Poissons Ratio (x) = 0.15985 0.03556
# Poissons Ratio (y) = 0.50663 0.51195
# Poissons Ratio (z) = 0.05644 0.25636
#
# Static dielectric constant tensor:
#      x y z
#    x 3.707160 0.000000 -0.194710 
#    y 0.000000 3.370720 0.000000 
#    z -0.194710 0.000000 3.609880 
# 
# 
# High freq. dielectric constant tensor:
#      x y z
#    x 1.775810 0.000000 -0.000560 
#    y 0.000000 1.742980 0.000000 
#    z -0.000560 0.000000 1.758980 
# 
# From -- ./inp_files/338713.got.cif
#   From: 2010.06.25/outbox.cif.g09.slc.cpg/sg12_170_cif.got.tgz:338713.got - 2010.06.28 00:19:55.
