data_PCOD8083498
_publ_section_title
;
Structure prediction by ZEFSAII (Michael W. Deem and Ramdas Pophale) SiO2 
 PCOD8083498
Probable space group: C 2/M
;
_chemical_formula_sum "Si O2"
_cell_formula_units_Z 64
_cell_length_a 18.003841
_cell_length_b 21.904466
_cell_length_c 9.982971
_cell_angle_alpha 90.000000
_cell_angle_beta 110.788556
_cell_angle_gamma 90.000000
_cell_volume 3680.622037
_symmetry_space_group_name_H-M "C 2/M"
_symmetry_group_IT_number 12
_symmetry_cell_setting 'monoclinic'
loop_
_space_group_symop_operation_xyz
x,y,z
-x,y,-z
-x,-y,-z
x,-y,z
1/2+x,1/2+y,z
1/2-x,1/2+y,-z
1/2-x,1/2-y,-z
1/2+x,1/2-y,z
loop_
_atom_site_type_symbol
_atom_site_label
_atom_site_fract_x
_atom_site_fract_y
_atom_site_fract_z
Si Si1 0.298474 0.859151 0.787032
Si Si2 0.686890 0.731259 0.849303
Si Si3 0.000888 0.431466 0.353792
Si Si4 0.565693 0.125586 0.942471
Si Si5 0.208615 0.314786 0.628944
Si Si6 0.362587 0.248155 0.666196
Si Si7 0.317978 0.069099 0.548435
Si Si8 0.026749 0.235001 0.876332
O O1 0.218427 0.825576 0.782120
O O2 0.358884 0.809396 0.763619
O O3 0.273461 0.907034 0.654289
O O4 0.346472 0.889632 0.941558
O O5 0.675846 0.793020 0.752506
O O6 0.604941 0.705418 0.859570
O O7 0.750000 0.750000 0.000000
O O8 0.969204 0.500000 0.353500
O O9 0.089551 0.429427 0.352977
O O10 0.000000 0.398710 0.500000
O O11 0.940965 0.400691 0.211374
O O12 0.554346 0.197140 0.925346
O O13 0.500000 0.096091 0.000000
O O14 0.302626 0.300915 0.676627
O O15 0.158858 0.273089 0.495424
O O16 0.197663 0.386919 0.590270
O O17 0.453325 0.271360 0.726311
O O18 0.290273 0.000000 0.495466
O O19 0.000000 0.203515 0.000000
#
# Coordination Sequence:
#
# PCOD8083498 Si02
#       8
#     8   8   8   8   8   8   8   8
#     4  10  18  33  49  76 103 132 173 211 260 303
#     4  11  21  32  51  77 108 137 166 213 261 314
#     4  10  22  33  43  68 102 136 178 220 248 284
#     4  11  17  30  51  69  97 138 172 207 246 310
#     4   9  19  32  49  74 102 133 168 212 259 302
#     4   9  16  32  50  71 105 132 162 209 259 318
#     4  10  20  35  53  70  99 139 177 215 255 302
#     4  11  19  31  48  74 103 135 166 201 256 320
#
# _framework density 17.388365
#
# number of rings (size 3 to 8) (size 9 to 14) (size 15 to 20)
#    0.000    1.875    5.000    2.250    1.750    1.250 
#    0.000    0.000    0.000    0.750    0.000    1.750 
#    0.000    2.000    0.000    0.000    0.000    0.000 
#
# Total GULP energy -396629.638414 kJ/mol
# GULP energy per Si atom -12394.676200 kJ/mol
# Density = 1.734879 g / cm^3
# Si number density = 17.388365 Si / 1000 Ang^3
#
#
#
# Elastic Constant Matrix: (Units=GPa)
#
#
# Indices 1 2 3 4 5 6 
#
# 1 98.5499 15.8593 31.9996 0.0000 -2.7292 0.0000
# 2 15.8593 65.5451 26.2859 0.0000 -5.5663 0.0000
# 3 31.9996 26.2859 111.1118 0.0000 -5.7557 0.0000
# 4 0.0000 0.0000 0.0000 17.0361 0.0000 -2.9069
# 5 -2.7292 -5.5663 -5.7557 0.0000 27.5886 0.0000
# 6 0.0000 0.0000 0.0000 -2.9069 0.0000 15.4053
#
#
#
# Elastic Compliance Matrix: (Units=1/GPa)
#
#
# Indices 1 2 3 4 5 6 
#
# 1 0.011342 -0.001570 -0.002884 0.000000 0.000203 0.000000
# 2 -0.001570 0.017259 -0.003496 0.000000 0.002598 0.000000
# 3 -0.002884 -0.003496 0.010722 0.000000 0.001246 0.000000
# 4 0.000000 0.000000 0.000000 0.060652 0.000000 0.011445
# 5 0.000203 0.002598 0.001246 0.000000 0.037051 0.000000
# 6 0.000000 0.000000 0.000000 0.011445 0.000000 0.067072
#
#
# Mechanical properties :
#
#
# Convention : Reuss Voigt Hill
#
# Bulk Modulus (GPa) = 42.69540 47.05514 44.87527
# Shear Modulus (GPa) = 21.94828 25.41011 23.67919
#
# Velocity S-wave (km/s) = 3.55665 3.82688 3.69424
# Velocity P-wave (km/s) = 6.44001 6.82984 6.63779
#
# Compressibility (1/GPa) = 0.02342173
#
# Stress axis : x y z
#
# Youngs Moduli (GPa) = 88.16734 57.93961 93.26337
#
# Poissons Ratio (x) = 0.09098 0.26901
# Poissons Ratio (y) = 0.13845 0.32608
# Poissons Ratio (z) = 0.25431 0.20257
#
# Static dielectric constant tensor:
#      x y z
#    x 3.346740 0.000000 -0.174940 
#    y 0.000000 2.994950 0.000000 
#    z -0.174940 0.000000 3.519890 
# 
# 
# High freq. dielectric constant tensor:
#      x y z
#    x 1.652730 0.000000 -0.005630 
#    y 0.000000 1.620280 0.000000 
#    z -0.005630 0.000000 1.687640 
# 
# From -- ./inp_files/78822.got.cif
#   From: 2010.06.25/outbox.cif.g09.slc.cpg/sg12_40_cif.got.tgz:78822.got - 2010.06.28 00:19:55.
