data_PCOD8083472
_publ_section_title
;
Structure prediction by ZEFSAII (Michael W. Deem and Ramdas Pophale) SiO2 
 PCOD8083472
Probable space group: C 2/M
;
_chemical_formula_sum "Si O2"
_cell_formula_units_Z 48
_cell_length_a 28.387400
_cell_length_b 14.324977
_cell_length_c 8.624565
_cell_angle_alpha 90.000000
_cell_angle_beta 137.940429
_cell_angle_gamma 90.000000
_cell_volume 2349.462989
_symmetry_space_group_name_H-M "C 2/M"
_symmetry_group_IT_number 12
_symmetry_cell_setting 'monoclinic'
loop_
_space_group_symop_operation_xyz
x,y,z
-x,y,-z
-x,-y,-z
x,-y,z
1/2+x,1/2+y,z
1/2-x,1/2+y,-z
1/2-x,1/2-y,-z
1/2+x,1/2-y,z
loop_
_atom_site_type_symbol
_atom_site_label
_atom_site_fract_x
_atom_site_fract_y
_atom_site_fract_z
Si Si1 0.480625 0.604776 0.623253
Si Si2 0.477965 0.105217 0.268312
Si Si3 0.132957 0.104263 0.094498
Si Si4 0.343485 0.210940 0.022422
Si Si5 0.708468 0.701407 0.534637
Si Si6 0.894431 0.275521 0.486821
O O1 0.500000 0.644805 0.500000
O O2 0.450826 0.500000 0.535133
O O3 0.419603 0.668497 0.541759
O O4 0.548527 0.609521 0.898989
O O5 0.500000 0.105184 0.500000
O O6 0.405085 0.161490 0.072527
O O7 0.539578 0.155884 0.320713
O O8 0.468564 0.000000 0.182456
O O9 0.161643 0.121304 0.339209
O O10 0.155800 0.000000 0.095964
O O11 0.160411 0.179647 0.035742
O O12 0.354665 0.196824 0.231892
O O13 0.268205 0.162489 0.798806
O O14 0.750000 0.750000 0.500000
O O15 0.659655 0.778230 0.502396
#
# Coordination Sequence:
#
# PCOD8083472 Si02
#       6
#     8   8   8   8   8   8
#     4  10  18  32  59  92 116 143 190 247 299 353
#     4   9  18  34  61  91 114 142 193 255 301 341
#     4  10  20  37  58  84 121 154 186 235 301 359
#     4  10  19  38  61  88 115 156 197 246 297 356
#     4  10  24  39  53  79 121 163 197 240 294 353
#     4  11  19  36  62  87 115 154 203 246 293 349
#
# _framework density 20.430199999999999
#
# number of rings (size 3 to 8) (size 9 to 14) (size 15 to 20)
#    0.000    2.000    3.333    1.000    0.000    2.000 
#    0.000    5.000    0.000   11.000    0.000    0.000 
#    0.000    0.000    0.000    0.000    0.000    0.000 
#
# Total GULP energy -297506.506094 kJ/mol
# GULP energy per Si atom -12396.104421 kJ/mol
# Density = 2.038370 g / cm^3
# Si number density = 20.430200 Si / 1000 Ang^3
#
#
#
# Elastic Constant Matrix: (Units=GPa)
#
#
# Indices 1 2 3 4 5 6 
#
# 1 120.5412 37.4253 29.5838 0.0000 11.7903 0.0000
# 2 37.4253 107.0080 32.8639 0.0000 4.1236 0.0000
# 3 29.5838 32.8639 117.0837 0.0000 15.7805 0.0000
# 4 0.0000 0.0000 0.0000 24.2691 0.0000 -2.9355
# 5 11.7903 4.1236 15.7805 0.0000 22.7134 0.0000
# 6 0.0000 0.0000 0.0000 -2.9355 0.0000 11.7455
#
#
#
# Elastic Compliance Matrix: (Units=1/GPa)
#
#
# Indices 1 2 3 4 5 6 
#
# 1 0.009865 -0.002950 -0.001155 0.000000 -0.003783 0.000000
# 2 -0.002950 0.011109 -0.002546 0.000000 0.001283 0.000000
# 3 -0.001155 -0.002546 0.010376 0.000000 -0.006147 0.000000
# 4 0.000000 0.000000 0.000000 0.042489 0.000000 0.010619
# 5 -0.003783 0.001283 -0.006147 0.000000 0.050029 0.000000
# 6 0.000000 0.000000 0.000000 0.010619 0.000000 0.087793
#
#
# Mechanical properties :
#
#
# Convention : Reuss Voigt Hill
#
# Bulk Modulus (GPa) = 55.40388 60.48655 57.94522
# Shear Modulus (GPa) = 21.64709 28.06292 24.85501
#
# Velocity S-wave (km/s) = 3.25862 3.71023 3.49174
# Velocity P-wave (km/s) = 6.42928 6.93002 6.68434
#
# Compressibility (1/GPa) = 0.01804928
#
# Stress axis : x y z
#
# Youngs Moduli (GPa) = 101.36618 90.01549 96.37840
#
# Poissons Ratio (x) = 0.26553 0.11130
# Poissons Ratio (y) = 0.29902 0.24536
# Poissons Ratio (z) = 0.11706 0.22916
#
# Static dielectric constant tensor:
#      x y z
#    x 3.429630 0.000000 0.191200 
#    y 0.000000 3.725820 0.000000 
#    z 0.191200 0.000000 4.468310 
# 
# 
# High freq. dielectric constant tensor:
#      x y z
#    x 1.768410 0.000000 0.011530 
#    y 0.000000 1.780630 0.000000 
#    z 0.011530 0.000000 1.811000 
# 
# From -- ./inp_files/111761.got.cif
#   From: 2010.06.25/outbox.cif.g09.slc.cpg/sg12_56_cif.got.tgz:111761.got - 2010.06.28 00:19:55.
