data_PCOD8083334
_publ_section_title
;
Structure prediction by ZEFSAII (Michael W. Deem and Ramdas Pophale) SiO2 
 PCOD8083334
Probable space group: C 2/M
;
_chemical_formula_sum "Si O2"
_cell_formula_units_Z 64
_cell_length_a 15.418712
_cell_length_b 9.091359
_cell_length_c 33.433768
_cell_angle_alpha 90.000000
_cell_angle_beta 134.504163
_cell_angle_gamma 90.000000
_cell_volume 3342.514278
_symmetry_space_group_name_H-M "C 2/M"
_symmetry_group_IT_number 12
_symmetry_cell_setting 'monoclinic'
loop_
_space_group_symop_operation_xyz
x,y,z
-x,y,-z
-x,-y,-z
x,-y,z
1/2+x,1/2+y,z
1/2-x,1/2+y,-z
1/2-x,1/2-y,-z
1/2+x,1/2-y,z
loop_
_atom_site_type_symbol
_atom_site_label
_atom_site_fract_x
_atom_site_fract_y
_atom_site_fract_z
Si Si1 0.829561 0.174362 0.059276
Si Si2 0.965526 0.826256 0.367227
Si Si3 0.092361 0.825173 0.562989
Si Si4 0.720145 0.830331 0.875460
Si Si5 0.106304 0.830331 0.137486
Si Si6 0.024111 0.327040 0.246118
Si Si7 0.634540 0.825267 0.363587
Si Si8 0.217303 0.673660 0.245480
O O1 0.781458 0.226841 0.086622
O O2 0.968288 0.225765 0.097013
O O3 0.816003 0.000000 0.051639
O O4 0.750000 0.250000 0.000000
O O5 0.948427 0.767655 0.406759
O O6 0.848927 0.778932 0.303627
O O7 0.083299 0.747547 0.387181
O O8 0.985147 0.000000 0.372785
O O9 0.227682 0.769617 0.597088
O O10 0.000000 0.761533 0.500000
O O11 0.091174 0.000000 0.562680
O O12 0.846998 0.806757 0.892936
O O13 0.612165 0.784190 0.810353
O O14 0.704700 0.000000 0.884098
O O15 0.195553 0.741581 0.195108
O O16 0.115865 0.000000 0.152774
O O17 0.044855 0.500000 0.254241
O O18 0.056125 0.265515 0.300407
O O19 0.116784 0.260934 0.243395
O O20 0.627436 0.000000 0.365462
O O21 0.205098 0.500000 0.237913
#
# Coordination Sequence:
#
# PCOD8083334 Si02
#       8
#     8   8   8   8   8   8   8   8
#     4  11  24  41  59  82 112 145 184 227 269 315
#     4  10  20  34  53  80 111 140 178 227 275 322
#     4   9  18  34  55  76 103 145 191 229 270 327
#     4  10  20  37  60  82 108 143 179 219 271 326
#     4  10  22  38  58  86 115 142 177 225 275 320
#     4   9  16  30  55  81 105 139 178 214 261 328
#     4  10  19  34  56  80 107 143 186 224 269 331
#     4  10  18  32  56  82 109 143 179 218 268 328
#
# _framework density 19.147262000000001
#
# number of rings (size 3 to 8) (size 9 to 14) (size 15 to 20)
#    0.000    2.125    2.500    1.125    0.000    3.500 
#    0.000    4.375    0.000    0.750    0.000    0.000 
#    0.000    0.000    0.000    0.000    0.000    0.000 
#
# Total GULP energy -396844.536872 kJ/mol
# GULP energy per Si atom -12401.391777 kJ/mol
# Density = 1.910368 g / cm^3
# Si number density = 19.147262 Si / 1000 Ang^3
#
#
#
# Elastic Constant Matrix: (Units=GPa)
#
#
# Indices 1 2 3 4 5 6 
#
# 1 143.4660 31.2532 60.7502 0.0000 -16.4714 0.0000
# 2 31.2532 33.5894 39.5382 0.0000 -5.7935 0.0000
# 3 60.7502 39.5382 143.5047 0.0000 -9.5713 0.0000
# 4 0.0000 0.0000 0.0000 19.7474 0.0000 -3.0846
# 5 -16.4714 -5.7935 -9.5713 0.0000 16.4209 0.0000
# 6 0.0000 0.0000 0.0000 -3.0846 0.0000 29.9515
#
#
#
# Elastic Compliance Matrix: (Units=1/GPa)
#
#
# Indices 1 2 3 4 5 6 
#
# 1 0.009861 -0.005377 -0.002247 0.000000 0.006684 0.000000
# 2 -0.005377 0.048253 -0.010657 0.000000 0.005419 0.000000
# 3 -0.002247 -0.010657 0.010878 0.000000 0.000326 0.000000
# 4 0.000000 0.000000 0.000000 0.051468 0.000000 0.005300
# 5 0.006684 0.005419 0.000326 0.000000 0.069705 0.000000
# 6 0.000000 0.000000 0.000000 0.005300 0.000000 0.033933
#
#
# Mechanical properties :
#
#
# Convention : Reuss Voigt Hill
#
# Bulk Modulus (GPa) = 30.83597 64.84925 47.84261
# Shear Modulus (GPa) = 18.41831 25.82519 22.12175
#
# Velocity S-wave (km/s) = 3.10486 3.67654 3.40273
# Velocity P-wave (km/s) = 5.38453 7.20866 6.36231
#
# Compressibility (1/GPa) = 0.03242966
#
# Stress axis : x y z
#
# Youngs Moduli (GPa) = 101.41457 20.72395 91.93162
#
# Poissons Ratio (x) = 0.11143 0.20658
# Poissons Ratio (y) = 0.54529 0.97972
# Poissons Ratio (z) = 0.22788 0.22086
#
# Static dielectric constant tensor:
#      x y z
#    x 3.734000 0.000000 -0.059900 
#    y 0.000000 3.107070 0.000000 
#    z -0.059900 0.000000 3.617040 
# 
# 
# High freq. dielectric constant tensor:
#      x y z
#    x 1.760090 0.000000 -0.001610 
#    y 0.000000 1.708070 0.000000 
#    z -0.001610 0.000000 1.744490 
# 
# From -- ./inp_files/359745.got.cif
#   From: 2010.06.25/outbox.cif.g09.slc.cpg/sg12_180_cif.got.tgz:359745.got - 2010.06.28 00:19:55.
