data_PCOD8083842
_publ_section_title
;
Structure prediction by ZEFSAII (Michael W. Deem and Ramdas Pophale) SiO2 
 PCOD8083842
Probable space group: C 2/M
;
_chemical_formula_sum "Si O2"
_cell_formula_units_Z 44
_cell_length_a 18.488821
_cell_length_b 16.920392
_cell_length_c 11.976457
_cell_angle_alpha 90.000000
_cell_angle_beta 39.210804
_cell_angle_gamma 90.000000
_cell_volume 2368.566611
_symmetry_space_group_name_H-M "C 2/M"
_symmetry_group_IT_number 12
_symmetry_cell_setting 'monoclinic'
loop_
_space_group_symop_operation_xyz
x,y,z
-x,y,-z
-x,-y,-z
x,-y,z
1/2+x,1/2+y,z
1/2-x,1/2+y,-z
1/2-x,1/2-y,-z
1/2+x,1/2-y,z
loop_
_atom_site_type_symbol
_atom_site_label
_atom_site_fract_x
_atom_site_fract_y
_atom_site_fract_z
Si Si1 0.401193 0.090959 0.948270
Si Si2 0.500000 0.315286 0.500000
Si Si3 0.844204 0.298060 0.821323
Si Si4 0.650138 0.908919 0.617409
Si Si5 0.371078 0.908785 0.607801
Si Si6 0.290269 0.594215 0.651177
O O1 0.398792 0.137893 0.836597
O O2 0.532972 0.100998 0.830057
O O3 0.374233 0.000000 0.952260
O O4 0.309290 0.124031 0.145895
O O5 0.560140 0.262930 0.334372
O O6 0.589200 0.369884 0.459196
O O7 0.794356 0.349609 0.776262
O O8 0.750000 0.250000 0.000000
O O9 0.642802 0.873320 0.501107
O O10 0.753200 0.875249 0.571444
O O11 0.674031 0.000000 0.568286
O O12 0.500000 0.899487 0.500000
O O13 0.330839 0.000000 0.665736
O O14 0.299105 0.500000 0.643404
#
# Coordination Sequence:
#
# PCOD8083842 Si02
#       6
#     8   4   8   8   8   8
#     4  10  18  34  59  85 110 141 187 239 283 325
#     4  12  23  38  55  78 118 160 186 222 275 342
#     4  12  22  36  55  83 117 149 185 227 275 335
#     4   9  17  32  59  88 110 136 185 246 282 317
#     4  10  18  33  59  83 104 136 181 232 282 325
#     4  10  21  36  56  83 112 150 191 227 277 333
#
# _framework density 18.576636000000001
#
# number of rings (size 3 to 8) (size 9 to 14) (size 15 to 20)
#    0.000    1.636    4.545    1.364    0.000    2.182 
#    0.000    3.636    0.000    0.000    0.000    3.818 
#    0.000    0.000    0.000    0.000    0.000    0.000 
#
# Total GULP energy -272571.649545 kJ/mol
# GULP energy per Si atom -12389.620434 kJ/mol
# Density = 1.853435 g / cm^3
# Si number density = 18.576636 Si / 1000 Ang^3
#
#
#
# Elastic Constant Matrix: (Units=GPa)
#
#
# Indices 1 2 3 4 5 6 
#
# 1 150.8445 39.8582 60.4028 0.0000 10.1860 0.0000
# 2 39.8582 55.4360 45.9974 0.0000 6.0855 0.0000
# 3 60.4028 45.9974 114.8082 0.0000 11.3024 0.0000
# 4 0.0000 0.0000 0.0000 34.6601 0.0000 8.6679
# 5 10.1860 6.0855 11.3024 0.0000 25.4082 0.0000
# 6 0.0000 0.0000 0.0000 8.6679 0.0000 6.8910
#
#
#
# Elastic Compliance Matrix: (Units=1/GPa)
#
#
# Indices 1 2 3 4 5 6 
#
# 1 0.008936 -0.003725 -0.003079 0.000000 -0.001320 0.000000
# 2 -0.003725 0.028648 -0.009401 0.000000 -0.001186 0.000000
# 3 -0.003079 -0.009401 0.014383 0.000000 -0.002912 0.000000
# 4 0.000000 0.000000 0.000000 0.042093 0.000000 -0.052947
# 5 -0.001320 -0.001186 -0.002912 0.000000 0.041466 0.000000
# 6 0.000000 0.000000 0.000000 -0.052947 0.000000 0.211717
#
#
# Mechanical properties :
#
#
# Convention : Reuss Voigt Hill
#
# Bulk Modulus (GPa) = 51.13310 68.17836 59.65573
# Shear Modulus (GPa) = 12.94763 25.04721 18.99742
#
# Velocity S-wave (km/s) = 2.64291 3.67593 3.20136
# Velocity P-wave (km/s) = 6.07442 7.40253 6.77111
#
# Compressibility (1/GPa) = 0.01955680
#
# Stress axis : x y z
#
# Youngs Moduli (GPa) = 111.91129 34.90675 69.52606
#
# Poissons Ratio (x) = 0.13003 0.21405
# Poissons Ratio (y) = 0.41689 0.65361
# Poissons Ratio (z) = 0.34455 0.32816
#
# Static dielectric constant tensor:
#      x y z
#    x 3.633820 0.000000 0.358710 
#    y 0.000000 3.423140 0.000000 
#    z 0.358710 0.000000 3.196280 
# 
# 
# High freq. dielectric constant tensor:
#      x y z
#    x 1.716650 0.000000 0.023900 
#    y 0.000000 1.710880 0.000000 
#    z 0.023900 0.000000 1.709150 
# 
# From -- ./inp_files/145008.got.cif
#   From: 2010.06.25/outbox.cif.g09.slc.cpg/sg12_73_cif.got.tgz:145008.got - 2010.06.28 00:19:55.
