data_PCOD8083323
_publ_section_title
;
Structure prediction by ZEFSAII (Michael W. Deem and Ramdas Pophale) SiO2 
 PCOD8083323
Probable space group: C 2/M
;
_chemical_formula_sum "Si O2"
_cell_formula_units_Z 56
_cell_length_a 31.406708
_cell_length_b 8.861483
_cell_length_c 11.884176
_cell_angle_alpha 90.000000
_cell_angle_beta 116.593049
_cell_angle_gamma 90.000000
_cell_volume 2957.581487
_symmetry_space_group_name_H-M "C 2/M"
_symmetry_group_IT_number 12
_symmetry_cell_setting 'monoclinic'
loop_
_space_group_symop_operation_xyz
x,y,z
-x,y,-z
-x,-y,-z
x,-y,z
1/2+x,1/2+y,z
1/2-x,1/2+y,-z
1/2-x,1/2-y,-z
1/2+x,1/2-y,z
loop_
_atom_site_type_symbol
_atom_site_label
_atom_site_fract_x
_atom_site_fract_y
_atom_site_fract_z
Si Si1 0.399500 0.324756 0.446505
Si Si2 0.479657 0.822137 0.676942
Si Si3 0.371603 0.322507 0.938838
Si Si4 0.452889 0.673651 0.872065
Si Si5 0.814922 0.676329 0.482254
Si Si6 0.208248 0.824003 0.316003
Si Si7 0.917865 0.824182 0.217365
O O1 0.404813 0.500000 0.480926
O O2 0.448321 0.243252 0.538280
O O3 0.354110 0.261921 0.457281
O O4 0.391735 0.295760 0.304628
O O5 0.455074 0.773942 0.763791
O O6 0.532917 0.763233 0.731410
O O7 0.480057 0.000000 0.667549
O O8 0.378065 0.500000 0.950292
O O9 0.409898 0.259260 0.895212
O O10 0.318778 0.278989 0.832123
O O11 0.382452 0.261430 0.077420
O O12 0.444541 0.500000 0.826607
O O13 0.500000 0.691399 0.000000
O O14 0.826230 0.500000 0.492092
O O15 0.815569 0.730506 0.611539
O O16 0.763685 0.715396 0.366663
O O17 0.201339 0.000000 0.336627
O O18 0.929885 0.000000 0.213931
#
# Coordination Sequence:
#
# PCOD8083323 Si02
#       7
#     8   8   8   8   8   8   8
#     4  11  23  38  58  78 103 144 192 232 270 326
#     4  12  24  36  54  81 114 145 179 228 282 329
#     4   9  17  33  57  81 106 140 183 225 265 316
#     4  10  18  32  56  81 109 144 182 222 262 317
#     4  10  20  35  56  84 115 141 176 227 277 324
#     4   9  18  34  59  86 111 144 179 217 272 335
#     4  10  21  39  58  77 104 144 192 230 264 324
#
# _framework density 18.93439
#
# number of rings (size 3 to 8) (size 9 to 14) (size 15 to 20)
#    0.000    1.857    1.429    3.429    0.000    4.857 
#    0.000    1.429    0.000    0.000    0.000    0.000 
#    0.000    0.000    0.000    0.000    0.000    0.000 
#
# Total GULP energy -347214.478672 kJ/mol
# GULP energy per Si atom -12400.517095 kJ/mol
# Density = 1.889129 g / cm^3
# Si number density = 18.934390 Si / 1000 Ang^3
#
#
#
# Elastic Constant Matrix: (Units=GPa)
#
#
# Indices 1 2 3 4 5 6 
#
# 1 57.2940 24.6724 59.8559 0.0000 5.7634 0.0000
# 2 24.6724 77.7198 50.3324 0.0000 -2.0155 0.0000
# 3 59.8559 50.3324 148.3580 0.0000 7.9100 0.0000
# 4 0.0000 0.0000 0.0000 15.5204 0.0000 7.5159
# 5 5.7634 -2.0155 7.9100 0.0000 27.3107 0.0000
# 6 0.0000 0.0000 0.0000 7.5159 0.0000 19.2244
#
#
#
# Elastic Compliance Matrix: (Units=1/GPa)
#
#
# Indices 1 2 3 4 5 6 
#
# 1 0.030759 -0.002476 -0.011390 0.000000 -0.003375 0.000000
# 2 -0.002476 0.016915 -0.004910 0.000000 0.003193 0.000000
# 3 -0.011390 -0.004910 0.013095 0.000000 -0.001751 0.000000
# 4 0.000000 0.000000 0.000000 0.079479 0.000000 -0.031072
# 5 -0.003375 0.003193 -0.001751 0.000000 0.038071 0.000000
# 6 0.000000 0.000000 0.000000 -0.031072 0.000000 0.064165
#
#
# Mechanical properties :
#
#
# Convention : Reuss Voigt Hill
#
# Bulk Modulus (GPa) = 43.07107 61.45481 52.26294
# Shear Modulus (GPa) = 17.37475 22.31184 19.84329
#
# Velocity S-wave (km/s) = 3.03253 3.43647 3.24080
# Velocity P-wave (km/s) = 5.92102 6.94788 6.45490
#
# Compressibility (1/GPa) = 0.02321744
#
# Stress axis : x y z
#
# Youngs Moduli (GPa) = 32.51125 59.11789 76.36514
#
# Poissons Ratio (x) = 0.14636 0.86979
# Poissons Ratio (y) = 0.08049 0.37496
# Poissons Ratio (z) = 0.37030 0.29028
#
# Static dielectric constant tensor:
#      x y z
#    x 3.423870 0.000000 0.032790 
#    y 0.000000 3.342560 0.000000 
#    z 0.032790 0.000000 3.900570 
# 
# 
# High freq. dielectric constant tensor:
#      x y z
#    x 1.727020 0.000000 0.005000 
#    y 0.000000 1.720190 0.000000 
#    z 0.005000 0.000000 1.748270 
# 
# From -- ./inp_files/186861.got.cif
#   From: 2010.06.25/outbox.cif.g09.slc.cpg/sg12_94_cif.got.tgz:186861.got - 2010.06.28 00:19:55.
