data_PCOD8083037
_publ_section_title
;
Structure prediction by ZEFSAII (Michael W. Deem and Ramdas Pophale) SiO2 
 PCOD8083037
Probable space group: C 2/M
;
_chemical_formula_sum "Si O2"
_cell_formula_units_Z 64
_cell_length_a 19.931714
_cell_length_b 19.425049
_cell_length_c 9.766284
_cell_angle_alpha 90.000000
_cell_angle_beta 95.983464
_cell_angle_gamma 90.000000
_cell_volume 3760.656128
_symmetry_space_group_name_H-M "C 2/M"
_symmetry_group_IT_number 12
_symmetry_cell_setting 'monoclinic'
loop_
_space_group_symop_operation_xyz
x,y,z
-x,y,-z
-x,-y,-z
x,-y,z
1/2+x,1/2+y,z
1/2-x,1/2+y,-z
1/2-x,1/2-y,-z
1/2+x,1/2-y,z
loop_
_atom_site_type_symbol
_atom_site_label
_atom_site_fract_x
_atom_site_fract_y
_atom_site_fract_z
Si Si1 0.713976 0.781579 0.860893
Si Si2 0.647712 0.576061 0.267156
Si Si3 0.750021 0.924372 0.947616
Si Si4 0.813807 0.266119 0.645745
Si Si5 0.567724 0.707804 0.191527
Si Si6 0.082639 0.201378 0.873253
Si Si7 0.711273 0.640830 0.527944
Si Si8 0.842790 0.921347 0.211723
O O1 0.701348 0.863119 0.886957
O O2 0.761461 0.769813 0.740635
O O3 0.641231 0.747823 0.818745
O O4 0.750000 0.750000 0.000000
O O5 0.616871 0.500000 0.287969
O O6 0.681840 0.577529 0.126530
O O7 0.589269 0.633604 0.259035
O O8 0.705283 0.591730 0.394331
O O9 0.714855 0.000000 0.925994
O O10 0.774022 0.911959 0.109068
O O11 0.887904 0.268801 0.730046
O O12 0.788556 0.342582 0.595019
O O13 0.818438 0.216721 0.513487
O O14 0.489414 0.721728 0.207221
O O15 0.581930 0.710884 0.034546
O O16 0.096409 0.121670 0.841986
O O17 0.669557 0.605478 0.638759
O O18 0.866482 0.000000 0.220511
#
# Coordination Sequence:
#
# PCOD8083037 Si02
#       8
#     8   8   8   8   8   8   8   8
#     4  12  16  32  56  77  98 134 172 226 263 302
#     4  10  18  33  51  72 105 143 173 206 256 316
#     4  10  19  31  51  78 102 128 171 218 264 306
#     4  10  18  32  53  72 102 135 175 219 272 300
#     4  10  20  34  48  79 106 139 173 222 260 318
#     4  11  21  31  53  78 107 137 184 216 264 312
#     4  10  19  31  51  76  98 137 178 220 255 306
#     4  11  20  32  48  76 108 138 174 216 256 306
#
# _framework density 17.018305999999999
#
# number of rings (size 3 to 8) (size 9 to 14) (size 15 to 20)
#    0.000    1.500    7.500    0.375    0.000    0.500 
#    0.000    3.750    0.000    3.750    0.000    3.500 
#    0.000    2.000    0.000    0.000    0.000    0.000 
#
# Total GULP energy -396556.161846 kJ/mol
# GULP energy per Si atom -12392.380058 kJ/mol
# Density = 1.697957 g / cm^3
# Si number density = 17.018306 Si / 1000 Ang^3
#
#
#
# Elastic Constant Matrix: (Units=GPa)
#
#
# Indices 1 2 3 4 5 6 
#
# 1 98.8113 38.4451 21.8648 0.0000 18.0406 0.0000
# 2 38.4451 65.8204 15.5144 0.0000 7.8920 0.0000
# 3 21.8648 15.5144 69.8870 0.0000 9.7876 0.0000
# 4 0.0000 0.0000 0.0000 24.8376 0.0000 2.8019
# 5 18.0406 7.8920 9.7876 0.0000 20.1219 0.0000
# 6 0.0000 0.0000 0.0000 2.8019 0.0000 20.2464
#
#
#
# Elastic Compliance Matrix: (Units=1/GPa)
#
#
# Indices 1 2 3 4 5 6 
#
# 1 0.015125 -0.007240 -0.001742 0.000000 -0.009874 0.000000
# 2 -0.007240 0.019959 -0.002123 0.000000 -0.000304 0.000000
# 3 -0.001742 -0.002123 0.016086 0.000000 -0.005430 0.000000
# 4 0.000000 0.000000 0.000000 0.040900 0.000000 -0.005660
# 5 -0.009874 -0.000304 -0.005430 0.000000 0.061310 0.000000
# 6 0.000000 0.000000 0.000000 -0.005660 0.000000 0.050175
#
#
# Mechanical properties :
#
#
# Convention : Reuss Voigt Hill
#
# Bulk Modulus (GPa) = 34.53110 42.90748 38.71929
# Shear Modulus (GPa) = 21.23883 23.62082 22.42982
#
# Velocity S-wave (km/s) = 3.53654 3.72958 3.63434
# Velocity P-wave (km/s) = 6.08364 6.61919 6.35706
#
# Compressibility (1/GPa) = 0.02895940
#
# Stress axis : x y z
#
# Youngs Moduli (GPa) = 66.11359 50.10365 62.16768
#
# Poissons Ratio (x) = 0.36276 0.10830
# Poissons Ratio (y) = 0.47867 0.13198
# Poissons Ratio (z) = 0.11517 0.10637
#
# Static dielectric constant tensor:
#      x y z
#    x 3.018600 0.000000 0.156710 
#    y 0.000000 3.410290 0.000000 
#    z 0.156710 0.000000 3.376160 
# 
# 
# High freq. dielectric constant tensor:
#      x y z
#    x 1.606070 0.000000 0.007780 
#    y 0.000000 1.647320 0.000000 
#    z 0.007780 0.000000 1.674150 
# 
# From -- ./inp_files/89179.got.cif
#   From: 2010.06.25/outbox.cif.g09.slc.cpg/sg12_45_cif.got.tgz:89179.got - 2010.06.28 00:19:55.
