data_PCOD8083542
_publ_section_title
;
Structure prediction by ZEFSAII (Michael W. Deem and Ramdas Pophale) SiO2 
 PCOD8083542
Probable space group: C 2/M
;
_chemical_formula_sum "Si O2"
_cell_formula_units_Z 48
_cell_length_a 15.196773
_cell_length_b 22.299956
_cell_length_c 16.697245
_cell_angle_alpha 90.000000
_cell_angle_beta 152.656715
_cell_angle_gamma 90.000000
_cell_volume 2599.059735
_symmetry_space_group_name_H-M "C 2/M"
_symmetry_group_IT_number 12
_symmetry_cell_setting 'monoclinic'
loop_
_space_group_symop_operation_xyz
x,y,z
-x,y,-z
-x,-y,-z
x,-y,z
1/2+x,1/2+y,z
1/2-x,1/2+y,-z
1/2-x,1/2-y,-z
1/2+x,1/2-y,z
loop_
_atom_site_type_symbol
_atom_site_label
_atom_site_fract_x
_atom_site_fract_y
_atom_site_fract_z
Si Si1 0.000000 0.407893 0.000000
Si Si2 0.723531 0.688665 0.817791
Si Si3 0.452836 0.165538 0.682631
Si Si4 0.185497 0.566803 0.311891
Si Si5 0.916447 0.202227 0.701618
Si Si6 0.124871 0.815787 0.028741
Si Si7 0.000000 0.144060 0.500000
O O1 0.146506 0.369171 0.065738
O O2 0.103035 0.443835 0.154748
O O3 0.546360 0.682584 0.733200
O O4 0.855858 0.745482 0.939064
O O5 0.642769 0.688520 0.661901
O O6 0.437994 0.106587 0.725896
O O7 0.294387 0.174199 0.484150
O O8 0.427630 0.225088 0.717538
O O9 0.660018 0.158658 0.807385
O O10 0.210133 0.500000 0.368398
O O11 0.388288 0.600648 0.470918
O O12 0.000270 0.172816 0.849033
O O13 0.000000 0.845309 0.000000
#
# Coordination Sequence:
#
# PCOD8083542 Si02
#       7
#     4   8   8   8   8   8   4
#     4  10  19  30  54  80 114 150 183 222 266 326
#     4  10  18  33  52  79 115 149 181 218 277 341
#     4  10  21  36  55  78 112 149 185 231 276 333
#     4  11  21  36  53  79 113 152 191 226 269 324
#     4  10  20  35  54  79 112 148 181 227 288 333
#     4  11  22  33  54  84 111 144 184 231 283 342
#     4  10  21  32  56  80 116 150 183 218 262 334
#
# _framework density 18.468216999999999
#
# number of rings (size 3 to 8) (size 9 to 14) (size 15 to 20)
#    0.000    1.667    2.500    4.500    2.333    0.667 
#    0.000    0.000    0.000    0.500    0.000    1.167 
#    0.000    0.000    0.000    0.000    0.000    0.000 
#
# Total GULP energy -297396.999904 kJ/mol
# GULP energy per Si atom -12391.541663 kJ/mol
# Density = 1.842618 g / cm^3
# Si number density = 18.468217 Si / 1000 Ang^3
#
#
#
# Elastic Constant Matrix: (Units=GPa)
#
#
# Indices 1 2 3 4 5 6 
#
# 1 107.6818 34.3341 39.5003 -0.0001 16.5255 -0.0002
# 2 34.3341 68.1703 16.1094 0.0000 -6.4297 0.0000
# 3 39.5003 16.1094 103.2050 -0.0004 8.7370 -0.0004
# 4 -0.0001 0.0000 -0.0004 2.1082 -0.0001 -6.2319
# 5 16.5255 -6.4297 8.7370 -0.0001 24.7965 -0.0001
# 6 -0.0002 0.0000 -0.0004 -6.2319 -0.0001 12.7281
#
#
#
# Elastic Compliance Matrix: (Units=1/GPa)
#
#
# Indices 1 2 3 4 5 6 
#
# 1 0.014562 -0.007482 -0.003525 0.000001 -0.010403 0.000000
# 2 -0.007482 0.019685 -0.001096 0.000000 0.010477 0.000000
# 3 -0.003525 -0.001096 0.011374 -0.000006 -0.001943 -0.000002
# 4 0.000001 0.000000 -0.000006 -1.060398 -0.000006 -0.519186
# 5 -0.010403 0.010477 -0.001943 -0.000006 0.050662 -0.000003
# 6 0.000000 0.000000 -0.000002 -0.519186 -0.000003 -0.175635
#
#
# Mechanical properties :
#
#
# Convention : Reuss Voigt Hill
#
# Bulk Modulus (GPa) = 46.69658 50.99384 48.84521
# Shear Modulus (GPa) = -4.51098 20.53412 8.01157
#
# Velocity S-wave (km/s) = -1.56457 3.33808 2.08505
# Velocity P-wave (km/s) = 4.69850 6.52140 5.68351
#
# Compressibility (1/GPa) = 0.02141484
#
# Stress axis : x y z
#
# Youngs Moduli (GPa) = 68.67292 50.80074 87.91982
#
# Poissons Ratio (x) = 0.38011 0.30989
# Poissons Ratio (y) = 0.51383 0.09634
# Poissons Ratio (z) = 0.24205 0.05567
#
# Static dielectric constant tensor:
#      x y z
#    x 3.618160 0.000000 -0.077140 
#    y 0.000000 3.017200 0.000000 
#    z -0.077140 0.000000 3.837140 
# 
# 
# High freq. dielectric constant tensor:
#      x y z
#    x 1.711330 0.000000 0.010860 
#    y 0.000000 1.666020 0.000000 
#    z 0.010860 0.000000 1.734130 
# 
# From -- ./inp_files/218577.got.cif
#   From: 2010.06.25/outbox.cif.g09.slc.cpg/sg12_110_cif.got.tgz:218577.got - 2010.06.28 00:19:55.
