data_PCOD8083322
_publ_section_title
;
Structure prediction by ZEFSAII (Michael W. Deem and Ramdas Pophale) SiO2 
 PCOD8083322
Probable space group: C 2/M
;
_chemical_formula_sum "Si O2"
_cell_formula_units_Z 64
_cell_length_a 20.190488
_cell_length_b 19.777753
_cell_length_c 9.108263
_cell_angle_alpha 90.000000
_cell_angle_beta 89.528482
_cell_angle_gamma 90.000000
_cell_volume 3637.011049
_symmetry_space_group_name_H-M "C 2/M"
_symmetry_group_IT_number 12
_symmetry_cell_setting 'monoclinic'
loop_
_space_group_symop_operation_xyz
x,y,z
-x,y,-z
-x,-y,-z
x,-y,z
1/2+x,1/2+y,z
1/2-x,1/2+y,-z
1/2-x,1/2-y,-z
1/2+x,1/2-y,z
loop_
_atom_site_type_symbol
_atom_site_label
_atom_site_fract_x
_atom_site_fract_y
_atom_site_fract_z
Si Si1 0.171038 0.713698 0.148014
Si Si2 0.278647 0.926757 0.841276
Si Si3 0.584949 0.700786 0.640442
Si Si4 0.259772 0.073156 0.187392
Si Si5 0.389419 0.423471 0.852054
Si Si6 0.870635 0.076543 0.190136
Si Si7 0.937272 0.798181 0.693228
Si Si8 0.807075 0.285588 0.194032
O O1 0.173131 0.635187 0.200654
O O2 0.104112 0.745312 0.210251
O O3 0.235166 0.751685 0.210462
O O4 0.168094 0.719967 0.972875
O O5 0.206962 0.915178 0.770243
O O6 0.308093 0.000000 0.789820
O O7 0.267140 0.928130 0.013825
O O8 0.589923 0.625232 0.702788
O O9 0.594856 0.696872 0.466493
O O10 0.512363 0.728869 0.683618
O O11 0.640450 0.750077 0.702877
O O12 0.182305 0.083141 0.223155
O O13 0.301537 0.136282 0.249341
O O14 0.283904 0.000000 0.251529
O O15 0.416706 0.500000 0.835848
O O16 0.437992 0.372078 0.768707
O O17 0.385194 0.402275 0.022363
O O18 0.894094 0.000000 0.218457
#
# Coordination Sequence:
#
# PCOD8083322 Si02
#       8
#     8   8   8   8   8   8   8   8
#     4  10  18  32  56  81 101 128 171 217 259 304
#     4   8  14  27  50  79 106 127 154 204 263 307
#     4  11  24  37  48  69 106 146 177 210 255 305
#     4   8  14  27  50  79 106 127 154 204 263 307
#     4   9  17  32  54  77 102 134 172 212 253 301
#     4   9  17  32  54  77 102 134 172 212 253 301
#     4  11  24  37  48  69 106 146 177 210 255 305
#     4  10  18  32  56  81 101 128 171 217 259 304
#
# _framework density 17.596867
#
# number of rings (size 3 to 8) (size 9 to 14) (size 15 to 20)
#    0.000    2.500    2.500    2.250    0.000    3.500 
#    0.000    2.500    0.000    1.500    0.000    5.250 
#    0.000    0.000    0.000    0.000    0.000    0.000 
#
# Total GULP energy -396645.397149 kJ/mol
# GULP energy per Si atom -12395.168661 kJ/mol
# Density = 1.755682 g / cm^3
# Si number density = 17.596867 Si / 1000 Ang^3
#
#
#
# Elastic Constant Matrix: (Units=GPa)
#
#
# Indices 1 2 3 4 5 6 
#
# 1 20.2048 7.5363 -7.6140 0.0000 1.6564 0.0000
# 2 7.5363 99.8311 5.4002 0.0000 1.0209 0.0000
# 3 -7.6140 5.4002 19.0766 0.0000 5.6391 0.0000
# 4 0.0000 0.0000 0.0000 12.5093 0.0000 2.6146
# 5 1.6564 1.0209 5.6391 0.0000 24.8398 0.0000
# 6 0.0000 0.0000 0.0000 2.6146 0.0000 19.3896
#
#
#
# Elastic Compliance Matrix: (Units=1/GPa)
#
#
# Indices 1 2 3 4 5 6 
#
# 1 0.064382 -0.006412 0.030768 0.000000 -0.011015 0.000000
# 2 -0.006412 0.010813 -0.006019 0.000000 0.001350 0.000000
# 3 0.030768 -0.006019 0.071753 0.000000 -0.018093 0.000000
# 4 0.000000 0.000000 0.000000 0.082259 0.000000 -0.011092
# 5 -0.011015 0.001350 -0.018093 0.000000 0.045044 0.000000
# 6 0.000000 0.000000 0.000000 -0.011092 0.000000 0.053070
#
#
# Mechanical properties :
#
#
# Convention : Reuss Voigt Hill
#
# Bulk Modulus (GPa) = 5.44598 16.63974 11.04286
# Shear Modulus (GPa) = 14.21042 20.26709 17.23876
#
# Velocity S-wave (km/s) = 2.84483 3.39742 3.13333
# Velocity P-wave (km/s) = 3.72724 4.98664 4.40221
#
# Compressibility (1/GPa) = 0.18362159
#
# Stress axis : x y z
#
# Youngs Moduli (GPa) = 15.53218 92.48341 13.93675
#
# Poissons Ratio (x) = 0.59300 -0.42880
# Poissons Ratio (y) = 0.09959 0.08389
# Poissons Ratio (z) = -0.47789 0.55666
#
# Static dielectric constant tensor:
#      x y z
#    x 3.013100 0.000000 0.001720 
#    y 0.000000 3.833270 0.000000 
#    z 0.001720 0.000000 2.972760 
# 
# 
# High freq. dielectric constant tensor:
#      x y z
#    x 1.651550 0.000000 -0.000250 
#    y 0.000000 1.692290 0.000000 
#    z -0.000250 0.000000 1.651270 
# 
# From -- ./inp_files/77494.got.cif
#   From: 2010.06.25/outbox.cif.g09.slc.cpg/sg12_39_cif.got.tgz:77494.got - 2010.06.28 00:19:55.
