data_PCOD8083245
_publ_section_title
;
Structure prediction by ZEFSAII (Michael W. Deem and Ramdas Pophale) SiO2 
 PCOD8083245
Probable space group: C 2/M
;
_chemical_formula_sum "Si O2"
_cell_formula_units_Z 64
_cell_length_a 20.695138
_cell_length_b 8.944987
_cell_length_c 24.549507
_cell_angle_alpha 90.000000
_cell_angle_beta 129.235705
_cell_angle_gamma 90.000000
_cell_volume 3519.982798
_symmetry_space_group_name_H-M "C 2/M"
_symmetry_group_IT_number 12
_symmetry_cell_setting 'monoclinic'
loop_
_space_group_symop_operation_xyz
x,y,z
-x,y,-z
-x,-y,-z
x,-y,z
1/2+x,1/2+y,z
1/2-x,1/2+y,-z
1/2-x,1/2-y,-z
1/2+x,1/2-y,z
loop_
_atom_site_type_symbol
_atom_site_label
_atom_site_fract_x
_atom_site_fract_y
_atom_site_fract_z
Si Si1 0.718614 0.826178 0.208290
Si Si2 0.996681 0.324847 0.653969
Si Si3 0.407704 0.175040 0.948913
Si Si4 0.343902 0.174418 0.198198
Si Si5 0.239561 0.174106 0.650586
Si Si6 0.069668 0.670355 0.582293
Si Si7 0.740217 0.177667 0.053352
Si Si8 0.187717 0.678239 0.423724
O O1 0.632353 0.787738 0.131314
O O2 0.792563 0.725094 0.223994
O O3 0.708293 0.788496 0.266628
O O4 0.741739 0.000000 0.210681
O O5 0.986107 0.500000 0.638470
O O6 0.058438 0.293963 0.737784
O O7 0.035415 0.254297 0.619603
O O8 0.905305 0.257366 0.616166
O O9 0.346041 0.233672 0.964007
O O10 0.417744 0.000000 0.963069
O O11 0.500000 0.250501 0.000000
O O12 0.317724 0.268872 0.131465
O O13 0.327209 0.000000 0.178358
O O14 0.149480 0.245678 0.602969
O O15 0.289368 0.233302 0.624790
O O16 0.224846 0.000000 0.637432
O O17 0.095747 0.500000 0.607134
O O18 0.000000 0.684317 0.500000
O O19 0.742762 0.000000 0.049645
O O20 0.750000 0.250000 0.000000
O O21 0.191832 0.500000 0.431532
O O22 0.250000 0.750000 0.500000
#
# Coordination Sequence:
#
# PCOD8083245 Si02
#       8
#     8   8   8   8   8   8   8   8
#     4   9  17  31  51  77 106 136 166 210 264 306
#     4   9  18  33  52  76 103 134 176 217 256 309
#     4   8  15  30  52  78 104 132 171 211 247 295
#     4  10  18  32  55  80 104 138 178 216 259 306
#     4  10  20  33  51  76 104 133 167 212 265 312
#     4  10  19  32  53  77 100 131 172 216 256 304
#     4  10  20  35  55  81 111 141 175 215 260 309
#     4  10  21  38  54  73 103 138 176 218 266 318
#
# _framework density 18.181906999999999
#
# number of rings (size 3 to 8) (size 9 to 14) (size 15 to 20)
#    0.000    2.500    1.250    2.250    0.000    1.750 
#    2.250    1.875    0.000    9.375    0.000    0.000 
#    0.000    0.000    0.000    0.000    0.000    0.000 
#
# Total GULP energy -396694.369531 kJ/mol
# GULP energy per Si atom -12396.699048 kJ/mol
# Density = 1.814052 g / cm^3
# Si number density = 18.181907 Si / 1000 Ang^3
#
#
#
# Elastic Constant Matrix: (Units=GPa)
#
#
# Indices 1 2 3 4 5 6 
#
# 1 122.9992 28.8635 73.8456 0.0000 -0.8429 0.0000
# 2 28.8635 34.0063 31.4303 0.0000 -5.0599 0.0000
# 3 73.8456 31.4303 121.1756 0.0000 -5.2485 0.0000
# 4 0.0000 0.0000 0.0000 25.2829 0.0000 -3.8359
# 5 -0.8429 -5.0599 -5.2485 0.0000 38.5233 0.0000
# 6 0.0000 0.0000 0.0000 -3.8359 0.0000 20.9716
#
#
#
# Elastic Compliance Matrix: (Units=1/GPa)
#
#
# Indices 1 2 3 4 5 6 
#
# 1 0.013517 -0.005268 -0.006929 0.000000 -0.001340 0.000000
# 2 -0.005268 0.041274 -0.007308 0.000000 0.004310 0.000000
# 3 -0.006929 -0.007308 0.014408 0.000000 0.000851 0.000000
# 4 0.000000 0.000000 0.000000 0.040681 0.000000 0.007441
# 5 -0.001340 0.004310 0.000851 0.000000 0.026611 0.000000
# 6 0.000000 0.000000 0.000000 0.007441 0.000000 0.049044
#
#
# Mechanical properties :
#
#
# Convention : Reuss Voigt Hill
#
# Bulk Modulus (GPa) = 33.12639 60.71776 46.92208
# Shear Modulus (GPa) = 21.31198 26.55834 23.93516
#
# Velocity S-wave (km/s) = 3.42739 3.82606 3.63220
# Velocity P-wave (km/s) = 5.82423 7.27911 6.59193
#
# Compressibility (1/GPa) = 0.03018741
#
# Stress axis : x y z
#
# Youngs Moduli (GPa) = 73.97916 24.22838 69.40735
#
# Poissons Ratio (x) = 0.12764 0.48094
# Poissons Ratio (y) = 0.38974 0.50725
# Poissons Ratio (z) = 0.51261 0.17707
#
# Static dielectric constant tensor:
#      x y z
#    x 5.167350 0.000000 -0.370430 
#    y 0.000000 3.149380 0.000000 
#    z -0.370430 0.000000 3.630980 
# 
# 
# High freq. dielectric constant tensor:
#      x y z
#    x 1.697740 0.000000 -0.002280 
#    y 0.000000 1.678140 0.000000 
#    z -0.002280 0.000000 1.718030 
# 
# From -- ./inp_files/346271.got.cif
#   From: 2010.06.25/outbox.cif.g09.slc.cpg/sg12_174_cif.got.tgz:346271.got - 2010.06.28 00:19:55.
