data_PCOD8083548
_publ_section_title
;
Structure prediction by ZEFSAII (Michael W. Deem and Ramdas Pophale) SiO2 
 PCOD8083548
Probable space group: C 2/M
;
_chemical_formula_sum "Si O2"
_cell_formula_units_Z 64
_cell_length_a 24.378598
_cell_length_b 19.691866
_cell_length_c 9.643751
_cell_angle_alpha 90.000000
_cell_angle_beta 49.438227
_cell_angle_gamma 90.000000
_cell_volume 3517.116529
_symmetry_space_group_name_H-M "C 2/M"
_symmetry_group_IT_number 12
_symmetry_cell_setting 'monoclinic'
loop_
_space_group_symop_operation_xyz
x,y,z
-x,y,-z
-x,-y,-z
x,-y,z
1/2+x,1/2+y,z
1/2-x,1/2+y,-z
1/2-x,1/2-y,-z
1/2+x,1/2-y,z
loop_
_atom_site_type_symbol
_atom_site_label
_atom_site_fract_x
_atom_site_fract_y
_atom_site_fract_z
Si Si1 0.542210 0.330521 0.682040
Si Si2 0.601326 0.425524 0.368497
Si Si3 0.865580 0.923306 0.276260
Si Si4 0.112239 0.871519 0.053112
Si Si5 0.239460 0.317624 0.103678
Si Si6 0.662819 0.772806 0.489499
Si Si7 0.233467 0.577790 0.875355
Si Si8 0.767051 0.651510 0.389690
O O1 0.552276 0.367383 0.516754
O O2 0.574544 0.378668 0.746545
O O3 0.456769 0.320877 0.848278
O O4 0.581821 0.257591 0.619494
O O5 0.570032 0.500000 0.455975
O O6 0.603420 0.419071 0.200370
O O7 0.681456 0.418159 0.299238
O O8 0.784989 0.896843 0.435997
O O9 0.872104 0.000000 0.319488
O O10 0.881850 0.921178 0.086767
O O11 0.184400 0.827340 0.944183
O O12 0.176729 0.311737 0.321948
O O13 0.250000 0.250000 0.000000
O O14 0.216268 0.380174 0.042992
O O15 0.722487 0.714024 0.399775
O O16 0.669959 0.822323 0.610775
O O17 0.207732 0.500000 0.939389
O O18 0.196379 0.610964 0.799546
#
# Coordination Sequence:
#
# PCOD8083548 Si02
#       8
#     8   8   8   8   8   8   8   8
#     4  11  22  35  50  72 105 142 181 218 261 319
#     4  10  19  32  47  66  99 142 181 211 249 307
#     4  11  21  34  50  73 107 147 182 212 254 312
#     4  11  23  34  47  75 106 139 179 221 259 311
#     4  11  20  36  55  76 102 142 179 227 275 316
#     4  10  19  34  53  73  97 140 185 225 275 304
#     4  10  19  33  52  77 106 138 176 222 267 319
#     4  10  18  33  53  72  98 140 186 224 259 312
#
# _framework density 18.196722999999999
#
# number of rings (size 3 to 8) (size 9 to 14) (size 15 to 20)
#    0.000    1.500    5.000    2.625    0.000    3.500 
#    0.000    0.000    0.000    0.000    0.000    0.000 
#    0.000    5.000    0.000    0.125    0.000    0.000 
#
# Total GULP energy -396801.654033 kJ/mol
# GULP energy per Si atom -12400.051689 kJ/mol
# Density = 1.815531 g / cm^3
# Si number density = 18.196723 Si / 1000 Ang^3
#
#
#
# Elastic Constant Matrix: (Units=GPa)
#
#
# Indices 1 2 3 4 5 6 
#
# 1 66.3926 40.8331 39.1824 0.0000 8.1781 0.0000
# 2 40.8331 99.4425 43.1972 0.0000 8.7042 0.0000
# 3 39.1824 43.1972 81.2941 0.0000 20.5152 0.0000
# 4 0.0000 0.0000 0.0000 26.5400 0.0000 11.0129
# 5 8.1781 8.7042 20.5152 0.0000 30.5798 0.0000
# 6 0.0000 0.0000 0.0000 11.0129 0.0000 11.0872
#
#
#
# Elastic Compliance Matrix: (Units=1/GPa)
#
#
# Indices 1 2 3 4 5 6 
#
# 1 0.023685 -0.006167 -0.008407 0.000000 0.001061 0.000000
# 2 -0.006167 0.014712 -0.005062 0.000000 0.000857 0.000000
# 3 -0.008407 -0.005062 0.021803 0.000000 -0.010938 0.000000
# 4 0.000000 0.000000 0.000000 0.064099 0.000000 -0.063670
# 5 0.001061 0.000857 -0.010938 0.000000 0.039512 0.000000
# 6 0.000000 0.000000 0.000000 -0.063670 0.000000 0.153437
#
#
# Mechanical properties :
#
#
# Convention : Reuss Voigt Hill
#
# Bulk Modulus (GPa) = 47.77872 54.83941 51.30907
# Shear Modulus (GPa) = 13.75537 21.90249 17.82893
#
# Velocity S-wave (km/s) = 2.75239 3.47313 3.13355
# Velocity P-wave (km/s) = 6.03446 6.80337 6.43042
#
# Compressibility (1/GPa) = 0.02092982
#
# Stress axis : x y z
#
# Youngs Moduli (GPa) = 42.22031 67.97225 45.86557
#
# Poissons Ratio (x) = 0.41916 0.38559
# Poissons Ratio (y) = 0.26036 0.23215
# Poissons Ratio (z) = 0.35494 0.34405
#
# Static dielectric constant tensor:
#      x y z
#    x 3.368170 0.000000 0.258740 
#    y 0.000000 3.351950 0.000000 
#    z 0.258740 0.000000 3.320900 
# 
# 
# High freq. dielectric constant tensor:
#      x y z
#    x 1.685520 0.000000 0.038760 
#    y 0.000000 1.688260 0.000000 
#    z 0.038760 0.000000 1.700320 
# 
# From -- ./inp_files/106391.got.cif
#   From: 2010.06.25/outbox.cif.g09.slc.cpg/sg12_54_cif.got.tgz:106391.got - 2010.06.28 00:19:55.
