data_PCOD8083592
_publ_section_title
;
Structure prediction by ZEFSAII (Michael W. Deem and Ramdas Pophale) SiO2 
 PCOD8083592
Probable space group: C 2/M
;
_chemical_formula_sum "Si O2"
_cell_formula_units_Z 56
_cell_length_a 20.549047
_cell_length_b 8.935926
_cell_length_c 15.811215
_cell_angle_alpha 90.000000
_cell_angle_beta 106.167473
_cell_angle_gamma 90.000000
_cell_volume 2788.509447
_symmetry_space_group_name_H-M "C 2/M"
_symmetry_group_IT_number 12
_symmetry_cell_setting 'monoclinic'
loop_
_space_group_symop_operation_xyz
x,y,z
-x,y,-z
-x,-y,-z
x,-y,z
1/2+x,1/2+y,z
1/2-x,1/2+y,-z
1/2-x,1/2-y,-z
1/2+x,1/2-y,z
loop_
_atom_site_type_symbol
_atom_site_label
_atom_site_fract_x
_atom_site_fract_y
_atom_site_fract_z
Si Si1 0.467808 0.828233 0.766995
Si Si2 0.726092 0.329269 0.378926
Si Si3 0.868662 0.822456 0.401572
Si Si4 0.612960 0.174044 0.763739
Si Si5 0.109367 0.322760 0.426185
Si Si6 0.140409 0.166949 0.178093
Si Si7 0.752190 0.678083 0.091864
O O1 0.548271 0.800805 0.801642
O O2 0.440434 0.768407 0.666510
O O3 0.430585 0.752246 0.833378
O O4 0.448086 0.000000 0.766205
O O5 0.738792 0.500000 0.414303
O O6 0.794753 0.248005 0.380785
O O7 0.686132 0.235161 0.435982
O O8 0.682509 0.329408 0.278679
O O9 0.900731 0.770797 0.324777
O O10 0.914034 0.756875 0.495169
O O11 0.865958 0.000000 0.405502
O O12 0.679411 0.231243 0.836456
O O13 0.619797 0.000000 0.740212
O O14 0.109015 0.500000 0.438160
O O15 0.186883 0.237387 0.120564
O O16 0.120728 0.000000 0.144668
O O17 0.751796 0.500000 0.084501
O O18 0.750000 0.750000 0.000000
#
# Coordination Sequence:
#
# PCOD8083592 Si02
#       7
#     8   8   8   8   8   8   8
#     4   9  20  37  60  84 110 150 195 234 273 328
#     4  10  18  33  54  77 109 149 191 237 284 330
#     4  12  23  33  50  79 112 150 194 237 282 331
#     4  10  21  41  61  81 113 150 188 232 285 334
#     4  10  20  34  51  78 112 149 193 238 280 327
#     4   9  18  35  59  84 113 149 183 225 284 335
#     4  10  21  39  63  90 115 144 180 227 283 339
#
# _framework density 20.082412999999999
#
# number of rings (size 3 to 8) (size 9 to 14) (size 15 to 20)
#    0.000    2.000    1.429    2.571    0.000    3.429 
#    0.000    3.571    0.000    4.286    0.000    0.000 
#    0.000    0.000    0.000    0.000    0.000    0.000 
#
# Total GULP energy -347186.941546 kJ/mol
# GULP energy per Si atom -12399.533627 kJ/mol
# Density = 2.003670 g / cm^3
# Si number density = 20.082413 Si / 1000 Ang^3
#
#
#
# Elastic Constant Matrix: (Units=GPa)
#
#
# Indices 1 2 3 4 5 6 
#
# 1 115.3299 41.2357 49.7644 0.0000 -20.6845 0.0000
# 2 41.2357 91.8152 34.4165 0.0000 -12.6072 0.0000
# 3 49.7644 34.4165 82.1383 0.0000 -22.8540 0.0000
# 4 0.0000 0.0000 0.0000 31.3834 0.0000 -6.8126
# 5 -20.6845 -12.6072 -22.8540 0.0000 22.5139 0.0000
# 6 0.0000 0.0000 0.0000 -6.8126 0.0000 29.7102
#
#
#
# Elastic Compliance Matrix: (Units=1/GPa)
#
#
# Indices 1 2 3 4 5 6 
#
# 1 0.012897 -0.003207 -0.005119 0.000000 0.004858 0.000000
# 2 -0.003207 0.013814 -0.003502 0.000000 0.001235 0.000000
# 3 -0.005119 -0.003502 0.020750 0.000000 0.014399 0.000000
# 4 0.000000 0.000000 0.000000 0.033533 0.000000 0.007689
# 5 0.004858 0.001235 0.014399 0.000000 0.064188 0.000000
# 6 0.000000 0.000000 0.000000 0.007689 0.000000 0.035422
#
#
# Mechanical properties :
#
#
# Convention : Reuss Voigt Hill
#
# Bulk Modulus (GPa) = 42.00593 60.01295 51.00944
# Shear Modulus (GPa) = 23.56344 27.64593 25.60469
#
# Velocity S-wave (km/s) = 3.42912 3.71431 3.57456
# Velocity P-wave (km/s) = 6.05315 6.95292 6.51858
#
# Compressibility (1/GPa) = 0.02380616
#
# Stress axis : x y z
#
# Youngs Moduli (GPa) = 77.53608 72.39177 48.19377
#
# Poissons Ratio (x) = 0.23213 0.24669
# Poissons Ratio (y) = 0.24863 0.16876
# Poissons Ratio (z) = 0.39689 0.25350
#
# Static dielectric constant tensor:
#      x y z
#    x 3.756000 0.000000 -0.129580 
#    y 0.000000 3.681190 0.000000 
#    z -0.129580 0.000000 3.594220 
# 
# 
# High freq. dielectric constant tensor:
#      x y z
#    x 1.785540 0.000000 -0.010400 
#    y 0.000000 1.776270 0.000000 
#    z -0.010400 0.000000 1.766420 
# 
# From -- ./inp_files/280397.got.cif
#   From: 2010.06.25/outbox.cif.g09.slc.cpg/sg12_141_cif.got.tgz:280397.got - 2010.06.28 00:19:55.
