data_PCOD8083109
_publ_section_title
;
Structure prediction by ZEFSAII (Michael W. Deem and Ramdas Pophale) SiO2 
 PCOD8083109
Probable space group: C 2/M
;
_chemical_formula_sum "Si O2"
_cell_formula_units_Z 56
_cell_length_a 19.691251
_cell_length_b 8.842829
_cell_length_c 16.574377
_cell_angle_alpha 90.000000
_cell_angle_beta 90.214739
_cell_angle_gamma 90.000000
_cell_volume 2886.015756
_symmetry_space_group_name_H-M "C 2/M"
_symmetry_group_IT_number 12
_symmetry_cell_setting 'monoclinic'
loop_
_space_group_symop_operation_xyz
x,y,z
-x,y,-z
-x,-y,-z
x,-y,z
1/2+x,1/2+y,z
1/2-x,1/2+y,-z
1/2-x,1/2-y,-z
1/2+x,1/2-y,z
loop_
_atom_site_type_symbol
_atom_site_label
_atom_site_fract_x
_atom_site_fract_y
_atom_site_fract_z
Si Si1 0.580699 0.170683 0.497765
Si Si2 0.265927 0.321196 0.913987
Si Si3 0.023571 0.673078 0.912342
Si Si4 0.922067 0.823403 0.341293
Si Si5 0.921526 0.822374 0.664377
Si Si6 0.144178 0.177033 0.826178
Si Si7 0.615003 0.174009 0.176899
O O1 0.500000 0.179868 0.500000
O O2 0.609334 0.238314 0.581441
O O3 0.607325 0.267803 0.422080
O O4 0.606876 0.000000 0.488231
O O5 0.265040 0.500000 0.922724
O O6 0.211588 0.268991 0.847259
O O7 0.339522 0.267106 0.885417
O O8 0.250000 0.250000 0.000000
O O9 0.049670 0.500000 0.914690
O O10 0.084801 0.781199 0.887894
O O11 0.962692 0.692673 0.849510
O O12 0.000000 0.725835 0.000000
O O13 0.877442 0.776920 0.264190
O O14 0.999766 0.774828 0.325831
O O15 0.918769 0.000000 0.359626
O O16 0.877851 0.740042 0.733173
O O17 0.910951 0.000000 0.673021
O O18 0.159034 0.000000 0.833749
O O19 0.638371 0.000000 0.176248
#
# Coordination Sequence:
#
# PCOD8083109 Si02
#       7
#     8   8   8   8   8   8   8
#     4   9  17  28  47  78 114 151 190 234 283 335
#     4  12  26  44  63  84 113 152 197 241 291 347
#     4  10  21  36  56  83 114 147 185 235 291 342
#     4   9  18  32  52  81 116 152 189 231 283 340
#     4  10  18  32  53  81 117 154 192 234 285 340
#     4  11  22  38  60  86 116 151 192 237 286 344
#     4  11  22  37  59  86 118 152 192 240 288 343
#
# _framework density 19.403914
#
# number of rings (size 3 to 8) (size 9 to 14) (size 15 to 20)
#    0.000    1.714    1.429    3.857    0.000    5.429 
#    0.000    0.000    0.000    0.857    0.000    0.000 
#    0.000    0.000    0.000    0.000    0.000    0.000 
#
# Total GULP energy -347322.268881 kJ/mol
# GULP energy per Si atom -12404.366746 kJ/mol
# Density = 1.935975 g / cm^3
# Si number density = 19.403914 Si / 1000 Ang^3
#
#
#
# Elastic Constant Matrix: (Units=GPa)
#
#
# Indices 1 2 3 4 5 6 
#
# 1 32.3631 20.0514 6.0608 0.0000 0.5274 0.0000
# 2 20.0514 104.3350 45.0909 0.0000 -0.6526 0.0000
# 3 6.0608 45.0909 123.6567 0.0000 -1.8049 0.0000
# 4 0.0000 0.0000 0.0000 39.4225 0.0000 -3.0700
# 5 0.5274 -0.6526 -1.8049 0.0000 24.2266 0.0000
# 6 0.0000 0.0000 0.0000 -3.0700 0.0000 27.9692
#
#
#
# Elastic Compliance Matrix: (Units=1/GPa)
#
#
# Indices 1 2 3 4 5 6 
#
# 1 0.035176 -0.007140 0.000867 0.000000 -0.000894 0.000000
# 2 -0.007140 0.012827 -0.004325 0.000000 0.000179 0.000000
# 3 0.000867 -0.004325 0.009630 0.000000 0.000582 0.000000
# 4 0.000000 0.000000 0.000000 0.025585 0.000000 0.002808
# 5 -0.000894 0.000179 0.000582 0.000000 0.041345 0.000000
# 6 0.000000 0.000000 0.000000 0.002808 0.000000 0.036062
#
#
# Mechanical properties :
#
#
# Convention : Reuss Voigt Hill
#
# Bulk Modulus (GPa) = 27.44569 44.75124 36.09847
# Shear Modulus (GPa) = 25.77776 30.93377 28.35576
#
# Velocity S-wave (km/s) = 3.64879 3.99708 3.82690
# Velocity P-wave (km/s) = 5.65037 6.66448 6.17826
#
# Compressibility (1/GPa) = 0.03643559
#
# Stress axis : x y z
#
# Youngs Moduli (GPa) = 28.42884 77.96129 103.84313
#
# Poissons Ratio (x) = 0.55666 -0.08998
# Poissons Ratio (y) = 0.20299 0.44909
# Poissons Ratio (z) = -0.02463 0.33716
#
# Static dielectric constant tensor:
#      x y z
#    x 3.241020 0.000000 0.064110 
#    y 0.000000 3.578430 0.000000 
#    z 0.064110 0.000000 3.745430 
# 
# 
# High freq. dielectric constant tensor:
#      x y z
#    x 1.716250 0.000000 0.000650 
#    y 0.000000 1.763820 0.000000 
#    z 0.000650 0.000000 1.773020 
# 
# From -- ./inp_files/231042.got.cif
#   From: 2010.06.25/outbox.cif.g09.slc.cpg/sg12_116_cif.got.tgz:231042.got - 2010.06.28 00:19:55.
