data_PCOD8083777
_publ_section_title
;
Structure prediction by ZEFSAII (Michael W. Deem and Ramdas Pophale) SiO2 
 PCOD8083777
Probable space group: C 2/M
;
_chemical_formula_sum "Si O2"
_cell_formula_units_Z 64
_cell_length_a 27.869119
_cell_length_b 8.942219
_cell_length_c 16.644697
_cell_angle_alpha 90.000000
_cell_angle_beta 52.906237
_cell_angle_gamma 90.000000
_cell_volume 3308.693819
_symmetry_space_group_name_H-M "C 2/M"
_symmetry_group_IT_number 12
_symmetry_cell_setting 'monoclinic'
loop_
_space_group_symop_operation_xyz
x,y,z
-x,y,-z
-x,-y,-z
x,-y,z
1/2+x,1/2+y,z
1/2-x,1/2+y,-z
1/2-x,1/2-y,-z
1/2+x,1/2-y,z
loop_
_atom_site_type_symbol
_atom_site_label
_atom_site_fract_x
_atom_site_fract_y
_atom_site_fract_z
Si Si1 0.185484 0.823305 0.061701
Si Si2 0.634425 0.174787 0.426964
Si Si3 0.011816 0.675774 0.640156
Si Si4 0.606136 0.322766 0.995224
Si Si5 0.107181 0.823629 0.293777
Si Si6 0.018894 0.176956 0.805467
Si Si7 0.632140 0.322244 0.792979
Si Si8 0.748648 0.823661 0.415142
O O1 0.151336 0.761070 0.017429
O O2 0.146913 0.774608 0.177701
O O3 0.193346 0.000000 0.050408
O O4 0.250000 0.750000 0.000000
O O5 0.572514 0.216789 0.532482
O O6 0.641459 0.268229 0.338391
O O7 0.688219 0.224873 0.430893
O O8 0.638613 0.000000 0.401824
O O9 0.002176 0.500000 0.656395
O O10 0.957449 0.745199 0.644671
O O11 0.014992 0.743872 0.724671
O O12 0.610513 0.500000 0.988957
O O13 0.538149 0.274461 0.083703
O O14 0.624537 0.255071 0.890227
O O15 0.097389 0.000000 0.306096
O O16 0.078026 0.234898 0.791486
O O17 0.019668 0.000000 0.789719
O O18 0.630164 0.500000 0.799467
O O19 0.694783 0.264386 0.693460
O O20 0.750000 0.750000 0.500000
O O21 0.752272 0.000000 0.423330
#
# Coordination Sequence:
#
# PCOD8083777 Si02
#       8
#     8   8   8   8   8   8   8   8
#     4  10  22  38  58  84 116 150 186 229 282 340
#     4  10  23  39  57  83 116 154 192 235 286 343
#     4  11  22  37  57  82 115 154 192 230 286 348
#     4   9  17  33  55  83 114 142 182 236 281 326
#     4  11  23  40  60  87 115 144 190 242 285 331
#     4  10  18  33  57  85 115 144 186 239 285 331
#     4   9  18  31  56  86 109 145 190 232 281 334
#     4  10  21  38  58  83 114 148 191 230 275 337
#
# _framework density 19.342981000000002
#
# number of rings (size 3 to 8) (size 9 to 14) (size 15 to 20)
#    0.000    2.000    1.250    2.250    1.750    5.500 
#    0.000    0.000    0.000    3.000    0.000    0.000 
#    0.000    0.000    0.000    0.000    0.000    0.000 
#
# Total GULP energy -396907.147897 kJ/mol
# GULP energy per Si atom -12403.348372 kJ/mol
# Density = 1.929896 g / cm^3
# Si number density = 19.342981 Si / 1000 Ang^3
#
#
#
# Elastic Constant Matrix: (Units=GPa)
#
#
# Indices 1 2 3 4 5 6 
#
# 1 165.2426 36.0038 77.3984 0.0000 -3.1460 0.0002
# 2 36.0038 34.3724 37.0148 0.0000 0.1620 0.0004
# 3 77.3984 37.0148 134.4283 0.0000 7.7914 0.0001
# 4 0.0000 0.0000 0.0000 25.1495 0.0000 2.4556
# 5 -3.1460 0.1620 7.7914 0.0000 43.1549 0.0000
# 6 0.0002 0.0004 0.0001 2.4556 0.0000 28.7864
#
#
#
# Elastic Compliance Matrix: (Units=1/GPa)
#
#
# Indices 1 2 3 4 5 6 
#
# 1 0.009027 -0.005373 -0.003797 0.000000 0.001364 0.000000
# 2 -0.005373 0.044712 -0.009283 0.000000 0.001116 -0.000001
# 3 -0.003797 -0.009283 0.012324 0.000000 -0.002467 0.000000
# 4 0.000000 0.000000 0.000000 0.040096 0.000000 -0.003420
# 5 0.001364 0.001116 -0.002467 0.000000 0.023713 0.000000
# 6 0.000000 -0.000001 0.000000 -0.003420 0.000000 0.035030
#
#
# Mechanical properties :
#
#
# Convention : Reuss Voigt Hill
#
# Bulk Modulus (GPa) = 34.29597 70.54192 52.41894
# Shear Modulus (GPa) = 23.63771 31.65993 27.64882
#
# Velocity S-wave (km/s) = 3.49955 4.05009 3.78484
# Velocity P-wave (km/s) = 5.83935 7.64324 6.80137
#
# Compressibility (1/GPa) = 0.02915795
#
# Stress axis : x y z
#
# Youngs Moduli (GPa) = 110.78168 22.36533 81.14282
#
# Poissons Ratio (x) = 0.12017 0.30809
# Poissons Ratio (y) = 0.59522 0.75322
# Poissons Ratio (z) = 0.42062 0.20761
#
# Static dielectric constant tensor:
#      x y z
#    x 3.834930 0.000000 0.076210 
#    y 0.000000 3.242440 0.000000 
#    z 0.076210 0.000000 4.001660 
# 
# 
# High freq. dielectric constant tensor:
#      x y z
#    x 1.770800 0.000000 0.001580 
#    y 0.000000 1.719370 0.000000 
#    z 0.001580 0.000000 1.768680 
# 
# From -- ./inp_files/249722.got.cif
#   From: 2010.06.25/outbox.cif.g09.slc.cpg/sg12_125_cif.got.tgz:249722.got - 2010.06.28 00:19:55.
