data_PCOD8083764
_publ_section_title
;
Structure prediction by ZEFSAII (Michael W. Deem and Ramdas Pophale) SiO2 
 PCOD8083764
Probable space group: C 2/M
;
_chemical_formula_sum "Si O2"
_cell_formula_units_Z 64
_cell_length_a 32.818557
_cell_length_b 9.271753
_cell_length_c 16.636691
_cell_angle_alpha 90.000000
_cell_angle_beta 42.428420
_cell_angle_gamma 90.000000
_cell_volume 3415.378029
_symmetry_space_group_name_H-M "C 2/M"
_symmetry_group_IT_number 12
_symmetry_cell_setting 'monoclinic'
loop_
_space_group_symop_operation_xyz
x,y,z
-x,y,-z
-x,-y,-z
x,-y,z
1/2+x,1/2+y,z
1/2-x,1/2+y,-z
1/2-x,1/2-y,-z
1/2+x,1/2-y,z
loop_
_atom_site_type_symbol
_atom_site_label
_atom_site_fract_x
_atom_site_fract_y
_atom_site_fract_z
Si Si1 0.884794 0.171476 0.979185
Si Si2 0.502369 0.667653 0.902773
Si Si3 0.041282 0.166616 0.582263
Si Si4 0.583101 0.169015 0.672537
Si Si5 0.405563 0.668247 0.771591
Si Si6 0.349317 0.329706 0.692160
Si Si7 0.222599 0.667557 0.465286
Si Si8 0.758929 0.829312 0.236100
O O1 0.889702 0.237350 0.881698
O O2 0.941123 0.225818 0.950269
O O3 0.885572 0.000000 0.975883
O O4 0.823222 0.225908 0.109994
O O5 0.512751 0.500000 0.868098
O O6 0.559529 0.757412 0.788137
O O7 0.500000 0.697077 0.000000
O O8 0.046186 0.265062 0.653006
O O9 0.091130 0.210574 0.444913
O O10 0.974676 0.196762 0.644125
O O11 0.048055 0.000000 0.598575
O O12 0.652762 0.207367 0.559310
O O13 0.571376 0.000000 0.693684
O O14 0.394044 0.500000 0.796056
O O15 0.361660 0.726577 0.765131
O O16 0.336775 0.500000 0.707131
O O17 0.292203 0.246376 0.741739
O O18 0.232865 0.500000 0.466508
O O19 0.250000 0.750000 0.500000
O O20 0.254426 0.716223 0.336062
O O21 0.750164 0.000000 0.239531
#
# Coordination Sequence:
#
# PCOD8083764 Si02
#       8
#     8   8   8   8   8   8   8   8
#     4   9  18  34  56  80 107 143 183 227 271 317
#     4  10  21  37  61  88 109 141 190 229 265 327
#     4  10  18  33  57  82 110 145 185 227 272 323
#     4  11  22  37  57  84 117 147 176 223 285 330
#     4   9  17  32  55  83 110 137 183 236 276 319
#     4  10  20  33  55  84 110 142 184 231 277 325
#     4  10  23  39  57  81 111 146 185 226 272 325
#     4  10  21  38  56  77 111 149 181 223 277 330
#
# _framework density 18.738773999999999
#
# number of rings (size 3 to 8) (size 9 to 14) (size 15 to 20)
#    0.000    2.125    2.500    0.750    1.750    3.750 
#    0.000    1.250    0.000    1.500    0.000    0.000 
#    0.000    0.000    0.000    0.000    0.000    0.000 
#
# Total GULP energy -396796.798741 kJ/mol
# GULP energy per Si atom -12399.899961 kJ/mol
# Density = 1.869612 g / cm^3
# Si number density = 18.738774 Si / 1000 Ang^3
#
#
#
# Elastic Constant Matrix: (Units=GPa)
#
#
# Indices 1 2 3 4 5 6 
#
# 1 102.9738 25.1341 48.5587 0.0000 18.2995 0.0001
# 2 25.1341 34.0044 28.9723 -0.0006 2.5014 0.0001
# 3 48.5587 28.9723 137.9154 -0.0002 2.4477 0.0001
# 4 0.0000 -0.0006 -0.0002 23.4054 0.0000 -3.3375
# 5 18.2995 2.5014 2.4477 0.0000 28.2631 -0.0001
# 6 0.0001 0.0001 0.0001 -3.3375 -0.0001 25.6745
#
#
#
# Elastic Compliance Matrix: (Units=1/GPa)
#
#
# Indices 1 2 3 4 5 6 
#
# 1 0.014633 -0.007220 -0.003484 0.000000 -0.008534 0.000000
# 2 -0.007220 0.039562 -0.005799 0.000001 0.001675 0.000000
# 3 -0.003484 -0.005799 0.009661 0.000000 0.001932 0.000000
# 4 0.000000 0.000001 0.000000 0.043532 0.000000 0.005659
# 5 -0.008534 0.001675 0.001932 0.000000 0.040592 0.000000
# 6 0.000000 0.000000 0.000000 0.005659 0.000000 0.039685
#
#
# Mechanical properties :
#
#
# Convention : Reuss Voigt Hill
#
# Bulk Modulus (GPa) = 32.41351 53.35822 42.88586
# Shear Modulus (GPa) = 21.64949 26.95048 24.29998
#
# Velocity S-wave (km/s) = 3.40270 3.79650 3.60498
# Velocity P-wave (km/s) = 5.72477 6.91046 6.34537
#
# Compressibility (1/GPa) = 0.03085133
#
# Stress axis : x y z
#
# Youngs Moduli (GPa) = 68.33947 25.27706 103.50530
#
# Poissons Ratio (x) = 0.18249 0.36061
# Poissons Ratio (y) = 0.49338 0.60019
# Poissons Ratio (z) = 0.23809 0.14657
#
# Static dielectric constant tensor:
#      x y z
#    x 3.775240 0.000000 0.019470 
#    y 0.000000 3.130740 0.000000 
#    z 0.019470 0.000000 3.762960 
# 
# 
# High freq. dielectric constant tensor:
#      x y z
#    x 1.735200 0.000000 0.003940 
#    y 0.000000 1.691190 0.000000 
#    z 0.003940 0.000000 1.741260 
# 
# From -- ./inp_files/249657.got.cif
#   From: 2010.06.25/outbox.cif.g09.slc.cpg/sg12_125_cif.got.tgz:249657.got - 2010.06.28 00:19:55.
