data_PCOD8083188
_publ_section_title
;
Structure prediction by ZEFSAII (Michael W. Deem and Ramdas Pophale) SiO2 
 PCOD8083188
Probable space group: C 2/M
;
_chemical_formula_sum "Si O2"
_cell_formula_units_Z 64
_cell_length_a 19.118660
_cell_length_b 20.658550
_cell_length_c 11.264488
_cell_angle_alpha 90.000000
_cell_angle_beta 51.709009
_cell_angle_gamma 90.000000
_cell_volume 3491.954542
_symmetry_space_group_name_H-M "C 2/M"
_symmetry_group_IT_number 12
_symmetry_cell_setting 'monoclinic'
loop_
_space_group_symop_operation_xyz
x,y,z
-x,y,-z
-x,-y,-z
x,-y,z
1/2+x,1/2+y,z
1/2-x,1/2+y,-z
1/2-x,1/2-y,-z
1/2+x,1/2-y,z
loop_
_atom_site_type_symbol
_atom_site_label
_atom_site_fract_x
_atom_site_fract_y
_atom_site_fract_z
Si Si1 0.282422 0.924198 0.223407
Si Si2 0.326239 0.312619 0.025419
Si Si3 0.915379 0.072872 0.505909
Si Si4 0.338730 0.163700 0.951042
Si Si5 0.489777 0.185910 0.372372
Si Si6 0.991869 0.822245 0.269252
Si Si7 0.183403 0.338805 0.599699
Si Si8 0.164212 0.798365 0.717779
O O1 0.176264 0.908713 0.330327
O O2 0.323636 0.900497 0.305741
O O3 0.302115 0.000000 0.190043
O O4 0.330742 0.888249 0.064188
O O5 0.239599 0.345568 0.061471
O O6 0.324570 0.328659 0.165045
O O7 0.331684 0.235413 0.010379
O O8 0.410074 0.345273 0.871174
O O9 0.000000 0.082411 0.500000
O O10 0.932122 0.119232 0.378436
O O11 0.908422 0.000000 0.464665
O O12 0.431898 0.152570 0.786012
O O13 0.500000 0.165487 0.500000
O O14 0.497266 0.263919 0.358807
O O15 0.397140 0.162967 0.410844
O O16 0.939993 0.798920 0.206681
O O17 0.192672 0.276550 0.676241
O O18 0.274864 0.343136 0.430256
#
# Coordination Sequence:
#
# PCOD8083188 Si02
#       8
#     8   8   8   8   8   8   8   8
#     4  11  22  39  60  81 114 150 194 238 278 338
#     4  10  19  32  54  81 117 146 176 234 285 336
#     4  10  20  34  54  79 112 149 187 227 264 330
#     4  10  21  35  53  82 111 145 189 231 283 335
#     4  10  21  35  56  83 112 144 183 241 291 342
#     4  10  19  31  53  84 112 149 181 223 280 340
#     4  10  20  34  56  81 110 148 187 233 287 331
#     4  10  18  32  54  81 116 143 179 235 281 335
#
# _framework density 18.327845
#
# number of rings (size 3 to 8) (size 9 to 14) (size 15 to 20)
#    0.000    1.875    2.500    2.250    0.000    2.500 
#    0.000    1.250    0.000    6.750    0.000    0.000 
#    0.000    0.000    0.000    0.000    0.000    0.000 
#
# Total GULP energy -396755.619179 kJ/mol
# GULP energy per Si atom -12398.613099 kJ/mol
# Density = 1.828613 g / cm^3
# Si number density = 18.327845 Si / 1000 Ang^3
#
#
#
# Elastic Constant Matrix: (Units=GPa)
#
#
# Indices 1 2 3 4 5 6 
#
# 1 97.3353 19.4369 43.5920 0.0000 1.0155 0.0000
# 2 19.4369 63.3849 46.7729 0.0000 6.3810 0.0000
# 3 43.5920 46.7729 97.7499 0.0000 0.6255 0.0000
# 4 0.0000 0.0000 0.0000 23.5926 0.0000 -1.0412
# 5 1.0155 6.3810 0.6255 0.0000 36.0539 0.0000
# 6 0.0000 0.0000 0.0000 -1.0412 0.0000 16.9920
#
#
#
# Elastic Compliance Matrix: (Units=1/GPa)
#
#
# Indices 1 2 3 4 5 6 
#
# 1 0.012850 0.000497 -0.005966 0.000000 -0.000346 0.000000
# 2 0.000497 0.025033 -0.012173 0.000000 -0.004233 0.000000
# 3 -0.005966 -0.012173 0.018703 0.000000 0.001998 0.000000
# 4 0.000000 0.000000 0.000000 0.042501 0.000000 0.002604
# 5 -0.000346 -0.004233 0.001998 0.000000 0.028461 0.000000
# 6 0.000000 0.000000 0.000000 0.002604 0.000000 0.059011
#
#
# Mechanical properties :
#
#
# Convention : Reuss Voigt Hill
#
# Bulk Modulus (GPa) = 46.94428 53.11929 50.03179
# Shear Modulus (GPa) = 21.83960 25.23893 23.53926
#
# Velocity S-wave (km/s) = 3.45571 3.71493 3.58766
# Velocity P-wave (km/s) = 6.44917 6.88816 6.67228
#
# Compressibility (1/GPa) = 0.02130185
#
# Stress axis : x y z
#
# Youngs Moduli (GPa) = 77.82043 39.94764 53.46874
#
# Poissons Ratio (x) = -0.01985 0.31900
# Poissons Ratio (y) = -0.03867 0.65085
# Poissons Ratio (z) = 0.46428 0.48627
#
# Static dielectric constant tensor:
#      x y z
#    x 3.425810 0.000000 -0.137600 
#    y 0.000000 3.079780 0.000000 
#    z -0.137600 0.000000 3.361650 
# 
# 
# High freq. dielectric constant tensor:
#      x y z
#    x 1.722100 0.000000 -0.008670 
#    y 0.000000 1.669230 0.000000 
#    z -0.008670 0.000000 1.716200 
# 
# From -- ./inp_files/159555.got.cif
#   From: 2010.06.25/outbox.cif.g09.slc.cpg/sg12_80_cif.got.tgz:159555.got - 2010.06.28 00:19:55.
