data_PCOD8083381
_publ_section_title
;
Structure prediction by ZEFSAII (Michael W. Deem and Ramdas Pophale) SiO2 
 PCOD8083381
Probable space group: C 2/M
;
_chemical_formula_sum "Si O2"
_cell_formula_units_Z 56
_cell_length_a 22.748127
_cell_length_b 17.441767
_cell_length_c 8.972078
_cell_angle_alpha 90.000000
_cell_angle_beta 122.972835
_cell_angle_gamma 90.000000
_cell_volume 2986.442902
_symmetry_space_group_name_H-M "C 2/M"
_symmetry_group_IT_number 12
_symmetry_cell_setting 'monoclinic'
loop_
_space_group_symop_operation_xyz
x,y,z
-x,y,-z
-x,-y,-z
x,-y,z
1/2+x,1/2+y,z
1/2-x,1/2+y,-z
1/2-x,1/2-y,-z
1/2+x,1/2-y,z
loop_
_atom_site_type_symbol
_atom_site_label
_atom_site_fract_x
_atom_site_fract_y
_atom_site_fract_z
Si Si1 0.294698 0.912448 0.760330
Si Si2 0.682317 0.209800 0.975734
Si Si3 0.164323 0.690144 0.447240
Si Si4 0.917926 0.245083 0.411743
Si Si5 0.310423 0.313299 0.746618
Si Si6 0.070662 0.914634 0.154448
Si Si7 0.633058 0.413672 0.552914
O O1 0.341451 0.872788 0.693123
O O2 0.212764 0.905022 0.602775
O O3 0.319558 0.000000 0.804997
O O4 0.303973 0.875346 0.938117
O O5 0.618291 0.208512 0.772422
O O6 0.750000 0.250000 0.000000
O O7 0.660080 0.257744 0.087905
O O8 0.096297 0.704757 0.457073
O O9 0.227939 0.667121 0.647875
O O10 0.178931 0.774139 0.400074
O O11 0.886169 0.157912 0.366635
O O12 0.000000 0.241251 0.500000
O O13 0.358717 0.387012 0.827327
O O14 0.077820 0.908238 0.341867
O O15 0.064303 0.000000 0.087046
O O16 0.000000 0.870561 0.000000
O O17 0.625644 0.500000 0.616466
#
# Coordination Sequence:
#
# PCOD8083381 Si02
#       7
#     8   8   8   8   8   8   8
#     4  10  20  38  67  92 111 146 197 255 307 349
#     4  11  21  37  58  87 123 151 190 246 296 352
#     4  10  18  35  58  83 109 145 208 248 283 342
#     4  12  24  38  57  87 123 166 200 239 301 358
#     4  10  18  32  57  79 110 156 195 242 282 328
#     4  10  20  32  50  82 123 158 188 228 283 347
#     4  10  19  35  57  86 122 157 194 235 287 357
#
# _framework density 18.751404999999998
#
# number of rings (size 3 to 8) (size 9 to 14) (size 15 to 20)
#    0.000    1.571    5.714    0.857    2.000    0.286 
#    0.000    4.286    0.000    2.571    0.000    0.000 
#    0.000    0.000    0.000    0.000    0.000    0.000 
#
# Total GULP energy -346908.244531 kJ/mol
# GULP energy per Si atom -12389.580162 kJ/mol
# Density = 1.870873 g / cm^3
# Si number density = 18.751405 Si / 1000 Ang^3
#
#
#
# Elastic Constant Matrix: (Units=GPa)
#
#
# Indices 1 2 3 4 5 6 
#
# 1 101.0561 42.5057 25.7954 0.0000 3.6687 0.0000
# 2 42.5057 115.9775 36.7559 0.0000 -2.2520 0.0000
# 3 25.7954 36.7559 80.7392 0.0000 -0.1078 0.0000
# 4 0.0000 0.0000 0.0000 24.2925 0.0000 0.4117
# 5 3.6687 -2.2520 -0.1078 0.0000 22.9682 0.0000
# 6 0.0000 0.0000 0.0000 0.4117 0.0000 21.1643
#
#
#
# Elastic Compliance Matrix: (Units=1/GPa)
#
#
# Indices 1 2 3 4 5 6 
#
# 1 0.012130 -0.003811 -0.002143 0.000000 -0.002321 0.000000
# 2 -0.003811 0.011295 -0.003922 0.000000 0.001698 0.000000
# 3 -0.002143 -0.003922 0.014856 0.000000 0.000028 0.000000
# 4 0.000000 0.000000 0.000000 0.041178 0.000000 -0.000801
# 5 -0.002321 0.001698 0.000028 0.000000 0.044076 0.000000
# 6 0.000000 0.000000 0.000000 -0.000801 0.000000 0.047265
#
#
# Mechanical properties :
#
#
# Convention : Reuss Voigt Hill
#
# Bulk Modulus (GPa) = 53.97438 56.43187 55.20312
# Shear Modulus (GPa) = 25.41553 26.53271 25.97412
#
# Velocity S-wave (km/s) = 3.68556 3.76569 3.72584
# Velocity P-wave (km/s) = 6.85258 7.00481 6.92911
#
# Compressibility (1/GPa) = 0.01852731
#
# Stress axis : x y z
#
# Youngs Moduli (GPa) = 82.44002 88.53311 67.31332
#
# Poissons Ratio (x) = 0.33744 0.14428
# Poissons Ratio (y) = 0.31421 0.26401
# Poissons Ratio (z) = 0.17670 0.34723
#
# Static dielectric constant tensor:
#      x y z
#    x 3.263750 0.000000 0.002980 
#    y 0.000000 3.529850 0.000000 
#    z 0.002980 0.000000 3.640380 
# 
# 
# High freq. dielectric constant tensor:
#      x y z
#    x 1.702050 0.000000 -0.002270 
#    y 0.000000 1.716000 0.000000 
#    z -0.002270 0.000000 1.725660 
# 
# From -- ./inp_files/88076.got.cif
#   From: 2010.06.25/outbox.cif.g09.slc.cpg/sg12_45_cif.got.tgz:88076.got - 2010.06.28 00:19:55.
