data_PCOD8083001
_publ_section_title
;
Structure prediction by ZEFSAII (Michael W. Deem and Ramdas Pophale) SiO2 
 PCOD8083001
Probable space group: C 2/M
;
_chemical_formula_sum "Si O2"
_cell_formula_units_Z 56
_cell_length_a 29.791231
_cell_length_b 8.921017
_cell_length_c 12.636153
_cell_angle_alpha 90.000000
_cell_angle_beta 104.983934
_cell_angle_gamma 90.000000
_cell_volume 3244.098872
_symmetry_space_group_name_H-M "C 2/M"
_symmetry_group_IT_number 12
_symmetry_cell_setting 'monoclinic'
loop_
_space_group_symop_operation_xyz
x,y,z
-x,y,-z
-x,-y,-z
x,-y,z
1/2+x,1/2+y,z
1/2-x,1/2+y,-z
1/2-x,1/2-y,-z
1/2+x,1/2-y,z
loop_
_atom_site_type_symbol
_atom_site_label
_atom_site_fract_x
_atom_site_fract_y
_atom_site_fract_z
Si Si1 0.451665 0.821564 0.516007
Si Si2 0.111596 0.677707 0.708083
Si Si3 0.051264 0.324980 0.247022
Si Si4 0.395119 0.323037 0.902513
Si Si5 0.208931 0.673286 0.846455
Si Si6 0.302654 0.827022 0.914710
Si Si7 0.054662 0.324999 0.873626
O O1 0.500000 0.757012 0.500000
O O2 0.409963 0.762715 0.415172
O O3 0.443541 0.764613 0.629948
O O4 0.454281 0.000000 0.517970
O O5 0.107431 0.500000 0.710457
O O6 0.165439 0.726658 0.748391
O O7 0.082252 0.740880 0.789373
O O8 0.063661 0.500000 0.246176
O O9 0.087351 0.230569 0.200750
O O10 0.999477 0.294959 0.174789
O O11 0.395695 0.500000 0.908916
O O12 0.342695 0.266876 0.883561
O O13 0.429204 0.259266 0.012152
O O14 0.221430 0.500000 0.835430
O O15 0.253010 0.772066 0.840307
O O16 0.194298 0.701156 0.958417
O O17 0.309099 0.000000 0.889625
O O18 0.065631 0.500000 0.896330
#
# Coordination Sequence:
#
# PCOD8083001 Si02
#       7
#     8   8   8   8   8   8   8
#     4   9  15  27  51  81 105 130 171 216 250 290
#     4   9  15  27  50  79 109 134 162 207 256 300
#     4  10  20  33  53  77 104 138 177 214 250 298
#     4  12  24  35  49  71 105 142 176 212 256 307
#     4   9  17  30  50  77 107 134 161 202 260 312
#     4  10  19  33  53  75 102 132 169 211 255 309
#     4  10  18  32  52  76 105 138 172 208 252 302
#
# _framework density 17.262111999999998
#
# number of rings (size 3 to 8) (size 9 to 14) (size 15 to 20)
#    0.000    2.143    2.857    2.143    0.000    2.857 
#    0.000    0.000    0.000    3.000    0.000    0.000 
#    0.000    0.000    0.000    0.000    0.000    0.000 
#
# Total GULP energy -347213.609328 kJ/mol
# GULP energy per Si atom -12400.486047 kJ/mol
# Density = 1.722282 g / cm^3
# Si number density = 17.262112 Si / 1000 Ang^3
#
#
#
# Elastic Constant Matrix: (Units=GPa)
#
#
# Indices 1 2 3 4 5 6 
#
# 1 111.7612 45.9798 73.8395 0.0000 7.1485 0.0000
# 2 45.9798 58.8769 37.9608 0.0000 -1.0668 0.0000
# 3 73.8395 37.9608 128.1081 0.0000 2.7796 0.0000
# 4 0.0000 0.0000 0.0000 7.0336 0.0000 2.9559
# 5 7.1485 -1.0668 2.7796 0.0000 28.5292 0.0000
# 6 0.0000 0.0000 0.0000 2.9559 0.0000 24.2765
#
#
#
# Elastic Compliance Matrix: (Units=1/GPa)
#
#
# Indices 1 2 3 4 5 6 
#
# 1 0.018012 -0.009278 -0.007543 0.000000 -0.004125 0.000000
# 2 -0.009278 0.025830 -0.002383 0.000000 0.003523 0.000000
# 3 -0.007543 -0.002383 0.012848 0.000000 0.000549 0.000000
# 4 0.000000 0.000000 0.000000 0.149843 0.000000 -0.018245
# 5 -0.004125 0.003523 0.000549 0.000000 0.036164 0.000000
# 6 0.000000 0.000000 0.000000 -0.018245 0.000000 0.043414
#
#
# Mechanical properties :
#
#
# Convention : Reuss Voigt Hill
#
# Bulk Modulus (GPa) = 54.69705 68.25628 61.47667
# Shear Modulus (GPa) = 15.12343 21.36560 18.24451
#
# Velocity S-wave (km/s) = 2.96312 3.52194 3.25454
# Velocity P-wave (km/s) = 6.59255 7.49437 7.05788
#
# Compressibility (1/GPa) = 0.01828252
#
# Stress axis : x y z
#
# Youngs Moduli (GPa) = 55.51746 38.71422 77.83373
#
# Poissons Ratio (x) = 0.35919 0.58712
# Poissons Ratio (y) = 0.51509 0.18546
# Poissons Ratio (z) = 0.41879 0.09225
#
# Static dielectric constant tensor:
#      x y z
#    x 3.265660 0.000000 0.113950 
#    y 0.000000 2.921260 0.000000 
#    z 0.113950 0.000000 3.331250 
# 
# 
# High freq. dielectric constant tensor:
#      x y z
#    x 1.669480 0.000000 0.009220 
#    y 0.000000 1.635060 0.000000 
#    z 0.009220 0.000000 1.655830 
# 
# From -- ./inp_files/186807.got.cif
#   From: 2010.06.25/outbox.cif.g09.slc.cpg/sg12_94_cif.got.tgz:186807.got - 2010.06.28 00:19:55.
