data_PCOD8083772
_publ_section_title
;
Structure prediction by ZEFSAII (Michael W. Deem and Ramdas Pophale) SiO2 
 PCOD8083772
Probable space group: C 2/M
;
_chemical_formula_sum "Si O2"
_cell_formula_units_Z 48
_cell_length_a 29.423880
_cell_length_b 9.251293
_cell_length_c 10.907307
_cell_angle_alpha 90.000000
_cell_angle_beta 124.170873
_cell_angle_gamma 90.000000
_cell_volume 2456.505231
_symmetry_space_group_name_H-M "C 2/M"
_symmetry_group_IT_number 12
_symmetry_cell_setting 'monoclinic'
loop_
_space_group_symop_operation_xyz
x,y,z
-x,y,-z
-x,-y,-z
x,-y,z
1/2+x,1/2+y,z
1/2-x,1/2+y,-z
1/2-x,1/2-y,-z
1/2+x,1/2-y,z
loop_
_atom_site_type_symbol
_atom_site_label
_atom_site_fract_x
_atom_site_fract_y
_atom_site_fract_z
Si Si1 0.437548 0.838129 0.922570
Si Si2 0.778141 0.166676 0.930752
Si Si3 0.499262 0.160472 0.356717
Si Si4 0.903662 0.833903 0.094097
Si Si5 0.270288 0.173322 0.405261
Si Si6 0.107901 0.662273 0.410767
O O1 0.401936 0.833184 0.747719
O O2 0.438140 0.000000 0.978858
O O3 0.500000 0.784587 0.000000
O O4 0.406417 0.728027 0.962366
O O5 0.762762 0.219657 0.768523
O O6 0.760719 0.000000 0.915283
O O7 0.750000 0.250000 0.000000
O O8 0.842565 0.189401 0.051309
O O9 0.500000 0.142271 0.500000
O O10 0.446366 0.252796 0.244775
O O11 0.555842 0.239425 0.398228
O O12 0.495143 0.000000 0.288388
O O13 0.920268 0.000000 0.116193
O O14 0.250000 0.250000 0.500000
O O15 0.332472 0.230877 0.473508
O O16 0.267934 0.000000 0.423207
O O17 0.109599 0.500000 0.465462
#
# Coordination Sequence:
#
# PCOD8083772 Si02
#       6
#     8   8   8   8   8   8
#     4  10  18  33  57  84 115 147 188 236 281 340
#     4  10  24  42  61  87 120 158 203 249 296 354
#     4  10  21  37  60  86 110 147 196 238 282 342
#     4  11  23  38  56  84 122 153 185 235 296 356
#     4  10  21  39  62  87 118 154 197 248 295 348
#     4   9  18  34  57  86 113 141 186 243 288 329
#
# _framework density 19.539953000000001
#
# number of rings (size 3 to 8) (size 9 to 14) (size 15 to 20)
#    0.000    2.000    1.667    1.500    2.333    2.667 
#    0.000    0.833    0.000    0.000    0.000    0.000 
#    0.000    0.000    0.000    0.000    0.000    0.000 
#
# Total GULP energy -297436.350625 kJ/mol
# GULP energy per Si atom -12393.181276 kJ/mol
# Density = 1.949548 g / cm^3
# Si number density = 19.539953 Si / 1000 Ang^3
#
#
#
# Elastic Constant Matrix: (Units=GPa)
#
#
# Indices 1 2 3 4 5 6 
#
# 1 121.6574 59.3614 57.5377 0.0000 1.9692 0.0000
# 2 59.3614 75.2220 37.1371 0.0000 -0.1598 0.0000
# 3 57.5377 37.1371 105.1830 0.0000 3.7962 0.0000
# 4 0.0000 0.0000 0.0000 195.2964 0.0000 27.9610
# 5 1.9692 -0.1598 3.7962 0.0000 38.4628 0.0000
# 6 0.0000 0.0000 0.0000 27.9610 0.0000 35.9649
#
#
#
# Elastic Compliance Matrix: (Units=1/GPa)
#
#
# Indices 1 2 3 4 5 6 
#
# 1 0.015240 -0.009589 -0.004939 0.000000 -0.000333 0.000000
# 2 -0.009589 0.022149 -0.002605 0.000000 0.000840 0.000000
# 3 -0.004939 -0.002605 0.013167 0.000000 -0.001057 0.000000
# 4 0.000000 0.000000 0.000000 0.005762 0.000000 -0.004479
# 5 -0.000333 0.000840 -0.001057 0.000000 0.026124 0.000000
# 6 0.000000 0.000000 0.000000 -0.004479 0.000000 0.031287
#
#
# Mechanical properties :
#
#
# Convention : Reuss Voigt Hill
#
# Bulk Modulus (GPa) = 61.38826 67.79275 64.59051
# Shear Modulus (GPa) = 32.58923 63.81326 48.20124
#
# Velocity S-wave (km/s) = 4.08833 5.72090 4.97208
# Velocity P-wave (km/s) = 7.33287 8.85483 8.12954
#
# Compressibility (1/GPa) = 0.01628976
#
# Stress axis : x y z
#
# Youngs Moduli (GPa) = 65.61736 45.14892 75.94758
#
# Poissons Ratio (x) = 0.43293 0.37511
# Poissons Ratio (y) = 0.62919 0.19785
# Poissons Ratio (z) = 0.32409 0.11762
#
# Static dielectric constant tensor:
#      x y z
#    x 3.656540 0.000000 0.111390 
#    y 0.000000 3.394470 0.000000 
#    z 0.111390 0.000000 3.630280 
# 
# 
# High freq. dielectric constant tensor:
#      x y z
#    x 1.773540 0.000000 0.006930 
#    y 0.000000 1.729040 0.000000 
#    z 0.006930 0.000000 1.773100 
# 
# From -- ./inp_files/180239.got.cif
#   From: 2010.06.25/outbox.cif.g09.slc.cpg/sg12_91_cif.got.tgz:180239.got - 2010.06.28 00:19:55.
