data_PCOD8083738
_publ_section_title
;
Structure prediction by ZEFSAII (Michael W. Deem and Ramdas Pophale) SiO2 
 PCOD8083738
Probable space group: C 2/M
;
_chemical_formula_sum "Si O2"
_cell_formula_units_Z 64
_cell_length_a 20.219344
_cell_length_b 8.931960
_cell_length_c 22.013982
_cell_angle_alpha 90.000000
_cell_angle_beta 60.005102
_cell_angle_gamma 90.000000
_cell_volume 3443.224935
_symmetry_space_group_name_H-M "C 2/M"
_symmetry_group_IT_number 12
_symmetry_cell_setting 'monoclinic'
loop_
_space_group_symop_operation_xyz
x,y,z
-x,y,-z
-x,-y,-z
x,-y,z
1/2+x,1/2+y,z
1/2-x,1/2+y,-z
1/2-x,1/2-y,-z
1/2+x,1/2-y,z
loop_
_atom_site_type_symbol
_atom_site_label
_atom_site_fract_x
_atom_site_fract_y
_atom_site_fract_z
Si Si1 0.216486 0.322690 0.303538
Si Si2 0.582435 0.677641 0.944080
Si Si3 0.637004 0.326426 0.586448
Si Si4 0.232209 0.178009 0.943836
Si Si5 0.113924 0.822375 0.793614
Si Si6 0.024082 0.322587 0.729700
Si Si7 0.147492 0.677769 0.211695
Si Si8 0.693760 0.173631 0.446863
O O1 0.219887 0.500000 0.296234
O O2 0.303135 0.263884 0.264537
O O3 0.171714 0.255184 0.266367
O O4 0.175821 0.277644 0.385645
O O5 0.579881 0.500000 0.947063
O O6 0.648680 0.732977 0.959534
O O7 0.601107 0.732191 0.867972
O O8 0.500000 0.745459 0.000000
O O9 0.615882 0.500000 0.597775
O O10 0.571683 0.236466 0.650818
O O11 0.640395 0.271389 0.515187
O O12 0.717272 0.293655 0.581971
O O13 0.294948 0.235898 0.866637
O O14 0.235146 0.000000 0.948732
O O15 0.250000 0.250000 0.000000
O O16 0.051823 0.743649 0.780347
O O17 0.105311 0.000000 0.790230
O O18 0.029979 0.500000 0.728258
O O19 0.937377 0.266109 0.762959
O O20 0.151703 0.500000 0.212394
O O21 0.675245 0.000000 0.466971
#
# Coordination Sequence:
#
# PCOD8083738 Si02
#       8
#     8   8   8   8   8   8   8   8
#     4   9  15  31  56  78  97 133 184 223 254 302
#     4   9  18  32  54  83 108 135 177 224 265 311
#     4  10  19  33  52  78 109 140 174 214 264 315
#     4  10  20  36  56  78 108 143 178 217 263 317
#     4  10  18  33  57  79 103 136 180 228 267 306
#     4  11  22  34  51  78 110 141 176 218 266 314
#     4   9  19  35  54  75 105 144 180 215 258 314
#     4   9  17  30  53  81 104 130 172 222 268 310
#
# _framework density 18.587226000000001
#
# number of rings (size 3 to 8) (size 9 to 14) (size 15 to 20)
#    0.000    2.375    2.500    0.750    1.750    0.500 
#    0.000    1.875    0.000    8.250    0.000    0.000 
#    0.000    0.000    0.000    0.000    0.000    0.000 
#
# Total GULP energy -396758.880784 kJ/mol
# GULP energy per Si atom -12398.715025 kJ/mol
# Density = 1.854492 g / cm^3
# Si number density = 18.587226 Si / 1000 Ang^3
#
#
#
# Elastic Constant Matrix: (Units=GPa)
#
#
# Indices 1 2 3 4 5 6 
#
# 1 149.2394 32.3958 80.7435 0.0000 13.7681 -0.0001
# 2 32.3958 35.5084 28.5484 0.0000 1.8262 -0.0004
# 3 80.7435 28.5484 138.9495 0.0000 19.5279 0.0000
# 4 0.0000 0.0000 0.0000 24.4119 0.0000 4.1160
# 5 13.7681 1.8262 19.5279 0.0000 34.2265 0.0001
# 6 -0.0001 -0.0004 0.0000 4.1160 0.0001 20.5930
#
#
#
# Elastic Compliance Matrix: (Units=1/GPa)
#
#
# Indices 1 2 3 4 5 6 
#
# 1 0.010697 -0.005794 -0.004854 0.000000 -0.001225 0.000000
# 2 -0.005794 0.037047 -0.004669 0.000000 0.003018 0.000001
# 3 -0.004854 -0.004669 0.011597 0.000000 -0.004415 0.000000
# 4 0.000000 0.000000 0.000000 0.042392 0.000000 -0.008473
# 5 -0.001225 0.003018 -0.004415 0.000000 0.032068 0.000000
# 6 0.000000 0.000001 0.000000 -0.008473 0.000000 0.050254
#
#
# Mechanical properties :
#
#
# Convention : Reuss Voigt Hill
#
# Bulk Modulus (GPa) = 34.83324 67.45252 51.14288
# Shear Modulus (GPa) = 22.29571 27.98025 25.13798
#
# Velocity S-wave (km/s) = 3.46716 3.88409 3.68153
# Velocity P-wave (km/s) = 5.89995 7.51554 6.75621
#
# Compressibility (1/GPa) = 0.02870821
#
# Stress axis : x y z
#
# Youngs Moduli (GPa) = 93.48053 26.99256 86.22917
#
# Poissons Ratio (x) = 0.15641 0.41852
# Poissons Ratio (y) = 0.54167 0.40258
# Poissons Ratio (z) = 0.45372 0.12602
#
# Static dielectric constant tensor:
#      x y z
#    x 3.530140 0.000000 0.048920 
#    y 0.000000 3.014010 0.000000 
#    z 0.048920 0.000000 3.638570 
# 
# 
# High freq. dielectric constant tensor:
#      x y z
#    x 1.716900 0.000000 0.007420 
#    y 0.000000 1.679300 0.000000 
#    z 0.007420 0.000000 1.737690 
# 
# From -- ./inp_files/319946.got.cif
#   From: 2010.06.25/outbox.cif.g09.slc.cpg/sg12_160_cif.got.tgz:319946.got - 2010.06.28 00:19:55.
