data_PCOD8083239
_publ_section_title
;
Structure prediction by ZEFSAII (Michael W. Deem and Ramdas Pophale) SiO2 
 PCOD8083239
Probable space group: C 2/M
;
_chemical_formula_sum "Si O2"
_cell_formula_units_Z 48
_cell_length_a 14.874134
_cell_length_b 8.405005
_cell_length_c 29.622156
_cell_angle_alpha 90.000000
_cell_angle_beta 139.976238
_cell_angle_gamma 90.000000
_cell_volume 2381.597617
_symmetry_space_group_name_H-M "C 2/M"
_symmetry_group_IT_number 12
_symmetry_cell_setting 'monoclinic'
loop_
_space_group_symop_operation_xyz
x,y,z
-x,y,-z
-x,-y,-z
x,-y,z
1/2+x,1/2+y,z
1/2-x,1/2+y,-z
1/2-x,1/2-y,-z
1/2+x,1/2-y,z
loop_
_atom_site_type_symbol
_atom_site_label
_atom_site_fract_x
_atom_site_fract_y
_atom_site_fract_z
Si Si1 0.375261 0.185400 0.752926
Si Si2 0.316593 0.184680 0.142496
Si Si3 0.358020 0.314806 0.841837
Si Si4 0.350761 0.814990 0.399926
Si Si5 0.641641 0.688325 0.993900
Si Si6 0.651087 0.687106 0.502314
O O1 0.530983 0.259247 0.807527
O O2 0.329780 0.210814 0.786940
O O3 0.276689 0.284355 0.682332
O O4 0.366402 0.000000 0.736674
O O5 0.277492 0.212603 0.179338
O O6 0.195386 0.255263 0.063003
O O7 0.328658 0.000000 0.135165
O O8 0.377438 0.500000 0.836404
O O9 0.489726 0.247747 0.921084
O O10 0.487712 0.728280 0.432181
O O11 0.305174 0.757203 0.432206
O O12 0.386165 0.000000 0.415929
O O13 0.633225 0.500000 0.991896
O O14 0.750000 0.750000 0.000000
O O15 0.670322 0.500000 0.511403
O O16 0.750000 0.750000 0.500000
#
# Coordination Sequence:
#
# PCOD8083239 Si02
#       6
#     8   8   8   8   8   8
#     4  11  22  38  57  81 117 154 191 240 298 356
#     4   9  19  35  55  78 108 148 192 237 294 354
#     4  10  20  35  56  80 107 146 196 244 293 356
#     4  11  23  41  63  91 125 161 202 247 294 347
#     4  10  18  32  55  79 105 142 189 243 297 353
#     4  11  22  41  68  98 127 159 198 239 290 348
#
# _framework density 20.154539
#
# number of rings (size 3 to 8) (size 9 to 14) (size 15 to 20)
#    0.000    1.667    1.667    5.000    0.000    3.333 
#    0.000    7.500    0.000    2.000    0.000    0.000 
#    0.000    0.000    0.000    0.000    0.000    0.000 
#
# Total GULP energy -297535.217287 kJ/mol
# GULP energy per Si atom -12397.300720 kJ/mol
# Density = 2.010867 g / cm^3
# Si number density = 20.154539 Si / 1000 Ang^3
#
#
#
# Elastic Constant Matrix: (Units=GPa)
#
#
# Indices 1 2 3 4 5 6 
#
# 1 124.6244 12.8408 42.4742 0.0000 -15.8344 0.0000
# 2 12.8408 51.2856 15.2852 0.0000 -3.4305 0.0000
# 3 42.4742 15.2852 134.4107 0.0000 -17.0836 0.0000
# 4 0.0000 0.0000 0.0000 25.1596 0.0000 -3.7602
# 5 -15.8344 -3.4305 -17.0836 0.0000 13.6375 0.0000
# 6 0.0000 0.0000 0.0000 -3.7602 0.0000 32.7944
#
#
#
# Elastic Compliance Matrix: (Units=1/GPa)
#
#
# Indices 1 2 3 4 5 6 
#
# 1 0.009920 -0.001338 -0.001857 0.000000 0.008855 0.000000
# 2 -0.001338 0.020442 -0.001720 0.000000 0.001435 0.000000
# 3 -0.001857 -0.001720 0.009388 0.000000 0.009171 0.000000
# 4 0.000000 0.000000 0.000000 0.040439 0.000000 0.004637
# 5 0.008855 0.001435 0.009171 0.000000 0.095459 0.000000
# 6 0.000000 0.000000 0.000000 0.004637 0.000000 0.031025
#
#
# Mechanical properties :
#
#
# Convention : Reuss Voigt Hill
#
# Bulk Modulus (GPa) = 33.42146 50.16901 41.79523
# Shear Modulus (GPa) = 22.07744 30.29968 26.18856
#
# Velocity S-wave (km/s) = 3.31329 3.88153 3.60861
# Velocity P-wave (km/s) = 5.59068 6.71078 6.17618
#
# Compressibility (1/GPa) = 0.02992090
#
# Stress axis : x y z
#
# Youngs Moduli (GPa) = 100.80646 48.91870 106.51924
#
# Poissons Ratio (x) = 0.06545 0.19782
# Poissons Ratio (y) = 0.13487 0.18316
# Poissons Ratio (z) = 0.18721 0.08412
#
# Static dielectric constant tensor:
#      x y z
#    x 3.779230 0.000000 0.043400 
#    y 0.000000 3.495260 0.000000 
#    z 0.043400 0.000000 3.826920 
# 
# 
# High freq. dielectric constant tensor:
#      x y z
#    x 1.794430 0.000000 -0.002270 
#    y 0.000000 1.769630 0.000000 
#    z -0.002270 0.000000 1.790630 
# 
# From -- ./inp_files/375165.got.cif
#   From: 2010.06.25/outbox.cif.g09.slc.cpg/sg12_188_cif.got.tgz:375165.got - 2010.06.28 00:19:55.
