data_PCOD8083980
_publ_section_title
;
Structure prediction by ZEFSAII (Michael W. Deem and Ramdas Pophale) SiO2 
 PCOD8083980
Probable space group: C 2/M
;
_chemical_formula_sum "Si O2"
_cell_formula_units_Z 64
_cell_length_a 23.502774
_cell_length_b 22.344678
_cell_length_c 17.323729
_cell_angle_alpha 90.000000
_cell_angle_beta 159.025930
_cell_angle_gamma 90.000000
_cell_volume 3256.502394
_symmetry_space_group_name_H-M "C 2/M"
_symmetry_group_IT_number 12
_symmetry_cell_setting 'monoclinic'
loop_
_space_group_symop_operation_xyz
x,y,z
-x,y,-z
-x,-y,-z
x,-y,z
1/2+x,1/2+y,z
1/2-x,1/2+y,-z
1/2-x,1/2-y,-z
1/2+x,1/2-y,z
loop_
_atom_site_type_symbol
_atom_site_label
_atom_site_fract_x
_atom_site_fract_y
_atom_site_fract_z
Si Si1 0.164519 0.107373 0.172535
Si Si2 0.379533 0.631338 0.052285
Si Si3 0.878353 0.737849 0.013945
Si Si4 0.376641 0.825682 0.775916
Si Si5 0.386178 0.065664 0.573527
Si Si6 0.306960 0.431684 0.520910
Si Si7 0.305450 0.232501 0.365275
Si Si8 0.397389 0.171266 0.188342
O O1 0.176651 0.097075 0.096176
O O2 0.306549 0.068414 0.388325
O O3 0.186463 0.176785 0.224274
O O4 0.000000 0.084498 0.000000
O O5 0.234178 0.640469 0.925851
O O6 0.448173 0.695760 0.114584
O O7 0.514223 0.591940 0.263676
O O8 0.818817 0.712401 0.021549
O O9 0.029202 0.698711 0.178980
O O10 0.729237 0.739201 0.764315
O O11 0.309680 0.891838 0.678488
O O12 0.234464 0.780622 0.618959
O O13 0.500000 0.830235 0.000000
O O14 0.245027 0.075421 0.456279
O O15 0.516139 0.117214 0.746864
O O16 0.465153 0.000000 0.684880
O O17 0.296237 0.500000 0.478246
O O18 0.486424 0.210284 0.608449
#
# Coordination Sequence:
#
# PCOD8083980 Si02
#       8
#     8   8   8   8   8   8   8   8
#     4  10  18  34  54  81 116 151 186 242 293 345
#     4  11  23  36  58  88 120 153 196 235 292 361
#     4  10  20  35  59  88 124 154 189 240 306 353
#     4  10  20  37  62  92 116 151 196 249 296 349
#     4  10  22  37  57  81 112 158 206 243 288 346
#     4  11  23  39  59  85 114 155 207 250 284 340
#     4   9  20  33  57  90 121 149 195 237 291 364
#     4  11  22  38  58  89 123 160 193 240 299 354
#
# _framework density 19.652987
#
# number of rings (size 3 to 8) (size 9 to 14) (size 15 to 20)
#    0.000    1.750    2.500    3.000    1.750    7.000 
#    0.000    1.875    0.000    0.000    0.000    3.500 
#    0.000    0.000    0.000    0.000    0.000    0.000 
#
# Total GULP energy -396739.347999 kJ/mol
# GULP energy per Si atom -12398.104625 kJ/mol
# Density = 1.960826 g / cm^3
# Si number density = 19.652987 Si / 1000 Ang^3
#
#
#
# Elastic Constant Matrix: (Units=GPa)
#
#
# Indices 1 2 3 4 5 6 
#
# 1 87.6534 20.3001 25.4475 0.0000 12.2547 0.0000
# 2 20.3001 92.6849 30.1115 0.0000 5.8111 0.0000
# 3 25.4475 30.1115 61.1828 0.0000 13.0047 0.0000
# 4 0.0000 0.0000 0.0000 24.3127 0.0000 -3.9497
# 5 12.2547 5.8111 13.0047 0.0000 22.0141 0.0000
# 6 0.0000 0.0000 0.0000 -3.9497 0.0000 17.1905
#
#
#
# Elastic Compliance Matrix: (Units=1/GPa)
#
#
# Indices 1 2 3 4 5 6 
#
# 1 0.013547 -0.001390 -0.003918 0.000000 -0.004860 0.000000
# 2 -0.001390 0.012988 -0.006004 0.000000 0.000892 0.000000
# 3 -0.003918 -0.006004 0.023019 0.000000 -0.009832 0.000000
# 4 0.000000 0.000000 0.000000 0.042725 0.000000 0.009817
# 5 -0.004860 0.000892 -0.009832 0.000000 0.053704 0.000000
# 6 0.000000 0.000000 0.000000 0.009817 0.000000 0.060427
#
#
# Mechanical properties :
#
#
# Convention : Reuss Voigt Hill
#
# Bulk Modulus (GPa) = 37.13068 43.69328 40.41198
# Shear Modulus (GPa) = 21.00749 23.74761 22.37755
#
# Velocity S-wave (km/s) = 3.27298 3.47990 3.37803
# Velocity P-wave (km/s) = 5.76345 6.19894 5.98516
#
# Compressibility (1/GPa) = 0.02693191
#
# Stress axis : x y z
#
# Youngs Moduli (GPa) = 73.81553 76.99291 43.44307
#
# Poissons Ratio (x) = 0.10699 0.17020
# Poissons Ratio (y) = 0.10258 0.26082
# Poissons Ratio (z) = 0.28918 0.46225
#
# Static dielectric constant tensor:
#      x y z
#    x 3.533740 0.000000 -0.116100 
#    y 0.000000 3.623720 0.000000 
#    z -0.116100 0.000000 3.354360 
# 
# 
# High freq. dielectric constant tensor:
#      x y z
#    x 1.758730 0.000000 -0.007300 
#    y 0.000000 1.759550 0.000000 
#    z -0.007300 0.000000 1.751510 
# 
# From -- ./inp_files/290953.got.cif
#   From: 2010.06.25/outbox.cif.g09.slc.cpg/sg12_146_cif.got.tgz:290953.got - 2010.06.28 00:19:55.
