data_PCOD8083958
_publ_section_title
;
Structure prediction by ZEFSAII (Michael W. Deem and Ramdas Pophale) SiO2 
 PCOD8083958
Probable space group: C 2/M
;
_chemical_formula_sum "Si O2"
_cell_formula_units_Z 56
_cell_length_a 16.588673
_cell_length_b 22.547431
_cell_length_c 11.849226
_cell_angle_alpha 90.000000
_cell_angle_beta 49.107866
_cell_angle_gamma 90.000000
_cell_volume 3350.332780
_symmetry_space_group_name_H-M "C 2/M"
_symmetry_group_IT_number 12
_symmetry_cell_setting 'monoclinic'
loop_
_space_group_symop_operation_xyz
x,y,z
-x,y,-z
-x,-y,-z
x,-y,z
1/2+x,1/2+y,z
1/2-x,1/2+y,-z
1/2-x,1/2-y,-z
1/2+x,1/2-y,z
loop_
_atom_site_type_symbol
_atom_site_label
_atom_site_fract_x
_atom_site_fract_y
_atom_site_fract_z
Si Si1 0.607346 0.249003 0.347017
Si Si2 0.201241 0.739410 0.668583
Si Si3 0.511106 0.844861 0.863257
Si Si4 0.630701 0.738374 0.080126
Si Si5 0.844781 0.612830 0.660142
Si Si6 0.485564 0.067599 0.339010
Si Si7 0.119115 0.154519 0.886372
O O1 0.500000 0.270246 0.500000
O O2 0.708096 0.275498 0.321921
O O3 0.582281 0.275427 0.246547
O O4 0.621045 0.178242 0.331820
O O5 0.250000 0.750000 0.500000
O O6 0.126578 0.682450 0.730660
O O7 0.131637 0.796263 0.775010
O O8 0.421410 0.795029 0.931156
O O9 0.493497 0.900290 0.798031
O O10 0.500000 0.869305 0.000000
O O11 0.750000 0.750000 0.000000
O O12 0.628710 0.682725 0.000458
O O13 0.888623 0.600011 0.494264
O O14 0.715204 0.606536 0.782598
O O15 0.903970 0.568044 0.690870
O O16 0.453141 0.000000 0.345285
O O17 0.000000 0.125532 0.000000
#
# Coordination Sequence:
#
# PCOD8083958 Si02
#       7
#     8   8   8   8   8   8   8
#     4  11  19  29  48  72 104 141 170 200 251 312
#     4  11  20  30  46  73 110 146 172 200 250 320
#     4  12  20  34  49  73 110 139 171 213 262 309
#     4  12  17  31  46  70 107 143 173 193 242 323
#     4  10  18  34  53  76 101 131 178 221 265 309
#     4  11  22  37  57  75  97 137 186 236 268 294
#     4  11  20  31  49  79 111 146 164 200 266 331
#
# _framework density 16.714756999999999
#
# number of rings (size 3 to 8) (size 9 to 14) (size 15 to 20)
#    0.000    0.857    8.571    3.429    0.000    0.286 
#    0.000    0.000    0.000    1.714    0.000    0.000 
#    0.000    0.571    0.000    0.286    0.000    0.000 
#
# Total GULP energy -347000.244150 kJ/mol
# GULP energy per Si atom -12392.865862 kJ/mol
# Density = 1.667671 g / cm^3
# Si number density = 16.714757 Si / 1000 Ang^3
#
#
#
# Elastic Constant Matrix: (Units=GPa)
#
#
# Indices 1 2 3 4 5 6 
#
# 1 77.2884 17.8422 37.9384 0.0000 -8.9920 0.0000
# 2 17.8422 37.7382 17.0932 0.0000 -3.3642 0.0000
# 3 37.9384 17.0932 118.7060 0.0000 1.3522 0.0000
# 4 0.0000 0.0000 0.0000 7.8906 0.0000 0.8471
# 5 -8.9920 -3.3642 1.3522 0.0000 46.9442 0.0000
# 6 0.0000 0.0000 0.0000 0.8471 0.0000 12.6285
#
#
#
# Elastic Compliance Matrix: (Units=1/GPa)
#
#
# Indices 1 2 3 4 5 6 
#
# 1 0.016840 -0.005611 -0.004608 0.000000 0.002956 0.000000
# 2 -0.005611 0.030435 -0.002603 0.000000 0.001181 0.000000
# 3 -0.004608 -0.002603 0.010287 0.000000 -0.001365 0.000000
# 4 0.000000 0.000000 0.000000 0.127653 0.000000 -0.008563
# 5 0.002956 0.001181 -0.001365 0.000000 0.021992 0.000000
# 6 0.000000 0.000000 0.000000 -0.008563 0.000000 0.079761
#
#
# Mechanical properties :
#
#
# Convention : Reuss Voigt Hill
#
# Bulk Modulus (GPa) = 31.32906 42.16445 36.74675
# Shear Modulus (GPa) = 15.46790 24.21658 19.84224
#
# Velocity S-wave (km/s) = 3.04535 3.81046 3.44918
# Velocity P-wave (km/s) = 5.58118 6.68132 6.15588
#
# Compressibility (1/GPa) = 0.03191925
#
# Stress axis : x y z
#
# Youngs Moduli (GPa) = 59.38406 32.85643 97.20908
#
# Poissons Ratio (x) = 0.18436 0.44790
# Poissons Ratio (y) = 0.33321 0.25301
# Poissons Ratio (z) = 0.27362 0.08552
#
# Static dielectric constant tensor:
#      x y z
#    x 3.363370 0.000000 -0.141800 
#    y 0.000000 2.633860 0.000000 
#    z -0.141800 0.000000 3.397810 
# 
# 
# High freq. dielectric constant tensor:
#      x y z
#    x 1.655980 0.000000 0.000380 
#    y 0.000000 1.579740 0.000000 
#    z 0.000380 0.000000 1.667120 
# 
# From -- ./inp_files/159190.got.cif
#   From: 2010.06.25/outbox.cif.g09.slc.cpg/sg12_80_cif.got.tgz:159190.got - 2010.06.28 00:19:55.
