data_PCOD8083104
_publ_section_title
;
Structure prediction by ZEFSAII (Michael W. Deem and Ramdas Pophale) SiO2 
 PCOD8083104
Probable space group: C 2/M
;
_chemical_formula_sum "Si O2"
_cell_formula_units_Z 48
_cell_length_a 9.582760
_cell_length_b 21.013314
_cell_length_c 17.033533
_cell_angle_alpha 90.000000
_cell_angle_beta 135.040367
_cell_angle_gamma 90.000000
_cell_volume 2423.643327
_symmetry_space_group_name_H-M "C 2/M"
_symmetry_group_IT_number 12
_symmetry_cell_setting 'monoclinic'
loop_
_space_group_symop_operation_xyz
x,y,z
-x,y,-z
-x,-y,-z
x,-y,z
1/2+x,1/2+y,z
1/2-x,1/2+y,-z
1/2-x,1/2-y,-z
1/2+x,1/2-y,z
loop_
_atom_site_type_symbol
_atom_site_label
_atom_site_fract_x
_atom_site_fract_y
_atom_site_fract_z
Si Si1 0.880627 0.230502 0.660502
Si Si2 0.989985 0.573502 0.405361
Si Si3 0.319504 0.840769 0.975462
Si Si4 0.117203 0.859862 0.202070
Si Si5 0.656908 0.341072 0.503670
Si Si6 0.776847 0.296386 0.124137
O O1 0.817918 0.198813 0.717318
O O2 0.699060 0.271847 0.557572
O O3 0.932370 0.173994 0.618520
O O4 0.056788 0.279885 0.745804
O O5 0.045819 0.500000 0.418615
O O6 0.151436 0.614143 0.422844
O O7 0.000000 0.594858 0.500000
O O8 0.770368 0.583267 0.281190
O O9 0.315819 0.768087 0.945111
O O10 0.113490 0.877333 0.873074
O O11 0.500000 0.874732 0.000000
O O12 0.359093 0.839659 0.084976
O O13 0.118450 0.837069 0.111574
O O14 0.500000 0.374628 0.500000
#
# Coordination Sequence:
#
# PCOD8083104 Si02
#       6
#     8   8   8   8   8   8
#     4  10  20  31  55  87 126 149 185 232 304 356
#     4  11  24  44  62  80 114 164 210 242 287 350
#     4  10  20  32  51  84 123 154 185 230 297 358
#     4  11  20  36  57  83 114 158 198 236 283 358
#     4  11  22  34  56  88 119 151 191 249 296 349
#     4  10  18  32  53  80 122 160 184 225 288 367
#
# _framework density 19.804894000000001
#
# number of rings (size 3 to 8) (size 9 to 14) (size 15 to 20)
#    0.000    1.500    3.333    4.500    2.333    1.667 
#    0.000    0.000    0.000    2.500    0.000    0.000 
#    0.000    0.000    0.000    0.000    0.000    0.000 
#
# Total GULP energy -297490.456498 kJ/mol
# GULP energy per Si atom -12395.435687 kJ/mol
# Density = 1.975982 g / cm^3
# Si number density = 19.804894 Si / 1000 Ang^3
#
#
#
# Elastic Constant Matrix: (Units=GPa)
#
#
# Indices 1 2 3 4 5 6 
#
# 1 158.4260 31.5596 58.3267 0.0000 4.5151 0.0000
# 2 31.5596 41.9848 18.0920 0.0000 2.3210 0.0000
# 3 58.3267 18.0920 99.6217 0.0000 2.4618 0.0000
# 4 0.0000 0.0000 0.0000 15.4255 0.0000 3.3417
# 5 4.5151 2.3210 2.4618 0.0000 36.3197 0.0000
# 6 0.0000 0.0000 0.0000 3.3417 0.0000 13.3561
#
#
#
# Elastic Compliance Matrix: (Units=1/GPa)
#
#
# Indices 1 2 3 4 5 6 
#
# 1 0.008865 -0.004779 -0.004310 0.000000 -0.000505 0.000000
# 2 -0.004779 0.028481 -0.002348 0.000000 -0.001067 0.000000
# 3 -0.004310 -0.002348 0.012993 0.000000 -0.000195 0.000000
# 4 0.000000 0.000000 0.000000 0.068543 0.000000 -0.017149
# 5 -0.000505 -0.001067 -0.000195 0.000000 0.027677 0.000000
# 6 0.000000 0.000000 0.000000 -0.017149 0.000000 0.079163
#
#
# Mechanical properties :
#
#
# Convention : Reuss Voigt Hill
#
# Bulk Modulus (GPa) = 36.40987 57.33211 46.87099
# Shear Modulus (GPa) = 19.39857 25.82387 22.61122
#
# Velocity S-wave (km/s) = 3.13307 3.61489 3.38257
# Velocity P-wave (km/s) = 5.61358 6.81429 6.24287
#
# Compressibility (1/GPa) = 0.02746508
#
# Stress axis : x y z
#
# Youngs Moduli (GPa) = 112.79970 35.11099 76.96606
#
# Poissons Ratio (x) = 0.16779 0.33173
# Poissons Ratio (y) = 0.53904 0.18073
# Poissons Ratio (z) = 0.48618 0.08245
#
# Static dielectric constant tensor:
#      x y z
#    x 3.829790 0.000000 -0.115160 
#    y 0.000000 2.956990 0.000000 
#    z -0.115160 0.000000 3.747330 
# 
# 
# High freq. dielectric constant tensor:
#      x y z
#    x 1.786910 0.000000 -0.006900 
#    y 0.000000 1.695070 0.000000 
#    z -0.006900 0.000000 1.785600 
# 
# From -- ./inp_files/121852.got.cif
#   From: 2010.06.25/outbox.cif.g09.slc.cpg/sg12_61_cif.got.tgz:121852.got - 2010.06.28 00:19:55.
