data_PCOD8083456
_publ_section_title
;
Structure prediction by ZEFSAII (Michael W. Deem and Ramdas Pophale) SiO2 
 PCOD8083456
Probable space group: C 2/M
;
_chemical_formula_sum "Si O2"
_cell_formula_units_Z 56
_cell_length_a 28.390465
_cell_length_b 20.887379
_cell_length_c 8.249620
_cell_angle_alpha 90.000000
_cell_angle_beta 33.270250
_cell_angle_gamma 90.000000
_cell_volume 2683.720630
_symmetry_space_group_name_H-M "C 2/M"
_symmetry_group_IT_number 12
_symmetry_cell_setting 'monoclinic'
loop_
_space_group_symop_operation_xyz
x,y,z
-x,y,-z
-x,-y,-z
x,-y,z
1/2+x,1/2+y,z
1/2-x,1/2+y,-z
1/2-x,1/2-y,-z
1/2+x,1/2-y,z
loop_
_atom_site_type_symbol
_atom_site_label
_atom_site_fract_x
_atom_site_fract_y
_atom_site_fract_z
Si Si1 0.792285 0.837497 0.721177
Si Si2 0.920869 0.625608 0.125994
Si Si3 0.270774 0.073201 0.374373
Si Si4 0.546799 0.366912 0.569465
Si Si5 0.984514 0.275709 0.366602
Si Si6 0.615642 0.426483 0.050935
Si Si7 0.185364 0.303339 0.316520
O O1 0.738054 0.882144 0.757764
O O2 0.890298 0.864031 0.454954
O O3 0.786420 0.763459 0.678273
O O4 0.758739 0.838937 0.003337
O O5 0.869630 0.577772 0.154388
O O6 0.846632 0.647291 0.459971
O O7 0.000000 0.592914 0.000000
O O8 0.956040 0.687674 0.932686
O O9 0.253939 0.000000 0.371515
O O10 0.200835 0.095639 0.709019
O O11 0.496331 0.299600 0.694938
O O12 0.602084 0.383540 0.249524
O O13 0.469683 0.417967 0.816644
O O14 0.885527 0.285883 0.612729
O O15 0.000000 0.304440 0.500000
O O16 0.624982 0.500000 0.076465
#
# Coordination Sequence:
#
# PCOD8083456 Si02
#       7
#     8   8   8   8   8   8   8
#     4  10  21  36  57  86 121 154 196 247 296 354
#     4  10  22  40  62  86 117 152 195 250 309 366
#     4  11  25  41  59  86 119 159 207 250 293 349
#     4  10  19  34  57  85 120 159 198 237 291 346
#     4  10  18  32  58  89 121 149 186 247 301 354
#     4  10  21  37  56  83 120 165 208 238 279 350
#     4   9  20  36  57  88 118 152 194 240 307 361
#
# _framework density 20.866555000000002
#
# number of rings (size 3 to 8) (size 9 to 14) (size 15 to 20)
#    0.000    2.000    1.429    2.571    2.000    2.571 
#    0.000    2.143    0.000    8.143    0.000    0.000 
#    0.000    0.000    0.000    0.000    0.000    0.000 
#
# Total GULP energy -347036.207410 kJ/mol
# GULP energy per Si atom -12394.150265 kJ/mol
# Density = 2.081906 g / cm^3
# Si number density = 20.866555 Si / 1000 Ang^3
#
#
#
# Elastic Constant Matrix: (Units=GPa)
#
#
# Indices 1 2 3 4 5 6 
#
# 1 104.4614 33.5164 18.9759 0.0000 -19.9772 0.0000
# 2 33.5164 68.6388 26.3390 0.0000 -5.0673 0.0000
# 3 18.9759 26.3390 67.5912 0.0000 -12.2658 0.0000
# 4 0.0000 0.0000 0.0000 26.8187 0.0000 -3.9331
# 5 -19.9772 -5.0673 -12.2658 0.0000 25.7054 0.0000
# 6 0.0000 0.0000 0.0000 -3.9331 0.0000 21.1327
#
#
#
# Elastic Compliance Matrix: (Units=1/GPa)
#
#
# Indices 1 2 3 4 5 6 
#
# 1 0.013161 -0.005844 0.000251 0.000000 0.009196 0.000000
# 2 -0.005844 0.019727 -0.006749 0.000000 -0.003874 0.000000
# 3 0.000251 -0.006749 0.018774 0.000000 0.007823 0.000000
# 4 0.000000 0.000000 0.000000 0.038334 0.000000 0.007135
# 5 0.009196 -0.003874 0.007823 0.000000 0.049019 0.000000
# 6 0.000000 0.000000 0.000000 0.007135 0.000000 0.048648
#
#
# Mechanical properties :
#
#
# Convention : Reuss Voigt Hill
#
# Bulk Modulus (GPa) = 37.06807 44.26154 40.66481
# Shear Modulus (GPa) = 22.58981 25.52201 24.05591
#
# Velocity S-wave (km/s) = 3.29384 3.50109 3.39904
# Velocity P-wave (km/s) = 5.68056 6.13199 5.91058
#
# Compressibility (1/GPa) = 0.02697739
#
# Stress axis : x y z
#
# Youngs Moduli (GPa) = 75.98224 50.69285 53.26495
#
# Poissons Ratio (x) = 0.29625 -0.01338
# Poissons Ratio (y) = 0.44404 0.35950
# Poissons Ratio (z) = -0.01909 0.34214
#
# Static dielectric constant tensor:
#      x y z
#    x 3.767030 0.000000 -0.210260 
#    y 0.000000 3.513300 0.000000 
#    z -0.210260 0.000000 3.768270 
# 
# 
# High freq. dielectric constant tensor:
#      x y z
#    x 1.814430 0.000000 -0.015490 
#    y 0.000000 1.795240 0.000000 
#    z -0.015490 0.000000 1.817600 
# 
# From -- ./inp_files/113346.got.cif
#   From: 2010.06.25/outbox.cif.g09.slc.cpg/sg12_57_cif.got.tgz:113346.got - 2010.06.28 00:19:55.
