data_PCOD8083745
_publ_section_title
;
Structure prediction by ZEFSAII (Michael W. Deem and Ramdas Pophale) SiO2 
 PCOD8083745
Probable space group: C 2/M
;
_chemical_formula_sum "Si O2"
_cell_formula_units_Z 56
_cell_length_a 20.040641
_cell_length_b 9.026722
_cell_length_c 19.079634
_cell_angle_alpha 90.000000
_cell_angle_beta 120.492700
_cell_angle_gamma 90.000000
_cell_volume 2974.162495
_symmetry_space_group_name_H-M "C 2/M"
_symmetry_group_IT_number 12
_symmetry_cell_setting 'monoclinic'
loop_
_space_group_symop_operation_xyz
x,y,z
-x,y,-z
-x,-y,-z
x,-y,z
1/2+x,1/2+y,z
1/2-x,1/2+y,-z
1/2-x,1/2-y,-z
1/2+x,1/2-y,z
loop_
_atom_site_type_symbol
_atom_site_label
_atom_site_fract_x
_atom_site_fract_y
_atom_site_fract_z
Si Si1 0.810833 0.671953 0.482271
Si Si2 0.117968 0.675890 0.761827
Si Si3 0.171226 0.175673 0.933245
Si Si4 0.058349 0.330372 0.345429
Si Si5 0.980445 0.175076 0.065717
Si Si6 0.718378 0.826372 0.687188
Si Si7 0.891220 0.826582 0.762149
O O1 0.787410 0.500000 0.467770
O O2 0.750000 0.750000 0.500000
O O3 0.898340 0.694513 0.557432
O O4 0.807181 0.740329 0.401849
O O5 0.128580 0.500000 0.778537
O O6 0.145144 0.759802 0.845361
O O7 0.168431 0.739612 0.724242
O O8 0.030283 0.721073 0.696534
O O9 0.106167 0.216062 0.956472
O O10 0.182272 0.000000 0.932684
O O11 0.250000 0.250000 0.000000
O O12 0.062130 0.500000 0.323922
O O13 0.104938 0.238549 0.313018
O O14 0.042162 0.243620 0.153317
O O15 0.992009 0.000000 0.069264
O O16 0.000000 0.243639 0.000000
O O17 0.807871 0.789108 0.750762
O O18 0.702671 0.000000 0.676673
O O19 0.903735 0.000000 0.761172
#
# Coordination Sequence:
#
# PCOD8083745 Si02
#       7
#     8   8   8   8   8   8   8
#     4  10  19  33  53  80 110 143 185 231 278 323
#     4  10  21  38  57  80 112 147 183 224 273 331
#     4  11  23  39  60  84 112 146 181 224 274 327
#     4  10  20  33  54  81 112 144 176 226 284 327
#     4   9  19  34  56  83 106 135 181 227 264 315
#     4   9  19  33  55  82 107 144 190 230 267 322
#     4  10  18  33  57  80 104 140 186 226 263 322
#
# _framework density 18.82883
#
# number of rings (size 3 to 8) (size 9 to 14) (size 15 to 20)
#    0.000    2.143    2.857    0.429    2.000    0.571 
#    0.000    4.286    0.000    2.143    0.000    3.000 
#    0.000    0.000    0.000    0.000    0.000    0.000 
#
# Total GULP energy -347167.609231 kJ/mol
# GULP energy per Si atom -12398.843187 kJ/mol
# Density = 1.878598 g / cm^3
# Si number density = 18.828830 Si / 1000 Ang^3
#
#
#
# Elastic Constant Matrix: (Units=GPa)
#
#
# Indices 1 2 3 4 5 6 
#
# 1 134.7534 41.6377 66.0748 0.0000 -7.9387 0.0000
# 2 41.6377 37.5173 36.5631 0.0000 2.0219 0.0000
# 3 66.0748 36.5631 130.6642 0.0000 4.0926 0.0000
# 4 0.0000 0.0000 0.0000 26.0684 0.0000 -0.3437
# 5 -7.9387 2.0219 4.0926 0.0000 39.6538 0.0000
# 6 0.0000 0.0000 0.0000 -0.3437 0.0000 20.4414
#
#
#
# Elastic Compliance Matrix: (Units=1/GPa)
#
#
# Indices 1 2 3 4 5 6 
#
# 1 0.012694 -0.010880 -0.003483 0.000000 0.003456 0.000000
# 2 -0.010880 0.046000 -0.007252 0.000000 -0.003775 0.000000
# 3 -0.003483 -0.007252 0.011491 0.000000 -0.001514 0.000000
# 4 0.000000 0.000000 0.000000 0.038369 0.000000 0.000645
# 5 0.003456 -0.003775 -0.001514 0.000000 0.026259 0.000000
# 6 0.000000 0.000000 0.000000 0.000645 0.000000 0.048931
#
#
# Mechanical properties :
#
#
# Convention : Reuss Voigt Hill
#
# Bulk Modulus (GPa) = 37.09790 65.72068 51.40929
# Shear Modulus (GPa) = 21.19000 27.81002 24.50001
#
# Velocity S-wave (km/s) = 3.35834 3.84733 3.61112
# Velocity P-wave (km/s) = 5.89775 7.39703 6.68952
#
# Compressibility (1/GPa) = 0.02695571
#
# Stress axis : x y z
#
# Youngs Moduli (GPa) = 78.77546 21.73889 87.02377
#
# Poissons Ratio (x) = 0.23653 0.30310
# Poissons Ratio (y) = 0.85711 0.63108
# Poissons Ratio (z) = 0.27437 0.15765
#
# Static dielectric constant tensor:
#      x y z
#    x 3.642100 0.000000 0.018020 
#    y 0.000000 3.154810 0.000000 
#    z 0.018020 0.000000 4.050730 
# 
# 
# High freq. dielectric constant tensor:
#      x y z
#    x 1.738850 0.000000 0.007150 
#    y 0.000000 1.694190 0.000000 
#    z 0.007150 0.000000 1.746700 
# 
# From -- ./inp_files/281714.got.cif
#   From: 2010.06.25/outbox.cif.g09.slc.cpg/sg12_141_cif.got.tgz:281714.got - 2010.06.28 00:19:55.
