data_PCOD8083594
_publ_section_title
;
Structure prediction by ZEFSAII (Michael W. Deem and Ramdas Pophale) SiO2 
 PCOD8083594
Probable space group: C 2/M
;
_chemical_formula_sum "Si O2"
_cell_formula_units_Z 64
_cell_length_a 20.007154
_cell_length_b 8.920352
_cell_length_c 20.111230
_cell_angle_alpha 90.000000
_cell_angle_beta 77.125753
_cell_angle_gamma 90.000000
_cell_volume 3499.039401
_symmetry_space_group_name_H-M "C 2/M"
_symmetry_group_IT_number 12
_symmetry_cell_setting 'monoclinic'
loop_
_space_group_symop_operation_xyz
x,y,z
-x,y,-z
-x,-y,-z
x,-y,z
1/2+x,1/2+y,z
1/2-x,1/2+y,-z
1/2-x,1/2-y,-z
1/2+x,1/2-y,z
loop_
_atom_site_type_symbol
_atom_site_label
_atom_site_fract_x
_atom_site_fract_y
_atom_site_fract_z
Si Si1 0.641521 0.675166 0.313137
Si Si2 0.759779 0.823411 0.068711
Si Si3 0.417172 0.675798 0.329278
Si Si4 0.622873 0.175568 0.177570
Si Si5 0.704354 0.826203 0.704659
Si Si6 0.512899 0.323514 0.824362
Si Si7 0.138071 0.677251 0.857664
Si Si8 0.488123 0.677100 0.575587
O O1 0.636612 0.500000 0.294189
O O2 0.623638 0.771522 0.253090
O O3 0.716530 0.716310 0.324179
O O4 0.588230 0.717182 0.382900
O O5 0.694688 0.782517 0.128280
O O6 0.827498 0.752874 0.086210
O O7 0.769794 0.000000 0.058936
O O8 0.750000 0.750000 0.000000
O O9 0.409190 0.500000 0.337240
O O10 0.340955 0.742999 0.340756
O O11 0.461964 0.719159 0.255147
O O12 0.455664 0.742728 0.385373
O O13 0.563692 0.261137 0.149838
O O14 0.607586 0.000000 0.178330
O O15 0.682526 0.775835 0.783385
O O16 0.690457 0.000000 0.698102
O O17 0.514287 0.500000 0.837081
O O18 0.561531 0.242520 0.867279
O O19 0.134956 0.500000 0.868700
O O20 0.500000 0.748521 0.500000
O O21 0.497668 0.500000 0.570217
#
# Coordination Sequence:
#
# PCOD8083594 Si02
#       8
#     8   8   8   8   8   8   8   8
#     4  10  18  33  54  78 105 139 185 226 268 321
#     4  11  24  40  58  82 113 148 183 222 272 328
#     4   9  17  30  50  75 104 138 176 221 267 315
#     4  11  22  35  55  84 112 140 180 228 273 318
#     4   9  18  30  50  77 105 137 173 220 270 319
#     4  10  19  33  55  82 111 142 182 227 272 324
#     4  10  19  34  56  82 112 144 179 223 277 327
#     4   9  17  31  52  77 105 141 185 227 267 318
#
# _framework density 18.290734
#
# number of rings (size 3 to 8) (size 9 to 14) (size 15 to 20)
#    0.000    2.125    2.500    1.500    0.000    3.000 
#    0.000    1.250    0.000    5.250    0.000    0.000 
#    0.000    0.000    0.000    0.000    0.000    0.000 
#
# Total GULP energy -396861.928223 kJ/mol
# GULP energy per Si atom -12401.935257 kJ/mol
# Density = 1.824910 g / cm^3
# Si number density = 18.290734 Si / 1000 Ang^3
#
#
#
# Elastic Constant Matrix: (Units=GPa)
#
#
# Indices 1 2 3 4 5 6 
#
# 1 121.3077 38.7219 25.7231 0.0000 22.7583 0.0000
# 2 38.7219 55.9671 23.7221 0.0000 7.0890 0.0000
# 3 25.7231 23.7221 54.1244 0.0000 16.4791 0.0000
# 4 0.0000 0.0000 0.0000 18.2301 0.0000 4.7610
# 5 22.7583 7.0890 16.4791 0.0000 29.2161 0.0000
# 6 0.0000 0.0000 0.0000 4.7610 0.0000 35.5138
#
#
#
# Elastic Compliance Matrix: (Units=1/GPa)
#
#
# Indices 1 2 3 4 5 6 
#
# 1 0.012013 -0.007257 -0.000260 0.000000 -0.007450 0.000000
# 2 -0.007257 0.026329 -0.009498 0.000000 0.004622 0.000000
# 3 -0.000260 -0.009498 0.026560 0.000000 -0.012474 0.000000
# 4 0.000000 0.000000 0.000000 0.056844 0.000000 -0.007621
# 5 -0.007450 0.004622 -0.012474 0.000000 0.045945 0.000000
# 6 0.000000 0.000000 0.000000 -0.007621 0.000000 0.029180
#
#
# Mechanical properties :
#
#
# Convention : Reuss Voigt Hill
#
# Bulk Modulus (GPa) = 32.39231 45.30370 38.84800
# Shear Modulus (GPa) = 20.73027 26.14081 23.43554
#
# Velocity S-wave (km/s) = 3.37022 3.78456 3.58338
# Velocity P-wave (km/s) = 5.73521 6.62718 6.19727
#
# Compressibility (1/GPa) = 0.03087153
#
# Stress axis : x y z
#
# Youngs Moduli (GPa) = 83.24351 37.98072 37.65029
#
# Poissons Ratio (x) = 0.27564 0.00979
# Poissons Ratio (y) = 0.60414 0.35759
# Poissons Ratio (z) = 0.02165 0.36073
#
# Static dielectric constant tensor:
#      x y z
#    x 3.682700 0.000000 0.058350 
#    y 0.000000 3.240400 0.000000 
#    z 0.058350 0.000000 3.527610 
# 
# 
# High freq. dielectric constant tensor:
#      x y z
#    x 1.725910 0.000000 0.009660 
#    y 0.000000 1.699820 0.000000 
#    z 0.009660 0.000000 1.679990 
# 
# From -- ./inp_files/319131.got.cif
#   From: 2010.06.25/outbox.cif.g09.slc.cpg/sg12_160_cif.got.tgz:319131.got - 2010.06.28 00:19:55.
