data_PCOD8083601
_publ_section_title
;
Structure prediction by ZEFSAII (Michael W. Deem and Ramdas Pophale) SiO2 
 PCOD8083601
Probable space group: C 2/M
;
_chemical_formula_sum "Si O2"
_cell_formula_units_Z 56
_cell_length_a 19.894084
_cell_length_b 8.744732
_cell_length_c 26.138265
_cell_angle_alpha 90.000000
_cell_angle_beta 40.140646
_cell_angle_gamma 90.000000
_cell_volume 2931.447001
_symmetry_space_group_name_H-M "C 2/M"
_symmetry_group_IT_number 12
_symmetry_cell_setting 'monoclinic'
loop_
_space_group_symop_operation_xyz
x,y,z
-x,y,-z
-x,-y,-z
x,-y,z
1/2+x,1/2+y,z
1/2-x,1/2+y,-z
1/2-x,1/2-y,-z
1/2+x,1/2-y,z
loop_
_atom_site_type_symbol
_atom_site_label
_atom_site_fract_x
_atom_site_fract_y
_atom_site_fract_z
Si Si1 0.294462 0.679804 0.820226
Si Si2 0.416275 0.678518 0.091202
Si Si3 0.542107 0.825486 0.828734
Si Si4 0.685548 0.825597 0.082205
Si Si5 0.670956 0.679588 0.505926
Si Si6 0.004499 0.681157 0.663721
Si Si7 0.153824 0.320787 0.666565
O O1 0.309214 0.500000 0.810550
O O2 0.188053 0.724334 0.854197
O O3 0.289658 0.735699 0.880903
O O4 0.388164 0.755705 0.734276
O O5 0.390603 0.500000 0.101654
O O6 0.463723 0.716107 0.119056
O O7 0.500000 0.728895 0.000000
O O8 0.435607 0.815874 0.859428
O O9 0.629993 0.761437 0.737865
O O10 0.564281 0.000000 0.833376
O O11 0.722020 0.000000 0.068318
O O12 0.750000 0.750000 0.000000
O O13 0.659429 0.500000 0.521656
O O14 0.750000 0.750000 0.500000
O O15 0.558507 0.759239 0.579382
O O16 0.725218 0.714164 0.419011
O O17 0.000396 0.500000 0.665006
O O18 0.072423 0.746573 0.671985
O O19 0.131871 0.500000 0.679380
#
# Coordination Sequence:
#
# PCOD8083601 Si02
#       7
#     8   8   8   8   8   8   8
#     4  12  24  38  59  85 113 149 193 237 285 345
#     4  11  25  43  60  80 110 149 192 239 290 343
#     4  10  20  37  59  82 111 149 188 230 282 340
#     4  11  22  37  58  84 116 148 184 234 289 340
#     4   9  16  27  47  78 114 151 188 227 277 337
#     4  10  18  33  54  80 116 152 186 231 286 336
#     4   8  15  30  52  79 113 149 182 224 280 334
#
# _framework density 19.103193000000001
#
# number of rings (size 3 to 8) (size 9 to 14) (size 15 to 20)
#    0.000    1.857    1.429    4.714    0.000    4.571 
#    0.000    1.429    0.000    0.857    0.000    6.000 
#    0.000    0.000    0.000    0.000    0.000    0.000 
#
# Total GULP energy -347128.169009 kJ/mol
# GULP energy per Si atom -12397.434607 kJ/mol
# Density = 1.905971 g / cm^3
# Si number density = 19.103193 Si / 1000 Ang^3
#
#
#
# Elastic Constant Matrix: (Units=GPa)
#
#
# Indices 1 2 3 4 5 6 
#
# 1 36.1485 9.0379 5.3430 -0.0002 4.1702 -0.0018
# 2 9.0379 90.0596 37.4566 0.0002 -0.1080 -0.0034
# 3 5.3430 37.4566 137.4866 -0.0007 8.5368 -0.0007
# 4 -0.0002 0.0002 -0.0007 33.5149 0.0001 -1.3225
# 5 4.1702 -0.1080 8.5368 0.0001 27.1747 0.0000
# 6 -0.0018 -0.0034 -0.0007 -1.3225 0.0000 24.7717
#
#
#
# Elastic Compliance Matrix: (Units=1/GPa)
#
#
# Indices 1 2 3 4 5 6 
#
# 1 0.028904 -0.002879 -0.000064 0.000000 -0.004427 0.000002
# 2 -0.002879 0.012844 -0.003486 0.000000 0.001588 0.000001
# 3 -0.000064 -0.003486 0.008390 0.000000 -0.002640 0.000000
# 4 0.000000 0.000000 0.000000 0.029900 0.000000 0.001596
# 5 -0.004427 0.001588 -0.002640 0.000000 0.038314 0.000000
# 6 0.000002 0.000001 0.000000 0.001596 0.000000 0.040454
#
#
# Mechanical properties :
#
#
# Convention : Reuss Voigt Hill
#
# Bulk Modulus (GPa) = 26.82468 40.81885 33.82177
# Shear Modulus (GPa) = 27.16050 31.21607 29.18828
#
# Velocity S-wave (km/s) = 3.77474 4.04676 3.91311
# Velocity P-wave (km/s) = 5.75071 6.57639 6.17736
#
# Compressibility (1/GPa) = 0.03727910
#
# Stress axis : x y z
#
# Youngs Moduli (GPa) = 34.59766 77.85435 119.19591
#
# Poissons Ratio (x) = 0.22417 0.00762
# Poissons Ratio (y) = 0.09962 0.41552
# Poissons Ratio (z) = 0.00221 0.27140
#
# Static dielectric constant tensor:
#      x y z
#    x 3.173480 0.000000 0.084230 
#    y 0.000000 3.621040 0.000000 
#    z 0.084230 0.000000 4.146910 
# 
# 
# High freq. dielectric constant tensor:
#      x y z
#    x 1.700630 0.000000 0.004890 
#    y 0.000000 1.740200 0.000000 
#    z 0.004890 0.000000 1.769910 
# 
# From -- ./inp_files/362997.got.cif
#   From: 2010.06.25/outbox.cif.g09.slc.cpg/sg12_182_cif.got.tgz:362997.got - 2010.06.28 00:19:55.
