data_PCOD8083271
_publ_section_title
;
Structure prediction by ZEFSAII (Michael W. Deem and Ramdas Pophale) SiO2 
 PCOD8083271
Probable space group: C 2/M
;
_chemical_formula_sum "Si O2"
_cell_formula_units_Z 48
_cell_length_a 22.536786
_cell_length_b 12.832632
_cell_length_c 9.953027
_cell_angle_alpha 90.000000
_cell_angle_beta 63.676897
_cell_angle_gamma 90.000000
_cell_volume 2580.001931
_symmetry_space_group_name_H-M "C 2/M"
_symmetry_group_IT_number 12
_symmetry_cell_setting 'monoclinic'
loop_
_space_group_symop_operation_xyz
x,y,z
-x,y,-z
-x,-y,-z
x,-y,z
1/2+x,1/2+y,z
1/2-x,1/2+y,-z
1/2-x,1/2-y,-z
1/2+x,1/2-y,z
loop_
_atom_site_type_symbol
_atom_site_label
_atom_site_fract_x
_atom_site_fract_y
_atom_site_fract_z
Si Si1 0.072969 0.260183 0.438225
Si Si2 0.220489 0.881852 0.651375
Si Si3 0.066916 0.381990 0.714988
Si Si4 0.339818 0.796785 0.150609
Si Si5 0.917807 0.618573 0.839568
Si Si6 0.298194 0.686956 0.614784
O O1 0.083117 0.308860 0.574150
O O2 0.079830 0.347643 0.317637
O O3 0.133945 0.177758 0.365667
O O4 0.000000 0.206754 0.500000
O O5 0.166423 0.826270 0.804236
O O6 0.287175 0.810600 0.585644
O O7 0.193076 0.882928 0.526704
O O8 0.234067 0.000000 0.686083
O O9 0.082291 0.500000 0.656380
O O10 0.110259 0.353740 0.799739
O O11 0.990027 0.370062 0.833242
O O12 0.266509 0.850058 0.236174
O O13 0.366263 0.809223 0.972892
O O14 0.892678 0.500000 0.871058
#
# Coordination Sequence:
#
# PCOD8083271 Si02
#       6
#     8   8   8   8   8   8
#     4  10  19  34  53  77 109 143 175 211 262 321
#     4   9  18  34  55  79 104 131 176 225 263 305
#     4  10  18  32  55  82 111 138 171 213 268 328
#     4  10  19  33  51  80 107 139 173 214 262 307
#     4  10  21  32  50  84 118 142 164 209 272 326
#     4   9  19  34  53  83  98 141 179 215 266 309
#
# _framework density 18.604637
#
# number of rings (size 3 to 8) (size 9 to 14) (size 15 to 20)
#    1.000    1.333    1.667    1.500    0.000    8.000 
#    0.000    0.000    0.000    3.500    0.000    0.000 
#    0.000    0.000    0.000    0.000    0.000    0.000 
#
# Total GULP energy -297342.399660 kJ/mol
# GULP energy per Si atom -12389.266653 kJ/mol
# Density = 1.856229 g / cm^3
# Si number density = 18.604637 Si / 1000 Ang^3
#
#
#
# Elastic Constant Matrix: (Units=GPa)
#
#
# Indices 1 2 3 4 5 6 
#
# 1 108.3104 7.7685 24.5484 0.0000 -8.4361 0.0000
# 2 7.7685 45.7151 13.6975 0.0000 -11.1251 0.0000
# 3 24.5484 13.6975 75.5506 0.0000 -14.5223 0.0000
# 4 0.0000 0.0000 0.0000 18.3747 0.0000 -4.0084
# 5 -8.4361 -11.1251 -14.5223 0.0000 19.5801 0.0000
# 6 0.0000 0.0000 0.0000 -4.0084 0.0000 16.7684
#
#
#
# Elastic Compliance Matrix: (Units=1/GPa)
#
#
# Indices 1 2 3 4 5 6 
#
# 1 0.010055 -0.000371 -0.002808 0.000000 0.002039 0.000000
# 2 -0.000371 0.025697 -0.002056 0.000000 0.012916 0.000000
# 3 -0.002808 -0.002056 0.016403 0.000000 0.009788 0.000000
# 4 0.000000 0.000000 0.000000 0.057417 0.000000 0.013725
# 5 0.002039 0.012916 0.009788 0.000000 0.066549 0.000000
# 6 0.000000 0.000000 0.000000 0.013725 0.000000 0.062917
#
#
# Mechanical properties :
#
#
# Convention : Reuss Voigt Hill
#
# Bulk Modulus (GPa) = 23.98958 35.73389 29.86174
# Shear Modulus (GPa) = 18.98250 23.18209 21.08229
#
# Velocity S-wave (km/s) = 3.19769 3.53376 3.36992
# Velocity P-wave (km/s) = 5.15326 5.99154 5.58814
#
# Compressibility (1/GPa) = 0.04168476
#
# Stress axis : x y z
#
# Youngs Moduli (GPa) = 99.45775 38.91533 60.96598
#
# Poissons Ratio (x) = 0.01444 0.17118
# Poissons Ratio (y) = 0.03692 0.12532
# Poissons Ratio (z) = 0.27926 0.07999
#
# Static dielectric constant tensor:
#      x y z
#    x 3.551190 0.000000 -0.152740 
#    y 0.000000 2.992920 0.000000 
#    z -0.152740 0.000000 3.243490 
# 
# 
# High freq. dielectric constant tensor:
#      x y z
#    x 1.726040 0.000000 -0.009900 
#    y 0.000000 1.675380 0.000000 
#    z -0.009900 0.000000 1.714570 
# 
# From -- ./inp_files/95671.got.cif
#   From: 2010.06.25/outbox.cif.g09.slc.cpg/sg12_48_cif.got.tgz:95671.got - 2010.06.28 00:19:55.
