data_PCOD8083217
_publ_section_title
;
Structure prediction by ZEFSAII (Michael W. Deem and Ramdas Pophale) SiO2 
 PCOD8083217
Probable space group: C 2/M
;
_chemical_formula_sum "Si O2"
_cell_formula_units_Z 56
_cell_length_a 24.467474
_cell_length_b 13.785699
_cell_length_c 10.284860
_cell_angle_alpha 90.000000
_cell_angle_beta 106.143188
_cell_angle_gamma 90.000000
_cell_volume 3332.308970
_symmetry_space_group_name_H-M "C 2/M"
_symmetry_group_IT_number 12
_symmetry_cell_setting 'monoclinic'
loop_
_space_group_symop_operation_xyz
x,y,z
-x,y,-z
-x,-y,-z
x,-y,z
1/2+x,1/2+y,z
1/2-x,1/2+y,-z
1/2-x,1/2-y,-z
1/2+x,1/2-y,z
loop_
_atom_site_type_symbol
_atom_site_label
_atom_site_fract_x
_atom_site_fract_y
_atom_site_fract_z
Si Si1 0.871292 0.890258 0.288968
Si Si2 0.066149 0.393576 0.015481
Si Si3 0.231904 0.109027 0.622762
Si Si4 0.554480 0.613643 0.182069
Si Si5 0.932126 0.193092 0.088933
Si Si6 0.360270 0.889094 0.682737
Si Si7 0.128789 0.798064 0.451708
O O1 0.802299 0.887535 0.261330
O O2 0.886799 0.847683 0.160131
O O3 0.898816 0.827553 0.426713
O O4 0.894542 0.000000 0.314750
O O5 0.084511 0.500000 0.973223
O O6 0.079129 0.308994 0.921301
O O7 0.098564 0.370815 0.169978
O O8 0.000000 0.392310 0.000000
O O9 0.296770 0.141457 0.685952
O O10 0.196571 0.175857 0.497513
O O11 0.230829 0.000000 0.565804
O O12 0.541059 0.500000 0.170815
O O13 0.496373 0.670800 0.176327
O O14 0.600430 0.638011 0.320892
O O15 0.579133 0.645918 0.059008
O O16 0.379109 0.816914 0.579255
O O17 0.363965 0.000000 0.635086
#
# Coordination Sequence:
#
# PCOD8083217 Si02
#       7
#     8   8   8   8   8   8   8
#     4   9  19  33  50  73 109 140 163 204 260 315
#     4  10  19  34  54  76  99 131 175 217 253 296
#     4   8  17  32  51  75 103 135 168 205 259 310
#     4  11  20  31  52  77 106 133 171 213 250 306
#     4  11  19  34  49  77 104 137 171 205 259 299
#     4  10  18  32  55  77  99 133 176 219 253 297
#     4  10  18  33  51  77 102 135 172 206 255 301
#
# _framework density 16.805164000000001
#
# number of rings (size 3 to 8) (size 9 to 14) (size 15 to 20)
#    0.857    1.286    2.857    3.000    0.000    0.571 
#    0.000    2.857    0.000    0.000    0.000    5.000 
#    0.000    0.000    0.000    0.000    0.000    0.000 
#
# Total GULP energy -346918.342341 kJ/mol
# GULP energy per Si atom -12389.940798 kJ/mol
# Density = 1.676691 g / cm^3
# Si number density = 16.805164 Si / 1000 Ang^3
#
#
#
# Elastic Constant Matrix: (Units=GPa)
#
#
# Indices 1 2 3 4 5 6 
#
# 1 31.2507 25.0188 24.6911 0.0000 1.2286 0.0000
# 2 25.0188 139.0345 33.6193 0.0000 -10.3551 0.0000
# 3 24.6911 33.6193 56.2440 0.0000 -1.1325 0.0000
# 4 0.0000 0.0000 0.0000 29.4788 0.0000 -5.3659
# 5 1.2286 -10.3551 -1.1325 0.0000 32.2054 0.0000
# 6 0.0000 0.0000 0.0000 -5.3659 0.0000 11.8762
#
#
#
# Elastic Compliance Matrix: (Units=1/GPa)
#
#
# Indices 1 2 3 4 5 6 
#
# 1 0.051767 -0.004809 -0.019936 0.000000 -0.004222 0.000000
# 2 -0.004809 0.009065 -0.003247 0.000000 0.002984 0.000000
# 3 -0.019936 -0.003247 0.028487 0.000000 0.000718 0.000000
# 4 0.000000 0.000000 0.000000 0.036963 0.000000 0.016700
# 5 -0.004222 0.002984 0.000718 0.000000 0.032197 0.000000
# 6 0.000000 0.000000 0.000000 0.016700 0.000000 0.091748
#
#
# Mechanical properties :
#
#
# Convention : Reuss Voigt Hill
#
# Bulk Modulus (GPa) = 29.99926 43.68753 36.84340
# Shear Modulus (GPa) = 15.75682 24.25873 20.00777
#
# Velocity S-wave (km/s) = 3.06538 3.80350 3.45421
# Velocity P-wave (km/s) = 5.51531 6.73363 6.15469
#
# Compressibility (1/GPa) = 0.03333416
#
# Stress axis : x y z
#
# Youngs Moduli (GPa) = 19.31740 110.31025 35.10349
#
# Poissons Ratio (x) = 0.53049 0.69982
# Poissons Ratio (y) = 0.09290 0.11400
# Poissons Ratio (z) = 0.38511 0.35823
#
# Static dielectric constant tensor:
#      x y z
#    x 3.005880 0.000000 0.153100 
#    y 0.000000 3.493110 0.000000 
#    z 0.153100 0.000000 2.924460 
# 
# 
# High freq. dielectric constant tensor:
#      x y z
#    x 1.627990 0.000000 0.018430 
#    y 0.000000 1.664730 0.000000 
#    z 0.018430 0.000000 1.624400 
# 
# From -- ./inp_files/110896.got.cif
#   From: 2010.06.25/outbox.cif.g09.slc.cpg/sg12_56_cif.got.tgz:110896.got - 2010.06.28 00:19:55.
