data_PCOD8083342
_publ_section_title
;
Structure prediction by ZEFSAII (Michael W. Deem and Ramdas Pophale) SiO2 
 PCOD8083342
Probable space group: C 2/M
;
_chemical_formula_sum "Si O2"
_cell_formula_units_Z 64
_cell_length_a 20.647242
_cell_length_b 8.939948
_cell_length_c 18.961798
_cell_angle_alpha 90.000000
_cell_angle_beta 90.744318
_cell_angle_gamma 90.000000
_cell_volume 3499.773267
_symmetry_space_group_name_H-M "C 2/M"
_symmetry_group_IT_number 12
_symmetry_cell_setting 'monoclinic'
loop_
_space_group_symop_operation_xyz
x,y,z
-x,y,-z
-x,-y,-z
x,-y,z
1/2+x,1/2+y,z
1/2-x,1/2+y,-z
1/2-x,1/2-y,-z
1/2+x,1/2-y,z
loop_
_atom_site_type_symbol
_atom_site_label
_atom_site_fract_x
_atom_site_fract_y
_atom_site_fract_z
Si Si1 0.244978 0.822269 0.335323
Si Si2 0.448661 0.322798 0.058098
Si Si3 0.058438 0.675263 0.798139
Si Si4 0.007641 0.324907 0.649266
Si Si5 0.633000 0.822556 0.573302
Si Si6 0.305594 0.326288 0.209401
Si Si7 0.627509 0.821938 0.412362
Si Si8 0.802768 0.828917 0.048112
O O1 0.303610 0.764059 0.385288
O O2 0.252310 0.751196 0.257906
O O3 0.178971 0.762464 0.365849
O O4 0.243333 0.000000 0.329088
O O5 0.448438 0.500000 0.069450
O O6 0.470751 0.248717 0.131808
O O7 0.376130 0.267015 0.036678
O O8 0.500000 0.271899 0.000000
O O9 0.068381 0.500000 0.810690
O O10 0.009550 0.708535 0.733013
O O11 0.126554 0.745264 0.777141
O O12 0.010043 0.500000 0.634875
O O13 0.069314 0.253019 0.609799
O O14 0.941745 0.261694 0.615520
O O15 0.636298 0.768887 0.492807
O O16 0.630520 0.000000 0.577163
O O17 0.313460 0.500000 0.228491
O O18 0.282455 0.305565 0.128772
O O19 0.635142 0.000000 0.403940
O O20 0.801782 0.000000 0.025608
O O21 0.750000 0.750000 0.000000
#
# Coordination Sequence:
#
# PCOD8083342 Si02
#       8
#     8   8   8   8   8   8   8   8
#     4  11  21  35  54  78 110 140 178 227 269 312
#     4   9  19  37  57  78 109 144 180 217 257 314
#     4  10  18  32  56  83 109 137 177 226 267 308
#     4   9  17  32  54  80 107 137 178 223 265 314
#     4   9  17  32  56  80 101 137 184 223 264 319
#     4  10  20  36  57  80 106 142 184 217 258 320
#     4  10  20  34  54  78 108 143 177 219 272 325
#     4   9  19  35  56  81 107 136 172 215 261 312
#
# _framework density 18.286898000000001
#
# number of rings (size 3 to 8) (size 9 to 14) (size 15 to 20)
#    0.000    2.375    1.250    2.625    0.000    4.250 
#    2.250    1.875    0.000    0.750    0.000    0.000 
#    0.000    0.000    0.000    0.000    0.000    0.000 
#
# Total GULP energy -396788.069521 kJ/mol
# GULP energy per Si atom -12399.627173 kJ/mol
# Density = 1.824528 g / cm^3
# Si number density = 18.286898 Si / 1000 Ang^3
#
#
#
# Elastic Constant Matrix: (Units=GPa)
#
#
# Indices 1 2 3 4 5 6 
#
# 1 92.5184 19.2329 51.0107 0.0000 -14.0220 0.0000
# 2 19.2329 45.7409 36.7487 0.0000 -5.3524 0.0000
# 3 51.0107 36.7487 106.3780 0.0000 -17.6296 0.0000
# 4 0.0000 0.0000 0.0000 25.1960 0.0000 -4.0661
# 5 -14.0220 -5.3524 -17.6296 0.0000 35.9858 0.0000
# 6 0.0000 0.0000 0.0000 -4.0661 0.0000 25.2298
#
#
#
# Elastic Compliance Matrix: (Units=1/GPa)
#
#
# Indices 1 2 3 4 5 6 
#
# 1 0.014919 -0.000784 -0.006464 0.000000 0.002530 0.000000
# 2 -0.000784 0.030317 -0.010231 0.000000 -0.000808 0.000000
# 3 -0.006464 -0.010231 0.016723 0.000000 0.004152 0.000000
# 4 0.000000 0.000000 0.000000 0.040749 0.000000 0.006567
# 5 0.002530 -0.000808 0.004152 0.000000 0.030688 0.000000
# 6 0.000000 0.000000 0.000000 0.006567 0.000000 0.040694
#
#
# Mechanical properties :
#
#
# Convention : Reuss Voigt Hill
#
# Bulk Modulus (GPa) = 37.03621 50.95800 43.99711
# Shear Modulus (GPa) = 22.93071 26.45864 24.69468
#
# Velocity S-wave (km/s) = 3.54495 3.80789 3.67877
# Velocity P-wave (km/s) = 6.08706 6.87457 6.49277
#
# Compressibility (1/GPa) = 0.02700060
#
# Stress axis : x y z
#
# Youngs Moduli (GPa) = 67.02864 32.98460 59.79939
#
# Poissons Ratio (x) = 0.02585 0.38654
# Poissons Ratio (y) = 0.05254 0.61183
# Poissons Ratio (z) = 0.43327 0.33748
#
# Static dielectric constant tensor:
#      x y z
#    x 3.457680 0.000000 -0.043220 
#    y 0.000000 3.153790 0.000000 
#    z -0.043220 0.000000 3.552780 
# 
# 
# High freq. dielectric constant tensor:
#      x y z
#    x 1.703640 0.000000 -0.002870 
#    y 0.000000 1.687110 0.000000 
#    z -0.002870 0.000000 1.719910 
# 
# From -- ./inp_files/281310.got.cif
#   From: 2010.06.25/outbox.cif.g09.slc.cpg/sg12_141_cif.got.tgz:281310.got - 2010.06.28 00:19:55.
