data_PCOD8083420
_publ_section_title
;
Structure prediction by ZEFSAII (Michael W. Deem and Ramdas Pophale) SiO2 
 PCOD8083420
Probable space group: C 2/M
;
_chemical_formula_sum "Si O2"
_cell_formula_units_Z 64
_cell_length_a 26.697806
_cell_length_b 15.508189
_cell_length_c 12.663550
_cell_angle_alpha 90.000000
_cell_angle_beta 142.678421
_cell_angle_gamma 90.000000
_cell_volume 3178.857542
_symmetry_space_group_name_H-M "C 2/M"
_symmetry_group_IT_number 12
_symmetry_cell_setting 'monoclinic'
loop_
_space_group_symop_operation_xyz
x,y,z
-x,y,-z
-x,-y,-z
x,-y,z
1/2+x,1/2+y,z
1/2-x,1/2+y,-z
1/2-x,1/2-y,-z
1/2+x,1/2-y,z
loop_
_atom_site_type_symbol
_atom_site_label
_atom_site_fract_x
_atom_site_fract_y
_atom_site_fract_z
Si Si1 0.889589 0.717283 0.097204
Si Si2 0.373094 0.902756 0.698747
Si Si3 0.597178 0.314381 0.678015
Si Si4 0.030031 0.406172 0.344594
Si Si5 0.412024 0.259751 0.899613
Si Si6 0.256730 0.095741 0.940651
Si Si7 0.823364 0.647100 0.279711
Si Si8 0.282683 0.400456 0.706534
O O1 0.881974 0.795865 0.164852
O O2 0.959551 0.657016 0.267784
O O3 0.920180 0.751503 0.037965
O O4 0.803281 0.665196 0.944395
O O5 0.440155 0.877874 0.722153
O O6 0.377421 0.831134 0.797187
O O7 0.283768 0.901184 0.497235
O O8 0.390195 0.000000 0.772200
O O9 0.500000 0.336087 0.500000
O O10 0.657641 0.395237 0.757449
O O11 0.630425 0.238393 0.658107
O O12 0.989274 0.500000 0.269139
O O13 0.106201 0.414009 0.553512
O O14 0.356183 0.343141 0.781293
O O15 0.500000 0.282657 0.000000
O O16 0.280901 0.000000 0.945568
O O17 0.286458 0.110657 0.110312
O O18 0.749063 0.649210 0.240935
O O19 0.308777 0.500000 0.776331
#
# Coordination Sequence:
#
# PCOD8083420 Si02
#       8
#     8   8   8   8   8   8   8   8
#     4  11  22  38  54  87 118 148 193 236 287 351
#     4   9  20  37  57  84 115 151 193 236 289 349
#     4  11  22  39  59  84 118 152 190 237 288 347
#     4  10  18  32  57  86 117 146 181 233 288 345
#     4  12  23  37  59  86 118 158 193 238 300 345
#     4  11  23  37  58  86 116 153 193 234 285 345
#     4  10  19  38  61  86 115 148 191 236 294 345
#     4  10  21  39  62  85 114 154 202 245 280 339
#
# _framework density 20.133019999999998
#
# number of rings (size 3 to 8) (size 9 to 14) (size 15 to 20)
#    0.000    1.500    2.500    5.625    0.000    1.750 
#    0.000    1.875    0.000    0.000    0.000    0.000 
#    0.000    0.000    0.000    0.000    0.000    0.000 
#
# Total GULP energy -396657.299494 kJ/mol
# GULP energy per Si atom -12395.540609 kJ/mol
# Density = 2.008720 g / cm^3
# Si number density = 20.133020 Si / 1000 Ang^3
#
#
#
# Elastic Constant Matrix: (Units=GPa)
#
#
# Indices 1 2 3 4 5 6 
#
# 1 95.0055 29.9152 30.5063 0.0000 14.3076 0.0000
# 2 29.9152 60.8601 23.0831 0.0000 8.6646 0.0000
# 3 30.5063 23.0831 51.2370 0.0000 16.1914 0.0000
# 4 0.0000 0.0000 0.0000 11.8863 0.0000 -0.6444
# 5 14.3076 8.6646 16.1914 0.0000 37.4604 0.0000
# 6 0.0000 0.0000 0.0000 -0.6444 0.0000 4.8194
#
#
#
# Elastic Compliance Matrix: (Units=1/GPa)
#
#
# Indices 1 2 3 4 5 6 
#
# 1 0.014063 -0.004457 -0.005784 0.000000 -0.001841 0.000000
# 2 -0.004457 0.021253 -0.006840 0.000000 -0.000257 0.000000
# 3 -0.005784 -0.006840 0.028774 0.000000 -0.008646 0.000000
# 4 0.000000 0.000000 0.000000 0.084745 0.000000 0.011331
# 5 -0.001841 -0.000257 -0.008646 0.000000 0.031194 0.000000
# 6 0.000000 0.000000 0.000000 0.011331 0.000000 0.209010
#
#
# Mechanical properties :
#
#
# Convention : Reuss Voigt Hill
#
# Bulk Modulus (GPa) = 33.41176 41.56799 37.48988
# Shear Modulus (GPa) = 11.54262 19.07308 15.30785
#
# Velocity S-wave (km/s) = 2.39700 3.08125 2.76041
# Velocity P-wave (km/s) = 4.92873 5.77497 5.36855
#
# Compressibility (1/GPa) = 0.02992958
#
# Stress axis : x y z
#
# Youngs Moduli (GPa) = 71.10608 47.05272 34.75316
#
# Poissons Ratio (x) = 0.20972 0.20100
# Poissons Ratio (y) = 0.31693 0.23770
# Poissons Ratio (z) = 0.41126 0.32183
#
# Static dielectric constant tensor:
#      x y z
#    x 3.715850 0.000000 0.154430 
#    y 0.000000 3.634370 0.000000 
#    z 0.154430 0.000000 3.545810 
# 
# 
# High freq. dielectric constant tensor:
#      x y z
#    x 1.783980 0.000000 0.010580 
#    y 0.000000 1.776030 0.000000 
#    z 0.010580 0.000000 1.782050 
# 
# From -- ./inp_files/183810.got.cif
#   From: 2010.06.25/outbox.cif.g09.slc.cpg/sg12_92_cif.got.tgz:183810.got - 2010.06.28 00:19:55.
