data_PCOD8083495
_publ_section_title
;
Structure prediction by ZEFSAII (Michael W. Deem and Ramdas Pophale) SiO2 
 PCOD8083495
Probable space group: C 2/M
;
_chemical_formula_sum "Si O2"
_cell_formula_units_Z 56
_cell_length_a 19.063376
_cell_length_b 27.771080
_cell_length_c 16.276989
_cell_angle_alpha 90.000000
_cell_angle_beta 157.055163
_cell_angle_gamma 90.000000
_cell_volume 3359.373531
_symmetry_space_group_name_H-M "C 2/M"
_symmetry_group_IT_number 12
_symmetry_cell_setting 'monoclinic'
loop_
_space_group_symop_operation_xyz
x,y,z
-x,y,-z
-x,-y,-z
x,-y,z
1/2+x,1/2+y,z
1/2-x,1/2+y,-z
1/2-x,1/2-y,-z
1/2+x,1/2-y,z
loop_
_atom_site_type_symbol
_atom_site_label
_atom_site_fract_x
_atom_site_fract_y
_atom_site_fract_z
Si Si1 0.225448 0.386083 0.374418
Si Si2 0.178343 0.629788 0.029640
Si Si3 0.715918 0.198765 0.923009
Si Si4 0.367488 0.762890 0.497663
Si Si5 0.518240 0.555090 0.616069
Si Si6 0.107261 0.814275 0.328510
Si Si7 0.292427 0.189485 0.783449
O O1 0.331361 0.434644 0.463285
O O2 0.306088 0.364138 0.545475
O O3 0.267458 0.350591 0.345199
O O4 0.010837 0.394768 0.148399
O O5 0.324603 0.588109 0.176540
O O6 0.250853 0.669614 0.172843
O O7 0.147694 0.659002 0.913775
O O8 0.551336 0.206854 0.682031
O O9 0.750000 0.250000 0.000000
O O10 0.897803 0.179164 0.076612
O O11 0.209161 0.798632 0.355897
O O12 0.384773 0.724314 0.589640
O O13 0.318954 0.737728 0.358623
O O14 0.500000 0.565737 0.500000
O O15 0.571305 0.500000 0.689074
O O16 0.500000 0.203016 0.000000
#
# Coordination Sequence:
#
# PCOD8083495 Si02
#       7
#     8   8   8   8   8   8   8
#     4  10  18  33  48  64  82 116 158 200 240 274
#     4  11  20  34  49  69  91 125 167 200 239 276
#     4  10  19  27  46  69  87 117 158 197 228 282
#     4   9  17  30  40  64  91 112 150 195 230 274
#     4  11  23  35  47  65  90 122 163 211 251 280
#     4   9  16  27  46  61  85 111 143 196 232 274
#     4   9  19  29  45  64  91 125 155 201 231 269
#
# _framework density 16.669775999999999
#
# number of rings (size 3 to 8) (size 9 to 14) (size 15 to 20)
#    0.000    2.143    4.286    0.000    6.000    0.571 
#    0.000    1.429    0.000    0.000    0.000    0.000 
#    0.000    0.000    0.000    0.000    0.000   18.571 
#
# Total GULP energy -347033.942303 kJ/mol
# GULP energy per Si atom -12394.069368 kJ/mol
# Density = 1.663183 g / cm^3
# Si number density = 16.669776 Si / 1000 Ang^3
#
#
#
# Elastic Constant Matrix: (Units=GPa)
#
#
# Indices 1 2 3 4 5 6 
#
# 1 31.9560 25.0120 31.9507 0.0000 14.3512 0.0000
# 2 25.0120 69.0070 38.2289 0.0000 -1.0121 0.0000
# 3 31.9507 38.2289 97.9882 0.0000 14.9186 0.0000
# 4 0.0000 0.0000 0.0000 19.8063 0.0000 2.8276
# 5 14.3512 -1.0121 14.9186 0.0000 21.5291 0.0000
# 6 0.0000 0.0000 0.0000 2.8276 0.0000 19.1559
#
#
#
# Elastic Compliance Matrix: (Units=1/GPa)
#
#
# Indices 1 2 3 4 5 6 
#
# 1 0.083585 -0.025742 -0.009552 0.000000 -0.050308 0.000000
# 2 -0.025742 0.027282 -0.005654 0.000000 0.022360 0.000000
# 3 -0.009552 -0.005654 0.016319 0.000000 -0.005207 0.000000
# 4 0.000000 0.000000 0.000000 0.051576 0.000000 -0.007613
# 5 -0.050308 0.022360 -0.005207 0.000000 0.084643 0.000000
# 6 0.000000 0.000000 0.000000 -0.007613 0.000000 0.053327
#
#
# Mechanical properties :
#
#
# Convention : Reuss Voigt Hill
#
# Bulk Modulus (GPa) = 22.08067 43.25940 32.67003
# Shear Modulus (GPa) = 12.08535 19.01556 15.55046
#
# Velocity S-wave (km/s) = 2.69548 3.38112 3.05758
# Velocity P-wave (km/s) = 4.79188 6.42260 5.66621
#
# Compressibility (1/GPa) = 0.04528849
#
# Stress axis : x y z
#
# Youngs Moduli (GPa) = 11.96393 36.65412 61.27988
#
# Poissons Ratio (x) = 0.94355 0.58534
# Poissons Ratio (y) = 0.30798 0.34650
# Poissons Ratio (z) = 0.11428 0.20726
#
# Static dielectric constant tensor:
#      x y z
#    x 2.922360 0.000000 0.244160 
#    y 0.000000 2.827180 0.000000 
#    z 0.244160 0.000000 3.519180 
# 
# 
# High freq. dielectric constant tensor:
#      x y z
#    x 1.606820 0.000000 0.029110 
#    y 0.000000 1.596990 0.000000 
#    z 0.029110 0.000000 1.655920 
# 
# From -- ./inp_files/286645.got.cif
#   From: 2010.06.25/outbox.cif.g09.slc.cpg/sg12_144_cif.got.tgz:286645.got - 2010.06.28 00:19:55.
