data_PCOD8083863
_publ_section_title
;
Structure prediction by ZEFSAII (Michael W. Deem and Ramdas Pophale) SiO2 
 PCOD8083863
Probable space group: C 2/M
;
_chemical_formula_sum "Si O2"
_cell_formula_units_Z 64
_cell_length_a 33.283353
_cell_length_b 8.705472
_cell_length_c 13.886018
_cell_angle_alpha 90.000000
_cell_angle_beta 53.086987
_cell_angle_gamma 90.000000
_cell_volume 3216.931448
_symmetry_space_group_name_H-M "C 2/M"
_symmetry_group_IT_number 12
_symmetry_cell_setting 'monoclinic'
loop_
_space_group_symop_operation_xyz
x,y,z
-x,y,-z
-x,-y,-z
x,-y,z
1/2+x,1/2+y,z
1/2-x,1/2+y,-z
1/2-x,1/2-y,-z
1/2+x,1/2-y,z
loop_
_atom_site_type_symbol
_atom_site_label
_atom_site_fract_x
_atom_site_fract_y
_atom_site_fract_z
Si Si1 0.359075 0.177226 0.775226
Si Si2 0.182953 0.678411 0.959188
Si Si3 0.103282 0.817420 0.729907
Si Si4 0.501478 0.680618 0.787618
Si Si5 0.207430 0.180668 0.494644
Si Si6 0.033955 0.818444 0.365314
Si Si7 0.720814 0.821939 0.269987
Si Si8 0.097037 0.180200 0.958269
O O1 0.408454 0.279152 0.699127
O O2 0.326559 0.217270 0.728423
O O3 0.375142 0.000000 0.754900
O O4 0.326491 0.218856 0.915860
O O5 0.196117 0.500000 0.925602
O O6 0.228695 0.782301 0.859051
O O7 0.133591 0.719620 0.970659
O O8 0.153232 0.754416 0.605885
O O9 0.103530 0.763003 0.839879
O O10 0.054511 0.747634 0.745891
O O11 0.100699 0.000000 0.730385
O O12 0.507765 0.500000 0.765969
O O13 0.485344 0.752921 0.708055
O O14 0.459688 0.717027 0.927946
O O15 0.250000 0.250000 0.500000
O O16 0.217030 0.221625 0.370780
O O17 0.208978 0.000000 0.505778
O O18 0.000000 0.749401 0.500000
O O19 0.028972 0.000000 0.369280
O O20 0.722287 0.000000 0.296539
O O21 0.109642 0.000000 0.952650
#
# Coordination Sequence:
#
# PCOD8083863 Si02
#       8
#     8   8   8   8   8   8   8   8
#     4  10  23  41  60  85 119 155 194 243 299 359
#     4  11  22  38  60  87 117 151 192 243 301 359
#     4   9  19  33  55  85 115 150 194 240 286 339
#     4   9  17  32  54  85 117 147 190 239 285 339
#     4  11  23  40  62  88 121 159 197 244 295 350
#     4  10  21  35  58  89 119 152 194 244 291 346
#     4  11  24  41  61  85 115 153 199 247 295 354
#     4  10  18  33  59  87 115 152 192 237 291 345
#
# _framework density 19.894736000000002
#
# number of rings (size 3 to 8) (size 9 to 14) (size 15 to 20)
#    0.000    1.875    1.250    2.625    1.750    4.250 
#    0.000    0.625    0.000    3.750    0.000    0.000 
#    0.000    0.000    0.000    0.000    0.000    0.000 
#
# Total GULP energy -396902.523412 kJ/mol
# GULP energy per Si atom -12403.203857 kJ/mol
# Density = 1.984945 g / cm^3
# Si number density = 19.894736 Si / 1000 Ang^3
#
#
#
# Elastic Constant Matrix: (Units=GPa)
#
#
# Indices 1 2 3 4 5 6 
#
# 1 120.4943 24.9246 43.4063 0.0000 2.6218 0.0000
# 2 24.9246 26.8244 22.1766 0.0000 -1.2045 0.0000
# 3 43.4063 22.1766 122.4891 0.0000 6.3559 0.0000
# 4 0.0000 0.0000 0.0000 18.1686 0.0000 -5.8293
# 5 2.6218 -1.2045 6.3559 0.0000 36.9798 0.0000
# 6 0.0000 0.0000 0.0000 -5.8293 0.0000 24.4946
#
#
#
# Elastic Compliance Matrix: (Units=1/GPa)
#
#
# Indices 1 2 3 4 5 6 
#
# 1 0.010844 -0.008179 -0.002329 0.000000 -0.000635 0.000000
# 2 -0.008179 0.050303 -0.006381 0.000000 0.003315 0.000000
# 3 -0.002329 -0.006381 0.010238 0.000000 -0.001802 0.000000
# 4 0.000000 0.000000 0.000000 0.059590 0.000000 0.014181
# 5 -0.000635 0.003315 -0.001802 0.000000 0.027505 0.000000
# 6 0.000000 0.000000 0.000000 0.014181 0.000000 0.044200
#
#
# Mechanical properties :
#
#
# Convention : Reuss Voigt Hill
#
# Bulk Modulus (GPa) = 26.59047 50.09144 38.34095
# Shear Modulus (GPa) = 20.08083 27.88197 23.98140
#
# Velocity S-wave (km/s) = 3.18048 3.74769 3.47567
# Velocity P-wave (km/s) = 5.18477 6.63022 5.95154
#
# Compressibility (1/GPa) = 0.03760746
#
# Stress axis : x y z
#
# Youngs Moduli (GPa) = 92.21888 19.87937 97.67418
#
# Poissons Ratio (x) = 0.16259 0.22748
# Poissons Ratio (y) = 0.75425 0.62327
# Poissons Ratio (z) = 0.21477 0.12685
#
# Static dielectric constant tensor:
#      x y z
#    x 3.862100 0.000000 0.070080 
#    y 0.000000 3.286970 0.000000 
#    z 0.070080 0.000000 3.832820 
# 
# 
# High freq. dielectric constant tensor:
#      x y z
#    x 1.791960 0.000000 0.001350 
#    y 0.000000 1.743910 0.000000 
#    z 0.001350 0.000000 1.790700 
# 
# From -- ./inp_files/249828.got.cif
#   From: 2010.06.25/outbox.cif.g09.slc.cpg/sg12_125_cif.got.tgz:249828.got - 2010.06.28 00:19:55.
