data_PCOD8083982
_publ_section_title
;
Structure prediction by ZEFSAII (Michael W. Deem and Ramdas Pophale) SiO2 
 PCOD8083982
Probable space group: C 2/M
;
_chemical_formula_sum "Si O2"
_cell_formula_units_Z 52
_cell_length_a 22.137047
_cell_length_b 12.387646
_cell_length_c 20.405332
_cell_angle_alpha 90.000000
_cell_angle_beta 30.288029
_cell_angle_gamma 90.000000
_cell_volume 2822.160899
_symmetry_space_group_name_H-M "C 2/M"
_symmetry_group_IT_number 12
_symmetry_cell_setting 'monoclinic'
loop_
_space_group_symop_operation_xyz
x,y,z
-x,y,-z
-x,-y,-z
x,-y,z
1/2+x,1/2+y,z
1/2-x,1/2+y,-z
1/2-x,1/2-y,-z
1/2+x,1/2-y,z
loop_
_atom_site_type_symbol
_atom_site_label
_atom_site_fract_x
_atom_site_fract_y
_atom_site_fract_z
Si Si1 0.000000 0.288760 0.000000
Si Si2 0.736327 0.760399 0.416435
Si Si3 0.369007 0.122936 0.609291
Si Si4 0.865909 0.212723 0.930310
Si Si5 0.596002 0.375348 0.645490
Si Si6 0.177170 0.880446 0.893433
Si Si7 0.956434 0.377511 0.176164
O O1 0.897719 0.211051 0.070871
O O2 0.952726 0.365743 0.101342
O O3 0.697229 0.804887 0.382773
O O4 0.623326 0.707993 0.560335
O O5 0.802431 0.856746 0.393962
O O6 0.831994 0.664991 0.320676
O O7 0.500000 0.170662 0.500000
O O8 0.306685 0.127640 0.738599
O O9 0.375051 0.000000 0.577150
O O10 0.961282 0.147382 0.796905
O O11 0.930047 0.317278 0.899801
O O12 0.750000 0.250000 0.000000
O O13 0.817085 0.136711 0.034151
O O14 0.602509 0.500000 0.616716
O O15 0.122567 0.000000 0.931794
O O16 0.969980 0.500000 0.184785
#
# Coordination Sequence:
#
# PCOD8083982 Si02
#       7
#     4   8   8   8   8   8   8
#     4  10  18  34  54  84 112 140 176 234 276 330
#     4  10  20  37  59  83 115 144 186 239 276 330
#     4  10  21  36  58  85 113 145 180 229 287 338
#     4  10  23  38  56  83 115 151 186 234 280 335
#     4  10  21  37  59  84 111 149 190 230 278 330
#     4  10  20  35  58  84 110 142 183 231 285 337
#     4  10  20  35  56  81 109 149 189 226 277 329
#
# _framework density 18.425598000000001
#
# number of rings (size 3 to 8) (size 9 to 14) (size 15 to 20)
#    0.000    2.000    1.538    1.846    2.154    1.231 
#    0.000    0.769    0.000    1.846    0.000    0.000 
#    0.000    0.000    0.000    0.000    0.000    0.000 
#
# Total GULP energy -322345.382699 kJ/mol
# GULP energy per Si atom -12397.899335 kJ/mol
# Density = 1.838366 g / cm^3
# Si number density = 18.425598 Si / 1000 Ang^3
#
#
#
# Elastic Constant Matrix: (Units=GPa)
#
#
# Indices 1 2 3 4 5 6 
#
# 1 79.3028 24.3298 46.3240 0.0000 0.1432 0.0000
# 2 24.3298 93.6347 31.3157 0.0000 -0.2755 0.0000
# 3 46.3240 31.3157 115.0757 0.0001 8.7139 0.0000
# 4 0.0000 0.0000 0.0001 21.5815 -0.0001 4.1172
# 5 0.1432 -0.2755 8.7139 -0.0001 29.1070 0.0000
# 6 0.0000 0.0000 0.0000 4.1172 0.0000 26.2305
#
#
#
# Elastic Compliance Matrix: (Units=1/GPa)
#
#
# Indices 1 2 3 4 5 6 
#
# 1 0.017029 -0.002290 -0.006368 0.000000 0.001801 0.000000
# 2 -0.002290 0.012091 -0.002433 0.000000 0.000854 0.000000
# 3 -0.006368 -0.002433 0.012192 0.000000 -0.003642 0.000000
# 4 0.000000 0.000000 0.000000 0.047766 0.000000 -0.007498
# 5 0.001801 0.000854 -0.003642 0.000000 0.035445 0.000000
# 6 0.000000 0.000000 0.000000 -0.007498 0.000000 0.039300
#
#
# Mechanical properties :
#
#
# Convention : Reuss Voigt Hill
#
# Bulk Modulus (GPa) = 52.27687 54.66135 53.46911
# Shear Modulus (GPa) = 25.98983 27.78672 26.88827
#
# Velocity S-wave (km/s) = 3.75977 3.88757 3.82421
# Velocity P-wave (km/s) = 6.87614 7.06267 6.97003
#
# Compressibility (1/GPa) = 0.01912892
#
# Stress axis : x y z
#
# Youngs Moduli (GPa) = 58.72284 82.70562 82.02431
#
# Poissons Ratio (x) = 0.18936 0.52237
# Poissons Ratio (y) = 0.13445 0.19959
# Poissons Ratio (z) = 0.37397 0.20125
#
# Static dielectric constant tensor:
#      x y z
#    x 3.332860 0.000000 0.221300 
#    y 0.000000 3.324550 0.000000 
#    z 0.221300 0.000000 3.604940 
# 
# 
# High freq. dielectric constant tensor:
#      x y z
#    x 1.700100 0.000000 0.014320 
#    y 0.000000 1.712030 0.000000 
#    z 0.014320 0.000000 1.727890 
# 
# From -- ./inp_files/175205.got.cif
#   From: 2010.06.25/outbox.cif.g09.slc.cpg/sg12_88_cif.got.tgz:175205.got - 2010.06.28 00:19:55.
