data_PCOD8083821
_publ_section_title
;
Structure prediction by ZEFSAII (Michael W. Deem and Ramdas Pophale) SiO2 
 PCOD8083821
Probable space group: C 2/M
;
_chemical_formula_sum "Si O2"
_cell_formula_units_Z 64
_cell_length_a 31.009114
_cell_length_b 8.876535
_cell_length_c 11.995144
_cell_angle_alpha 90.000000
_cell_angle_beta 89.855064
_cell_angle_gamma 90.000000
_cell_volume 3301.694634
_symmetry_space_group_name_H-M "C 2/M"
_symmetry_group_IT_number 12
_symmetry_cell_setting 'monoclinic'
loop_
_space_group_symop_operation_xyz
x,y,z
-x,y,-z
-x,-y,-z
x,-y,z
1/2+x,1/2+y,z
1/2-x,1/2+y,-z
1/2-x,1/2-y,-z
1/2+x,1/2-y,z
loop_
_atom_site_type_symbol
_atom_site_label
_atom_site_fract_x
_atom_site_fract_y
_atom_site_fract_z
Si Si1 0.051235 0.677514 0.747470
Si Si2 0.455756 0.823397 0.723642
Si Si3 0.205313 0.323440 0.279580
Si Si4 0.800754 0.176968 0.262083
Si Si5 0.915205 0.674766 0.496799
Si Si6 0.674715 0.322365 0.496542
Si Si7 0.623389 0.678899 0.893826
Si Si8 0.375210 0.179520 0.864824
O O1 0.055593 0.500000 0.771463
O O2 0.064799 0.716492 0.621748
O O3 0.079994 0.769207 0.833417
O O4 0.002243 0.737181 0.763515
O O5 0.449709 0.786435 0.592893
O O6 0.416898 0.756572 0.798447
O O7 0.455618 0.000000 0.741391
O O8 0.200147 0.500000 0.299748
O O9 0.251887 0.284006 0.224870
O O10 0.204184 0.246682 0.400012
O O11 0.167651 0.264002 0.199067
O O12 0.809964 0.244506 0.384638
O O13 0.835050 0.243145 0.173624
O O14 0.808236 0.000000 0.268291
O O15 0.901350 0.500000 0.503114
O O16 0.874399 0.777004 0.523084
O O17 0.679660 0.500000 0.491920
O O18 0.623756 0.500000 0.902634
O O19 0.625141 0.748952 0.014760
O O20 0.375770 0.000000 0.874754
#
# Coordination Sequence:
#
# PCOD8083821 Si02
#       8
#     8   8   8   8   8   8   8   8
#     4  10  20  35  60  87 111 142 187 232 273 326
#     4   9  18  35  58  86 114 142 179 233 283 318
#     4  10  20  38  61  83 109 145 188 229 275 327
#     4   9  20  37  57  81 113 150 181 224 279 328
#     4  10  18  33  58  86 113 146 184 223 273 331
#     4  11  20  33  55  85 120 149 177 218 276 337
#     4  11  23  40  57  77 113 151 186 228 280 331
#     4  10  21  38  59  81 107 142 189 237 278 322
#
# _framework density 19.383984000000002
#
# number of rings (size 3 to 8) (size 9 to 14) (size 15 to 20)
#    0.000    2.000    2.500    1.500    0.000    3.000 
#    0.000    5.625    0.000    1.500    0.000    0.000 
#    0.000    0.000    0.000    0.000    0.000    0.000 
#
# Total GULP energy -396788.096652 kJ/mol
# GULP energy per Si atom -12399.628020 kJ/mol
# Density = 1.933987 g / cm^3
# Si number density = 19.383984 Si / 1000 Ang^3
#
#
#
# Elastic Constant Matrix: (Units=GPa)
#
#
# Indices 1 2 3 4 5 6 
#
# 1 124.8697 14.6098 44.4924 0.0000 9.5460 0.0000
# 2 14.6098 24.9237 22.4904 0.0000 0.0309 0.0000
# 3 44.4924 22.4904 133.6515 0.0000 8.5535 0.0000
# 4 0.0000 0.0000 0.0000 25.2995 0.0000 -2.0074
# 5 9.5460 0.0309 8.5535 0.0000 16.4750 0.0000
# 6 0.0000 0.0000 0.0000 -2.0074 0.0000 19.3418
#
#
#
# Elastic Compliance Matrix: (Units=1/GPa)
#
#
# Indices 1 2 3 4 5 6 
#
# 1 0.009578 -0.003516 -0.002319 0.000000 -0.004339 0.000000
# 2 -0.003516 0.048877 -0.007426 0.000000 0.005801 0.000000
# 3 -0.002319 -0.007426 0.009740 0.000000 -0.003699 0.000000
# 4 0.000000 0.000000 0.000000 0.039855 0.000000 0.004136
# 5 -0.004339 0.005801 -0.003699 0.000000 0.065122 0.000000
# 6 0.000000 0.000000 0.000000 0.004136 0.000000 0.052131
#
#
# Mechanical properties :
#
#
# Convention : Reuss Voigt Hill
#
# Bulk Modulus (GPa) = 23.99606 49.62558 36.81082
# Shear Modulus (GPa) = 18.81711 25.68007 22.24859
#
# Velocity S-wave (km/s) = 3.11908 3.64374 3.39157
# Velocity P-wave (km/s) = 5.03763 6.58478 5.86247
#
# Compressibility (1/GPa) = 0.04167351
#
# Stress axis : x y z
#
# Youngs Moduli (GPa) = 104.40861 20.45951 102.66462
#
# Poissons Ratio (x) = 0.07194 0.23808
# Poissons Ratio (y) = 0.36713 0.76234
# Poissons Ratio (z) = 0.24213 0.15192
#
# Static dielectric constant tensor:
#      x y z
#    x 4.115740 0.000000 -0.138640 
#    y 0.000000 3.213100 0.000000 
#    z -0.138640 0.000000 3.613760 
# 
# 
# High freq. dielectric constant tensor:
#      x y z
#    x 1.770750 0.000000 -0.000050 
#    y 0.000000 1.720390 0.000000 
#    z -0.000050 0.000000 1.756280 
# 
# From -- ./inp_files/187477.got.cif
#   From: 2010.06.25/outbox.cif.g09.slc.cpg/sg12_94_cif.got.tgz:187477.got - 2010.06.28 00:19:55.
