data_PCOD8083452
_publ_section_title
;
Structure prediction by ZEFSAII (Michael W. Deem and Ramdas Pophale) SiO2 
 PCOD8083452
Probable space group: C 2/M
;
_chemical_formula_sum "Si O2"
_cell_formula_units_Z 64
_cell_length_a 23.819786
_cell_length_b 8.943457
_cell_length_c 19.162014
_cell_angle_alpha 90.000000
_cell_angle_beta 127.102917
_cell_angle_gamma 90.000000
_cell_volume 3255.697929
_symmetry_space_group_name_H-M "C 2/M"
_symmetry_group_IT_number 12
_symmetry_cell_setting 'monoclinic'
loop_
_space_group_symop_operation_xyz
x,y,z
-x,y,-z
-x,-y,-z
x,-y,z
1/2+x,1/2+y,z
1/2-x,1/2+y,-z
1/2-x,1/2-y,-z
1/2+x,1/2-y,z
loop_
_atom_site_type_symbol
_atom_site_label
_atom_site_fract_x
_atom_site_fract_y
_atom_site_fract_z
Si Si1 0.423866 0.327943 0.098593
Si Si2 0.412695 0.828439 0.328717
Si Si3 0.824551 0.176473 0.148805
Si Si4 0.835214 0.671597 0.410768
Si Si5 0.565297 0.176941 0.239113
Si Si6 0.435862 0.177480 0.604666
Si Si7 0.699116 0.823330 0.251742
Si Si8 0.192084 0.172834 0.096842
O O1 0.442524 0.500000 0.126428
O O2 0.374439 0.267164 0.123788
O O3 0.495562 0.236003 0.149067
O O4 0.384415 0.306992 0.995302
O O5 0.357823 0.724202 0.247247
O O6 0.395469 0.815425 0.397259
O O7 0.490816 0.765880 0.373236
O O8 0.405083 0.000000 0.297037
O O9 0.748895 0.256285 0.086408
O O10 0.812911 0.000000 0.137158
O O11 0.810059 0.500000 0.398945
O O12 0.870447 0.733238 0.508561
O O13 0.768534 0.773147 0.344355
O O14 0.571680 0.241110 0.322615
O O15 0.632431 0.232412 0.246218
O O16 0.560773 0.000000 0.237594
O O17 0.435303 0.000000 0.603491
O O18 0.693746 0.752731 0.171914
O O19 0.700297 0.000000 0.244064
O O20 0.210999 0.000000 0.122217
#
# Coordination Sequence:
#
# PCOD8083452 Si02
#       8
#     8   8   8   8   8   8   8   8
#     4  10  23  40  60  88 118 147 188 238 287 341
#     4  10  18  32  58  87 116 150 188 229 279 342
#     4  11  21  35  58  89 122 149 179 231 290 343
#     4  10  20  35  59  88 116 151 193 233 282 343
#     4  10  22  40  61  83 113 155 198 238 285 340
#     4   9  18  35  59  87 116 150 192 234 278 342
#     4  11  24  40  57  83 117 151 194 247 292 332
#     4  11  23  40  61  85 114 153 194 232 283 348
#
# _framework density 19.657844000000001
#
# number of rings (size 3 to 8) (size 9 to 14) (size 15 to 20)
#    0.000    1.750    2.500    1.875    0.000    5.000 
#    0.000    3.750    0.000    1.500    0.000    0.000 
#    0.000    0.000    0.000    0.000    0.000    0.000 
#
# Total GULP energy -396898.088386 kJ/mol
# GULP energy per Si atom -12403.065262 kJ/mol
# Density = 1.961310 g / cm^3
# Si number density = 19.657844 Si / 1000 Ang^3
#
#
#
# Elastic Constant Matrix: (Units=GPa)
#
#
# Indices 1 2 3 4 5 6 
#
# 1 127.9831 37.8537 45.3025 0.0000 20.0053 0.0000
# 2 37.8537 54.9425 27.9332 0.0000 7.1223 0.0000
# 3 45.3025 27.9332 111.3825 0.0000 12.0321 0.0000
# 4 0.0000 0.0000 0.0000 27.0119 0.0000 4.6107
# 5 20.0053 7.1223 12.0321 0.0000 17.1451 0.0000
# 6 0.0000 0.0000 0.0000 4.6107 0.0000 22.2620
#
#
#
# Elastic Compliance Matrix: (Units=1/GPa)
#
#
# Indices 1 2 3 4 5 6 
#
# 1 0.011867 -0.005716 -0.002330 0.000000 -0.009836 0.000000
# 2 -0.005716 0.024087 -0.003631 0.000000 -0.000789 0.000000
# 3 -0.002330 -0.003631 0.011231 0.000000 -0.003654 0.000000
# 4 0.000000 0.000000 0.000000 0.038377 0.000000 -0.007948
# 5 -0.009836 -0.000789 -0.003654 0.000000 0.072695 0.000000
# 6 0.000000 0.000000 0.000000 -0.007948 0.000000 0.046566
#
#
# Mechanical properties :
#
#
# Convention : Reuss Voigt Hill
#
# Bulk Modulus (GPa) = 41.96238 57.38746 49.67492
# Shear Modulus (GPa) = 21.17564 25.49838 23.33701
#
# Velocity S-wave (km/s) = 3.28565 3.60545 3.44926
# Velocity P-wave (km/s) = 5.98220 6.82560 6.41777
#
# Compressibility (1/GPa) = 0.02383087
#
# Stress axis : x y z
#
# Youngs Moduli (GPa) = 84.27068 41.51626 89.03741
#
# Poissons Ratio (x) = 0.23730 0.20750
# Poissons Ratio (y) = 0.48167 0.32327
# Poissons Ratio (z) = 0.19639 0.15073
#
# Static dielectric constant tensor:
#      x y z
#    x 3.709570 0.000000 -0.016600 
#    y 0.000000 3.386060 0.000000 
#    z -0.016600 0.000000 3.657610 
# 
# 
# High freq. dielectric constant tensor:
#      x y z
#    x 1.766910 0.000000 0.001570 
#    y 0.000000 1.747600 0.000000 
#    z 0.001570 0.000000 1.776150 
# 
# From -- ./inp_files/324323.got.cif
#   From: 2010.06.25/outbox.cif.g09.slc.cpg/sg12_163_cif.got.tgz:324323.got - 2010.06.28 00:19:55.
