data_PCOD8083789
_publ_section_title
;
Structure prediction by ZEFSAII (Michael W. Deem and Ramdas Pophale) SiO2 
 PCOD8083789
Probable space group: C 2/M
;
_chemical_formula_sum "Si O2"
_cell_formula_units_Z 64
_cell_length_a 29.020814
_cell_length_b 17.985204
_cell_length_c 12.444237
_cell_angle_alpha 90.000000
_cell_angle_beta 150.914755
_cell_angle_gamma 90.000000
_cell_volume 3157.389042
_symmetry_space_group_name_H-M "C 2/M"
_symmetry_group_IT_number 12
_symmetry_cell_setting 'monoclinic'
loop_
_space_group_symop_operation_xyz
x,y,z
-x,y,-z
-x,-y,-z
x,-y,z
1/2+x,1/2+y,z
1/2-x,1/2+y,-z
1/2-x,1/2-y,-z
1/2+x,1/2-y,z
loop_
_atom_site_type_symbol
_atom_site_label
_atom_site_fract_x
_atom_site_fract_y
_atom_site_fract_z
Si Si1 0.326622 0.678483 0.457351
Si Si2 0.223377 0.166779 0.259419
Si Si3 0.510019 0.083344 0.687638
Si Si4 0.748679 0.916336 0.474513
Si Si5 0.051318 0.618928 0.999486
Si Si6 0.974496 0.208442 0.066568
Si Si7 0.694387 0.913393 0.774762
Si Si8 0.283163 0.913059 0.938534
O O1 0.259738 0.749347 0.335120
O O2 0.325874 0.630133 0.565277
O O3 0.436209 0.703054 0.669862
O O4 0.294387 0.631598 0.287970
O O5 0.275896 0.121447 0.461220
O O6 0.243593 0.130712 0.185235
O O7 0.111125 0.162145 0.054738
O O8 0.414592 0.118189 0.440947
O O9 0.518573 0.000000 0.661193
O O10 0.493078 0.087313 0.780592
O O11 0.610883 0.121792 0.864645
O O12 0.656078 0.915548 0.210109
O O13 0.785288 0.000000 0.567029
O O14 0.059225 0.707254 0.013222
O O15 0.000000 0.588628 0.000000
O O16 0.000000 0.177622 0.000000
O O17 0.691222 0.000000 0.735081
O O18 0.742854 0.902100 0.989329
O O19 0.279114 0.000000 0.897257
#
# Coordination Sequence:
#
# PCOD8083789 Si02
#       8
#     8   8   8   8   8   8   8   8
#     4  12  23  40  65  91 123 163 211 255 306 371
#     4  12  23  41  63  90 126 164 209 259 312 366
#     4  10  18  33  57  89 124 159 201 249 306 373
#     4  12  23  38  61  91 127 166 203 249 312 372
#     4  11  21  34  56  89 125 161 198 253 310 367
#     4  11  22  39  60  87 121 164 209 249 308 372
#     4  10  22  39  61  90 124 164 209 262 317 367
#     4  10  21  40  63  89 124 165 209 258 314 372
#
# _framework density 20.269912000000001
#
# number of rings (size 3 to 8) (size 9 to 14) (size 15 to 20)
#    0.000    1.000    3.750    4.875    0.000    4.000 
#    0.000    3.750    0.000    1.500    0.000    0.000 
#    0.000    0.000    0.000    0.000    0.000    0.000 
#
# Total GULP energy -396806.388566 kJ/mol
# GULP energy per Si atom -12400.199643 kJ/mol
# Density = 2.022378 g / cm^3
# Si number density = 20.269912 Si / 1000 Ang^3
#
#
#
# Elastic Constant Matrix: (Units=GPa)
#
#
# Indices 1 2 3 4 5 6 
#
# 1 92.3514 41.6838 46.5303 0.0000 -6.4979 0.0000
# 2 41.6838 90.1039 28.8395 0.0000 -7.9356 0.0000
# 3 46.5303 28.8395 103.9552 0.0000 0.5611 0.0000
# 4 0.0000 0.0000 0.0000 20.4650 0.0000 -1.5053
# 5 -6.4979 -7.9356 0.5611 0.0000 39.8108 0.0000
# 6 0.0000 0.0000 0.0000 -1.5053 0.0000 30.4253
#
#
#
# Elastic Compliance Matrix: (Units=1/GPa)
#
#
# Indices 1 2 3 4 5 6 
#
# 1 0.016381 -0.005579 -0.005793 0.000000 0.001643 0.000000
# 2 -0.005579 0.014329 -0.001489 0.000000 0.001967 0.000000
# 3 -0.005793 -0.001489 0.012633 0.000000 -0.001420 0.000000
# 4 0.000000 0.000000 0.000000 0.049042 0.000000 0.002426
# 5 0.001643 0.001967 -0.001420 0.000000 0.025799 0.000000
# 6 0.000000 0.000000 0.000000 0.002426 0.000000 0.032987
#
#
# Mechanical properties :
#
#
# Convention : Reuss Voigt Hill
#
# Bulk Modulus (GPa) = 56.74969 57.83531 57.29250
# Shear Modulus (GPa) = 27.35718 29.43068 28.39393
#
# Velocity S-wave (km/s) = 3.67774 3.81457 3.74678
# Velocity P-wave (km/s) = 6.78912 6.92790 6.85886
#
# Compressibility (1/GPa) = 0.01762124
#
# Stress axis : x y z
#
# Youngs Moduli (GPa) = 61.04683 69.78864 79.15669
#
# Poissons Ratio (x) = 0.38936 0.45857
# Poissons Ratio (y) = 0.34059 0.11783
# Poissons Ratio (z) = 0.35365 0.10388
#
# Static dielectric constant tensor:
#      x y z
#    x 3.662620 0.000000 0.005210 
#    y 0.000000 3.504640 0.000000 
#    z 0.005210 0.000000 3.663400 
# 
# 
# High freq. dielectric constant tensor:
#      x y z
#    x 1.787280 0.000000 -0.006540 
#    y 0.000000 1.773060 0.000000 
#    z -0.006540 0.000000 1.789820 
# 
# From -- ./inp_files/190063.got.cif
#   From: 2010.06.25/outbox.cif.g09.slc.cpg/sg12_96_cif.got.tgz:190063.got - 2010.06.28 00:19:55.
