data_PCOD8083575
_publ_section_title
;
Structure prediction by ZEFSAII (Michael W. Deem and Ramdas Pophale) SiO2 
 PCOD8083575
Probable space group: C 2/M
;
_chemical_formula_sum "Si O2"
_cell_formula_units_Z 36
_cell_length_a 13.301144
_cell_length_b 18.163931
_cell_length_c 14.062777
_cell_angle_alpha 90.000000
_cell_angle_beta 149.997780
_cell_angle_gamma 90.000000
_cell_volume 1698.904933
_symmetry_space_group_name_H-M "C 2/M"
_symmetry_group_IT_number 12
_symmetry_cell_setting 'monoclinic'
loop_
_space_group_symop_operation_xyz
x,y,z
-x,y,-z
-x,-y,-z
x,-y,z
1/2+x,1/2+y,z
1/2-x,1/2+y,-z
1/2-x,1/2-y,-z
1/2+x,1/2-y,z
loop_
_atom_site_type_symbol
_atom_site_label
_atom_site_fract_x
_atom_site_fract_y
_atom_site_fract_z
Si Si1 0.645579 0.137933 0.371701
Si Si2 0.844554 0.207751 0.692843
Si Si3 0.198877 0.500000 0.295770
Si Si4 0.248638 0.151753 0.948032
Si Si5 0.000000 0.259214 0.000000
Si Si6 0.265841 0.500000 0.141401
O O1 0.706537 0.142704 0.534509
O O2 0.742947 0.212079 0.406740
O O3 0.749520 0.069876 0.403363
O O4 0.405046 0.135308 0.162048
O O5 0.858296 0.205907 0.819126
O O6 0.074646 0.204871 0.842838
O O7 0.328029 0.500000 0.304225
O O8 0.971419 0.500000 0.073062
O O9 0.145420 0.074541 0.832128
O O10 0.366404 0.187222 0.955743
#
# Coordination Sequence:
#
# PCOD8083575 Si02
#       6
#     8   8   4   8   4   4
#     4   9  18  33  51  74 105 133 165 205 254 304
#     4  10  20  34  51  76 104 136 171 207 251 300
#     4   9  16  31  53  77 105 132 161 211 261 304
#     4  10  19  34  53  77 107 133 163 210 257 304
#     4  10  18  33  54  73 102 136 172 210 248 297
#     4   9  16  29  53  79 103 132 163 201 265 314
#
# _framework density 21.19012
#
# number of rings (size 3 to 8) (size 9 to 14) (size 15 to 20)
#    0.000    2.444    0.000    6.667    0.000    0.889 
#    0.000   26.667    0.000    2.667    0.000   12.444 
#    0.000    0.000    0.000    0.000    0.000    0.000 
#
# Total GULP energy -223045.765246 kJ/mol
# GULP energy per Si atom -12391.431403 kJ/mol
# Density = 2.114189 g / cm^3
# Si number density = 21.190120 Si / 1000 Ang^3
#
#
#
# Elastic Constant Matrix: (Units=GPa)
#
#
# Indices 1 2 3 4 5 6 
#
# 1 57.9668 36.6947 35.4546 0.0001 -16.9026 0.0001
# 2 36.6947 109.0377 35.3009 0.0001 -28.4140 0.0000
# 3 35.4546 35.3009 120.6097 0.0004 -41.4153 0.0002
# 4 0.0001 0.0001 0.0004 24.7109 0.0003 -12.8775
# 5 -16.9026 -28.4140 -41.4153 0.0003 40.1942 0.0002
# 6 0.0001 0.0000 0.0002 -12.8775 0.0002 19.8407
#
#
#
# Elastic Compliance Matrix: (Units=1/GPa)
#
#
# Indices 1 2 3 4 5 6 
#
# 1 0.024678 -0.006513 -0.005208 0.000000 0.000407 0.000000
# 2 -0.006513 0.013020 0.000501 0.000000 0.006982 0.000000
# 3 -0.005208 0.000501 0.013998 -0.000001 0.012587 -0.000001
# 4 0.000000 0.000000 -0.000001 0.061152 -0.000002 0.039690
# 5 0.000407 0.006982 0.012587 -0.000002 0.042955 -0.000002
# 6 0.000000 0.000000 -0.000001 0.039690 -0.000002 0.076162
#
#
# Mechanical properties :
#
#
# Convention : Reuss Voigt Hill
#
# Bulk Modulus (GPa) = 34.18110 55.83494 45.00802
# Shear Modulus (GPa) = 18.92807 28.96008 23.94408
#
# Velocity S-wave (km/s) = 2.99197 3.70087 3.36514
# Velocity P-wave (km/s) = 5.30109 6.68346 6.03201
#
# Compressibility (1/GPa) = 0.02925593
#
# Stress axis : x y z
#
# Youngs Moduli (GPa) = 40.52118 76.80504 71.43977
#
# Poissons Ratio (x) = 0.50021 0.37209
# Poissons Ratio (y) = 0.26390 -0.03580
# Poissons Ratio (z) = 0.21105 -0.03848
#
# Static dielectric constant tensor:
#      x y z
#    x 3.428820 0.000000 -0.476800 
#    y 0.000000 3.963840 0.000000 
#    z -0.476800 0.000000 4.166350 
# 
# 
# High freq. dielectric constant tensor:
#      x y z
#    x 1.773060 0.000000 -0.021810 
#    y 0.000000 1.822910 0.000000 
#    z -0.021810 0.000000 1.852340 
# 
# From -- ./inp_files/216594.got.cif
#   From: 2010.06.25/outbox.cif.g09.slc.cpg/sg12_109_cif.got.tgz:216594.got - 2010.06.28 00:19:55.
