data_PCOD8083242
_publ_section_title
;
Structure prediction by ZEFSAII (Michael W. Deem and Ramdas Pophale) SiO2 
 PCOD8083242
Probable space group: C 2/M
;
_chemical_formula_sum "Si O2"
_cell_formula_units_Z 52
_cell_length_a 5.109058
_cell_length_b 34.420154
_cell_length_c 19.411350
_cell_angle_alpha 90.000000
_cell_angle_beta 127.994211
_cell_angle_gamma 90.000000
_cell_volume 2690.145721
_symmetry_space_group_name_H-M "C 2/M"
_symmetry_group_IT_number 12
_symmetry_cell_setting 'monoclinic'
loop_
_space_group_symop_operation_xyz
x,y,z
-x,y,-z
-x,-y,-z
x,-y,z
1/2+x,1/2+y,z
1/2-x,1/2+y,-z
1/2-x,1/2-y,-z
1/2+x,1/2-y,z
loop_
_atom_site_type_symbol
_atom_site_label
_atom_site_fract_x
_atom_site_fract_y
_atom_site_fract_z
Si Si1 0.378141 0.774752 0.732888
Si Si2 0.760832 0.321854 0.096428
Si Si3 0.260129 0.372738 0.095892
Si Si4 0.279763 0.144116 0.659968
Si Si5 0.052387 0.456272 0.589863
Si Si6 0.000000 0.898034 0.500000
Si Si7 0.451162 0.396552 0.725881
O O1 0.547885 0.741337 0.715207
O O2 0.634693 0.789002 0.832807
O O3 0.277949 0.809520 0.665171
O O4 0.581385 0.357077 0.107774
O O5 0.081276 0.337313 0.106867
O O6 0.500000 0.303292 0.000000
O O7 0.388168 0.404409 0.172745
O O8 0.000000 0.392317 0.000000
O O9 0.964999 0.130121 0.560966
O O10 0.624383 0.130241 0.681389
O O11 0.226190 0.127141 0.727493
O O12 0.013487 0.500000 0.612474
O O13 0.390250 0.437403 0.675014
O O14 0.000000 0.456169 0.500000
O O15 0.780092 0.426984 0.573511
#
# Coordination Sequence:
#
# PCOD8083242 Si02
#       7
#     8   8   8   8   8   4   8
#     4  12  23  36  53  76 107 145 178 236 287 323
#     4  10  20  34  52  77 105 138 180 233 280 330
#     4  10  18  32  55  79 106 141 190 232 261 313
#     4  11  22  37  58  80 105 144 193 224 267 343
#     4  10  20  34  56  91 121 141 173 219 280 334
#     4  10  21  38  60  82 112 152 178 224 272 322
#     4  11  19  36  57  81 112 150 182 222 270 323
#
# _framework density 19.329808
#
# number of rings (size 3 to 8) (size 9 to 14) (size 15 to 20)
#    0.000    1.385    4.615    2.077    0.000    0.615 
#    0.000    0.769    0.000    0.462    0.000    0.000 
#    0.000    7.692    0.000    0.000    0.000    1.077 
#
# Total GULP energy -322161.789738 kJ/mol
# GULP energy per Si atom -12390.838067 kJ/mol
# Density = 1.928581 g / cm^3
# Si number density = 19.329808 Si / 1000 Ang^3
#
#
#
# Elastic Constant Matrix: (Units=GPa)
#
#
# Indices 1 2 3 4 5 6 
#
# 1 74.0839 10.7903 8.7358 0.0000 -5.2305 0.0000
# 2 10.7903 98.9042 59.7272 0.0000 -4.2509 0.0000
# 3 8.7358 59.7272 94.6751 0.0000 -13.1818 0.0000
# 4 0.0000 0.0000 0.0000 1074.4348 0.0000 -378.4748
# 5 -5.2305 -4.2509 -13.1818 0.0000 25.1899 0.0000
# 6 0.0000 0.0000 0.0000 -378.4748 0.0000 152.0864
#
#
#
# Elastic Compliance Matrix: (Units=1/GPa)
#
#
# Indices 1 2 3 4 5 6 
#
# 1 0.013889 -0.001372 -0.000050 0.000000 0.002626 0.000000
# 2 -0.001372 0.016660 -0.010820 0.000000 -0.003136 0.000000
# 3 -0.000050 -0.010820 0.018484 0.000000 0.007836 0.000000
# 4 0.000000 0.000000 0.000000 0.007543 0.000000 0.018770
# 5 0.002626 -0.003136 0.007836 0.000000 0.043815 0.000000
# 6 0.000000 0.000000 0.000000 0.018770 0.000000 0.053285
#
#
# Mechanical properties :
#
#
# Convention : Reuss Voigt Hill
#
# Bulk Modulus (GPa) = 40.73585 47.35220 44.04402
# Shear Modulus (GPa) = 26.83203 262.90289 144.86746
#
# Velocity S-wave (km/s) = 3.72979 11.67494 8.66648
# Velocity P-wave (km/s) = 6.29827 14.36277 11.08958
#
# Compressibility (1/GPa) = 0.02454840
#
# Stress axis : x y z
#
# Youngs Moduli (GPa) = 71.99741 60.02459 54.10044
#
# Poissons Ratio (x) = 0.08235 0.00273
# Poissons Ratio (y) = 0.09878 0.58537
# Poissons Ratio (z) = 0.00363 0.64947
#
# Static dielectric constant tensor:
#      x y z
#    x 3.539040 0.000000 -0.009570 
#    y 0.000000 3.345700 0.000000 
#    z -0.009570 0.000000 4.076300 
# 
# 
# High freq. dielectric constant tensor:
#      x y z
#    x 1.758250 0.000000 -0.008670 
#    y 0.000000 1.711650 0.000000 
#    z -0.008670 0.000000 1.761040 
# 
# From -- ./inp_files/253451.got.cif
#   From: 2010.06.25/outbox.cif.g09.slc.cpg/sg12_127_cif.got.tgz:253451.got - 2010.06.28 00:19:55.
