data_PCOD8083720
_publ_section_title
;
Structure prediction by ZEFSAII (Michael W. Deem and Ramdas Pophale) SiO2 
 PCOD8083720
Probable space group: C 2/M
;
_chemical_formula_sum "Si O2"
_cell_formula_units_Z 48
_cell_length_a 22.981825
_cell_length_b 8.888384
_cell_length_c 12.094462
_cell_angle_alpha 90.000000
_cell_angle_beta 110.404459
_cell_angle_gamma 90.000000
_cell_volume 2315.536213
_symmetry_space_group_name_H-M "C 2/M"
_symmetry_group_IT_number 12
_symmetry_cell_setting 'monoclinic'
loop_
_space_group_symop_operation_xyz
x,y,z
-x,y,-z
-x,-y,-z
x,-y,z
1/2+x,1/2+y,z
1/2-x,1/2+y,-z
1/2-x,1/2-y,-z
1/2+x,1/2-y,z
loop_
_atom_site_type_symbol
_atom_site_label
_atom_site_fract_x
_atom_site_fract_y
_atom_site_fract_z
Si Si1 0.849959 0.822091 0.322393
Si Si2 0.738015 0.173623 0.106843
Si Si3 0.046387 0.177566 0.776575
Si Si4 0.096708 0.671301 0.023982
Si Si5 0.922867 0.674857 0.742974
Si Si6 0.682279 0.321454 0.458111
O O1 0.785650 0.758526 0.228521
O O2 0.908346 0.760843 0.290267
O O3 0.852537 0.771681 0.451548
O O4 0.850373 0.000000 0.314611
O O5 0.668395 0.201529 0.101067
O O6 0.752603 0.000000 0.099156
O O7 0.750000 0.250000 0.000000
O O8 0.980510 0.257460 0.713422
O O9 0.036442 0.000000 0.762612
O O10 0.074526 0.215769 0.915065
O O11 0.086017 0.500000 0.975350
O O12 0.061362 0.699303 0.116407
O O13 0.914483 0.500000 0.709917
O O14 0.859467 0.759327 0.669187
O O15 0.689080 0.500000 0.453429
O O16 0.750000 0.250000 0.500000
#
# Coordination Sequence:
#
# PCOD8083720 Si02
#       6
#     8   8   8   8   8   8
#     4   9  20  38  60  86 122 160 193 240 301 355
#     4  10  18  33  56  84 114 149 190 234 287 347
#     4  11  22  38  61  89 120 156 202 249 295 354
#     4  10  21  37  59  85 121 162 198 243 303 357
#     4  11  24  42  61  85 121 162 201 244 298 354
#     4  11  23  43  67  90 118 155 199 244 296 355
#
# _framework density 20.729538999999999
#
# number of rings (size 3 to 8) (size 9 to 14) (size 15 to 20)
#    0.000    1.667    1.667    3.000    0.000    6.667 
#    0.000   10.000    0.000    0.000    0.000    0.000 
#    0.000    0.000    0.000    0.000    0.000    0.000 
#
# Total GULP energy -297630.386893 kJ/mol
# GULP energy per Si atom -12401.266121 kJ/mol
# Density = 2.068236 g / cm^3
# Si number density = 20.729539 Si / 1000 Ang^3
#
#
#
# Elastic Constant Matrix: (Units=GPa)
#
#
# Indices 1 2 3 4 5 6 
#
# 1 114.2798 42.2550 25.3365 0.0000 -5.3079 0.0000
# 2 42.2550 81.2427 33.8259 0.0000 -0.9167 0.0000
# 3 25.3365 33.8259 82.3143 0.0000 -1.5891 0.0000
# 4 0.0000 0.0000 0.0000 30.7775 0.0000 3.4933
# 5 -5.3079 -0.9167 -1.5891 0.0000 32.7861 0.0000
# 6 0.0000 0.0000 0.0000 3.4933 0.0000 35.2895
#
#
#
# Elastic Compliance Matrix: (Units=1/GPa)
#
#
# Indices 1 2 3 4 5 6 
#
# 1 0.011019 -0.005204 -0.001223 0.000000 0.001579 0.000000
# 2 -0.005204 0.017308 -0.005523 0.000000 -0.000626 0.000000
# 3 -0.001223 -0.005523 0.014801 0.000000 0.000365 0.000000
# 4 0.000000 0.000000 0.000000 0.032861 0.000000 -0.003253
# 5 0.001579 -0.000626 0.000365 0.000000 0.030757 0.000000
# 6 0.000000 0.000000 0.000000 -0.003253 0.000000 0.028659
#
#
# Mechanical properties :
#
#
# Convention : Reuss Voigt Hill
#
# Bulk Modulus (GPa) = 52.00379 53.40795 52.70587
# Shear Modulus (GPa) = 30.17258 31.53191 30.85224
#
# Velocity S-wave (km/s) = 3.81929 3.90437 3.86206
# Velocity P-wave (km/s) = 6.67761 6.79306 6.73558
#
# Compressibility (1/GPa) = 0.01922937
#
# Stress axis : x y z
#
# Youngs Moduli (GPa) = 90.75119 57.77706 67.56136
#
# Poissons Ratio (x) = 0.30069 0.08260
# Poissons Ratio (y) = 0.47230 0.37312
# Poissons Ratio (z) = 0.11095 0.31908
#
# Static dielectric constant tensor:
#      x y z
#    x 4.098780 0.000000 -0.034070 
#    y 0.000000 3.010620 0.000000 
#    z -0.034070 0.000000 3.768970 
# 
# 
# High freq. dielectric constant tensor:
#      x y z
#    x 1.829260 0.000000 0.001470 
#    y 0.000000 1.792530 0.000000 
#    z 0.001470 0.000000 1.809680 
# 
# From -- ./inp_files/173060.got.cif
#   From: 2010.06.25/outbox.cif.g09.slc.cpg/sg12_87_cif.got.tgz:173060.got - 2010.06.28 00:19:55.
