data_PCOD8083443
_publ_section_title
;
Structure prediction by ZEFSAII (Michael W. Deem and Ramdas Pophale) SiO2 
 PCOD8083443
Probable space group: C 2/M
;
_chemical_formula_sum "Si O2"
_cell_formula_units_Z 56
_cell_length_a 30.912067
_cell_length_b 9.313777
_cell_length_c 21.306797
_cell_angle_alpha 90.000000
_cell_angle_beta 28.457007
_cell_angle_gamma 90.000000
_cell_volume 2923.036342
_symmetry_space_group_name_H-M "C 2/M"
_symmetry_group_IT_number 12
_symmetry_cell_setting 'monoclinic'
loop_
_space_group_symop_operation_xyz
x,y,z
-x,y,-z
-x,-y,-z
x,-y,z
1/2+x,1/2+y,z
1/2-x,1/2+y,-z
1/2-x,1/2-y,-z
1/2+x,1/2-y,z
loop_
_atom_site_type_symbol
_atom_site_label
_atom_site_fract_x
_atom_site_fract_y
_atom_site_fract_z
Si Si1 0.525667 0.834161 0.400114
Si Si2 0.667339 0.165478 0.403664
Si Si3 0.620067 0.840666 0.688626
Si Si4 0.489157 0.667048 0.940376
Si Si5 0.799905 0.168966 0.127391
Si Si6 0.283608 0.171040 0.894984
Si Si7 0.314960 0.659161 0.498964
O O1 0.500000 0.761281 0.500000
O O2 0.440818 0.813223 0.462109
O O3 0.615547 0.771076 0.252073
O O4 0.547670 0.000000 0.385999
O O5 0.714996 0.217932 0.278607
O O6 0.706644 0.263084 0.408407
O O7 0.692105 0.000000 0.386463
O O8 0.568352 0.756768 0.808337
O O9 0.612455 0.752824 0.633123
O O10 0.723737 0.854978 0.576134
O O11 0.578762 0.000000 0.731161
O O12 0.500999 0.500000 0.908292
O O13 0.500000 0.692968 0.000000
O O14 0.393770 0.730037 0.035980
O O15 0.783086 0.217565 0.077105
O O16 0.805595 0.000000 0.122643
O O17 0.282593 0.000000 0.907735
O O18 0.250000 0.250000 0.000000
O O19 0.355461 0.500000 0.459432
#
# Coordination Sequence:
#
# PCOD8083443 Si02
#       7
#     8   8   8   8   8   8   8
#     4   9  16  31  57  83 105 137 183 231 268 314
#     4  10  18  32  58  85 106 136 185 229 269 323
#     4  10  21  37  55  75 104 143 185 225 269 322
#     4  10  20  34  54  81 112 145 180 220 273 333
#     4   9  18  33  55  80 108 146 184 223 271 330
#     4  10  20  36  56  80 112 148 187 228 280 331
#     4  10  21  36  54  78 108 140 175 223 280 329
#
# _framework density 19.158161
#
# number of rings (size 3 to 8) (size 9 to 14) (size 15 to 20)
#    0.000    2.286    1.429    1.714    0.000    4.286 
#    0.000    5.714    0.000    0.857    0.000    0.000 
#    0.000    0.000    0.000    0.000    0.000    0.000 
#
# Total GULP energy -347124.226394 kJ/mol
# GULP energy per Si atom -12397.293800 kJ/mol
# Density = 1.911456 g / cm^3
# Si number density = 19.158161 Si / 1000 Ang^3
#
#
#
# Elastic Constant Matrix: (Units=GPa)
#
#
# Indices 1 2 3 4 5 6 
#
# 1 99.2811 43.1219 35.9227 -0.0009 19.5081 0.0002
# 2 43.1219 83.2752 46.4910 0.0043 20.0700 -0.0010
# 3 35.9227 46.4910 109.4957 -0.0005 20.5895 -0.0006
# 4 -0.0009 0.0043 -0.0005 24.0904 0.0004 6.5655
# 5 19.5081 20.0700 20.5895 0.0004 36.1326 -0.0002
# 6 0.0002 -0.0010 -0.0006 6.5655 -0.0002 20.8777
#
#
#
# Elastic Compliance Matrix: (Units=1/GPa)
#
#
# Indices 1 2 3 4 5 6 
#
# 1 0.013649 -0.005361 -0.001541 0.000002 -0.003513 -0.000001
# 2 -0.005361 0.018896 -0.005415 -0.000004 -0.004516 0.000002
# 3 -0.001541 -0.005415 0.012562 0.000001 -0.003318 0.000000
# 4 0.000002 -0.000004 0.000001 0.045401 0.000000 -0.014278
# 5 -0.003513 -0.004516 -0.003318 0.000000 0.033972 0.000000
# 6 -0.000001 0.000002 0.000000 -0.014278 0.000000 0.052388
#
#
# Mechanical properties :
#
#
# Convention : Reuss Voigt Hill
#
# Bulk Modulus (GPa) = 48.84645 60.34701 54.59673
# Shear Modulus (GPa) = 24.00099 27.32124 25.66111
#
# Velocity S-wave (km/s) = 3.54331 3.78046 3.66380
# Velocity P-wave (km/s) = 6.50321 7.11502 6.81599
#
# Compressibility (1/GPa) = 0.02047232
#
# Stress axis : x y z
#
# Youngs Moduli (GPa) = 73.26725 52.92208 79.60810
#
# Poissons Ratio (x) = 0.28369 0.12268
# Poissons Ratio (y) = 0.39275 0.43109
# Poissons Ratio (z) = 0.11291 0.28658
#
# Static dielectric constant tensor:
#      x y z
#    x 3.553230 0.000000 -0.035630 
#    y 0.000000 3.326680 0.000000 
#    z -0.035630 0.000000 3.570740 
# 
# 
# High freq. dielectric constant tensor:
#      x y z
#    x 1.746260 0.000000 0.006510 
#    y 0.000000 1.710450 0.000000 
#    z 0.006510 0.000000 1.747560 
# 
# From -- ./inp_files/329514.got.cif
#   From: 2010.06.25/outbox.cif.g09.slc.cpg/sg12_165_cif.got.tgz:329514.got - 2010.06.28 00:19:55.
