data_PCOD8083947
_publ_section_title
;
Structure prediction by ZEFSAII (Michael W. Deem and Ramdas Pophale) SiO2 
 PCOD8083947
Probable space group: C 2/M
;
_chemical_formula_sum "Si O2"
_cell_formula_units_Z 40
_cell_length_a 17.987413
_cell_length_b 22.313672
_cell_length_c 5.086186
_cell_angle_alpha 90.000000
_cell_angle_beta 108.733373
_cell_angle_gamma 90.000000
_cell_volume 1933.270775
_symmetry_space_group_name_H-M "C 2/M"
_symmetry_group_IT_number 12
_symmetry_cell_setting 'monoclinic'
loop_
_space_group_symop_operation_xyz
x,y,z
-x,y,-z
-x,-y,-z
x,-y,z
1/2+x,1/2+y,z
1/2-x,1/2+y,-z
1/2-x,1/2-y,-z
1/2+x,1/2-y,z
loop_
_atom_site_type_symbol
_atom_site_label
_atom_site_fract_x
_atom_site_fract_y
_atom_site_fract_z
Si Si1 0.083467 0.629325 0.036813
Si Si2 0.647394 0.368238 0.053623
Si Si3 0.328997 0.853466 0.353080
Si Si4 0.922517 0.746849 0.244168
Si Si5 0.587390 0.568936 0.501041
O O1 0.143724 0.619097 0.341058
O O2 0.127454 0.606363 0.822953
O O3 0.061507 0.699573 0.970878
O O4 0.000000 0.596095 0.000000
O O5 0.736429 0.357145 0.233363
O O6 0.601790 0.392655 0.255867
O O7 0.607398 0.307242 0.918606
O O8 0.645201 0.413983 0.806008
O O9 0.355784 0.783574 0.357273
O O10 0.000000 0.760392 0.500000
O O11 0.500000 0.581949 0.500000
O O12 0.600714 0.500000 0.441183
#
# Coordination Sequence:
#
# PCOD8083947 Si02
#       5
#     8   8   8   8   8
#     4  10  18  34  52  77 123 171 197 225 271 339
#     4  12  24  38  64  92 116 155 207 248 304 357
#     4  10  21  35  55  86 126 158 195 245 286 344
#     4  10  22  35  57  85 128 169 198 230 278 355
#     4  11  26  47  65  84 115 154 203 263 310 350
#
# _framework density 20.690325999999999
#
# number of rings (size 3 to 8) (size 9 to 14) (size 15 to 20)
#    1.200    0.200    2.000    4.200    2.800    4.000 
#    0.000    0.000    0.000    0.000    0.000    0.000 
#    0.000   92.800    0.000    0.000    0.000    0.000 
#
# Total GULP energy -247845.346077 kJ/mol
# GULP energy per Si atom -12392.267304 kJ/mol
# Density = 2.064323 g / cm^3
# Si number density = 20.690326 Si / 1000 Ang^3
#
#
#
# Elastic Constant Matrix: (Units=GPa)
#
#
# Indices 1 2 3 4 5 6 
#
# 1 73.2384 13.2277 29.8707 0.0000 11.5456 0.0000
# 2 13.2277 23.2470 2.7196 0.0000 3.5388 0.0000
# 3 29.8707 2.7196 148.6071 0.0000 9.4385 0.0000
# 4 0.0000 0.0000 0.0000 26.5683 0.0000 -0.6013
# 5 11.5456 3.5388 9.4385 0.0000 49.3837 0.0000
# 6 0.0000 0.0000 0.0000 -0.6013 0.0000 15.3105
#
#
#
# Elastic Compliance Matrix: (Units=1/GPa)
#
#
# Indices 1 2 3 4 5 6 
#
# 1 0.016938 -0.008862 -0.003068 0.000000 -0.002738 0.000000
# 2 -0.008862 0.048181 0.000999 0.000000 -0.001572 0.000000
# 3 -0.003068 0.000999 0.007376 0.000000 -0.000764 0.000000
# 4 0.000000 0.000000 0.000000 0.037672 0.000000 0.001480
# 5 -0.002738 -0.001572 -0.000764 0.000000 0.021149 0.000000
# 6 0.000000 0.000000 0.000000 0.001480 0.000000 0.065373
#
#
# Mechanical properties :
#
#
# Convention : Reuss Voigt Hill
#
# Bulk Modulus (GPa) = 19.74991 37.41428 28.58209
# Shear Modulus (GPa) = 21.23789 31.53746 26.38768
#
# Velocity S-wave (km/s) = 3.20732 3.90841 3.57510
# Velocity P-wave (km/s) = 4.82515 6.20402 5.55752
#
# Compressibility (1/GPa) = 0.05063315
#
# Stress axis : x y z
#
# Youngs Moduli (GPa) = 59.03964 20.75501 135.57186
#
# Poissons Ratio (x) = 0.18393 0.41600
# Poissons Ratio (y) = 0.52320 -0.13548
# Poissons Ratio (z) = 0.18116 -0.02074
#
# Static dielectric constant tensor:
#      x y z
#    x 3.711650 0.000000 -0.060890 
#    y 0.000000 3.352150 0.000000 
#    z -0.060890 0.000000 3.925430 
# 
# 
# High freq. dielectric constant tensor:
#      x y z
#    x 1.820500 0.000000 -0.000920 
#    y 0.000000 1.757890 0.000000 
#    z -0.000920 0.000000 1.831480 
# 
# From -- ./inp_files/16449.got.cif
#   From: 2010.06.25/outbox.cif.g09.slc.cpg/sg12_9_cif.got.tgz:16449.got - 2010.06.28 00:19:55.
