data_PCOD8083613
_publ_section_title
;
Structure prediction by ZEFSAII (Michael W. Deem and Ramdas Pophale) SiO2 
 PCOD8083613
Probable space group: C 2/M
;
_chemical_formula_sum "Si O2"
_cell_formula_units_Z 48
_cell_length_a 16.843171
_cell_length_b 14.797771
_cell_length_c 17.750469
_cell_angle_alpha 90.000000
_cell_angle_beta 146.884108
_cell_angle_gamma 90.000000
_cell_volume 2417.065707
_symmetry_space_group_name_H-M "C 2/M"
_symmetry_group_IT_number 12
_symmetry_cell_setting 'monoclinic'
loop_
_space_group_symop_operation_xyz
x,y,z
-x,y,-z
-x,-y,-z
x,-y,z
1/2+x,1/2+y,z
1/2-x,1/2+y,-z
1/2-x,1/2-y,-z
1/2+x,1/2-y,z
loop_
_atom_site_type_symbol
_atom_site_label
_atom_site_fract_x
_atom_site_fract_y
_atom_site_fract_z
Si Si1 0.090970 0.500000 0.311654
Si Si2 0.529707 0.500000 0.111204
Si Si3 0.193462 0.182448 0.274520
Si Si4 0.521778 0.000000 0.927756
Si Si5 0.319588 0.807741 0.218057
Si Si6 0.785098 0.500000 0.130792
Si Si7 0.642244 0.177071 0.445322
Si Si8 0.059612 0.699468 0.962864
O O1 0.154743 0.587312 0.404236
O O2 0.119377 0.500000 0.242622
O O3 0.913514 0.500000 0.171387
O O4 0.614633 0.589205 0.197641
O O5 0.500000 0.500000 0.000000
O O6 0.375259 0.500000 0.033815
O O7 0.288343 0.218459 0.279562
O O8 0.306253 0.159362 0.429310
O O9 0.067752 0.258296 0.192070
O O10 0.599951 0.903960 0.972056
O O11 0.500000 0.000000 0.000000
O O12 0.480966 0.780958 0.320054
O O13 0.301909 0.914921 0.198953
O O14 0.207610 0.756741 0.073205
O O15 0.750000 0.250000 0.500000
O O16 0.000000 0.707171 0.000000
#
# Coordination Sequence:
#
# PCOD8083613 Si02
#       8
#     4   4   8   4   8   4   8   8
#     4  10  23  41  56  81 122 153 185 237 299 336
#     4  12  17  31  58  95 125 145 182 232 284 341
#     4  11  19  33  60  89 115 155 192 223 280 358
#     4  10  20  39  61  81 102 145 203 250 286 326
#     4  10  19  36  58  85 119 152 187 235 283 342
#     4  10  18  33  54  88 127 148 162 228 300 349
#     4  11  24  40  55  82 120 161 191 230 287 344
#     4   9  18  33  59  86 108 139 194 250 283 315
#
# _framework density 19.858791
#
# number of rings (size 3 to 8) (size 9 to 14) (size 15 to 20)
#    0.000    1.667    3.333    2.500    0.000    0.000 
#    3.000    6.667    0.000    0.000    0.000   10.500 
#    0.000    0.000    0.000    0.000    0.000    0.000 
#
# Total GULP energy -297350.993409 kJ/mol
# GULP energy per Si atom -12389.624725 kJ/mol
# Density = 1.981359 g / cm^3
# Si number density = 19.858791 Si / 1000 Ang^3
#
#
#
# Elastic Constant Matrix: (Units=GPa)
#
#
# Indices 1 2 3 4 5 6 
#
# 1 62.0930 35.2028 40.8386 0.0007 10.4613 0.0004
# 2 35.2028 144.1039 48.3373 0.0001 14.2751 0.0001
# 3 40.8386 48.3373 110.4000 0.0006 8.5859 0.0002
# 4 0.0007 0.0001 0.0006 29.6059 0.0014 3.1389
# 5 10.4613 14.2751 8.5859 0.0014 42.0088 0.0007
# 6 0.0004 0.0001 0.0002 3.1389 0.0007 18.8709
#
#
#
# Elastic Compliance Matrix: (Units=1/GPa)
#
#
# Indices 1 2 3 4 5 6 
#
# 1 0.022877 -0.002942 -0.006919 0.000000 -0.003283 0.000000
# 2 -0.002942 0.008693 -0.002586 0.000000 -0.001693 0.000000
# 3 -0.006919 -0.002586 0.012750 0.000000 -0.000004 0.000000
# 4 0.000000 0.000000 0.000000 0.034383 -0.000001 -0.005719
# 5 -0.003283 -0.001693 -0.000004 -0.000001 0.025198 -0.000001
# 6 0.000000 0.000000 0.000000 -0.005719 -0.000001 0.053943
#
#
# Mechanical properties :
#
#
# Convention : Reuss Voigt Hill
#
# Bulk Modulus (GPa) = 51.47961 62.81715 57.14838
# Shear Modulus (GPa) = 26.42502 30.91166 28.66834
#
# Velocity S-wave (km/s) = 3.65176 3.94962 3.80361
# Velocity P-wave (km/s) = 6.61510 7.24568 6.93756
#
# Compressibility (1/GPa) = 0.01942517
#
# Stress axis : x y z
#
# Youngs Moduli (GPa) = 43.71268 115.02924 78.43142
#
# Poissons Ratio (x) = 0.33847 0.54265
# Poissons Ratio (y) = 0.12862 0.20284
# Poissons Ratio (z) = 0.30244 0.29749
#
# Static dielectric constant tensor:
#      x y z
#    x 3.621540 -0.000010 -0.182280 
#    y -0.000010 4.053270 0.000030 
#    z -0.182280 0.000030 5.089970 
# 
# 
# High freq. dielectric constant tensor:
#      x y z
#    x 1.754270 0.000000 -0.006470 
#    y 0.000000 1.783780 0.000000 
#    z -0.006470 0.000000 1.772530 
# 
# From -- ./inp_files/278294.got.cif
#   From: 2010.06.25/outbox.cif.g09.slc.cpg/sg12_140_cif.got.tgz:278294.got - 2010.06.28 00:19:55.
