data_PCOD8083382
_publ_section_title
;
Structure prediction by ZEFSAII (Michael W. Deem and Ramdas Pophale) SiO2 
 PCOD8083382
Probable space group: C 2/M
;
_chemical_formula_sum "Si O2"
_cell_formula_units_Z 48
_cell_length_a 9.176844
_cell_length_b 26.036561
_cell_length_c 14.447032
_cell_angle_alpha 90.000000
_cell_angle_beta 130.594213
_cell_angle_gamma 90.000000
_cell_volume 2621.139803
_symmetry_space_group_name_H-M "C 2/M"
_symmetry_group_IT_number 12
_symmetry_cell_setting 'monoclinic'
loop_
_space_group_symop_operation_xyz
x,y,z
-x,y,-z
-x,-y,-z
x,-y,z
1/2+x,1/2+y,z
1/2-x,1/2+y,-z
1/2-x,1/2-y,-z
1/2+x,1/2-y,z
loop_
_atom_site_type_symbol
_atom_site_label
_atom_site_fract_x
_atom_site_fract_y
_atom_site_fract_z
Si Si1 0.403684 0.061069 0.240135
Si Si2 0.714859 0.103874 0.616332
Si Si3 0.519098 0.682489 0.793300
Si Si4 0.681522 0.740274 0.131060
Si Si5 0.313847 0.559031 0.470381
Si Si6 0.199348 0.138402 0.037427
O O1 0.281778 0.077892 0.280727
O O2 0.621253 0.080182 0.343319
O O3 0.338833 0.091145 0.120511
O O4 0.381656 0.000000 0.216759
O O5 0.500000 0.122057 0.500000
O O6 0.863869 0.150887 0.670985
O O7 0.797004 0.064482 0.574240
O O8 0.392839 0.721001 0.801988
O O9 0.656877 0.716544 0.784922
O O10 0.660997 0.645543 0.912084
O O11 0.772513 0.692464 0.110835
O O12 0.500000 0.763510 0.000000
O O13 0.500000 0.586401 0.500000
O O14 0.325987 0.500000 0.451021
O O15 0.000000 0.122846 0.000000
#
# Coordination Sequence:
#
# PCOD8083382 Si02
#       6
#     8   8   8   8   8   8
#     4  10  18  32  57  80 105 139 172 212 260 306
#     4  10  19  35  54  77 106 135 178 216 253 308
#     4  10  19  35  53  79 103 142 170 224 254 307
#     4   9  17  33  54  73 102 137 177 210 256 304
#     4   9  19  36  55  75 103 139 176 211 254 313
#     4   9  16  31  51  77 107 131 169 215 256 299
#
# _framework density 18.312643999999999
#
# number of rings (size 3 to 8) (size 9 to 14) (size 15 to 20)
#    0.000    2.833    3.333    2.500    0.000    2.333 
#    6.000    0.833    0.000    0.000    0.000    3.500 
#    0.000    0.000    0.000    0.000    0.000    0.000 
#
# Total GULP energy -297342.621030 kJ/mol
# GULP energy per Si atom -12389.275876 kJ/mol
# Density = 1.827096 g / cm^3
# Si number density = 18.312644 Si / 1000 Ang^3
#
#
#
# Elastic Constant Matrix: (Units=GPa)
#
#
# Indices 1 2 3 4 5 6 
#
# 1 54.5840 22.4983 26.4238 0.0000 8.6161 0.0000
# 2 22.4983 69.8593 43.7948 0.0000 16.9795 0.0000
# 3 26.4238 43.7948 72.6840 0.0000 6.5398 0.0000
# 4 0.0000 0.0000 0.0000 28.1027 0.0000 10.8435
# 5 8.6161 16.9795 6.5398 0.0000 19.7931 0.0000
# 6 0.0000 0.0000 0.0000 10.8435 0.0000 18.2255
#
#
#
# Elastic Compliance Matrix: (Units=1/GPa)
#
#
# Indices 1 2 3 4 5 6 
#
# 1 0.023368 -0.001580 -0.006957 0.000000 -0.006518 0.000000
# 2 -0.001580 0.028993 -0.015170 0.000000 -0.019172 0.000000
# 3 -0.006957 -0.015170 0.024719 0.000000 0.007875 0.000000
# 4 0.000000 0.000000 0.000000 0.046187 0.000000 -0.027479
# 5 -0.006518 -0.019172 0.007875 0.000000 0.067205 0.000000
# 6 0.000000 0.000000 0.000000 -0.027479 0.000000 0.071217
#
#
# Mechanical properties :
#
#
# Convention : Reuss Voigt Hill
#
# Bulk Modulus (GPa) = 33.70785 42.50681 38.10733
# Shear Modulus (GPa) = 15.67434 20.18496 17.92965
#
# Velocity S-wave (km/s) = 2.92880 3.32360 3.13243
# Velocity P-wave (km/s) = 5.46663 6.16365 5.82557
#
# Compressibility (1/GPa) = 0.02966668
#
# Stress axis : x y z
#
# Youngs Moduli (GPa) = 42.79288 34.49073 40.45436
#
# Poissons Ratio (x) = 0.05451 0.28143
# Poissons Ratio (y) = 0.06763 0.61369
# Poissons Ratio (z) = 0.29770 0.52322
#
# Static dielectric constant tensor:
#      x y z
#    x 3.408260 0.000000 0.190120 
#    y 0.000000 3.194800 0.000000 
#    z 0.190120 0.000000 3.568570 
# 
# 
# High freq. dielectric constant tensor:
#      x y z
#    x 1.695030 0.000000 0.014870 
#    y 0.000000 1.688180 0.000000 
#    z 0.014870 0.000000 1.696630 
# 
# From -- ./inp_files/201050.got.cif
#   From: 2010.06.25/outbox.cif.g09.slc.cpg/sg12_101_cif.got.tgz:201050.got - 2010.06.28 00:19:55.
