data_PCOD8083181
_publ_section_title
;
Structure prediction by ZEFSAII (Michael W. Deem and Ramdas Pophale) SiO2 
 PCOD8083181
Probable space group: C 2/M
;
_chemical_formula_sum "Si O2"
_cell_formula_units_Z 64
_cell_length_a 26.231790
_cell_length_b 13.368316
_cell_length_c 9.627904
_cell_angle_alpha 90.000000
_cell_angle_beta 103.412952
_cell_angle_gamma 90.000000
_cell_volume 3284.171090
_symmetry_space_group_name_H-M "C 2/M"
_symmetry_group_IT_number 12
_symmetry_cell_setting 'monoclinic'
loop_
_space_group_symop_operation_xyz
x,y,z
-x,y,-z
-x,-y,-z
x,-y,z
1/2+x,1/2+y,z
1/2-x,1/2+y,-z
1/2-x,1/2-y,-z
1/2+x,1/2-y,z
loop_
_atom_site_type_symbol
_atom_site_label
_atom_site_fract_x
_atom_site_fract_y
_atom_site_fract_z
Si Si1 0.450948 0.888166 0.062396
Si Si2 0.422964 0.300865 0.199367
Si Si3 0.165760 0.117701 0.048041
Si Si4 0.755804 0.884179 0.124415
Si Si5 0.978104 0.114627 0.838492
Si Si6 0.351259 0.616062 0.378886
Si Si7 0.867568 0.805995 0.691159
Si Si8 0.348943 0.887963 0.811222
O O1 0.442053 0.813419 0.186406
O O2 0.461237 0.000000 0.128302
O O3 0.500000 0.852831 0.000000
O O4 0.399809 0.888649 0.936407
O O5 0.386558 0.333275 0.047592
O O6 0.474486 0.370783 0.239863
O O7 0.393360 0.314187 0.326540
O O8 0.217705 0.159897 0.000292
O O9 0.161308 0.000000 0.016964
O O10 0.167750 0.141667 0.211943
O O11 0.794216 0.865228 0.278682
O O12 0.698508 0.840635 0.125403
O O13 0.746254 0.000000 0.091769
O O14 0.928837 0.178124 0.757164
O O15 0.960008 0.000000 0.835766
O O16 0.000000 0.153862 0.000000
O O17 0.367743 0.500000 0.374159
O O18 0.348735 0.647427 0.536291
O O19 0.857232 0.686395 0.686154
O O20 0.335994 0.000000 0.747340
#
# Coordination Sequence:
#
# PCOD8083181 Si02
#       8
#     8   8   8   8   8   8   8   8
#     4  10  20  36  59  88 116 141 185 244 284 314
#     4  11  19  35  55  81 110 152 186 217 277 339
#     4  10  18  32  54  81 110 142 183 229 278 336
#     4   8  18  36  57  78 108 149 185 227 283 337
#     4  11  20  31  53  83 114 141 179 231 276 330
#     4  10  22  38  54  79 119 153 181 226 284 340
#     4  12  22  34  53  83 112 150 190 230 277 335
#     4  10  20  37  59  81 108 145 191 238 280 325
#
# _framework density 19.487413
#
# number of rings (size 3 to 8) (size 9 to 14) (size 15 to 20)
#    0.000    1.750    2.500    4.125    0.000    1.500 
#    0.000    1.875    0.000    0.000    0.000    4.375 
#    0.000    0.000    0.000    0.000    0.000    0.000 
#
# Total GULP energy -396717.186865 kJ/mol
# GULP energy per Si atom -12397.412090 kJ/mol
# Density = 1.944306 g / cm^3
# Si number density = 19.487413 Si / 1000 Ang^3
#
#
#
# Elastic Constant Matrix: (Units=GPa)
#
#
# Indices 1 2 3 4 5 6 
#
# 1 134.9619 30.4567 38.9799 0.0000 -18.4085 0.0000
# 2 30.4567 93.8702 25.9333 0.0000 -16.6284 0.0000
# 3 38.9799 25.9333 109.8445 0.0000 -17.7737 0.0000
# 4 0.0000 0.0000 0.0000 13.9960 0.0000 -31.1212
# 5 -18.4085 -16.6284 -17.7737 0.0000 16.7162 0.0000
# 6 0.0000 0.0000 0.0000 -31.1212 0.0000 -21.1536
#
#
#
# Elastic Compliance Matrix: (Units=1/GPa)
#
#
# Indices 1 2 3 4 5 6 
#
# 1 0.009162 -0.001242 -0.001842 0.000000 0.006895 0.000000
# 2 -0.001242 0.013227 -0.000935 0.000000 0.010795 0.000000
# 3 -0.001842 -0.000935 0.011473 0.000000 0.009240 0.000000
# 4 0.000000 0.000000 0.000000 0.016728 0.000000 -0.024610
# 5 0.006895 0.010795 0.009240 0.000000 0.087978 0.000000
# 6 0.000000 0.000000 0.000000 -0.024610 0.000000 -0.011068
#
#
# Mechanical properties :
#
#
# Convention : Reuss Voigt Hill
#
# Bulk Modulus (GPa) = 38.72559 58.82404 48.77482
# Shear Modulus (GPa) = 34.68651 18.13217 26.40934
#
# Velocity S-wave (km/s) = 4.22352 3.05365 3.68530
# Velocity P-wave (km/s) = 6.61055 6.53331 6.57204
#
# Compressibility (1/GPa) = 0.02582272
#
# Stress axis : x y z
#
# Youngs Moduli (GPa) = 109.14068 75.60489 87.15748
#
# Poissons Ratio (x) = 0.09393 0.16058
# Poissons Ratio (y) = 0.13559 0.08151
# Poissons Ratio (z) = 0.20108 0.07070
#
# Static dielectric constant tensor:
#      x y z
#    x 3.837070 0.000000 -0.217340 
#    y 0.000000 3.833990 0.000000 
#    z -0.217340 0.000000 3.188880 
# 
# 
# High freq. dielectric constant tensor:
#      x y z
#    x 1.774790 0.000000 -0.015040 
#    y 0.000000 1.767970 0.000000 
#    z -0.015040 0.000000 1.713060 
# 
# From -- ./inp_files/96886.got.cif
#   From: 2010.06.25/outbox.cif.g09.slc.cpg/sg12_49_cif.got.tgz:96886.got - 2010.06.28 00:19:55.
