data_PCOD8083378
_publ_section_title
;
Structure prediction by ZEFSAII (Michael W. Deem and Ramdas Pophale) SiO2 
 PCOD8083378
Probable space group: C 2/M
;
_chemical_formula_sum "Si O2"
_cell_formula_units_Z 52
_cell_length_a 28.257878
_cell_length_b 16.917338
_cell_length_c 6.527216
_cell_angle_alpha 90.000000
_cell_angle_beta 67.270333
_cell_angle_gamma 90.000000
_cell_volume 2877.992969
_symmetry_space_group_name_H-M "C 2/M"
_symmetry_group_IT_number 12
_symmetry_cell_setting 'monoclinic'
loop_
_space_group_symop_operation_xyz
x,y,z
-x,y,-z
-x,-y,-z
x,-y,z
1/2+x,1/2+y,z
1/2-x,1/2+y,-z
1/2-x,1/2-y,-z
1/2+x,1/2-y,z
loop_
_atom_site_type_symbol
_atom_site_label
_atom_site_fract_x
_atom_site_fract_y
_atom_site_fract_z
Si Si1 0.000000 0.211367 0.000000
Si Si2 0.745806 0.830852 0.632910
Si Si3 0.354991 0.329246 0.536695
Si Si4 0.339941 0.908637 0.488940
Si Si5 0.328263 0.808003 0.890558
Si Si6 0.458807 0.588334 0.389285
Si Si7 0.897990 0.290489 0.149897
O O1 0.019888 0.155009 0.791366
O O2 0.043599 0.271244 0.000737
O O3 0.750000 0.750000 0.500000
O O4 0.801659 0.873138 0.564305
O O5 0.708409 0.890265 0.576879
O O6 0.724740 0.808157 0.893998
O O7 0.337470 0.270328 0.744094
O O8 0.400055 0.387065 0.546533
O O9 0.372330 0.285940 0.299156
O O10 0.328139 0.883601 0.741375
O O11 0.390493 0.863143 0.320538
O O12 0.352645 0.000000 0.462693
O O13 0.374324 0.814037 0.973645
O O14 0.500000 0.586178 0.500000
O O15 0.456091 0.500000 0.296301
#
# Coordination Sequence:
#
# PCOD8083378 Si02
#       7
#     4   8   8   8   8   8   8
#     4  10  19  36  61  82  98 138 188 226 271 312
#     4  11  19  34  57  82 108 142 185 227 261 312
#     4  10  19  32  54  80 107 143 186 226 258 314
#     4  10  22  36  51  78 112 142 173 217 275 329
#     4  10  18  32  57  77 104 145 179 220 267 315
#     4  10  21  36  53  79 115 146 177 223 274 321
#     4   9  19  34  56  80 103 135 182 226 262 316
#
# _framework density 18.068147
#
# number of rings (size 3 to 8) (size 9 to 14) (size 15 to 20)
#    0.000    2.000    4.615    1.615    0.000    3.077 
#    0.000    0.385    0.000    0.923    0.000    0.000 
#    0.000    0.000    0.000    0.000    0.000    0.000 
#
# Total GULP energy -322160.526156 kJ/mol
# GULP energy per Si atom -12390.789468 kJ/mol
# Density = 1.802702 g / cm^3
# Si number density = 18.068147 Si / 1000 Ang^3
#
#
#
# Elastic Constant Matrix: (Units=GPa)
#
#
# Indices 1 2 3 4 5 6 
#
# 1 138.3491 43.2064 43.2394 0.0000 -21.2158 0.0000
# 2 43.2064 91.4859 22.8999 0.0000 -9.7467 0.0000
# 3 43.2394 22.8999 83.1772 0.0000 -1.3952 0.0000
# 4 0.0000 0.0000 0.0000 13.0443 0.0000 1.2459
# 5 -21.2158 -9.7467 -1.3952 0.0000 30.5494 0.0000
# 6 0.0000 0.0000 0.0000 1.2459 0.0000 23.2444
#
#
#
# Elastic Compliance Matrix: (Units=1/GPa)
#
#
# Indices 1 2 3 4 5 6 
#
# 1 0.010581 -0.003216 -0.004512 0.000000 0.006116 0.000000
# 2 -0.003216 0.013127 -0.001911 0.000000 0.001867 0.000000
# 3 -0.004512 -0.001911 0.014843 0.000000 -0.003065 0.000000
# 4 0.000000 0.000000 0.000000 0.077056 0.000000 -0.004130
# 5 0.006116 0.001867 -0.003065 0.000000 0.037437 0.000000
# 6 0.000000 0.000000 0.000000 -0.004130 0.000000 0.043242
#
#
# Mechanical properties :
#
#
# Convention : Reuss Voigt Hill
#
# Bulk Modulus (GPa) = 51.88867 59.07817 55.48342
# Shear Modulus (GPa) = 22.52375 26.94539 24.73457
#
# Velocity S-wave (km/s) = 3.53455 3.86595 3.70396
# Velocity P-wave (km/s) = 6.74078 7.25919 7.00478
#
# Compressibility (1/GPa) = 0.01927203
#
# Stress axis : x y z
#
# Youngs Moduli (GPa) = 94.51315 76.18069 67.37222
#
# Poissons Ratio (x) = 0.24499 0.30400
# Poissons Ratio (y) = 0.30394 0.12874
# Poissons Ratio (z) = 0.42647 0.14557
#
# Static dielectric constant tensor:
#      x y z
#    x 3.806750 0.000000 -0.024580 
#    y 0.000000 3.223960 0.000000 
#    z -0.024580 0.000000 3.582290 
# 
# 
# High freq. dielectric constant tensor:
#      x y z
#    x 1.709040 0.000000 -0.000350 
#    y 0.000000 1.671990 0.000000 
#    z -0.000350 0.000000 1.704350 
# 
# From -- ./inp_files/28461.got.cif
#   From: 2010.06.25/outbox.cif.g09.slc.cpg/sg12_15_cif.got.tgz:28461.got - 2010.06.28 00:19:55.
