data_PCOD8083216
_publ_section_title
;
Structure prediction by ZEFSAII (Michael W. Deem and Ramdas Pophale) SiO2 
 PCOD8083216
Probable space group: C 2/M
;
_chemical_formula_sum "Si O2"
_cell_formula_units_Z 56
_cell_length_a 28.481256
_cell_length_b 9.140504
_cell_length_c 20.019188
_cell_angle_alpha 90.000000
_cell_angle_beta 142.959414
_cell_angle_gamma 90.000000
_cell_volume 3139.400407
_symmetry_space_group_name_H-M "C 2/M"
_symmetry_group_IT_number 12
_symmetry_cell_setting 'monoclinic'
loop_
_space_group_symop_operation_xyz
x,y,z
-x,y,-z
-x,-y,-z
x,-y,z
1/2+x,1/2+y,z
1/2-x,1/2+y,-z
1/2-x,1/2-y,-z
1/2+x,1/2-y,z
loop_
_atom_site_type_symbol
_atom_site_label
_atom_site_fract_x
_atom_site_fract_y
_atom_site_fract_z
Si Si1 0.950409 0.673405 0.379023
Si Si2 0.367693 0.831420 0.923330
Si Si3 0.126731 0.169433 0.206326
Si Si4 0.696221 0.832674 0.600009
Si Si5 0.191576 0.170511 0.729687
Si Si6 0.012508 0.671502 0.175711
Si Si7 0.957256 0.329563 0.643827
O O1 0.940758 0.500000 0.366316
O O2 0.864945 0.745646 0.283535
O O3 0.000000 0.722115 0.500000
O O4 0.993004 0.735868 0.361215
O O5 0.391501 0.733929 0.887235
O O6 0.281037 0.794664 0.851168
O O7 0.373326 0.000000 0.906824
O O8 0.426360 0.796040 0.050113
O O9 0.216999 0.194473 0.328562
O O10 0.076879 0.249727 0.204934
O O11 0.104184 0.000000 0.179225
O O12 0.675835 0.726096 0.637273
O O13 0.634839 0.798728 0.471460
O O14 0.686235 0.000000 0.614250
O O15 0.172900 0.000000 0.711754
O O16 0.031953 0.500000 0.196725
O O17 0.016917 0.737559 0.255705
O O18 0.974982 0.500000 0.665827
#
# Coordination Sequence:
#
# PCOD8083216 Si02
#       7
#     8   8   8   8   8   8   8
#     4  10  18  32  55  77  99 129 167 204 243 297
#     4   9  19  35  53  73  99 134 171 205 242 292
#     4  10  20  32  52  78 102 129 166 211 253 291
#     4   9  17  33  52  73 101 132 166 203 247 298
#     4  10  19  31  50  77 104 127 161 208 254 290
#     4  10  20  35  53  71  98 136 173 205 242 294
#     4   9  18  33  53  74  97 132 172 203 239 299
#
# _framework density 17.837800999999999
#
# number of rings (size 3 to 8) (size 9 to 14) (size 15 to 20)
#    0.000    2.429    1.429    1.286    0.000    4.286 
#    0.000    2.143    0.000    0.000    0.000    0.000 
#    0.000    0.000    0.000    0.000    0.000    0.000 
#
# Total GULP energy -347191.364106 kJ/mol
# GULP energy per Si atom -12399.691575 kJ/mol
# Density = 1.779720 g / cm^3
# Si number density = 17.837801 Si / 1000 Ang^3
#
#
#
# Elastic Constant Matrix: (Units=GPa)
#
#
# Indices 1 2 3 4 5 6 
#
# 1 117.0336 44.9401 84.4163 0.0000 5.4363 0.0000
# 2 44.9401 49.5401 40.7934 0.0000 2.0888 0.0000
# 3 84.4163 40.7934 140.8240 0.0000 -6.4389 0.0000
# 4 0.0000 0.0000 0.0000 18.1670 0.0000 8.0867
# 5 5.4363 2.0888 -6.4389 0.0000 22.9306 0.0000
# 6 0.0000 0.0000 0.0000 8.0867 0.0000 28.0936
#
#
#
# Elastic Compliance Matrix: (Units=1/GPa)
#
#
# Indices 1 2 3 4 5 6 
#
# 1 0.018866 -0.009610 -0.008803 0.000000 -0.006069 0.000000
# 2 -0.009610 0.031898 -0.003554 0.000000 -0.001625 0.000000
# 3 -0.008803 -0.003554 0.013694 0.000000 0.006256 0.000000
# 4 0.000000 0.000000 0.000000 0.063134 0.000000 -0.018173
# 5 -0.006069 -0.001625 0.006256 0.000000 0.046954 0.000000
# 6 0.000000 0.000000 0.000000 -0.018173 0.000000 0.040826
#
#
# Mechanical properties :
#
#
# Convention : Reuss Voigt Hill
#
# Bulk Modulus (GPa) = 48.72244 71.96635 60.34439
# Shear Modulus (GPa) = 18.78663 22.98808 20.88735
#
# Velocity S-wave (km/s) = 3.24881 3.59378 3.42564
# Velocity P-wave (km/s) = 6.43789 7.59294 7.03915
#
# Compressibility (1/GPa) = 0.02052442
#
# Stress axis : x y z
#
# Youngs Moduli (GPa) = 53.00498 31.34984 73.02721
#
# Poissons Ratio (x) = 0.30126 0.64286
# Poissons Ratio (y) = 0.50936 0.25954
# Poissons Ratio (z) = 0.46660 0.11142
#
# Static dielectric constant tensor:
#      x y z
#    x 3.396610 0.000000 0.099250 
#    y 0.000000 3.196820 0.000000 
#    z 0.099250 0.000000 3.451850 
# 
# 
# High freq. dielectric constant tensor:
#      x y z
#    x 1.686020 0.000000 0.016560 
#    y 0.000000 1.675380 0.000000 
#    z 0.016560 0.000000 1.687920 
# 
# From -- ./inp_files/288178.got.cif
#   From: 2010.06.25/outbox.cif.g09.slc.cpg/sg12_145_cif.got.tgz:288178.got - 2010.06.28 00:19:55.
