data_PCOD8083875
_publ_section_title
;
Structure prediction by ZEFSAII (Michael W. Deem and Ramdas Pophale) SiO2 
 PCOD8083875
Probable space group: C 2/M
;
_chemical_formula_sum "Si O2"
_cell_formula_units_Z 64
_cell_length_a 22.181235
_cell_length_b 12.055148
_cell_length_c 12.964370
_cell_angle_alpha 90.000000
_cell_angle_beta 114.422123
_cell_angle_gamma 90.000000
_cell_volume 3156.466068
_symmetry_space_group_name_H-M "C 2/M"
_symmetry_group_IT_number 12
_symmetry_cell_setting 'monoclinic'
loop_
_space_group_symop_operation_xyz
x,y,z
-x,y,-z
-x,-y,-z
x,-y,z
1/2+x,1/2+y,z
1/2-x,1/2+y,-z
1/2-x,1/2-y,-z
1/2+x,1/2-y,z
loop_
_atom_site_type_symbol
_atom_site_label
_atom_site_fract_x
_atom_site_fract_y
_atom_site_fract_z
Si Si1 0.432423 0.872732 0.306200
Si Si2 0.939430 0.717405 0.691128
Si Si3 0.431532 0.683841 0.471311
Si Si4 0.144693 0.759811 0.910992
Si Si5 0.710313 0.680175 0.626805
Si Si6 0.737359 0.130759 0.119158
Si Si7 0.689603 0.879033 0.467385
Si Si8 0.989411 0.126750 0.112930
O O1 0.500542 0.867056 0.289073
O O2 0.438023 0.800547 0.414083
O O3 0.373651 0.824224 0.194162
O O4 0.417496 0.000000 0.324845
O O5 0.929064 0.801237 0.590601
O O6 0.870031 0.653139 0.653149
O O7 0.954211 0.793861 0.800016
O O8 0.500000 0.614283 0.500000
O O9 0.361527 0.624750 0.393393
O O10 0.199799 0.844800 0.908685
O O11 0.082752 0.831974 0.904104
O O12 0.172236 0.688188 0.025926
O O13 0.754461 0.680625 0.760202
O O14 0.696442 0.804456 0.574797
O O15 0.744692 0.616938 0.556514
O O16 0.725810 0.000000 0.118300
O O17 0.676704 0.000000 0.504158
O O18 0.998098 0.000000 0.157174
O O19 0.000000 0.135170 0.000000
#
# Coordination Sequence:
#
# PCOD8083875 Si02
#       8
#     8   8   8   8   8   8   8   8
#     4  10  18  33  59  89 121 153 190 240 301 353
#     4   9  20  35  59  88 120 147 196 243 292 356
#     4   9  18  34  56  85 119 148 187 242 294 346
#     4  10  22  39  60  88 121 153 202 256 288 362
#     4  10  21  38  58  88 120 159 204 244 296 368
#     4  11  22  39  62  86 119 162 200 249 311 354
#     4  10  21  39  61  86 122 161 199 249 301 348
#     4  10  22  42  65  87 118 161 200 244 298 350
#
# _framework density 20.275838
#
# number of rings (size 3 to 8) (size 9 to 14) (size 15 to 20)
#    0.000    2.125    1.250    1.500    1.750    4.250 
#    0.000    9.375    0.000    5.625    0.000    0.000 
#    0.000    0.000    0.000    0.000    0.000    0.000 
#
# Total GULP energy -396574.359211 kJ/mol
# GULP energy per Si atom -12392.948725 kJ/mol
# Density = 2.022969 g / cm^3
# Si number density = 20.275838 Si / 1000 Ang^3
#
#
#
# Elastic Constant Matrix: (Units=GPa)
#
#
# Indices 1 2 3 4 5 6 
#
# 1 76.8643 20.3468 9.8334 0.0000 3.8641 0.0000
# 2 20.3468 110.8321 40.1111 0.0000 5.5487 0.0000
# 3 9.8334 40.1111 108.2972 0.0000 9.0410 0.0000
# 4 0.0000 0.0000 0.0000 19.6058 0.0000 -1.0325
# 5 3.8641 5.5487 9.0410 0.0000 29.6171 0.0000
# 6 0.0000 0.0000 0.0000 -1.0325 0.0000 13.5744
#
#
#
# Elastic Compliance Matrix: (Units=1/GPa)
#
#
# Indices 1 2 3 4 5 6 
#
# 1 0.013733 -0.002361 -0.000267 0.000000 -0.001268 0.000000
# 2 -0.002361 0.010843 -0.003754 0.000000 -0.000578 0.000000
# 3 -0.000267 -0.003754 0.010864 0.000000 -0.002578 0.000000
# 4 0.000000 0.000000 0.000000 0.051210 0.000000 0.003895
# 5 -0.001268 -0.000578 -0.002578 0.000000 0.034825 0.000000
# 6 0.000000 0.000000 0.000000 0.003895 0.000000 0.073964
#
#
# Mechanical properties :
#
#
# Convention : Reuss Voigt Hill
#
# Bulk Modulus (GPa) = 44.09707 48.50845 46.30276
# Shear Modulus (GPa) = 23.17378 27.60629 25.39003
#
# Velocity S-wave (km/s) = 3.38439 3.69390 3.54253
# Velocity P-wave (km/s) = 6.08834 6.49380 6.29434
#
# Compressibility (1/GPa) = 0.02267725
#
# Stress axis : x y z
#
# Youngs Moduli (GPa) = 72.81832 92.22118 92.05094
#
# Poissons Ratio (x) = 0.21775 0.02454
# Poissons Ratio (y) = 0.17193 0.34552
# Poissons Ratio (z) = 0.01941 0.34616
#
# Static dielectric constant tensor:
#      x y z
#    x 4.054850 0.000000 0.282050 
#    y 0.000000 3.437430 0.000000 
#    z 0.282050 0.000000 3.718300 
# 
# 
# High freq. dielectric constant tensor:
#      x y z
#    x 1.802570 0.000000 0.009140 
#    y 0.000000 1.771510 0.000000 
#    z 0.009140 0.000000 1.793210 
# 
# From -- ./inp_files/175313.got.cif
#   From: 2010.06.25/outbox.cif.g09.slc.cpg/sg12_88_cif.got.tgz:175313.got - 2010.06.28 00:19:55.
