data_PCOD8083385
_publ_section_title
;
Structure prediction by ZEFSAII (Michael W. Deem and Ramdas Pophale) SiO2 
 PCOD8083385
Probable space group: C 2/M
;
_chemical_formula_sum "Si O2"
_cell_formula_units_Z 64
_cell_length_a 19.700692
_cell_length_b 8.954092
_cell_length_c 23.601271
_cell_angle_alpha 90.000000
_cell_angle_beta 126.784380
_cell_angle_gamma 90.000000
_cell_volume 3334.370203
_symmetry_space_group_name_H-M "C 2/M"
_symmetry_group_IT_number 12
_symmetry_cell_setting 'monoclinic'
loop_
_space_group_symop_operation_xyz
x,y,z
-x,y,-z
-x,-y,-z
x,-y,z
1/2+x,1/2+y,z
1/2-x,1/2+y,-z
1/2-x,1/2-y,-z
1/2+x,1/2-y,z
loop_
_atom_site_type_symbol
_atom_site_label
_atom_site_fract_x
_atom_site_fract_y
_atom_site_fract_z
Si Si1 0.591118 0.176426 0.779303
Si Si2 0.014652 0.677435 0.167966
Si Si3 0.983314 0.175036 0.367792
Si Si4 0.699612 0.822674 0.237631
Si Si5 0.065812 0.322396 0.986696
Si Si6 0.651069 0.676634 0.609758
Si Si7 0.236024 0.676476 0.128832
Si Si8 0.170724 0.176756 0.492322
O O1 0.522765 0.230253 0.791155
O O2 0.565698 0.240822 0.706099
O O3 0.679525 0.238471 0.846956
O O4 0.596171 0.000000 0.777019
O O5 0.016265 0.500000 0.164000
O O6 0.959165 0.740264 0.087683
O O7 0.109662 0.741972 0.213113
O O8 0.938798 0.219000 0.405566
O O9 0.082416 0.219122 0.417309
O O10 0.971125 0.000000 0.350961
O O11 0.773024 0.756027 0.314285
O O12 0.713331 0.770424 0.180563
O O13 0.700624 0.000000 0.241693
O O14 0.060896 0.500000 0.985906
O O15 0.160986 0.271055 0.049475
O O16 0.000000 0.257594 0.000000
O O17 0.658171 0.500000 0.608986
O O18 0.661244 0.741343 0.551426
O O19 0.251318 0.500000 0.133641
O O20 0.250000 0.250000 0.500000
O O21 0.185035 0.000000 0.499599
#
# Coordination Sequence:
#
# PCOD8083385 Si02
#       8
#     8   8   8   8   8   8   8   8
#     4  11  23  35  51  78 114 147 172 213 274 332
#     4   9  18  30  46  77 111 137 175 225 273 315
#     4  10  20  38  60  80 104 139 186 228 257 303
#     4   9  15  27  52  81 102 129 177 229 261 295
#     4   9  15  27  51  81 106 131 177 235 272 300
#     4   9  17  32  57  82 104 137 182 225 260 301
#     4  10  18  32  57  82 104 135 181 230 266 307
#     4  10  22  37  57  85 115 142 172 216 269 321
#
# _framework density 19.194029
#
# number of rings (size 3 to 8) (size 9 to 14) (size 15 to 20)
#    0.000    2.375    2.500    0.750    1.750    2.500 
#    0.000    0.625    0.000    4.125    0.000    0.000 
#    0.000    0.000    0.000    0.000    0.000    0.000 
#
# Total GULP energy -396697.815056 kJ/mol
# GULP energy per Si atom -12396.806720 kJ/mol
# Density = 1.915034 g / cm^3
# Si number density = 19.194029 Si / 1000 Ang^3
#
#
#
# Elastic Constant Matrix: (Units=GPa)
#
#
# Indices 1 2 3 4 5 6 
#
# 1 133.0025 27.5062 43.9488 0.0000 15.3771 0.0000
# 2 27.5062 24.7451 20.3268 0.0000 3.5024 0.0000
# 3 43.9488 20.3268 96.2267 0.0000 12.8526 0.0000
# 4 0.0000 0.0000 0.0000 14.9697 0.0000 3.2421
# 5 15.3771 3.5024 12.8526 0.0000 38.8621 0.0000
# 6 0.0000 0.0000 0.0000 3.2421 0.0000 23.1816
#
#
#
# Elastic Compliance Matrix: (Units=1/GPa)
#
#
# Indices 1 2 3 4 5 6 
#
# 1 0.010570 -0.009322 -0.002524 0.000000 -0.002508 0.000000
# 2 -0.009322 0.057158 -0.007973 0.000000 0.001174 0.000000
# 3 -0.002524 -0.007973 0.013600 0.000000 -0.002781 0.000000
# 4 0.000000 0.000000 0.000000 0.068888 0.000000 -0.009634
# 5 -0.002508 0.001174 -0.002781 0.000000 0.027538 0.000000
# 6 0.000000 0.000000 0.000000 -0.009634 0.000000 0.044485
#
#
# Mechanical properties :
#
#
# Convention : Reuss Voigt Hill
#
# Bulk Modulus (GPa) = 23.98605 48.61533 36.30069
# Shear Modulus (GPa) = 18.13078 26.21550 22.17314
#
# Velocity S-wave (km/s) = 3.07678 3.69970 3.40253
# Velocity P-wave (km/s) = 5.01456 6.60559 5.86428
#
# Compressibility (1/GPa) = 0.04169089
#
# Stress axis : x y z
#
# Youngs Moduli (GPa) = 94.60450 17.49551 73.52727
#
# Poissons Ratio (x) = 0.16309 0.18555
# Poissons Ratio (y) = 0.88189 0.58625
# Poissons Ratio (z) = 0.23875 0.13950
#
# Static dielectric constant tensor:
#      x y z
#    x 3.731070 0.000000 0.072920 
#    y 0.000000 2.904450 0.000000 
#    z 0.072920 0.000000 3.764230 
# 
# 
# High freq. dielectric constant tensor:
#      x y z
#    x 1.758860 0.000000 0.006460 
#    y 0.000000 1.682280 0.000000 
#    z 0.006460 0.000000 1.760720 
# 
# From -- ./inp_files/346164.got.cif
#   From: 2010.06.25/outbox.cif.g09.slc.cpg/sg12_174_cif.got.tgz:346164.got - 2010.06.28 00:19:55.
