data_PCOD8083250
_publ_section_title
;
Structure prediction by ZEFSAII (Michael W. Deem and Ramdas Pophale) SiO2 
 PCOD8083250
Probable space group: C 2/M
;
_chemical_formula_sum "Si O2"
_cell_formula_units_Z 64
_cell_length_a 24.504183
_cell_length_b 8.592063
_cell_length_c 20.845681
_cell_angle_alpha 90.000000
_cell_angle_beta 128.192288
_cell_angle_gamma 90.000000
_cell_volume 3449.397373
_symmetry_space_group_name_H-M "C 2/M"
_symmetry_group_IT_number 12
_symmetry_cell_setting 'monoclinic'
loop_
_space_group_symop_operation_xyz
x,y,z
-x,y,-z
-x,-y,-z
x,-y,z
1/2+x,1/2+y,z
1/2-x,1/2+y,-z
1/2-x,1/2-y,-z
1/2+x,1/2-y,z
loop_
_atom_site_type_symbol
_atom_site_label
_atom_site_fract_x
_atom_site_fract_y
_atom_site_fract_z
Si Si1 0.431925 0.316861 0.623152
Si Si2 0.075540 0.682826 0.739755
Si Si3 0.720959 0.816515 0.793158
Si Si4 0.063331 0.818253 0.868649
Si Si5 0.213328 0.183987 0.289654
Si Si6 0.207441 0.817066 0.027731
Si Si7 0.079045 0.318309 0.245646
Si Si8 0.204276 0.316744 0.523797
O O1 0.439903 0.500000 0.622595
O O2 0.504036 0.236177 0.654387
O O3 0.411968 0.274717 0.681508
O O4 0.372241 0.256984 0.532400
O O5 0.072939 0.500000 0.752819
O O6 0.139624 0.726821 0.740168
O O7 0.086405 0.773131 0.813944
O O8 0.750322 0.748941 0.747964
O O9 0.764210 0.746794 0.884696
O O10 0.730538 0.000000 0.799215
O O11 0.994949 0.723414 0.840304
O O12 0.045570 0.000000 0.857503
O O13 0.125953 0.775304 0.962252
O O14 0.139229 0.267899 0.240941
O O15 0.261637 0.230784 0.384266
O O16 0.201245 0.000000 0.278105
O O17 0.219369 0.000000 0.034663
O O18 0.250000 0.750000 0.000000
O O19 0.083013 0.500000 0.263779
O O20 0.198577 0.500000 0.510954
O O21 0.250000 0.250000 0.500000
#
# Coordination Sequence:
#
# PCOD8083250 Si02
#       8
#     8   8   8   8   8   8   8   8
#     4  11  21  34  54  80 111 142 178 225 272 324
#     4  10  18  32  55  80 109 142 179 224 269 317
#     4   9  19  36  57  81 110 145 183 222 269 325
#     4  10  19  31  52  81 111 141 178 223 271 321
#     4  10  21  38  58  79 108 145 182 222 271 328
#     4  10  19  33  55  83 111 141 182 227 268 316
#     4  11  21  34  54  79 109 142 180 225 273 323
#     4  11  21  34  56  83 109 139 182 230 276 322
#
# _framework density 18.553965999999999
#
# number of rings (size 3 to 8) (size 9 to 14) (size 15 to 20)
#    0.000    1.750    2.500    4.875    0.000    1.000 
#    0.000    3.125    0.000    7.500    0.000    0.000 
#    0.000    0.000    0.000    0.000    0.000    0.000 
#
# Total GULP energy -396836.753108 kJ/mol
# GULP energy per Si atom -12401.148535 kJ/mol
# Density = 1.851174 g / cm^3
# Si number density = 18.553966 Si / 1000 Ang^3
#
#
#
# Elastic Constant Matrix: (Units=GPa)
#
#
# Indices 1 2 3 4 5 6 
#
# 1 147.4839 21.9177 76.6513 0.0000 11.5404 0.0000
# 2 21.9177 36.6440 27.5703 0.0000 9.7594 0.0000
# 3 76.6513 27.5703 124.9287 0.0000 12.0936 0.0000
# 4 0.0000 0.0000 0.0000 22.8735 0.0000 5.8048
# 5 11.5404 9.7594 12.0936 0.0000 30.4706 0.0000
# 6 0.0000 0.0000 0.0000 5.8048 0.0000 26.7349
#
#
#
# Elastic Compliance Matrix: (Units=1/GPa)
#
#
# Indices 1 2 3 4 5 6 
#
# 1 0.010069 -0.001398 -0.005765 0.000000 -0.001078 0.000000
# 2 -0.001398 0.034864 -0.006039 0.000000 -0.008240 0.000000
# 3 -0.005765 -0.006039 0.012974 0.000000 -0.001032 0.000000
# 4 0.000000 0.000000 0.000000 0.046268 0.000000 -0.010046
# 5 -0.001078 -0.008240 -0.001032 0.000000 0.036276 0.000000
# 6 0.000000 0.000000 0.000000 -0.010046 0.000000 0.039586
#
#
# Mechanical properties :
#
#
# Convention : Reuss Voigt Hill
#
# Bulk Modulus (GPa) = 31.74225 62.37059 47.05642
# Shear Modulus (GPa) = 23.04783 28.21026 25.62905
#
# Velocity S-wave (km/s) = 3.52832 3.90352 3.72065
# Velocity P-wave (km/s) = 5.80895 7.34883 6.62379
#
# Compressibility (1/GPa) = 0.03150376
#
# Stress axis : x y z
#
# Youngs Moduli (GPa) = 99.31832 28.68310 77.07589
#
# Poissons Ratio (x) = 0.04010 0.44433
# Poissons Ratio (y) = 0.13884 0.46543
# Poissons Ratio (z) = 0.57256 0.17321
#
# Static dielectric constant tensor:
#      x y z
#    x 3.550500 0.000000 0.327000 
#    y 0.000000 3.363730 0.000000 
#    z 0.327000 0.000000 3.785800 
# 
# 
# High freq. dielectric constant tensor:
#      x y z
#    x 1.711240 0.000000 0.027320 
#    y 0.000000 1.716720 0.000000 
#    z 0.027320 0.000000 1.716150 
# 
# From -- ./inp_files/324223.got.cif
#   From: 2010.06.25/outbox.cif.g09.slc.cpg/sg12_163_cif.got.tgz:324223.got - 2010.06.28 00:19:55.
