data_PCOD8083418
_publ_section_title
;
Structure prediction by ZEFSAII (Michael W. Deem and Ramdas Pophale) SiO2 
 PCOD8083418
Probable space group: C 2/M
;
_chemical_formula_sum "Si O2"
_cell_formula_units_Z 64
_cell_length_a 15.371124
_cell_length_b 9.080311
_cell_length_c 32.935399
_cell_angle_alpha 90.000000
_cell_angle_beta 45.558400
_cell_angle_gamma 90.000000
_cell_volume 3282.055299
_symmetry_space_group_name_H-M "C 2/M"
_symmetry_group_IT_number 12
_symmetry_cell_setting 'monoclinic'
loop_
_space_group_symop_operation_xyz
x,y,z
-x,y,-z
-x,-y,-z
x,-y,z
1/2+x,1/2+y,z
1/2-x,1/2+y,-z
1/2-x,1/2-y,-z
1/2+x,1/2-y,z
loop_
_atom_site_type_symbol
_atom_site_label
_atom_site_fract_x
_atom_site_fract_y
_atom_site_fract_z
Si Si1 0.962858 0.325519 0.691512
Si Si2 0.767048 0.674038 0.378639
Si Si3 0.100622 0.827407 0.998550
Si Si4 0.668160 0.669135 0.494646
Si Si5 0.789348 0.825253 0.810511
Si Si6 0.573700 0.330087 0.380068
Si Si7 0.488002 0.170682 0.108340
Si Si8 0.345763 0.829748 0.873644
O O1 0.945002 0.500000 0.700127
O O2 0.857288 0.244621 0.750314
O O3 0.957001 0.276305 0.646888
O O4 0.092497 0.275027 0.667807
O O5 0.757803 0.500000 0.383757
O O6 0.696731 0.738268 0.441039
O O7 0.700430 0.724924 0.358976
O O8 0.232196 0.783082 0.938657
O O9 0.087273 0.000000 0.009483
O O10 0.000000 0.767785 0.000000
O O11 0.080743 0.752740 0.048338
O O12 0.708473 0.500000 0.482258
O O13 0.750000 0.750000 0.500000
O O14 0.526723 0.687327 0.551830
O O15 0.649374 0.771766 0.852909
O O16 0.850033 0.769116 0.832188
O O17 0.799987 0.000000 0.804758
O O18 0.580836 0.500000 0.362736
O O19 0.531484 0.198527 0.140502
O O20 0.497012 0.000000 0.094544
O O21 0.334714 0.000000 0.863867
#
# Coordination Sequence:
#
# PCOD8083418 Si02
#       8
#     8   8   8   8   8   8   8   8
#     4  11  23  40  60  81 111 149 188 236 286 334
#     4   9  19  36  58  84 114 149 187 224 277 341
#     4  10  19  33  58  89 119 148 181 227 280 336
#     4  10  18  32  57  86 116 148 184 225 275 334
#     4  11  24  41  59  82 111 147 194 239 277 328
#     4  10  20  36  60  86 113 148 187 231 276 331
#     4  10  22  38  59  85 115 151 188 229 277 335
#     4  10  21  39  60  85 116 150 186 227 282 337
#
# _framework density 19.499977000000001
#
# number of rings (size 3 to 8) (size 9 to 14) (size 15 to 20)
#    0.000    1.875    2.500    1.500    0.000    4.250 
#    0.000    6.875    0.000    1.500    0.000    0.000 
#    0.000    0.000    0.000    0.000    0.000    0.000 
#
# Total GULP energy -396849.387381 kJ/mol
# GULP energy per Si atom -12401.543356 kJ/mol
# Density = 1.945559 g / cm^3
# Si number density = 19.499977 Si / 1000 Ang^3
#
#
#
# Elastic Constant Matrix: (Units=GPa)
#
#
# Indices 1 2 3 4 5 6 
#
# 1 106.1638 22.1531 11.8198 0.0002 0.0560 0.0009
# 2 22.1531 48.0226 28.8352 0.0011 1.2192 0.0011
# 3 11.8198 28.8352 71.8518 -0.0001 -2.7205 -0.0001
# 4 0.0002 0.0011 -0.0001 31.3473 -0.0001 6.2464
# 5 0.0560 1.2192 -2.7205 -0.0001 18.0976 -0.0001
# 6 0.0009 0.0011 -0.0001 6.2464 -0.0001 27.6738
#
#
#
# Elastic Compliance Matrix: (Units=1/GPa)
#
#
# Indices 1 2 3 4 5 6 
#
# 1 0.010429 -0.005003 0.000306 0.000000 0.000351 0.000000
# 2 -0.005003 0.030060 -0.011381 -0.000001 -0.003720 -0.000001
# 3 0.000306 -0.011381 0.018569 0.000000 0.003557 0.000000
# 4 0.000000 -0.000001 0.000000 0.033403 0.000000 -0.007540
# 5 0.000351 -0.003720 0.003557 0.000000 0.056040 0.000000
# 6 0.000000 -0.000001 0.000000 -0.007540 0.000000 0.037837
#
#
# Mechanical properties :
#
#
# Convention : Reuss Voigt Hill
#
# Bulk Modulus (GPa) = 37.17424 39.07272 38.12348
# Shear Modulus (GPa) = 21.98149 26.30575 24.14362
#
# Velocity S-wave (km/s) = 3.36111 3.67688 3.52253
# Velocity P-wave (km/s) = 5.84533 6.17306 6.01143
#
# Compressibility (1/GPa) = 0.02690035
#
# Stress axis : x y z
#
# Youngs Moduli (GPa) = 95.88407 33.26681 53.85193
#
# Poissons Ratio (x) = 0.16645 -0.01646
# Poissons Ratio (y) = 0.47975 0.61290
# Poissons Ratio (z) = -0.02930 0.37862
#
# Static dielectric constant tensor:
#      x y z
#    x 3.877300 0.000000 -0.151430 
#    y 0.000000 3.348750 0.000000 
#    z -0.151430 0.000000 3.581720 
# 
# 
# High freq. dielectric constant tensor:
#      x y z
#    x 1.773020 0.000000 -0.000750 
#    y 0.000000 1.739070 0.000000 
#    z -0.000750 0.000000 1.757700 
# 
# From -- ./inp_files/375378.got.cif
#   From: 2010.06.25/outbox.cif.g09.slc.cpg/sg12_188_cif.got.tgz:375378.got - 2010.06.28 00:19:55.
