data_PCOD8083546
_publ_section_title
;
Structure prediction by ZEFSAII (Michael W. Deem and Ramdas Pophale) SiO2 
 PCOD8083546
Probable space group: C 2/M
;
_chemical_formula_sum "Si O2"
_cell_formula_units_Z 32
_cell_length_a 9.965873
_cell_length_b 22.657392
_cell_length_c 9.551117
_cell_angle_alpha 90.000000
_cell_angle_beta 132.065709
_cell_angle_gamma 90.000000
_cell_volume 1601.046378
_symmetry_space_group_name_H-M "C 2/M"
_symmetry_group_IT_number 12
_symmetry_cell_setting 'monoclinic'
loop_
_space_group_symop_operation_xyz
x,y,z
-x,y,-z
-x,-y,-z
x,-y,z
1/2+x,1/2+y,z
1/2-x,1/2+y,-z
1/2-x,1/2-y,-z
1/2+x,1/2-y,z
loop_
_atom_site_type_symbol
_atom_site_label
_atom_site_fract_x
_atom_site_fract_y
_atom_site_fract_z
Si Si1 0.462099 0.753696 0.123487
Si Si2 0.433460 0.855430 0.613423
Si Si3 0.917018 0.122183 0.758764
Si Si4 0.248173 0.568943 0.917410
O O1 0.557489 0.790830 0.312479
O O2 0.556051 0.690110 0.182379
O O3 0.500000 0.784258 0.000000
O O4 0.250000 0.750000 0.000000
O O5 0.500000 0.850813 0.500000
O O6 0.226401 0.880022 0.469650
O O7 0.554322 0.899219 0.792728
O O8 0.832960 0.085462 0.827794
O O9 0.112854 0.092231 0.863900
O O10 0.216341 0.500000 0.910594
#
# Coordination Sequence:
#
# PCOD8083546 Si02
#       4
#     8   8   8   8
#     4  12  21  38  61  85 125 161 195 245 304 360
#     4  10  21  35  56  88 121 151 195 244 298 357
#     4  10  18  33  52  82 116 149 191 241 296 340
#     4  10  19  34  56  85 120 154 194 250 297 340
#
# _framework density 19.986929
#
# number of rings (size 3 to 8) (size 9 to 14) (size 15 to 20)
#    0.000    1.500    5.000    3.750    0.000    5.500 
#    0.000    0.000    0.000    0.750    0.000    1.750 
#    0.000    0.000    0.000    0.000    0.000    0.000 
#
# Total GULP energy -198273.755426 kJ/mol
# GULP energy per Si atom -12392.109714 kJ/mol
# Density = 1.994144 g / cm^3
# Si number density = 19.986929 Si / 1000 Ang^3
#
#
#
# Elastic Constant Matrix: (Units=GPa)
#
#
# Indices 1 2 3 4 5 6 
#
# 1 48.9191 11.4160 36.9925 0.0000 6.9970 0.0000
# 2 11.4160 111.2962 42.3845 0.0000 1.4887 0.0000
# 3 36.9925 42.3845 165.8730 0.0000 40.7336 0.0000
# 4 0.0000 0.0000 0.0000 21.3744 0.0000 -7.7467
# 5 6.9970 1.4887 40.7336 0.0000 25.5840 0.0000
# 6 0.0000 0.0000 0.0000 -7.7467 0.0000 4.2635
#
#
#
# Elastic Compliance Matrix: (Units=1/GPa)
#
#
# Indices 1 2 3 4 5 6 
#
# 1 0.024763 -0.000200 -0.006258 0.000000 0.003203 0.000000
# 2 -0.000200 0.010488 -0.004103 0.000000 0.005977 0.000000
# 3 -0.006258 -0.004103 0.013126 0.000000 -0.018948 0.000000
# 4 0.000000 0.000000 0.000000 0.137012 0.000000 0.248950
# 5 0.003203 0.005977 -0.018948 0.000000 0.068032 0.000000
# 6 0.000000 0.000000 0.000000 0.248950 0.000000 0.686892
#
#
# Mechanical properties :
#
#
# Convention : Reuss Voigt Hill
#
# Bulk Modulus (GPa) = 36.69071 56.40827 46.54949
# Shear Modulus (GPa) = 5.15188 25.93071 15.54130
#
# Velocity S-wave (km/s) = 1.60724 3.60583 2.79152
# Velocity P-wave (km/s) = 4.67349 6.75425 5.80781
#
# Compressibility (1/GPa) = 0.02725486
#
# Stress axis : x y z
#
# Youngs Moduli (GPa) = 40.38326 95.34509 76.18418
#
# Poissons Ratio (x) = 0.01903 0.47677
# Poissons Ratio (y) = 0.00806 0.31261
# Poissons Ratio (z) = 0.25272 0.39124
#
# Static dielectric constant tensor:
#      x y z
#    x 3.291930 0.000000 0.501890 
#    y 0.000000 3.582450 0.000000 
#    z 0.501890 0.000000 4.648990 
# 
# 
# High freq. dielectric constant tensor:
#      x y z
#    x 1.721580 0.000000 0.036390 
#    y 0.000000 1.775310 0.000000 
#    z 0.036390 0.000000 1.803480 
# 
# From -- ./inp_files/38702.got.cif
#   From: 2010.06.25/outbox.cif.g09.slc.cpg/sg12_20_cif.got.tgz:38702.got - 2010.06.28 00:19:55.
