data_PCOD8083457
_publ_section_title
;
Structure prediction by ZEFSAII (Michael W. Deem and Ramdas Pophale) SiO2 
 PCOD8083457
Probable space group: C 2/M
;
_chemical_formula_sum "Si O2"
_cell_formula_units_Z 64
_cell_length_a 20.126821
_cell_length_b 19.030251
_cell_length_c 15.617852
_cell_angle_alpha 90.000000
_cell_angle_beta 145.627716
_cell_angle_gamma 90.000000
_cell_volume 3377.202552
_symmetry_space_group_name_H-M "C 2/M"
_symmetry_group_IT_number 12
_symmetry_cell_setting 'monoclinic'
loop_
_space_group_symop_operation_xyz
x,y,z
-x,y,-z
-x,-y,-z
x,-y,z
1/2+x,1/2+y,z
1/2-x,1/2+y,-z
1/2-x,1/2-y,-z
1/2+x,1/2-y,z
loop_
_atom_site_type_symbol
_atom_site_label
_atom_site_fract_x
_atom_site_fract_y
_atom_site_fract_z
Si Si1 0.378887 0.081833 0.552982
Si Si2 0.307975 0.642380 0.077873
Si Si3 0.395336 0.761149 0.061396
Si Si4 0.658314 0.196518 0.358607
Si Si5 0.778045 0.698709 0.769493
Si Si6 0.643808 0.076279 0.789240
Si Si7 0.863288 0.334751 0.372003
Si Si8 0.621431 0.417760 0.677028
O O1 0.326028 0.120130 0.580570
O O2 0.518532 0.094365 0.697931
O O3 0.322246 0.119154 0.409449
O O4 0.343624 0.000000 0.518771
O O5 0.381715 0.681912 0.082604
O O6 0.393436 0.613598 0.243115
O O7 0.206043 0.692338 0.004986
O O8 0.241216 0.575241 0.967192
O O9 0.524439 0.780684 0.231654
O O10 0.379195 0.770602 0.941035
O O11 0.750000 0.250000 0.500000
O O12 0.673032 0.189512 0.273125
O O13 0.671180 0.754109 0.653832
O O14 0.728675 0.623013 0.745513
O O15 0.692852 0.132633 0.773212
O O16 0.635723 0.000000 0.736208
O O17 0.000000 0.341279 0.500000
O O18 0.500000 0.403398 0.500000
O O19 0.653582 0.500000 0.712189
#
# Coordination Sequence:
#
# PCOD8083457 Si02
#       8
#     8   8   8   8   8   8   8   8
#     4  10  21  37  57  86 123 152 188 244 295 349
#     4  10  19  35  65  84 116 150 188 248 298 345
#     4  10  22  38  58  90 116 145 198 246 293 338
#     4  12  24  38  60  86 116 160 201 238 283 356
#     4  11  22  38  60  83 116 163 194 245 287 348
#     4  10  18  32  58  90 119 147 184 238 306 360
#     4  10  19  33  57  91 118 146 190 238 302 347
#     4  10  23  39  57  87 123 156 198 247 297 355
#
# _framework density 18.950596999999998
#
# number of rings (size 3 to 8) (size 9 to 14) (size 15 to 20)
#    0.000    1.625    3.750    1.500    1.750    2.000 
#    0.000    0.000    0.000    2.250    0.000    1.750 
#    0.000    0.000    0.000    0.000    0.000    0.000 
#
# Total GULP energy -396610.585870 kJ/mol
# GULP energy per Si atom -12394.080808 kJ/mol
# Density = 1.890746 g / cm^3
# Si number density = 18.950597 Si / 1000 Ang^3
#
#
#
# Elastic Constant Matrix: (Units=GPa)
#
#
# Indices 1 2 3 4 5 6 
#
# 1 81.0743 45.3801 24.3391 0.0000 -24.5832 0.0000
# 2 45.3801 124.8267 37.8168 0.0000 -11.7960 0.0000
# 3 24.3391 37.8168 103.3974 0.0000 -19.9190 0.0000
# 4 0.0000 0.0000 0.0000 25.6488 0.0000 -2.6337
# 5 -24.5832 -11.7960 -19.9190 0.0000 23.6006 0.0000
# 6 0.0000 0.0000 0.0000 -2.6337 0.0000 29.0052
#
#
#
# Elastic Compliance Matrix: (Units=1/GPa)
#
#
# Indices 1 2 3 4 5 6 
#
# 1 0.021719 -0.006308 0.001129 0.000000 0.020423 0.000000
# 2 -0.006308 0.010926 -0.003254 0.000000 -0.003856 0.000000
# 3 0.001129 -0.003254 0.012549 0.000000 0.010141 0.000000
# 4 0.000000 0.000000 0.000000 0.039355 0.000000 0.003574
# 5 0.020423 -0.003856 0.010141 0.000000 0.070277 0.000000
# 6 0.000000 0.000000 0.000000 0.003574 0.000000 0.034801
#
#
# Mechanical properties :
#
#
# Convention : Reuss Voigt Hill
#
# Bulk Modulus (GPa) = 35.30035 58.26338 46.78187
# Shear Modulus (GPa) = 23.15500 29.10175 26.12838
#
# Velocity S-wave (km/s) = 3.49931 3.92301 3.71720
# Velocity P-wave (km/s) = 5.91565 7.16461 6.56987
#
# Compressibility (1/GPa) = 0.02832833
#
# Stress axis : x y z
#
# Youngs Moduli (GPa) = 46.04299 91.52713 79.68453
#
# Poissons Ratio (x) = 0.57734 -0.08996
# Poissons Ratio (y) = 0.29043 0.25929
# Poissons Ratio (z) = -0.05198 0.29783
#
# Static dielectric constant tensor:
#      x y z
#    x 3.385320 0.000000 -0.323300 
#    y 0.000000 3.462450 0.000000 
#    z -0.323300 0.000000 3.574080 
# 
# 
# High freq. dielectric constant tensor:
#      x y z
#    x 1.718990 0.000000 -0.026030 
#    y 0.000000 1.737930 0.000000 
#    z -0.026030 0.000000 1.740100 
# 
# From -- ./inp_files/226878.got.cif
#   From: 2010.06.25/outbox.cif.g09.slc.cpg/sg12_114_cif.got.tgz:226878.got - 2010.06.28 00:19:55.
