data_PCOD8083477
_publ_section_title
;
Structure prediction by ZEFSAII (Michael W. Deem and Ramdas Pophale) SiO2 
 PCOD8083477
Probable space group: C 2/M
;
_chemical_formula_sum "Si O2"
_cell_formula_units_Z 56
_cell_length_a 18.499674
_cell_length_b 26.979507
_cell_length_c 9.611831
_cell_angle_alpha 90.000000
_cell_angle_beta 35.793614
_cell_angle_gamma 90.000000
_cell_volume 2805.831144
_symmetry_space_group_name_H-M "C 2/M"
_symmetry_group_IT_number 12
_symmetry_cell_setting 'monoclinic'
loop_
_space_group_symop_operation_xyz
x,y,z
-x,y,-z
-x,-y,-z
x,-y,z
1/2+x,1/2+y,z
1/2-x,1/2+y,-z
1/2-x,1/2-y,-z
1/2+x,1/2-y,z
loop_
_atom_site_type_symbol
_atom_site_label
_atom_site_fract_x
_atom_site_fract_y
_atom_site_fract_z
Si Si1 0.241604 0.556314 0.158002
Si Si2 0.515362 0.445726 0.825457
Si Si3 0.525086 0.792118 0.310524
Si Si4 0.081599 0.810665 0.121073
Si Si5 0.787465 0.353088 0.604526
Si Si6 0.327332 0.362916 0.508481
Si Si7 0.754543 0.637355 0.057040
O O1 0.184444 0.500000 0.254112
O O2 0.186230 0.593019 0.364129
O O3 0.387535 0.552378 0.946061
O O4 0.223920 0.581229 0.033377
O O5 0.571447 0.500000 0.764182
O O6 0.613467 0.417340 0.579045
O O7 0.500000 0.418839 0.000000
O O8 0.500000 0.767594 0.500000
O O9 0.583854 0.748994 0.123616
O O10 0.402932 0.816322 0.436537
O O11 0.625717 0.833912 0.182046
O O12 0.132752 0.837387 0.180369
O O13 0.938204 0.823705 0.322627
O O14 0.165486 0.828506 0.861956
O O15 0.766881 0.358679 0.472361
O O16 0.250171 0.358332 0.770013
#
# Coordination Sequence:
#
# PCOD8083477 Si02
#       7
#     8   8   8   8   8   8   8
#     4  10  20  38  64  94 122 156 209 256 309 375
#     4  10  18  32  60  92 122 160 199 249 318 379
#     4  12  24  43  65  85 121 168 221 253 304 373
#     4  11  23  40  65  88 118 164 212 256 309 362
#     4  11  24  42  63  91 128 166 208 258 308 373
#     4  12  22  39  60  92 134 160 196 262 317 370
#     4  11  24  40  62  91 125 164 206 258 312 366
#
# _framework density 19.958435999999999
#
# number of rings (size 3 to 8) (size 9 to 14) (size 15 to 20)
#    0.000    1.000    7.143    2.143    2.000    1.714 
#    2.571    2.857    0.000    0.000    0.000    3.000 
#    0.000    0.000    0.000    0.000    0.000    0.000 
#
# Total GULP energy -347110.547649 kJ/mol
# GULP energy per Si atom -12396.805273 kJ/mol
# Density = 1.991301 g / cm^3
# Si number density = 19.958436 Si / 1000 Ang^3
#
#
#
# Elastic Constant Matrix: (Units=GPa)
#
#
# Indices 1 2 3 4 5 6 
#
# 1 75.8897 38.5379 17.1943 0.0000 16.8539 0.0000
# 2 38.5379 135.1819 29.3701 0.0000 7.0087 0.0000
# 3 17.1943 29.3701 53.1026 0.0000 16.9121 0.0000
# 4 0.0000 0.0000 0.0000 10.3400 0.0000 0.7949
# 5 16.8539 7.0087 16.9121 0.0000 31.4272 0.0000
# 6 0.0000 0.0000 0.0000 0.7949 0.0000 21.2743
#
#
#
# Elastic Compliance Matrix: (Units=1/GPa)
#
#
# Indices 1 2 3 4 5 6 
#
# 1 0.017318 -0.004384 -0.000647 0.000000 -0.007961 0.000000
# 2 -0.004384 0.009532 -0.004736 0.000000 0.002774 0.000000
# 3 -0.000647 -0.004736 0.025601 0.000000 -0.012374 0.000000
# 4 0.000000 0.000000 0.000000 0.096991 0.000000 -0.003624
# 5 -0.007961 0.002774 -0.012374 0.000000 0.042129 0.000000
# 6 0.000000 0.000000 0.000000 -0.003624 0.000000 0.047141
#
#
# Mechanical properties :
#
#
# Convention : Reuss Voigt Hill
#
# Bulk Modulus (GPa) = 30.37931 48.26430 39.32181
# Shear Modulus (GPa) = 18.57230 24.54644 21.55937
#
# Velocity S-wave (km/s) = 3.05380 3.51077 3.29023
# Velocity P-wave (km/s) = 5.26199 6.37722 5.84626
#
# Compressibility (1/GPa) = 0.03291714
#
# Stress axis : x y z
#
# Youngs Moduli (GPa) = 57.74406 104.90655 39.06054
#
# Poissons Ratio (x) = 0.45986 0.02529
# Poissons Ratio (y) = 0.25312 0.18500
# Poissons Ratio (z) = 0.03739 0.49685
#
# Static dielectric constant tensor:
#      x y z
#    x 3.714000 0.000000 0.120380 
#    y 0.000000 3.961270 0.000000 
#    z 0.120380 0.000000 3.423300 
# 
# 
# High freq. dielectric constant tensor:
#      x y z
#    x 1.777890 0.000000 0.004390 
#    y 0.000000 1.785510 0.000000 
#    z 0.004390 0.000000 1.754190 
# 
# From -- ./inp_files/53157.got.cif
#   From: 2010.06.25/outbox.cif.g09.slc.cpg/sg12_27_cif.got.tgz:53157.got - 2010.06.28 00:19:55.
