data_PCOD8083939
_publ_section_title
;
Structure prediction by ZEFSAII (Michael W. Deem and Ramdas Pophale) SiO2 
 PCOD8083939
Probable space group: C 2/M
;
_chemical_formula_sum "Si O2"
_cell_formula_units_Z 56
_cell_length_a 30.335181
_cell_length_b 22.644515
_cell_length_c 9.272795
_cell_angle_alpha 90.000000
_cell_angle_beta 152.328182
_cell_angle_gamma 90.000000
_cell_volume 2958.138848
_symmetry_space_group_name_H-M "C 2/M"
_symmetry_group_IT_number 12
_symmetry_cell_setting 'monoclinic'
loop_
_space_group_symop_operation_xyz
x,y,z
-x,y,-z
-x,-y,-z
x,-y,z
1/2+x,1/2+y,z
1/2-x,1/2+y,-z
1/2-x,1/2-y,-z
1/2+x,1/2-y,z
loop_
_atom_site_type_symbol
_atom_site_label
_atom_site_fract_x
_atom_site_fract_y
_atom_site_fract_z
Si Si1 0.257109 0.568047 0.302503
Si Si2 0.343374 0.255885 0.182545
Si Si3 0.095062 0.339833 0.859911
Si Si4 0.976959 0.261293 0.096913
Si Si5 0.916666 0.868492 0.939189
Si Si6 0.393750 0.630602 0.189222
Si Si7 0.395123 0.434383 0.467686
O O1 0.241654 0.500000 0.304361
O O2 0.351228 0.595794 0.642868
O O3 0.288949 0.573391 0.226894
O O4 0.161548 0.602695 0.066172
O O5 0.350481 0.207527 0.078836
O O6 0.429626 0.255343 0.543870
O O7 0.328191 0.318016 0.059971
O O8 0.250000 0.250000 0.000000
O O9 0.076036 0.313029 0.965107
O O10 0.000000 0.359181 0.500000
O O11 0.912559 0.202129 0.899624
O O12 0.000000 0.283469 0.000000
O O13 0.869528 0.885727 0.955951
O O14 0.026404 0.888922 0.242184
O O15 0.500000 0.657521 0.500000
O O16 0.384340 0.573550 0.264144
O O17 0.433566 0.500000 0.609737
#
# Coordination Sequence:
#
# PCOD8083939 Si02
#       7
#     8   8   8   8   8   8   8
#     4  11  24  40  59  87 115 151 203 246 290 346
#     4  11  20  35  57  85 118 157 194 237 284 346
#     4  10  23  42  61  83 115 155 201 244 293 347
#     4  11  22  37  58  88 124 152 189 242 300 351
#     4  11  21  34  58  83 127 153 186 235 295 351
#     4  10  18  34  51  78 118 157 190 226 275 350
#     4  10  20  34  55  84 119 158 193 228 282 352
#
# _framework density 18.930821999999999
#
# number of rings (size 3 to 8) (size 9 to 14) (size 15 to 20)
#    0.000    1.429    4.286    3.000    2.000    6.286 
#    0.000    0.000    0.000    0.429    0.000    0.000 
#    0.000    0.000    0.000    0.000    0.000    0.000 
#
# Total GULP energy -347041.972674 kJ/mol
# GULP energy per Si atom -12394.356167 kJ/mol
# Density = 1.888774 g / cm^3
# Si number density = 18.930822 Si / 1000 Ang^3
#
#
#
# Elastic Constant Matrix: (Units=GPa)
#
#
# Indices 1 2 3 4 5 6 
#
# 1 134.9262 55.0420 37.5519 0.0000 1.9994 0.0000
# 2 55.0420 113.7821 38.4165 0.0000 9.6538 0.0000
# 3 37.5519 38.4165 37.8635 0.0000 4.7208 0.0000
# 4 0.0000 0.0000 0.0000 25.2836 0.0000 7.5649
# 5 1.9994 9.6538 4.7208 0.0000 28.5729 0.0000
# 6 0.0000 0.0000 0.0000 7.5649 0.0000 31.2372
#
#
#
# Elastic Compliance Matrix: (Units=1/GPa)
#
#
# Indices 1 2 3 4 5 6 
#
# 1 0.010715 -0.002522 -0.008251 0.000000 0.001465 0.000000
# 2 -0.002522 0.014115 -0.011484 0.000000 -0.002695 0.000000
# 3 -0.008251 -0.011484 0.046650 0.000000 -0.003250 0.000000
# 4 0.000000 0.000000 0.000000 0.042641 0.000000 -0.010327
# 5 0.001465 -0.002695 -0.003250 0.000000 0.036343 0.000000
# 6 0.000000 0.000000 0.000000 -0.010327 0.000000 0.034514
#
#
# Mechanical properties :
#
#
# Convention : Reuss Voigt Hill
#
# Bulk Modulus (GPa) = 37.08218 60.95474 49.01846
# Shear Modulus (GPa) = 20.96623 27.38948 24.17785
#
# Velocity S-wave (km/s) = 3.33155 3.80783 3.57763
# Velocity P-wave (km/s) = 5.86769 7.18341 6.55863
#
# Compressibility (1/GPa) = 0.02696713
#
# Stress axis : x y z
#
# Youngs Moduli (GPa) = 93.32877 70.84858 21.43631
#
# Poissons Ratio (x) = 0.17868 0.17686
# Poissons Ratio (y) = 0.23537 0.24616
# Poissons Ratio (z) = 0.77001 0.81359
#
# Static dielectric constant tensor:
#      x y z
#    x 3.513720 0.000000 -0.345450 
#    y 0.000000 3.364020 0.000000 
#    z -0.345450 0.000000 3.066300 
# 
# 
# High freq. dielectric constant tensor:
#      x y z
#    x 1.756810 0.000000 -0.008390 
#    y 0.000000 1.724830 0.000000 
#    z -0.008390 0.000000 1.702580 
# 
# From -- ./inp_files/113412.got.cif
#   From: 2010.06.25/outbox.cif.g09.slc.cpg/sg12_57_cif.got.tgz:113412.got - 2010.06.28 00:19:55.
