data_PCOD8083936
_publ_section_title
;
Structure prediction by ZEFSAII (Michael W. Deem and Ramdas Pophale) SiO2 
 PCOD8083936
Probable space group: C 2/M
;
_chemical_formula_sum "Si O2"
_cell_formula_units_Z 44
_cell_length_a 18.550404
_cell_length_b 12.130818
_cell_length_c 11.057873
_cell_angle_alpha 90.000000
_cell_angle_beta 63.376992
_cell_angle_gamma 90.000000
_cell_volume 2224.539492
_symmetry_space_group_name_H-M "C 2/M"
_symmetry_group_IT_number 12
_symmetry_cell_setting 'monoclinic'
loop_
_space_group_symop_operation_xyz
x,y,z
-x,y,-z
-x,-y,-z
x,-y,z
1/2+x,1/2+y,z
1/2-x,1/2+y,-z
1/2-x,1/2-y,-z
1/2+x,1/2-y,z
loop_
_atom_site_type_symbol
_atom_site_label
_atom_site_fract_x
_atom_site_fract_y
_atom_site_fract_z
Si Si1 0.000000 0.785605 0.500000
Si Si2 0.863805 0.376853 0.588665
Si Si3 0.465659 0.624116 0.276329
Si Si4 0.742997 0.765481 0.812171
Si Si5 0.172313 0.707955 0.629391
Si Si6 0.352938 0.370812 0.923036
O O1 0.928877 0.705319 0.597292
O O2 0.970882 0.865640 0.416651
O O3 0.882285 0.500000 0.618786
O O4 0.780118 0.337415 0.709933
O O5 0.866739 0.376441 0.438300
O O6 0.442399 0.500000 0.259084
O O7 0.393430 0.699845 0.283790
O O8 0.552120 0.655374 0.154732
O O9 0.699178 0.840653 0.740523
O O10 0.807948 0.842177 0.830823
O O11 0.679633 0.711618 0.951095
O O12 0.250000 0.750000 0.500000
O O13 0.337623 0.500000 0.963150
#
# Coordination Sequence:
#
# PCOD8083936 Si02
#       6
#     4   8   8   8   8   8
#     4  10  18  34  50  82 112 142 180 234 278 322
#     4  10  19  33  55  78 106 148 189 227 277 331
#     4  10  20  35  57  84 112 146 188 233 283 332
#     4  10  20  38  55  81 118 148 185 237 279 334
#     4   9  21  36  52  79 113 145 182 229 281 330
#     4  10  21  36  59  85 110 150 193 231 280 334
#
# _framework density 19.779375000000002
#
# number of rings (size 3 to 8) (size 9 to 14) (size 15 to 20)
#    0.000    2.182    1.818    1.091    0.000    5.091 
#    0.000    1.818    0.000    0.000    0.000    5.091 
#    0.000    0.000    0.000    0.000    0.000    0.000 
#
# Total GULP energy -272585.688728 kJ/mol
# GULP energy per Si atom -12390.258579 kJ/mol
# Density = 1.973436 g / cm^3
# Si number density = 19.779375 Si / 1000 Ang^3
#
#
#
# Elastic Constant Matrix: (Units=GPa)
#
#
# Indices 1 2 3 4 5 6 
#
# 1 84.1692 4.5133 27.0469 0.0000 -4.2006 0.0000
# 2 4.5133 51.5334 15.3831 0.0000 -17.5482 0.0000
# 3 27.0469 15.3831 67.4164 0.0000 -6.6116 0.0000
# 4 0.0000 0.0000 0.0000 20.5504 0.0000 -7.2514
# 5 -4.2006 -17.5482 -6.6116 0.0000 41.6380 0.0000
# 6 0.0000 0.0000 0.0000 -7.2514 0.0000 13.0051
#
#
#
# Elastic Compliance Matrix: (Units=1/GPa)
#
#
# Indices 1 2 3 4 5 6 
#
# 1 0.013673 0.000742 -0.005576 0.000000 0.000807 0.000000
# 2 0.000742 0.023994 -0.004849 0.000000 0.009417 0.000000
# 3 -0.005576 -0.004849 0.018204 0.000000 0.000285 0.000000
# 4 0.000000 0.000000 0.000000 0.060580 0.000000 0.033778
# 5 0.000807 0.009417 0.000285 0.000000 0.028112 0.000000
# 6 0.000000 0.000000 0.000000 0.033778 0.000000 0.095727
#
#
# Mechanical properties :
#
#
# Convention : Reuss Voigt Hill
#
# Bulk Modulus (GPa) = 27.39316 33.00064 30.19690
# Shear Modulus (GPa) = 18.39422 25.45042 21.92232
#
# Velocity S-wave (km/s) = 3.05285 3.59097 3.33279
# Velocity P-wave (km/s) = 5.12893 5.82358 5.48726
#
# Compressibility (1/GPa) = 0.03650546
#
# Stress axis : x y z
#
# Youngs Moduli (GPa) = 73.13691 41.67697 54.93176
#
# Poissons Ratio (x) = -0.03090 0.30628
# Poissons Ratio (y) = -0.05423 0.26636
# Poissons Ratio (z) = 0.40778 0.20209
#
# Static dielectric constant tensor:
#      x y z
#    x 3.877940 0.000000 0.066480 
#    y 0.000000 3.277410 0.000000 
#    z 0.066480 0.000000 3.640590 
# 
# 
# High freq. dielectric constant tensor:
#      x y z
#    x 1.782350 0.000000 -0.003290 
#    y 0.000000 1.740880 0.000000 
#    z -0.003290 0.000000 1.771220 
# 
# From -- ./inp_files/165461.got.cif
#   From: 2010.06.25/outbox.cif.g09.slc.cpg/sg12_83_cif.got.tgz:165461.got - 2010.06.28 00:19:55.
