data_PCOD8083993
_publ_section_title
;
Structure prediction by ZEFSAII (Michael W. Deem and Ramdas Pophale) SiO2 
 PCOD8083993
Probable space group: C 2/M
;
_chemical_formula_sum "Si O2"
_cell_formula_units_Z 64
_cell_length_a 25.170608
_cell_length_b 16.366801
_cell_length_c 18.834855
_cell_angle_alpha 90.000000
_cell_angle_beta 26.109523
_cell_angle_gamma 90.000000
_cell_volume 3414.756444
_symmetry_space_group_name_H-M "C 2/M"
_symmetry_group_IT_number 12
_symmetry_cell_setting 'monoclinic'
loop_
_space_group_symop_operation_xyz
x,y,z
-x,y,-z
-x,-y,-z
x,-y,z
1/2+x,1/2+y,z
1/2-x,1/2+y,-z
1/2-x,1/2-y,-z
1/2+x,1/2-y,z
loop_
_atom_site_type_symbol
_atom_site_label
_atom_site_fract_x
_atom_site_fract_y
_atom_site_fract_z
Si Si1 0.854108 0.247502 0.431827
Si Si2 0.033913 0.140107 0.386915
Si Si3 0.790820 0.407808 0.910435
Si Si4 0.418271 0.835716 0.892046
Si Si5 0.889254 0.405846 0.081152
Si Si6 0.727386 0.773403 0.169734
Si Si7 0.702268 0.270437 0.346854
Si Si8 0.513122 0.411267 0.261030
O O1 0.750000 0.250000 0.500000
O O2 0.784416 0.265544 0.589869
O O3 0.949988 0.318734 0.299397
O O4 0.918576 0.158639 0.353327
O O5 0.162151 0.185263 0.240079
O O6 0.028605 0.079772 0.327417
O O7 0.000000 0.091271 0.500000
O O8 0.939381 0.213554 0.490735
O O9 0.830302 0.500000 0.844836
O O10 0.839486 0.386074 0.929671
O O11 0.842025 0.345189 0.789362
O O12 0.647703 0.395802 0.071866
O O13 0.427900 0.885439 0.953985
O O14 0.358476 0.746785 0.978682
O O15 0.849472 0.500000 0.132730
O O16 0.778366 0.353156 0.243893
O O17 0.000000 0.387026 0.000000
O O18 0.738852 0.794188 0.240473
O O19 0.465685 0.500000 0.290623
#
# Coordination Sequence:
#
# PCOD8083993 Si02
#       8
#     8   8   8   8   8   8   8   8
#     4  11  22  38  59  82 109 152 195 231 278 337
#     4   9  17  31  50  78 109 145 171 206 277 339
#     4  11  20  32  55  84 109 139 180 233 289 330
#     4  11  20  35  58  82 111 147 193 234 272 334
#     4  10  21  37  55  79 115 154 190 232 281 338
#     4  10  18  34  55  76 111 145 179 227 275 336
#     4   9  20  33  53  80 106 143 185 227 275 333
#     4  10  20  33  51  81 113 137 176 229 282 332
#
# _framework density 18.742186
#
# number of rings (size 3 to 8) (size 9 to 14) (size 15 to 20)
#    0.000    1.875    2.500    3.000    0.000    2.250 
#    0.000    1.250    0.000   10.875    0.000    1.750 
#    0.000    0.000    0.000    0.000    0.000    0.000 
#
# Total GULP energy -396492.401889 kJ/mol
# GULP energy per Si atom -12390.387559 kJ/mol
# Density = 1.869953 g / cm^3
# Si number density = 18.742186 Si / 1000 Ang^3
#
#
#
# Elastic Constant Matrix: (Units=GPa)
#
#
# Indices 1 2 3 4 5 6 
#
# 1 127.3975 41.7996 33.9950 0.0000 12.2217 0.0000
# 2 41.7996 68.3391 29.3019 0.0000 5.4611 0.0000
# 3 33.9950 29.3019 72.2572 -0.0001 12.2047 0.0000
# 4 0.0000 0.0000 -0.0001 17.9982 0.0000 -2.8706
# 5 12.2217 5.4611 12.2047 0.0000 29.6246 0.0000
# 6 0.0000 0.0000 0.0000 -2.8706 0.0000 16.0155
#
#
#
# Elastic Compliance Matrix: (Units=1/GPa)
#
#
# Indices 1 2 3 4 5 6 
#
# 1 0.010406 -0.005142 -0.002413 0.000000 -0.002351 0.000000
# 2 -0.005142 0.020257 -0.005936 0.000000 0.000833 0.000000
# 3 -0.002413 -0.005936 0.018303 0.000000 -0.005450 0.000000
# 4 0.000000 0.000000 0.000000 0.057196 0.000000 0.010252
# 5 -0.002351 0.000833 -0.005450 0.000000 0.036818 0.000000
# 6 0.000000 0.000000 0.000000 0.010252 0.000000 0.064277
#
#
# Mechanical properties :
#
#
# Convention : Reuss Voigt Hill
#
# Bulk Modulus (GPa) = 45.49102 53.13188 49.31145
# Shear Modulus (GPa) = 20.69819 23.58748 22.14284
#
# Velocity S-wave (km/s) = 3.32680 3.55142 3.44094
# Velocity P-wave (km/s) = 6.25152 6.72511 6.49263
#
# Compressibility (1/GPa) = 0.02198236
#
# Stress axis : x y z
#
# Youngs Moduli (GPa) = 96.09679 49.36615 54.63679
#
# Poissons Ratio (x) = 0.25385 0.13186
# Poissons Ratio (y) = 0.49415 0.32432
# Poissons Ratio (z) = 0.23192 0.29304
#
# Static dielectric constant tensor:
#      x y z
#    x 3.649740 0.000000 0.254470 
#    y 0.000000 3.128010 0.000000 
#    z 0.254470 0.000000 3.588610 
# 
# 
# High freq. dielectric constant tensor:
#      x y z
#    x 1.729830 0.000000 0.008540 
#    y 0.000000 1.695970 0.000000 
#    z 0.008540 0.000000 1.729790 
# 
# From -- ./inp_files/290446.got.cif
#   From: 2010.06.25/outbox.cif.g09.slc.cpg/sg12_146_cif.got.tgz:290446.got - 2010.06.28 00:19:55.
