data_PCOD8083705
_publ_section_title
;
Structure prediction by ZEFSAII (Michael W. Deem and Ramdas Pophale) SiO2 
 PCOD8083705
Probable space group: C 2/M
;
_chemical_formula_sum "Si O2"
_cell_formula_units_Z 40
_cell_length_a 16.979109
_cell_length_b 16.905743
_cell_length_c 9.164551
_cell_angle_alpha 90.000000
_cell_angle_beta 57.034348
_cell_angle_gamma 90.000000
_cell_volume 2207.093431
_symmetry_space_group_name_H-M "C 2/M"
_symmetry_group_IT_number 12
_symmetry_cell_setting 'monoclinic'
loop_
_space_group_symop_operation_xyz
x,y,z
-x,y,-z
-x,-y,-z
x,-y,z
1/2+x,1/2+y,z
1/2-x,1/2+y,-z
1/2-x,1/2-y,-z
1/2+x,1/2-y,z
loop_
_atom_site_type_symbol
_atom_site_label
_atom_site_fract_x
_atom_site_fract_y
_atom_site_fract_z
Si Si1 0.851072 0.411093 0.837979
Si Si2 0.339937 0.767766 0.315925
Si Si3 0.525884 0.244778 0.312848
Si Si4 0.314648 0.307589 0.027528
Si Si5 0.604068 0.086648 0.880473
O O1 0.876518 0.500000 0.751383
O O2 0.927801 0.343667 0.718280
O O3 0.745160 0.388456 0.892209
O O4 0.844613 0.415737 0.017769
O O5 0.250000 0.750000 0.500000
O O6 0.431911 0.752097 0.315222
O O7 0.341759 0.721859 0.160992
O O8 0.334250 0.861222 0.289920
O O9 0.500000 0.274986 0.500000
O O10 0.591750 0.310014 0.166252
O O11 0.250000 0.250000 0.000000
O O12 0.594467 0.000000 0.819169
O O13 0.500000 0.124793 0.000000
#
# Coordination Sequence:
#
# PCOD8083705 Si02
#       5
#     8   8   8   8   8
#     4  10  20  35  58  84 114 147 181 230 287 334
#     4  12  21  34  56  83 114 151 190 231 275 331
#     4  11  22  35  56  85 112 147 187 231 281 329
#     4  10  19  36  55  79 114 145 185 227 274 335
#     4  10  18  33  56  82 113 148 183 228 283 336
#
# _framework density 18.123381999999999
#
# number of rings (size 3 to 8) (size 9 to 14) (size 15 to 20)
#    0.000    1.400    6.000    3.000    0.000    0.400 
#    0.000    3.000    0.000    4.200    0.000    0.000 
#    0.000    0.000    0.000    0.000    0.000    0.000 
#
# Total GULP energy -247761.838734 kJ/mol
# GULP energy per Si atom -12388.091937 kJ/mol
# Density = 1.808213 g / cm^3
# Si number density = 18.123382 Si / 1000 Ang^3
#
#
#
# Elastic Constant Matrix: (Units=GPa)
#
#
# Indices 1 2 3 4 5 6 
#
# 1 127.4748 38.0890 53.0456 0.0000 0.1670 0.0000
# 2 38.0890 61.9462 34.0412 0.0000 -10.2070 0.0000
# 3 53.0456 34.0412 134.4464 0.0000 -4.9344 0.0000
# 4 0.0000 0.0000 0.0000 21.3735 0.0000 -3.3075
# 5 0.1670 -10.2070 -4.9344 0.0000 36.2542 0.0000
# 6 0.0000 0.0000 0.0000 -3.3075 0.0000 22.9247
#
#
#
# Elastic Compliance Matrix: (Units=1/GPa)
#
#
# Indices 1 2 3 4 5 6 
#
# 1 0.010637 -0.005242 -0.002940 0.000000 -0.001925 0.000000
# 2 -0.005242 0.022152 -0.003327 0.000000 0.005808 0.000000
# 3 -0.002940 -0.003327 0.009454 0.000000 0.000363 0.000000
# 4 0.000000 0.000000 0.000000 0.047855 0.000000 0.006904
# 5 -0.001925 0.005808 0.000363 0.000000 0.029276 0.000000
# 6 0.000000 0.000000 0.000000 0.006904 0.000000 0.044617
#
#
# Mechanical properties :
#
#
# Convention : Reuss Voigt Hill
#
# Bulk Modulus (GPa) = 52.01978 63.80212 57.91095
# Shear Modulus (GPa) = 25.85075 29.35658 27.60366
#
# Velocity S-wave (km/s) = 3.78084 4.02906 3.90692
# Velocity P-wave (km/s) = 6.91557 7.54488 7.23707
#
# Compressibility (1/GPa) = 0.01922346
#
# Stress axis : x y z
#
# Youngs Moduli (GPa) = 94.01184 45.14359 105.77773
#
# Poissons Ratio (x) = 0.23663 0.31101
# Poissons Ratio (y) = 0.49279 0.35196
# Poissons Ratio (z) = 0.27642 0.15021
#
# Static dielectric constant tensor:
#      x y z
#    x 3.536420 0.000000 0.111900 
#    y 0.000000 3.611340 0.000000 
#    z 0.111900 0.000000 3.148740 
# 
# 
# High freq. dielectric constant tensor:
#      x y z
#    x 1.718030 0.000000 0.004310 
#    y 0.000000 1.671980 0.000000 
#    z 0.004310 0.000000 1.693120 
# 
# From -- ./inp_files/60840.got.cif
#   From: 2010.06.25/outbox.cif.g09.slc.cpg/sg12_31_cif.got.tgz:60840.got - 2010.06.28 00:19:55.
