data_PCOD8083753
_publ_section_title
;
Structure prediction by ZEFSAII (Michael W. Deem and Ramdas Pophale) SiO2 
 PCOD8083753
Probable space group: C 2/M
;
_chemical_formula_sum "Si O2"
_cell_formula_units_Z 48
_cell_length_a 18.713614
_cell_length_b 13.848307
_cell_length_c 23.576948
_cell_angle_alpha 90.000000
_cell_angle_beta 156.061731
_cell_angle_gamma 90.000000
_cell_volume 2479.149746
_symmetry_space_group_name_H-M "C 2/M"
_symmetry_group_IT_number 12
_symmetry_cell_setting 'monoclinic'
loop_
_space_group_symop_operation_xyz
x,y,z
-x,y,-z
-x,-y,-z
x,-y,z
1/2+x,1/2+y,z
1/2-x,1/2+y,-z
1/2-x,1/2-y,-z
1/2+x,1/2-y,z
loop_
_atom_site_type_symbol
_atom_site_label
_atom_site_fract_x
_atom_site_fract_y
_atom_site_fract_z
Si Si1 0.700775 0.111250 0.350495
Si Si2 0.422872 0.276461 0.591098
Si Si3 0.917556 0.689242 0.854251
Si Si4 0.418646 0.892965 0.242023
Si Si5 0.250773 0.386110 0.155020
Si Si6 0.982804 0.106498 0.054443
O O1 0.864996 0.179539 0.488432
O O2 0.646867 0.136391 0.248242
O O3 0.537525 0.130439 0.273701
O O4 0.762066 0.000000 0.397842
O O5 0.250000 0.250000 0.500000
O O6 0.538054 0.177834 0.673340
O O7 0.547977 0.355751 0.713501
O O8 0.791534 0.656291 0.813633
O O9 0.908276 0.805725 0.838313
O O10 0.118824 0.659032 0.013188
O O11 0.453931 0.000000 0.291196
O O12 0.220707 0.881209 0.076617
O O13 0.227641 0.500000 0.137773
O O14 0.051402 0.000000 0.124255
O O15 0.000000 0.116086 0.000000
#
# Coordination Sequence:
#
# PCOD8083753 Si02
#       6
#     8   8   8   8   8   8
#     4  10  21  35  54  82 118 151 187 234 294 349
#     4  10  20  37  55  78 107 153 192 231 278 339
#     4  11  20  36  57  87 118 151 186 238 296 341
#     4   9  18  35  56  78 106 147 193 237 285 339
#     4  11  21  36  58  84 117 150 194 235 283 347
#     4  10  18  33  57  81 106 145 194 239 281 334
#
# _framework density 19.361477000000001
#
# number of rings (size 3 to 8) (size 9 to 14) (size 15 to 20)
#    0.000    1.833    3.333    2.500    0.000    2.000 
#    0.000    2.500    0.000    1.000    0.000    5.833 
#    0.000    0.000    0.000    0.000    0.000    0.000 
#
# Total GULP energy -297419.590372 kJ/mol
# GULP energy per Si atom -12392.482932 kJ/mol
# Density = 1.931741 g / cm^3
# Si number density = 19.361477 Si / 1000 Ang^3
#
#
#
# Elastic Constant Matrix: (Units=GPa)
#
#
# Indices 1 2 3 4 5 6 
#
# 1 27.1252 27.7746 23.4905 0.0128 -8.9858 0.0018
# 2 27.7746 144.8992 18.8223 0.0144 -10.5883 0.0017
# 3 23.4905 18.8223 66.9068 0.0417 -12.7948 0.0045
# 4 0.0128 0.0144 0.0417 36.5297 0.0099 -1.4738
# 5 -8.9858 -10.5883 -12.7948 0.0099 31.8002 0.0013
# 6 0.0018 0.0017 0.0045 -1.4738 0.0013 24.8202
#
#
#
# Elastic Compliance Matrix: (Units=1/GPa)
#
#
# Indices 1 2 3 4 5 6 
#
# 1 0.065522 -0.009546 -0.018835 0.000000 0.007758 -0.000001
# 2 -0.009546 0.008640 0.001035 -0.000001 0.000596 0.000000
# 3 -0.018835 0.001035 0.022010 -0.000020 0.003878 -0.000004
# 4 0.000000 -0.000001 -0.000020 0.027441 -0.000017 0.001629
# 5 0.007758 0.000596 0.003878 -0.000017 0.035397 -0.000004
# 6 -0.000001 0.000000 -0.000004 0.001629 -0.000004 0.040387
#
#
# Mechanical properties :
#
#
# Convention : Reuss Voigt Hill
#
# Bulk Modulus (GPa) = 24.10867 42.12291 33.11579
# Shear Modulus (GPa) = 18.66265 29.88627 24.27446
#
# Velocity S-wave (km/s) = 3.10805 3.93312 3.54468
# Velocity P-wave (km/s) = 5.03576 6.51377 5.82186
#
# Compressibility (1/GPa) = 0.04147886
#
# Stress axis : x y z
#
# Youngs Moduli (GPa) = 15.26213 115.73759 45.43476
#
# Poissons Ratio (x) = 1.10481 0.85578
# Poissons Ratio (y) = 0.14569 -0.04701
# Poissons Ratio (z) = 0.28747 -0.11976
#
# Static dielectric constant tensor:
#      x y z
#    x 3.323220 0.000000 0.277320 
#    y 0.000000 4.142460 -0.000030 
#    z 0.277320 -0.000030 3.656980 
# 
# 
# High freq. dielectric constant tensor:
#      x y z
#    x 1.723620 0.000000 0.026410 
#    y 0.000000 1.779250 0.000000 
#    z 0.026410 0.000000 1.739970 
# 
# From -- ./inp_files/347556.got.cif
#   From: 2010.06.25/outbox.cif.g09.slc.cpg/sg12_174_cif.got.tgz:347556.got - 2010.06.28 00:19:55.
