data_PCOD8083241
_publ_section_title
;
Structure prediction by ZEFSAII (Michael W. Deem and Ramdas Pophale) SiO2 
 PCOD8083241
Probable space group: C 2/M
;
_chemical_formula_sum "Si O2"
_cell_formula_units_Z 44
_cell_length_a 17.761325
_cell_length_b 14.102921
_cell_length_c 19.142789
_cell_angle_alpha 90.000000
_cell_angle_beta 33.375546
_cell_angle_gamma 90.000000
_cell_volume 2637.852663
_symmetry_space_group_name_H-M "C 2/M"
_symmetry_group_IT_number 12
_symmetry_cell_setting 'monoclinic'
loop_
_space_group_symop_operation_xyz
x,y,z
-x,y,-z
-x,-y,-z
x,-y,z
1/2+x,1/2+y,z
1/2-x,1/2+y,-z
1/2-x,1/2-y,-z
1/2+x,1/2-y,z
loop_
_atom_site_type_symbol
_atom_site_label
_atom_site_fract_x
_atom_site_fract_y
_atom_site_fract_z
Si Si1 0.257555 0.500000 0.512075
Si Si2 0.856364 0.000000 0.028377
Si Si3 0.946150 0.500000 0.715210
Si Si4 0.688182 0.296695 0.745234
Si Si5 0.800104 0.202124 0.531412
Si Si6 0.047900 0.676962 0.388983
Si Si7 0.870430 0.000000 0.267185
Si Si8 0.500000 0.654827 0.000000
O O1 0.310389 0.590017 0.514151
O O2 0.331018 0.500000 0.379464
O O3 0.091289 0.500000 0.642810
O O4 0.879173 0.909952 0.061496
O O5 0.695412 0.000000 0.128430
O O6 0.964543 0.000000 0.878813
O O7 0.942694 0.593921 0.672977
O O8 0.690344 0.227453 0.677101
O O9 0.807970 0.273097 0.707499
O O10 0.697412 0.406816 0.713696
O O11 0.551928 0.279543 0.896097
O O12 0.750000 0.250000 0.500000
O O13 0.947311 0.241863 0.438745
O O14 0.000000 0.633605 0.500000
#
# Coordination Sequence:
#
# PCOD8083241 Si02
#       8
#     4   4   4   8   8   8   4   4
#     4  12  22  36  56  72 110 146 176 216 263 316
#     4   9  18  27  48  86 116 132 161 207 283 331
#     4  12  17  29  54  81 111 133 166 227 267 313
#     4  10  18  32  55  79 106 136 175 217 261 317
#     4  11  21  35  50  79 105 139 177 219 263 319
#     4  10  19  30  49  78 106 131 176 220 262 305
#     4  10  18  32  56  83 115 140 159 216 279 330
#     4   9  16  30  50  77 114 140 162 209 272 335
#
# _framework density 16.680233999999999
#
# number of rings (size 3 to 8) (size 9 to 14) (size 15 to 20)
#    0.000    1.636    5.455    2.455    0.000    0.000 
#    0.000    4.091    4.000    4.909    0.000    0.000 
#    0.000    0.000    0.000    0.000    0.000    0.000 
#
# Total GULP energy -272568.748681 kJ/mol
# GULP energy per Si atom -12389.488576 kJ/mol
# Density = 1.664227 g / cm^3
# Si number density = 16.680234 Si / 1000 Ang^3
#
#
#
# Elastic Constant Matrix: (Units=GPa)
#
#
# Indices 1 2 3 4 5 6 
#
# 1 76.7174 41.2620 47.8022 -0.0004 -0.8152 0.0001
# 2 41.2620 93.4901 49.2991 0.0004 7.9890 -0.0003
# 3 47.8022 49.2991 125.8165 0.0005 3.1586 -0.0006
# 4 -0.0004 0.0004 0.0005 15.6305 0.0001 10.4157
# 5 -0.8152 7.9890 3.1586 0.0001 27.0453 0.0000
# 6 0.0001 -0.0003 -0.0006 10.4157 0.0000 25.8328
#
#
#
# Elastic Compliance Matrix: (Units=1/GPa)
#
#
# Indices 1 2 3 4 5 6 
#
# 1 0.019576 -0.006221 -0.005076 0.000001 0.003021 -0.000001
# 2 -0.006221 0.015774 -0.003706 -0.000001 -0.004414 0.000000
# 3 -0.005076 -0.003706 0.011338 -0.000001 -0.000382 0.000001
# 4 0.000001 -0.000001 -0.000001 0.087482 0.000000 -0.035273
# 5 0.003021 -0.004414 -0.000382 0.000000 0.038415 0.000000
# 6 -0.000001 0.000000 0.000001 -0.035273 0.000000 0.052932
#
#
# Mechanical properties :
#
#
# Convention : Reuss Voigt Hill
#
# Bulk Modulus (GPa) = 59.94697 63.63894 61.79296
# Shear Modulus (GPa) = 19.15099 24.21243 21.68171
#
# Velocity S-wave (km/s) = 3.39208 3.81407 3.60925
# Velocity P-wave (km/s) = 7.16649 7.59153 7.38207
#
# Compressibility (1/GPa) = 0.01668141
#
# Stress axis : x y z
#
# Youngs Moduli (GPa) = 51.08384 63.39692 88.19713
#
# Poissons Ratio (x) = 0.39442 0.44765
# Poissons Ratio (y) = 0.31781 0.32687
# Poissons Ratio (z) = 0.25928 0.23495
#
# Static dielectric constant tensor:
#      x y z
#    x 3.166840 0.000000 -0.076620 
#    y 0.000000 3.055070 0.000000 
#    z -0.076620 0.000000 3.433700 
# 
# 
# High freq. dielectric constant tensor:
#      x y z
#    x 1.624890 0.000000 -0.004370 
#    y 0.000000 1.611080 0.000000 
#    z -0.004370 0.000000 1.652070 
# 
# From -- ./inp_files/176021.got.cif
#   From: 2010.06.25/outbox.cif.g09.slc.cpg/sg12_89_cif.got.tgz:176021.got - 2010.06.28 00:19:55.
