data_PCOD8083007
_publ_section_title
;
Structure prediction by ZEFSAII (Michael W. Deem and Ramdas Pophale) SiO2 
 PCOD8083007
Probable space group: C 2/M
;
_chemical_formula_sum "Si O2"
_cell_formula_units_Z 52
_cell_length_a 13.796237
_cell_length_b 10.102820
_cell_length_c 24.977393
_cell_angle_alpha 90.000000
_cell_angle_beta 56.553982
_cell_angle_gamma 90.000000
_cell_volume 2904.875406
_symmetry_space_group_name_H-M "C 2/M"
_symmetry_group_IT_number 12
_symmetry_cell_setting 'monoclinic'
loop_
_space_group_symop_operation_xyz
x,y,z
-x,y,-z
-x,-y,-z
x,-y,z
1/2+x,1/2+y,z
1/2-x,1/2+y,-z
1/2-x,1/2-y,-z
1/2+x,1/2-y,z
loop_
_atom_site_type_symbol
_atom_site_label
_atom_site_fract_x
_atom_site_fract_y
_atom_site_fract_z
Si Si1 0.199081 0.844197 0.807243
Si Si2 0.603549 0.850959 0.575942
Si Si3 0.244761 0.351992 0.888217
Si Si4 0.500000 0.210082 0.000000
Si Si5 0.343062 0.153093 0.663559
Si Si6 0.285901 0.848018 0.565482
Si Si7 0.440255 0.651682 0.909541
O O1 0.250235 0.756006 0.839614
O O2 0.260364 0.788535 0.734904
O O3 0.061399 0.821690 0.841680
O O4 0.226558 0.000000 0.810022
O O5 0.476339 0.822614 0.637580
O O6 0.608648 0.838211 0.509494
O O7 0.679733 0.738969 0.578709
O O8 0.643823 0.000000 0.579762
O O9 0.286405 0.500000 0.857269
O O10 0.331654 0.293387 0.907615
O O11 0.111682 0.373593 0.947863
O O12 0.551247 0.293826 0.033342
O O13 0.321223 0.214969 0.611695
O O14 0.314537 0.000000 0.667433
O O15 0.244505 0.000000 0.583042
O O16 0.414712 0.500000 0.925812
#
# Coordination Sequence:
#
# PCOD8083007 Si02
#       7
#     8   8   8   4   8   8   8
#     4   9  19  35  51  69  94 128 168 201 231 281
#     4   9  17  30  48  71  98 125 157 200 246 289
#     4  10  20  34  51  74 102 128 155 195 243 283
#     4  10  18  32  52  76  99 126 159 194 231 284
#     4   9  17  31  51  70  92 127 167 200 235 285
#     4   9  17  30  49  72  96 125 161 200 242 288
#     4   9  18  32  51  73  98 127 159 196 237 280
#
# _framework density 17.900939000000001
#
# number of rings (size 3 to 8) (size 9 to 14) (size 15 to 20)
#    0.000    2.769    0.000    1.385    0.000    3.692 
#    0.000    7.692    0.000    3.692    0.000    0.000 
#    0.000    0.000    0.000    0.000    0.000    0.000 
#
# Total GULP energy -322123.751203 kJ/mol
# GULP energy per Si atom -12389.375046 kJ/mol
# Density = 1.786020 g / cm^3
# Si number density = 17.900939 Si / 1000 Ang^3
#
#
#
# Elastic Constant Matrix: (Units=GPa)
#
#
# Indices 1 2 3 4 5 6 
#
# 1 94.2019 32.0369 36.7418 0.0000 8.9810 0.0000
# 2 32.0369 53.7618 27.8894 0.0000 3.5766 0.0000
# 3 36.7418 27.8894 98.5075 0.0000 -2.3105 0.0000
# 4 0.0000 0.0000 0.0000 12.6814 0.0000 0.4142
# 5 8.9810 3.5766 -2.3105 0.0000 21.1260 0.0000
# 6 0.0000 0.0000 0.0000 0.4142 0.0000 21.3924
#
#
#
# Elastic Compliance Matrix: (Units=1/GPa)
#
#
# Indices 1 2 3 4 5 6 
#
# 1 0.014855 -0.006487 -0.003836 0.000000 -0.005637 0.000000
# 2 -0.006487 0.025047 -0.004719 0.000000 -0.001999 0.000000
# 3 -0.003836 -0.004719 0.013009 0.000000 0.003853 0.000000
# 4 0.000000 0.000000 0.000000 0.078906 0.000000 -0.001528
# 5 -0.005637 -0.001999 0.003853 0.000000 0.050491 0.000000
# 6 0.000000 0.000000 0.000000 -0.001528 0.000000 0.046775
#
#
# Mechanical properties :
#
#
# Convention : Reuss Voigt Hill
#
# Bulk Modulus (GPa) = 43.80811 48.86750 46.33780
# Shear Modulus (GPa) = 18.74230 21.02684 19.88457
#
# Velocity S-wave (km/s) = 3.23925 3.43099 3.33650
# Velocity P-wave (km/s) = 6.20612 6.56154 6.38630
#
# Compressibility (1/GPa) = 0.02282683
#
# Stress axis : x y z
#
# Youngs Moduli (GPa) = 67.31548 39.92474 76.87160
#
# Poissons Ratio (x) = 0.25900 0.29491
# Poissons Ratio (y) = 0.43669 0.36272
# Poissons Ratio (z) = 0.25825 0.18839
#
# Static dielectric constant tensor:
#      x y z
#    x 3.348240 0.000000 0.043300 
#    y 0.000000 3.093420 0.000000 
#    z 0.043300 0.000000 3.631720 
# 
# 
# High freq. dielectric constant tensor:
#      x y z
#    x 1.691420 0.000000 -0.002750 
#    y 0.000000 1.672700 0.000000 
#    z -0.002750 0.000000 1.695040 
# 
# From -- ./inp_files/268132.got.cif
#   From: 2010.06.25/outbox.cif.g09.slc.cpg/sg12_135_cif.got.tgz:268132.got - 2010.06.28 00:19:55.
