data_PCOD8083351
_publ_section_title
;
Structure prediction by ZEFSAII (Michael W. Deem and Ramdas Pophale) SiO2 
 PCOD8083351
Probable space group: C 2/M
;
_chemical_formula_sum "Si O2"
_cell_formula_units_Z 56
_cell_length_a 23.907032
_cell_length_b 8.642721
_cell_length_c 15.120923
_cell_angle_alpha 90.000000
_cell_angle_beta 60.985276
_cell_angle_gamma 90.000000
_cell_volume 2732.195892
_symmetry_space_group_name_H-M "C 2/M"
_symmetry_group_IT_number 12
_symmetry_cell_setting 'monoclinic'
loop_
_space_group_symop_operation_xyz
x,y,z
-x,y,-z
-x,-y,-z
x,-y,z
1/2+x,1/2+y,z
1/2-x,1/2+y,-z
1/2-x,1/2-y,-z
1/2+x,1/2-y,z
loop_
_atom_site_type_symbol
_atom_site_label
_atom_site_fract_x
_atom_site_fract_y
_atom_site_fract_z
Si Si1 0.239170 0.179754 0.779889
Si Si2 0.933312 0.318158 0.813611
Si Si3 0.133470 0.822602 0.291692
Si Si4 0.192439 0.682269 0.984954
Si Si5 0.288319 0.816019 0.386271
Si Si6 0.932266 0.672953 0.506555
Si Si7 0.928637 0.318440 0.310438
O O1 0.306573 0.212627 0.776498
O O2 0.188572 0.249774 0.888353
O O3 0.241723 0.263800 0.683308
O O4 0.226095 0.000000 0.776299
O O5 0.932285 0.500000 0.792170
O O6 0.923031 0.225558 0.730687
O O7 0.005448 0.270667 0.792141
O O8 0.877649 0.272334 0.924305
O O9 0.112733 0.793389 0.408274
O O10 0.153269 0.000000 0.263572
O O11 0.202415 0.500000 0.973693
O O12 0.250000 0.750000 0.000000
O O13 0.250000 0.750000 0.500000
O O14 0.361587 0.749116 0.326480
O O15 0.285907 0.000000 0.395551
O O16 0.901540 0.500000 0.531989
O O17 0.937983 0.736673 0.403627
O O18 0.000000 0.667600 0.500000
O O19 0.920802 0.500000 0.310976
#
# Coordination Sequence:
#
# PCOD8083351 Si02
#       7
#     8   8   8   8   8   8   8
#     4  12  25  42  63  86 121 167 214 261 313 371
#     4  10  20  38  61  87 120 160 199 241 306 380
#     4  12  23  34  54  87 124 156 199 256 313 367
#     4  11  22  37  63  95 127 161 204 257 315 376
#     4  11  23  42  67  94 125 163 212 261 308 369
#     4  10  18  32  56  83 118 159 199 238 297 378
#     4   9  19  37  61  87 117 160 205 249 301 369
#
# _framework density 20.496334000000001
#
# number of rings (size 3 to 8) (size 9 to 14) (size 15 to 20)
#    0.000    1.286    2.857    4.286    0.000    2.000 
#    0.000    2.857    0.000    4.286    0.000    0.000 
#    0.000    0.000    0.000    0.000    0.000    0.000 
#
# Total GULP energy -347034.026109 kJ/mol
# GULP energy per Si atom -12394.072361 kJ/mol
# Density = 2.044968 g / cm^3
# Si number density = 20.496334 Si / 1000 Ang^3
#
#
#
# Elastic Constant Matrix: (Units=GPa)
#
#
# Indices 1 2 3 4 5 6 
#
# 1 93.9928 27.7211 42.1290 0.0000 -20.6435 0.0000
# 2 27.7211 81.7819 41.0401 0.0000 -7.0578 -0.0001
# 3 42.1290 41.0401 125.2844 0.0000 -16.7710 0.0000
# 4 0.0000 0.0000 0.0000 33.3668 0.0000 0.6876
# 5 -20.6435 -7.0578 -16.7710 0.0000 38.8984 0.0000
# 6 0.0000 -0.0001 0.0000 0.6876 0.0000 21.3304
#
#
#
# Elastic Compliance Matrix: (Units=1/GPa)
#
#
# Indices 1 2 3 4 5 6 
#
# 1 0.014064 -0.002736 -0.003078 0.000000 0.005641 0.000000
# 2 -0.002736 0.015180 -0.004116 0.000000 -0.000472 0.000000
# 3 -0.003078 -0.004116 0.010662 0.000000 0.002216 0.000000
# 4 0.000000 0.000000 0.000000 0.029990 0.000000 -0.000967
# 5 0.005641 -0.000472 0.002216 0.000000 0.029571 0.000000
# 6 0.000000 0.000000 0.000000 -0.000967 0.000000 0.046913
#
#
# Mechanical properties :
#
#
# Convention : Reuss Voigt Hill
#
# Bulk Modulus (GPa) = 49.88408 58.09327 53.98868
# Shear Modulus (GPa) = 28.91489 31.39706 30.15598
#
# Velocity S-wave (km/s) = 3.76005 3.91812 3.83990
# Velocity P-wave (km/s) = 6.57583 6.99097 6.78657
#
# Compressibility (1/GPa) = 0.02004647
#
# Stress axis : x y z
#
# Youngs Moduli (GPa) = 71.10103 65.87785 93.79254
#
# Poissons Ratio (x) = 0.18023 0.28871
# Poissons Ratio (y) = 0.19452 0.38602
# Poissons Ratio (z) = 0.21886 0.27113
#
# Static dielectric constant tensor:
#      x y z
#    x 3.887830 0.000000 -0.274390 
#    y 0.000000 3.535290 0.000000 
#    z -0.274390 0.000000 3.981090 
# 
# 
# High freq. dielectric constant tensor:
#      x y z
#    x 1.793660 0.000000 -0.017970 
#    y 0.000000 1.783830 0.000000 
#    z -0.017970 0.000000 1.805970 
# 
# From -- ./inp_files/238406.got.cif
#   From: 2010.06.25/outbox.cif.g09.slc.cpg/sg12_120_cif.got.tgz:238406.got - 2010.06.28 00:19:55.
