data_PCOD8083765
_publ_section_title
;
Structure prediction by ZEFSAII (Michael W. Deem and Ramdas Pophale) SiO2 
 PCOD8083765
Probable space group: C 2/M
;
_chemical_formula_sum "Si O2"
_cell_formula_units_Z 64
_cell_length_a 18.866338
_cell_length_b 8.903932
_cell_length_c 21.173578
_cell_angle_alpha 90.000000
_cell_angle_beta 73.999820
_cell_angle_gamma 90.000000
_cell_volume 3419.046003
_symmetry_space_group_name_H-M "C 2/M"
_symmetry_group_IT_number 12
_symmetry_cell_setting 'monoclinic'
loop_
_space_group_symop_operation_xyz
x,y,z
-x,y,-z
-x,-y,-z
x,-y,z
1/2+x,1/2+y,z
1/2-x,1/2+y,-z
1/2-x,1/2-y,-z
1/2+x,1/2-y,z
loop_
_atom_site_type_symbol
_atom_site_label
_atom_site_fract_x
_atom_site_fract_y
_atom_site_fract_z
Si Si1 0.397980 0.671736 0.818916
Si Si2 0.558767 0.676963 0.776742
Si Si3 0.872856 0.177203 0.370014
Si Si4 0.198667 0.827988 0.273020
Si Si5 0.817223 0.174955 0.161239
Si Si6 0.759978 0.178601 0.929850
Si Si7 0.070527 0.324624 0.522185
Si Si8 0.205098 0.674775 0.399578
O O1 0.405275 0.500000 0.837838
O O2 0.477677 0.751144 0.805537
O O3 0.373967 0.686821 0.752062
O O4 0.336253 0.741919 0.880784
O O5 0.551204 0.500000 0.767881
O O6 0.599682 0.741444 0.704460
O O7 0.602349 0.712143 0.830486
O O8 0.924958 0.246248 0.411032
O O9 0.787228 0.224563 0.400403
O O10 0.881087 0.000000 0.371961
O O11 0.261267 0.720708 0.230005
O O12 0.177913 0.772895 0.347361
O O13 0.226804 0.000000 0.266505
O O14 0.806216 0.269184 0.099849
O O15 0.807554 0.000000 0.148168
O O16 0.758524 0.000000 0.934770
O O17 0.750000 0.250000 0.000000
O O18 0.059784 0.500000 0.536461
O O19 0.147382 0.288657 0.468619
O O20 0.000000 0.262701 0.500000
O O21 0.203735 0.500000 0.380896
#
# Coordination Sequence:
#
# PCOD8083765 Si02
#       8
#     8   8   8   8   8   8   8   8
#     4   8  17  32  51  78 109 137 173 220 259 302
#     4   9  17  32  54  80 109 137 172 221 270 313
#     4  10  20  35  56  78 100 136 182 224 265 319
#     4  10  19  31  52  80 106 136 177 222 264 312
#     4  10  18  33  57  82 111 143 174 214 265 315
#     4  10  20  36  58  83 112 146 184 220 256 306
#     4  10  23  39  52  72 107 142 174 222 282 334
#     4  10  20  36  54  73 102 138 179 221 270 327
#
# _framework density 18.718672000000002
#
# number of rings (size 3 to 8) (size 9 to 14) (size 15 to 20)
#    0.000    2.375    1.250    2.250    1.750    1.250 
#    0.000    0.625    0.000   13.500    0.000    0.000 
#    0.000    0.000    0.000    0.000    0.000    0.000 
#
# Total GULP energy -396727.582601 kJ/mol
# GULP energy per Si atom -12397.736956 kJ/mol
# Density = 1.867607 g / cm^3
# Si number density = 18.718672 Si / 1000 Ang^3
#
#
#
# Elastic Constant Matrix: (Units=GPa)
#
#
# Indices 1 2 3 4 5 6 
#
# 1 136.2283 31.1238 56.6803 0.0000 10.3764 0.0000
# 2 31.1238 46.7758 36.7772 0.0000 7.7576 0.0000
# 3 56.6803 36.7772 123.0545 0.0000 16.0614 0.0000
# 4 0.0000 0.0000 0.0000 32.1427 0.0000 7.8216
# 5 10.3764 7.7576 16.0614 0.0000 20.9218 0.0000
# 6 0.0000 0.0000 0.0000 7.8216 0.0000 19.2244
#
#
#
# Elastic Compliance Matrix: (Units=1/GPa)
#
#
# Indices 1 2 3 4 5 6 
#
# 1 0.009586 -0.003722 -0.003181 0.000000 -0.000932 0.000000
# 2 -0.003722 0.029758 -0.006646 0.000000 -0.004086 0.000000
# 3 -0.003181 -0.006646 0.012281 0.000000 -0.005386 0.000000
# 4 0.000000 0.000000 0.000000 0.034530 0.000000 -0.014049
# 5 -0.000932 -0.004086 -0.005386 0.000000 0.053909 0.000000
# 6 0.000000 0.000000 0.000000 -0.014049 0.000000 0.057733
#
#
# Mechanical properties :
#
#
# Convention : Reuss Voigt Hill
#
# Bulk Modulus (GPa) = 40.77309 61.69123 51.23216
# Shear Modulus (GPa) = 21.45264 26.55625 24.00444
#
# Velocity S-wave (km/s) = 3.38902 3.77065 3.58492
# Velocity P-wave (km/s) = 6.09453 7.21011 6.67566
#
# Compressibility (1/GPa) = 0.02452598
#
# Stress axis : x y z
#
# Youngs Moduli (GPa) = 104.32316 33.60399 81.42652
#
# Poissons Ratio (x) = 0.12509 0.25903
# Poissons Ratio (y) = 0.38834 0.54116
# Poissons Ratio (z) = 0.33186 0.22333
#
# Static dielectric constant tensor:
#      x y z
#    x 3.718310 0.000000 0.024520 
#    y 0.000000 3.191110 0.000000 
#    z 0.024520 0.000000 3.370000 
# 
# 
# High freq. dielectric constant tensor:
#      x y z
#    x 1.730190 0.000000 0.009990 
#    y 0.000000 1.702890 0.000000 
#    z 0.009990 0.000000 1.721700 
# 
# From -- ./inp_files/313999.got.cif
#   From: 2010.06.25/outbox.cif.g09.slc.cpg/sg12_157_cif.got.tgz:313999.got - 2010.06.28 00:19:55.
