data_PCOD8083143
_publ_section_title
;
Structure prediction by ZEFSAII (Michael W. Deem and Ramdas Pophale) SiO2 
 PCOD8083143
Probable space group: C 2/M
;
_chemical_formula_sum "Si O2"
_cell_formula_units_Z 64
_cell_length_a 20.030435
_cell_length_b 9.018222
_cell_length_c 25.578128
_cell_angle_alpha 90.000000
_cell_angle_beta 51.517074
_cell_angle_gamma 90.000000
_cell_volume 3616.823720
_symmetry_space_group_name_H-M "C 2/M"
_symmetry_group_IT_number 12
_symmetry_cell_setting 'monoclinic'
loop_
_space_group_symop_operation_xyz
x,y,z
-x,y,-z
-x,-y,-z
x,-y,z
1/2+x,1/2+y,z
1/2-x,1/2+y,-z
1/2-x,1/2-y,-z
1/2+x,1/2-y,z
loop_
_atom_site_type_symbol
_atom_site_label
_atom_site_fract_x
_atom_site_fract_y
_atom_site_fract_z
Si Si1 0.493933 0.174643 0.844614
Si Si2 0.669619 0.828258 0.804007
Si Si3 0.752860 0.172070 0.330303
Si Si4 0.572903 0.670745 0.709045
Si Si5 0.063396 0.675221 0.425111
Si Si6 0.179469 0.176963 0.070190
Si Si7 0.952988 0.827970 0.676129
Si Si8 0.800587 0.826476 0.822415
O O1 0.570341 0.216464 0.847757
O O2 0.519999 0.225318 0.773896
O O3 0.412272 0.264979 0.904416
O O4 0.474304 0.000000 0.853961
O O5 0.728344 0.748284 0.733531
O O6 0.707541 0.790088 0.842866
O O7 0.680079 0.000000 0.786187
O O8 0.826164 0.210651 0.337264
O O9 0.659443 0.223028 0.395251
O O10 0.751860 0.000000 0.318426
O O11 0.556511 0.500000 0.734011
O O12 0.540462 0.696852 0.666042
O O13 0.053908 0.500000 0.425413
O O14 0.037496 0.740597 0.382030
O O15 0.000000 0.739532 0.500000
O O16 0.194938 0.238944 0.121473
O O17 0.184255 0.000000 0.063704
O O18 0.250000 0.250000 0.000000
O O19 0.875046 0.762410 0.748805
O O20 0.937596 0.000000 0.670628
O O21 0.817015 0.000000 0.819384
#
# Coordination Sequence:
#
# PCOD8083143 Si02
#       8
#     8   8   8   8   8   8   8   8
#     4  10  19  31  51  79 106 133 166 205 255 308
#     4   9  17  31  52  77 102 128 165 213 254 297
#     4   9  17  30  49  72  99 134 170 206 254 308
#     4   9  17  31  51  75 101 130 168 214 258 299
#     4  10  21  35  49  71 106 142 171 208 262 314
#     4  11  22  38  56  76 106 141 174 210 255 304
#     4  10  18  32  54  77  99 129 173 216 253 299
#     4   9  17  32  54  77 101 131 168 212 255 295
#
# _framework density 17.695084000000001
#
# number of rings (size 3 to 8) (size 9 to 14) (size 15 to 20)
#    0.000    2.375    2.500    0.750    0.000    1.250 
#    0.000    2.500    0.000    3.750    0.000    0.000 
#    0.000    0.000    0.000    0.000    0.000    0.000 
#
# Total GULP energy -396680.479262 kJ/mol
# GULP energy per Si atom -12396.264977 kJ/mol
# Density = 1.765481 g / cm^3
# Si number density = 17.695084 Si / 1000 Ang^3
#
#
#
# Elastic Constant Matrix: (Units=GPa)
#
#
# Indices 1 2 3 4 5 6 
#
# 1 131.4232 30.5568 71.0408 -0.0001 -12.8338 -0.0001
# 2 30.5568 39.4887 33.9606 -0.0001 -8.2369 -0.0009
# 3 71.0408 33.9606 123.9598 0.0000 -11.1572 0.0000
# 4 -0.0001 -0.0001 0.0000 24.7267 0.0000 1.4877
# 5 -12.8338 -8.2369 -11.1572 0.0000 28.1888 0.0000
# 6 -0.0001 -0.0009 0.0000 1.4877 0.0000 22.8785
#
#
#
# Elastic Compliance Matrix: (Units=1/GPa)
#
#
# Indices 1 2 3 4 5 6 
#
# 1 0.011648 -0.003936 -0.005416 0.000000 0.002009 0.000000
# 2 -0.003936 0.035580 -0.006965 0.000000 0.005847 0.000001
# 3 -0.005416 -0.006965 0.013142 0.000000 0.000701 0.000000
# 4 0.000000 0.000000 0.000000 0.040601 0.000000 -0.002640
# 5 0.002009 0.005847 0.000701 0.000000 0.038376 0.000000
# 6 0.000000 0.000001 0.000000 -0.002640 0.000000 0.043881
#
#
# Mechanical properties :
#
#
# Convention : Reuss Voigt Hill
#
# Bulk Modulus (GPa) = 36.05633 62.88758 49.47196
# Shear Modulus (GPa) = 22.21148 25.77969 23.99558
#
# Velocity S-wave (km/s) = 3.54677 3.82106 3.68647
# Velocity P-wave (km/s) = 6.09865 7.42186 6.79255
#
# Compressibility (1/GPa) = 0.02773438
#
# Stress axis : x y z
#
# Youngs Moduli (GPa) = 85.85005 28.10592 76.08909
#
# Poissons Ratio (x) = 0.11064 0.41212
# Poissons Ratio (y) = 0.33794 0.52999
# Poissons Ratio (z) = 0.46499 0.19577
#
# Static dielectric constant tensor:
#      x y z
#    x 3.759290 0.000000 -0.165900 
#    y 0.000000 3.174690 0.000000 
#    z -0.165900 0.000000 3.153750 
# 
# 
# High freq. dielectric constant tensor:
#      x y z
#    x 1.703500 0.000000 -0.011870 
#    y 0.000000 1.671980 0.000000 
#    z -0.011870 0.000000 1.653190 
# 
# From -- ./inp_files/346005.got.cif
#   From: 2010.06.25/outbox.cif.g09.slc.cpg/sg12_174_cif.got.tgz:346005.got - 2010.06.28 00:19:55.
