data_PCOD8083339
_publ_section_title
;
Structure prediction by ZEFSAII (Michael W. Deem and Ramdas Pophale) SiO2 
 PCOD8083339
Probable space group: C 2/M
;
_chemical_formula_sum "Si O2"
_cell_formula_units_Z 56
_cell_length_a 19.858529
_cell_length_b 8.832114
_cell_length_c 28.317026
_cell_angle_alpha 90.000000
_cell_angle_beta 37.518259
_cell_angle_gamma 90.000000
_cell_volume 3024.731414
_symmetry_space_group_name_H-M "C 2/M"
_symmetry_group_IT_number 12
_symmetry_cell_setting 'monoclinic'
loop_
_space_group_symop_operation_xyz
x,y,z
-x,y,-z
-x,-y,-z
x,-y,z
1/2+x,1/2+y,z
1/2-x,1/2+y,-z
1/2-x,1/2-y,-z
1/2+x,1/2-y,z
loop_
_atom_site_type_symbol
_atom_site_label
_atom_site_fract_x
_atom_site_fract_y
_atom_site_fract_z
Si Si1 0.239471 0.822128 0.794682
Si Si2 0.082169 0.678058 0.807335
Si Si3 0.424119 0.321061 0.635219
Si Si4 0.776314 0.823169 0.631732
Si Si5 0.861927 0.820161 0.954244
Si Si6 0.679225 0.320770 0.496948
Si Si7 0.886240 0.178182 0.045376
O O1 0.140815 0.747811 0.820169
O O2 0.357995 0.753912 0.715251
O O3 0.215597 0.784203 0.862856
O O4 0.238381 0.000000 0.785241
O O5 0.068807 0.500000 0.821997
O O6 0.155872 0.713778 0.720014
O O7 0.963207 0.755321 0.866895
O O8 0.406990 0.500000 0.647685
O O9 0.372686 0.261596 0.613735
O O10 0.550777 0.273747 0.571837
O O11 0.781661 0.754491 0.575820
O O12 0.797774 0.000000 0.614522
O O13 0.861546 0.000000 0.950356
O O14 0.750000 0.750000 0.000000
O O15 0.866768 0.756360 0.004604
O O16 0.694414 0.500000 0.491649
O O17 0.750000 0.250000 0.500000
O O18 0.901999 0.000000 0.032607
O O19 0.000000 0.252645 0.000000
#
# Coordination Sequence:
#
# PCOD8083339 Si02
#       7
#     8   8   8   8   8   8   8
#     4  10  18  32  56  83 107 137 178 223 268 314
#     4  10  19  34  56  82 109 138 179 225 269 316
#     4   9  18  34  56  80 106 135 177 225 262 308
#     4   8  16  33  58  80  99 136 182 216 255 317
#     4  11  22  38  56  77 109 145 185 224 267 320
#     4  10  20  36  56  78 108 142 175 214 264 321
#     4   9  17  33  56  78 103 140 181 217 259 318
#
# _framework density 18.514040000000001
#
# number of rings (size 3 to 8) (size 9 to 14) (size 15 to 20)
#    0.000    2.429    1.429    2.571    0.000    2.286 
#    2.571    7.143    0.000    4.286    0.000    0.000 
#    0.000    0.000    0.000    0.000    0.000    0.000 
#
# Total GULP energy -347053.106037 kJ/mol
# GULP energy per Si atom -12394.753787 kJ/mol
# Density = 1.847190 g / cm^3
# Si number density = 18.514040 Si / 1000 Ang^3
#
#
#
# Elastic Constant Matrix: (Units=GPa)
#
#
# Indices 1 2 3 4 5 6 
#
# 1 133.1184 34.0903 91.3084 0.0001 -6.0642 -0.0008
# 2 34.0903 55.7093 52.0988 0.0005 -6.5865 -0.0016
# 3 91.3084 52.0988 156.1743 0.0001 -8.8761 0.0000
# 4 0.0001 0.0005 0.0001 30.7173 0.0000 -3.4987
# 5 -6.0642 -6.5865 -8.8761 0.0000 31.5689 0.0001
# 6 -0.0008 -0.0016 0.0000 -3.4987 0.0001 26.3182
#
#
#
# Elastic Compliance Matrix: (Units=1/GPa)
#
#
# Indices 1 2 3 4 5 6 
#
# 1 0.012597 -0.001173 -0.006962 0.000000 0.000218 0.000000
# 2 -0.001173 0.026490 -0.007978 0.000000 0.003059 0.000002
# 3 -0.006962 -0.007978 0.013174 0.000000 0.000703 -0.000001
# 4 0.000000 0.000000 0.000000 0.033055 0.000000 0.004394
# 5 0.000218 0.003059 0.000703 0.000000 0.032554 0.000000
# 6 0.000000 0.000002 -0.000001 0.004394 0.000000 0.038581
#
#
# Mechanical properties :
#
#
# Convention : Reuss Voigt Hill
#
# Bulk Modulus (GPa) = 49.90413 77.77744 63.84079
# Shear Modulus (GPa) = 25.59443 28.88786 27.24114
#
# Velocity S-wave (km/s) = 3.72214 3.95438 3.84002
# Velocity P-wave (km/s) = 6.74431 7.93414 7.36330
#
# Compressibility (1/GPa) = 0.02003842
#
# Stress axis : x y z
#
# Youngs Moduli (GPa) = 79.38128 37.75019 75.90451
#
# Poissons Ratio (x) = 0.04426 0.52842
# Poissons Ratio (y) = 0.09308 0.60553
# Poissons Ratio (z) = 0.55262 0.30115
#
# Static dielectric constant tensor:
#      x y z
#    x 3.335220 0.000000 0.072080 
#    y 0.000000 3.192960 0.000000 
#    z 0.072080 0.000000 3.643280 
# 
# 
# High freq. dielectric constant tensor:
#      x y z
#    x 1.703680 0.000000 0.002280 
#    y 0.000000 1.695240 0.000000 
#    z 0.002280 0.000000 1.735360 
# 
# From -- ./inp_files/362902.got.cif
#   From: 2010.06.25/outbox.cif.g09.slc.cpg/sg12_182_cif.got.tgz:362902.got - 2010.06.28 00:19:55.
