data_PCOD8083268
_publ_section_title
;
Structure prediction by ZEFSAII (Michael W. Deem and Ramdas Pophale) SiO2 
 PCOD8083268
Probable space group: C 2/M
;
_chemical_formula_sum "Si O2"
_cell_formula_units_Z 40
_cell_length_a 13.093329
_cell_length_b 16.047598
_cell_length_c 10.863889
_cell_angle_alpha 90.000000
_cell_angle_beta 76.593066
_cell_angle_gamma 90.000000
_cell_volume 2220.474065
_symmetry_space_group_name_H-M "C 2/M"
_symmetry_group_IT_number 12
_symmetry_cell_setting 'monoclinic'
loop_
_space_group_symop_operation_xyz
x,y,z
-x,y,-z
-x,-y,-z
x,-y,z
1/2+x,1/2+y,z
1/2-x,1/2+y,-z
1/2-x,1/2-y,-z
1/2+x,1/2-y,z
loop_
_atom_site_type_symbol
_atom_site_label
_atom_site_fract_x
_atom_site_fract_y
_atom_site_fract_z
Si Si1 0.340776 0.500000 0.609817
Si Si2 0.781992 0.399916 0.927047
Si Si3 0.064847 0.000000 0.666426
Si Si4 0.812902 0.408976 0.195594
Si Si5 0.433504 0.367156 0.127837
Si Si6 0.007004 0.315662 0.137055
O O1 0.457055 0.500000 0.625927
O O2 0.341356 0.500000 0.460884
O O3 0.282306 0.417179 0.679199
O O4 0.781566 0.500000 0.902279
O O5 0.685035 0.354532 0.886662
O O6 0.885186 0.354626 0.839338
O O7 0.770527 0.376968 0.074940
O O8 0.072746 0.081196 0.746689
O O9 0.863755 0.500000 0.157534
O O10 0.902627 0.351603 0.232402
O O11 0.498249 0.283791 0.143589
O O12 0.500000 0.412426 0.000000
O O13 0.000000 0.349649 0.000000
#
# Coordination Sequence:
#
# PCOD8083268 Si02
#       6
#     4   8   4   8   8   8
#     4   9  20  34  56  71  97 141 181 219 246 307
#     4  10  18  32  55  82 110 137 167 213 266 315
#     4  11  21  36  49  75 103 140 181 217 255 310
#     4   8  16  32  54  77 100 137 174 209 255 311
#     4  11  22  32  53  80 111 135 171 216 269 313
#     4   9  19  32  51  82 112 134 167 214 263 319
#
# _framework density 18.014173
#
# number of rings (size 3 to 8) (size 9 to 14) (size 15 to 20)
#    0.600    1.800    1.000    2.100    0.000   11.200 
#    0.000    1.000    0.000    2.400    0.000    0.000 
#    0.000    0.000    0.000    0.000    0.000    0.000 
#
# Total GULP energy -247774.591532 kJ/mol
# GULP energy per Si atom -12388.729577 kJ/mol
# Density = 1.797317 g / cm^3
# Si number density = 18.014173 Si / 1000 Ang^3
#
#
#
# Elastic Constant Matrix: (Units=GPa)
#
#
# Indices 1 2 3 4 5 6 
#
# 1 116.1416 37.2685 42.8566 0.0000 -9.7987 0.0000
# 2 37.2685 66.6306 31.5431 0.0000 -5.8632 0.0000
# 3 42.8566 31.5431 104.7622 0.0000 -13.6794 0.0000
# 4 0.0000 0.0000 0.0000 17.4655 0.0000 -0.7711
# 5 -9.7987 -5.8632 -13.6794 0.0000 20.3933 0.0000
# 6 0.0000 0.0000 0.0000 -0.7711 0.0000 30.7278
#
#
#
# Elastic Compliance Matrix: (Units=1/GPa)
#
#
# Indices 1 2 3 4 5 6 
#
# 1 0.011419 -0.004805 -0.002947 0.000000 0.002129 0.000000
# 2 -0.004805 0.019575 -0.003830 0.000000 0.000750 0.000000
# 3 -0.002947 -0.003830 0.012687 0.000000 0.005993 0.000000
# 4 0.000000 0.000000 0.000000 0.057319 0.000000 0.001438
# 5 0.002129 0.000750 0.005993 0.000000 0.054294 0.000000
# 6 0.000000 0.000000 0.000000 0.001438 0.000000 0.032580
#
#
# Mechanical properties :
#
#
# Convention : Reuss Voigt Hill
#
# Bulk Modulus (GPa) = 48.74020 56.76340 52.75180
# Shear Modulus (GPa) = 22.94883 25.44173 24.19528
#
# Velocity S-wave (km/s) = 3.57309 3.76216 3.66884
# Velocity P-wave (km/s) = 6.64364 7.10286 6.87708
#
# Compressibility (1/GPa) = 0.02051694
#
# Stress axis : x y z
#
# Youngs Moduli (GPa) = 87.57445 51.08613 78.82266
#
# Poissons Ratio (x) = 0.24545 0.23227
# Poissons Ratio (y) = 0.42076 0.30192
# Poissons Ratio (z) = 0.25806 0.19568
#
# Static dielectric constant tensor:
#      x y z
#    x 3.436340 0.000000 -0.161330 
#    y 0.000000 3.142490 0.000000 
#    z -0.161330 0.000000 3.174210 
# 
# 
# High freq. dielectric constant tensor:
#      x y z
#    x 1.708420 0.000000 -0.013690 
#    y 0.000000 1.688270 0.000000 
#    z -0.013690 0.000000 1.648040 
# 
# From -- ./inp_files/130416.got.cif
#   From: 2010.06.25/outbox.cif.g09.slc.cpg/sg12_66_cif.got.tgz:130416.got - 2010.06.28 00:19:55.
