data_PCOD8083366
_publ_section_title
;
Structure prediction by ZEFSAII (Michael W. Deem and Ramdas Pophale) SiO2 
 PCOD8083366
Probable space group: C 2/M
;
_chemical_formula_sum "Si O2"
_cell_formula_units_Z 64
_cell_length_a 14.605605
_cell_length_b 15.227433
_cell_length_c 23.136511
_cell_angle_alpha 90.000000
_cell_angle_beta 143.483061
_cell_angle_gamma 90.000000
_cell_volume 3061.999929
_symmetry_space_group_name_H-M "C 2/M"
_symmetry_group_IT_number 12
_symmetry_cell_setting 'monoclinic'
loop_
_space_group_symop_operation_xyz
x,y,z
-x,y,-z
-x,-y,-z
x,-y,z
1/2+x,1/2+y,z
1/2-x,1/2+y,-z
1/2-x,1/2-y,-z
1/2+x,1/2-y,z
loop_
_atom_site_type_symbol
_atom_site_label
_atom_site_fract_x
_atom_site_fract_y
_atom_site_fract_z
Si Si1 0.721545 0.291447 0.562025
Si Si2 0.997513 0.597738 0.322306
Si Si3 0.505767 0.403474 0.623582
Si Si4 0.796107 0.902295 0.619795
Si Si5 0.211059 0.868216 0.250906
Si Si6 0.295813 0.172901 0.729917
Si Si7 0.939997 0.900412 0.028022
Si Si8 0.108022 0.601063 0.858464
O O1 0.569402 0.329568 0.455476
O O2 0.700610 0.184678 0.551605
O O3 0.739867 0.328832 0.635339
O O4 0.868834 0.328609 0.600032
O O5 0.073750 0.500000 0.358072
O O6 0.873394 0.594410 0.311097
O O7 0.906897 0.618908 0.217563
O O8 0.458992 0.500000 0.577017
O O9 0.455900 0.394009 0.665464
O O10 0.689874 0.393502 0.712746
O O11 0.824827 0.898576 0.702356
O O12 0.720725 0.000000 0.567392
O O13 0.225420 0.765398 0.250986
O O14 0.065282 0.901368 0.141472
O O15 0.474976 0.150241 0.826217
O O16 0.897523 0.000000 0.989122
O O17 0.774247 0.859956 0.962784
O O18 0.000000 0.852557 0.000000
O O19 0.086560 0.500000 0.863183
#
# Coordination Sequence:
#
# PCOD8083366 Si02
#       8
#     8   8   8   8   8   8   8   8
#     4  10  21  37  59  86 112 145 194 248 288 334
#     4  10  18  32  56  86 119 147 182 238 302 345
#     4  11  22  39  62  83 110 151 199 243 287 337
#     4  10  22  38  56  80 115 160 195 227 281 349
#     4  11  21  35  56  84 119 156 187 228 283 356
#     4  10  22  36  56  83 115 152 187 236 291 341
#     4  10  18  32  58  89 115 142 184 237 289 343
#     4   9  18  33  55  85 114 142 185 239 293 339
#
# _framework density 20.901371999999999
#
# number of rings (size 3 to 8) (size 9 to 14) (size 15 to 20)
#    0.000    1.875    1.250    3.375    0.000    2.500 
#    0.000    1.875    0.000   12.000    0.000    3.500 
#    0.000    0.000    0.000    0.000    0.000    0.000 
#
# Total GULP energy -396537.791765 kJ/mol
# GULP energy per Si atom -12391.805993 kJ/mol
# Density = 2.085380 g / cm^3
# Si number density = 20.901372 Si / 1000 Ang^3
#
#
#
# Elastic Constant Matrix: (Units=GPa)
#
#
# Indices 1 2 3 4 5 6 
#
# 1 112.4493 33.4571 35.1300 0.0001 17.4935 0.0000
# 2 33.4571 118.3252 24.7054 -0.0001 4.9413 0.0000
# 3 35.1300 24.7054 65.4278 -0.0008 18.7335 -0.0002
# 4 0.0001 -0.0001 -0.0008 19.5192 -0.0003 3.8713
# 5 17.4935 4.9413 18.7335 -0.0003 30.3995 -0.0001
# 6 0.0000 0.0000 -0.0002 3.8713 -0.0001 29.5138
#
#
#
# Elastic Compliance Matrix: (Units=1/GPa)
#
#
# Indices 1 2 3 4 5 6 
#
# 1 0.011443 -0.002190 -0.004291 0.000000 -0.003585 0.000000
# 2 -0.002190 0.009609 -0.002873 0.000000 0.001469 0.000000
# 3 -0.004291 -0.002873 0.021652 0.000001 -0.010407 0.000000
# 4 0.000000 0.000000 0.000001 0.052600 0.000000 -0.006900
# 5 -0.003585 0.001469 -0.010407 0.000000 0.041133 0.000000
# 6 0.000000 0.000000 0.000000 -0.006900 0.000000 0.034787
#
#
# Mechanical properties :
#
#
# Convention : Reuss Voigt Hill
#
# Bulk Modulus (GPa) = 41.67205 53.64306 47.65756
# Shear Modulus (GPa) = 25.26144 29.41381 27.33762
#
# Velocity S-wave (km/s) = 3.48027 3.75543 3.62046
# Velocity P-wave (km/s) = 6.01086 6.67270 6.35041
#
# Compressibility (1/GPa) = 0.02399690
#
# Stress axis : x y z
#
# Youngs Moduli (GPa) = 87.39343 104.06876 46.18428
#
# Poissons Ratio (x) = 0.22790 0.19815
# Poissons Ratio (y) = 0.19138 0.13269
# Poissons Ratio (z) = 0.37496 0.29900
#
# Static dielectric constant tensor:
#      x y z
#    x 3.931140 0.000000 0.132490 
#    y 0.000000 3.975770 0.000000 
#    z 0.132490 0.000000 3.508980 
# 
# 
# High freq. dielectric constant tensor:
#      x y z
#    x 1.829200 0.000000 0.009370 
#    y 0.000000 1.819860 0.000000 
#    z 0.009370 0.000000 1.786290 
# 
# From -- ./inp_files/340199.got.cif
#   From: 2010.06.25/outbox.cif.g09.slc.cpg/sg12_171_cif.got.tgz:340199.got - 2010.06.28 00:19:55.
