data_PCOD8083343
_publ_section_title
;
Structure prediction by ZEFSAII (Michael W. Deem and Ramdas Pophale) SiO2 
 PCOD8083343
Probable space group: C 2/M
;
_chemical_formula_sum "Si O2"
_cell_formula_units_Z 48
_cell_length_a 11.484124
_cell_length_b 18.165331
_cell_length_c 13.350940
_cell_angle_alpha 90.000000
_cell_angle_beta 116.387040
_cell_angle_gamma 90.000000
_cell_volume 2494.997185
_symmetry_space_group_name_H-M "C 2/M"
_symmetry_group_IT_number 12
_symmetry_cell_setting 'monoclinic'
loop_
_space_group_symop_operation_xyz
x,y,z
-x,y,-z
-x,-y,-z
x,-y,z
1/2+x,1/2+y,z
1/2-x,1/2+y,-z
1/2-x,1/2-y,-z
1/2+x,1/2-y,z
loop_
_atom_site_type_symbol
_atom_site_label
_atom_site_fract_x
_atom_site_fract_y
_atom_site_fract_z
Si Si1 0.624960 0.184773 0.991380
Si Si2 0.732557 0.202139 0.834229
Si Si3 0.866342 0.828054 0.335525
Si Si4 0.852889 0.083359 0.145176
Si Si5 0.338505 0.678739 0.543812
Si Si6 0.153309 0.913840 0.258900
O O1 0.650834 0.263486 0.054007
O O2 0.752543 0.133378 0.046438
O O3 0.500000 0.149159 0.000000
O O4 0.608309 0.195005 0.863804
O O5 0.713824 0.257696 0.734267
O O6 0.767741 0.122859 0.802204
O O7 0.840393 0.899417 0.258056
O O8 0.825535 0.857922 0.429007
O O9 0.012899 0.797821 0.384490
O O10 0.002522 0.099374 0.173826
O O11 0.814295 0.000000 0.108930
O O12 0.250000 0.750000 0.500000
O O13 0.300425 0.622317 0.617820
O O14 0.187234 0.000000 0.277215
#
# Coordination Sequence:
#
# PCOD8083343 Si02
#       6
#     8   8   8   8   8   8
#     4  10  23  35  57  83 107 149 191 240 275 329
#     4  10  21  36  55  81 115 144 189 231 279 331
#     4   9  19  32  54  84 106 146 179 228 275 322
#     4   9  20  37  54  81 114 148 185 225 281 333
#     4  10  18  32  56  83 109 140 184 226 272 331
#     4  10  21  36  58  84 116 149 183 230 281 336
#
# _framework density 19.238498
#
# number of rings (size 3 to 8) (size 9 to 14) (size 15 to 20)
#    0.000    2.333    1.667    0.000    9.333    1.667 
#    0.000    5.000    0.000    2.000    0.000    0.000 
#    0.000    0.000    0.000    0.000    0.000    0.000 
#
# Total GULP energy -297322.026303 kJ/mol
# GULP energy per Si atom -12388.417763 kJ/mol
# Density = 1.919471 g / cm^3
# Si number density = 19.238498 Si / 1000 Ang^3
#
#
#
# Elastic Constant Matrix: (Units=GPa)
#
#
# Indices 1 2 3 4 5 6 
#
# 1 69.9222 37.4187 34.9302 0.0000 -20.6977 0.0000
# 2 37.4187 102.7554 40.9245 0.0000 -15.3254 0.0000
# 3 34.9302 40.9245 95.6227 0.0000 -22.6300 0.0000
# 4 0.0000 0.0000 0.0000 27.6650 0.0000 -2.2208
# 5 -20.6977 -15.3254 -22.6300 0.0000 29.1422 0.0000
# 6 0.0000 0.0000 0.0000 -2.2208 0.0000 25.0253
#
#
#
# Elastic Compliance Matrix: (Units=1/GPa)
#
#
# Indices 1 2 3 4 5 6 
#
# 1 0.021681 -0.005044 -0.003362 0.000000 0.010134 0.000000
# 2 -0.005044 0.013092 -0.003650 0.000000 0.000468 0.000000
# 3 -0.003362 -0.003650 0.014982 0.000000 0.007327 0.000000
# 4 0.000000 0.000000 0.000000 0.036406 0.000000 0.003231
# 5 0.010134 0.000468 0.007327 0.000000 0.047448 0.000000
# 6 0.000000 0.000000 0.000000 0.003231 0.000000 0.040246
#
#
# Mechanical properties :
#
#
# Convention : Reuss Voigt Hill
#
# Bulk Modulus (GPa) = 38.99903 54.98299 46.99101
# Shear Modulus (GPa) = 24.21127 26.70165 25.45646
#
# Velocity S-wave (km/s) = 3.55136 3.72953 3.64153
# Velocity P-wave (km/s) = 6.09356 6.86932 6.49304
#
# Compressibility (1/GPa) = 0.02564166
#
# Stress axis : x y z
#
# Youngs Moduli (GPa) = 46.12381 76.38150 66.74705
#
# Poissons Ratio (x) = 0.38530 0.22444
# Poissons Ratio (y) = 0.23267 0.24361
# Poissons Ratio (z) = 0.15509 0.27877
#
# Static dielectric constant tensor:
#      x y z
#    x 3.523450 0.000000 -0.252390 
#    y 0.000000 3.338350 0.000000 
#    z -0.252390 0.000000 3.862980 
# 
# 
# High freq. dielectric constant tensor:
#      x y z
#    x 1.732280 0.000000 -0.018130 
#    y 0.000000 1.728200 0.000000 
#    z -0.018130 0.000000 1.759310 
# 
# From -- ./inp_files/131647.got.cif
#   From: 2010.06.25/outbox.cif.g09.slc.cpg/sg12_66_cif.got.tgz:131647.got - 2010.06.28 00:19:55.
