data_PCOD8083419
_publ_section_title
;
Structure prediction by ZEFSAII (Michael W. Deem and Ramdas Pophale) SiO2 
 PCOD8083419
Probable space group: C 2/M
;
_chemical_formula_sum "Si O2"
_cell_formula_units_Z 56
_cell_length_a 15.298037
_cell_length_b 8.979827
_cell_length_c 24.031295
_cell_angle_alpha 90.000000
_cell_angle_beta 62.711598
_cell_angle_gamma 90.000000
_cell_volume 2933.870537
_symmetry_space_group_name_H-M "C 2/M"
_symmetry_group_IT_number 12
_symmetry_cell_setting 'monoclinic'
loop_
_space_group_symop_operation_xyz
x,y,z
-x,y,-z
-x,-y,-z
x,-y,z
1/2+x,1/2+y,z
1/2-x,1/2+y,-z
1/2-x,1/2-y,-z
1/2+x,1/2-y,z
loop_
_atom_site_type_symbol
_atom_site_label
_atom_site_fract_x
_atom_site_fract_y
_atom_site_fract_z
Si Si1 0.510108 0.175366 0.653205
Si Si2 0.996025 0.175751 0.872765
Si Si3 0.301903 0.675082 0.140484
Si Si4 0.424245 0.327151 0.571393
Si Si5 0.339273 0.324784 0.004356
Si Si6 0.402831 0.677106 0.786434
Si Si7 0.731525 0.826356 0.563590
O O1 0.452704 0.226092 0.615053
O O2 0.467552 0.260254 0.718086
O O3 0.624822 0.219743 0.617382
O O4 0.495203 0.000000 0.664761
O O5 0.110228 0.221603 0.843435
O O6 0.938323 0.231722 0.944701
O O7 0.947921 0.241809 0.830777
O O8 0.987418 0.000000 0.872823
O O9 0.277651 0.500000 0.150348
O O10 0.208293 0.767438 0.187184
O O11 0.339118 0.722731 0.068563
O O12 0.500000 0.293544 0.500000
O O13 0.428409 0.500000 0.587826
O O14 0.314786 0.279705 0.583890
O O15 0.327820 0.500000 0.001717
O O16 0.250000 0.250000 0.000000
O O17 0.404163 0.500000 0.783841
O O18 0.750000 0.750000 0.500000
O O19 0.738561 0.000000 0.549671
#
# Coordination Sequence:
#
# PCOD8083419 Si02
#       7
#     8   8   8   8   8   8   8
#     4  11  24  40  59  86 119 152 194 238 281 340
#     4   9  19  36  58  84 115 152 194 235 288 349
#     4  10  20  36  60  86 114 151 195 241 288 342
#     4  10  20  37  62  90 120 151 184 227 284 341
#     4  10  18  32  57  86 116 149 189 239 291 342
#     4  11  23  40  59  80 114 155 194 239 289 344
#     4  10  21  37  60  89 119 150 185 231 282 338
#
# _framework density 19.087413000000002
#
# number of rings (size 3 to 8) (size 9 to 14) (size 15 to 20)
#    0.000    1.857    2.857    1.286    0.000    4.286 
#    0.000    5.000    0.000    1.714    0.000    0.000 
#    0.000    0.000    0.000    0.000    0.000    0.000 
#
# Total GULP energy -347216.056401 kJ/mol
# GULP energy per Si atom -12400.573443 kJ/mol
# Density = 1.904397 g / cm^3
# Si number density = 19.087413 Si / 1000 Ang^3
#
#
#
# Elastic Constant Matrix: (Units=GPa)
#
#
# Indices 1 2 3 4 5 6 
#
# 1 144.3877 30.6197 55.7237 0.0000 -24.7532 0.0000
# 2 30.6197 43.3985 36.0675 0.0000 -12.0145 0.0000
# 3 55.7237 36.0675 113.1501 0.0000 -25.5598 0.0000
# 4 0.0000 0.0000 0.0000 21.2068 0.0000 0.0115
# 5 -24.7532 -12.0145 -25.5598 0.0000 22.4464 0.0000
# 6 0.0000 0.0000 0.0000 0.0115 0.0000 29.9126
#
#
#
# Elastic Compliance Matrix: (Units=1/GPa)
#
#
# Indices 1 2 3 4 5 6 
#
# 1 0.009540 -0.003088 -0.002303 0.000000 0.006245 0.000000
# 2 -0.003088 0.033253 -0.007846 0.000000 0.005459 0.000000
# 3 -0.002303 -0.007846 0.014743 0.000000 0.010048 0.000000
# 4 0.000000 0.000000 0.000000 0.047155 0.000000 -0.000018
# 5 0.006245 0.005459 0.010048 0.000000 0.065802 0.000000
# 6 0.000000 0.000000 0.000000 -0.000018 0.000000 0.033431
#
#
# Mechanical properties :
#
#
# Convention : Reuss Voigt Hill
#
# Bulk Modulus (GPa) = 32.19365 60.63978 46.41672
# Shear Modulus (GPa) = 20.76841 26.61485 23.69163
#
# Velocity S-wave (km/s) = 3.30217 3.73817 3.52691
# Velocity P-wave (km/s) = 5.60733 7.10425 6.39971
#
# Compressibility (1/GPa) = 0.03106202
#
# Stress axis : x y z
#
# Youngs Moduli (GPa) = 104.81982 30.07285 67.82974
#
# Poissons Ratio (x) = 0.09286 0.15623
# Poissons Ratio (y) = 0.32368 0.53216
# Poissons Ratio (z) = 0.24143 0.23594
#
# Static dielectric constant tensor:
#      x y z
#    x 3.815860 0.000000 0.058960 
#    y 0.000000 3.324940 0.000000 
#    z 0.058960 0.000000 3.685300 
# 
# 
# High freq. dielectric constant tensor:
#      x y z
#    x 1.758750 0.000000 -0.004190 
#    y 0.000000 1.724330 0.000000 
#    z -0.004190 0.000000 1.744640 
# 
# From -- ./inp_files/338482.got.cif
#   From: 2010.06.25/outbox.cif.g09.slc.cpg/sg12_170_cif.got.tgz:338482.got - 2010.06.28 00:19:55.
