data_PCOD8083830
_publ_section_title
;
Structure prediction by ZEFSAII (Michael W. Deem and Ramdas Pophale) SiO2 
 PCOD8083830
Probable space group: C 2/M
;
_chemical_formula_sum "Si O2"
_cell_formula_units_Z 48
_cell_length_a 28.744433
_cell_length_b 8.753383
_cell_length_c 12.480384
_cell_angle_alpha 90.000000
_cell_angle_beta 54.770828
_cell_angle_gamma 90.000000
_cell_volume 2565.078332
_symmetry_space_group_name_H-M "C 2/M"
_symmetry_group_IT_number 12
_symmetry_cell_setting 'monoclinic'
loop_
_space_group_symop_operation_xyz
x,y,z
-x,y,-z
-x,-y,-z
x,-y,z
1/2+x,1/2+y,z
1/2-x,1/2+y,-z
1/2-x,1/2-y,-z
1/2+x,1/2-y,z
loop_
_atom_site_type_symbol
_atom_site_label
_atom_site_fract_x
_atom_site_fract_y
_atom_site_fract_z
Si Si1 0.932566 0.675507 0.270088
Si Si2 0.745938 0.320632 0.622695
Si Si3 0.436234 0.178925 0.617756
Si Si4 0.942097 0.319790 0.852899
Si Si5 0.857419 0.179171 0.547924
Si Si6 0.633478 0.824469 0.855363
O O1 0.929895 0.500000 0.314427
O O2 0.889528 0.774055 0.397335
O O3 0.915166 0.688339 0.169901
O O4 0.995583 0.745819 0.200745
O O5 0.751915 0.500000 0.601832
O O6 0.750000 0.250000 0.500000
O O7 0.796063 0.259337 0.631970
O O8 0.686763 0.280423 0.757396
O O9 0.500000 0.225105 0.500000
O O10 0.425276 0.226821 0.755033
O O11 0.391897 0.272944 0.606991
O O12 0.426326 0.000000 0.611536
O O13 0.946017 0.500000 0.861668
O O14 0.894156 0.258883 0.998348
O O15 0.847855 0.000000 0.560970
O O16 0.653840 0.000000 0.839799
#
# Coordination Sequence:
#
# PCOD8083830 Si02
#       6
#     8   8   8   8   8   8
#     4  10  18  33  58  87 120 155 190 233 287 348
#     4  12  24  40  61  85 115 152 194 239 291 346
#     4  10  19  36  61  86 117 155 199 239 282 342
#     4   9  18  34  58  89 120 156 195 234 284 346
#     4  12  24  37  57  87 119 150 195 245 291 338
#     4  10  20  35  59  89 121 154 192 236 288 347
#
# _framework density 18.712879000000001
#
# number of rings (size 3 to 8) (size 9 to 14) (size 15 to 20)
#    0.000    1.500    3.333    3.500    0.000    2.333 
#    0.000    2.500    0.000    2.000    0.000    0.000 
#    0.000    0.000    0.000    0.000    0.000    0.000 
#
# Total GULP energy -297686.595069 kJ/mol
# GULP energy per Si atom -12403.608128 kJ/mol
# Density = 1.867029 g / cm^3
# Si number density = 18.712879 Si / 1000 Ang^3
#
#
#
# Elastic Constant Matrix: (Units=GPa)
#
#
# Indices 1 2 3 4 5 6 
#
# 1 107.0640 48.5679 47.7204 0.0000 -1.9759 0.0000
# 2 48.5679 100.4545 34.7134 0.0000 -2.8507 0.0000
# 3 47.7204 34.7134 127.5977 0.0000 3.9685 0.0000
# 4 0.0000 0.0000 0.0000 22.5257 0.0000 -2.4274
# 5 -1.9759 -2.8507 3.9685 0.0000 30.2167 0.0000
# 6 0.0000 0.0000 0.0000 -2.4274 0.0000 27.3315
#
#
#
# Elastic Compliance Matrix: (Units=1/GPa)
#
#
# Indices 1 2 3 4 5 6 
#
# 1 0.013302 -0.005164 -0.003596 0.000000 0.000855 0.000000
# 2 -0.005164 0.013055 -0.001655 0.000000 0.001111 0.000000
# 3 -0.003596 -0.001655 0.009684 0.000000 -0.001663 0.000000
# 4 0.000000 0.000000 0.000000 0.044823 0.000000 0.003981
# 5 0.000855 0.001111 -0.001663 0.000000 0.033473 0.000000
# 6 0.000000 0.000000 0.000000 0.003981 0.000000 0.036941
#
#
# Mechanical properties :
#
#
# Convention : Reuss Voigt Hill
#
# Bulk Modulus (GPa) = 65.74640 66.34663 66.04652
# Shear Modulus (GPa) = 28.22012 29.62242 28.92127
#
# Velocity S-wave (km/s) = 3.88759 3.98301 3.93558
# Velocity P-wave (km/s) = 7.44054 7.52891 7.48486
#
# Compressibility (1/GPa) = 0.01520996
#
# Stress axis : x y z
#
# Youngs Moduli (GPa) = 75.17940 76.59980 103.26222
#
# Poissons Ratio (x) = 0.39556 0.37137
# Poissons Ratio (y) = 0.38823 0.17089
# Poissons Ratio (z) = 0.27037 0.12676
#
# Static dielectric constant tensor:
#      x y z
#    x 3.574970 0.000000 -0.021910 
#    y 0.000000 3.217800 0.000000 
#    z -0.021910 0.000000 3.550330 
# 
# 
# High freq. dielectric constant tensor:
#      x y z
#    x 1.733670 0.000000 -0.000050 
#    y 0.000000 1.704590 0.000000 
#    z -0.000050 0.000000 1.726090 
# 
# From -- ./inp_files/179725.got.cif
#   From: 2010.06.25/outbox.cif.g09.slc.cpg/sg12_90_cif.got.tgz:179725.got - 2010.06.28 00:19:55.
