data_PCOD8083429
_publ_section_title
;
Structure prediction by ZEFSAII (Michael W. Deem and Ramdas Pophale) SiO2 
 PCOD8083429
Probable space group: C 2/M
;
_chemical_formula_sum "Si O2"
_cell_formula_units_Z 56
_cell_length_a 10.706930
_cell_length_b 19.173981
_cell_length_c 14.355098
_cell_angle_alpha 90.000000
_cell_angle_beta 117.459227
_cell_angle_gamma 90.000000
_cell_volume 2615.008382
_symmetry_space_group_name_H-M "C 2/M"
_symmetry_group_IT_number 12
_symmetry_cell_setting 'monoclinic'
loop_
_space_group_symop_operation_xyz
x,y,z
-x,y,-z
-x,-y,-z
x,-y,z
1/2+x,1/2+y,z
1/2-x,1/2+y,-z
1/2-x,1/2-y,-z
1/2+x,1/2-y,z
loop_
_atom_site_type_symbol
_atom_site_label
_atom_site_fract_x
_atom_site_fract_y
_atom_site_fract_z
Si Si1 0.317127 0.418860 0.683990
Si Si2 0.658761 0.921005 0.254085
Si Si3 0.636706 0.577628 0.843170
Si Si4 0.854928 0.918613 0.489740
Si Si5 0.282489 0.798811 0.233090
Si Si6 0.982864 0.282749 0.807534
Si Si7 0.870491 0.820366 0.006542
O O1 0.272466 0.500000 0.676360
O O2 0.472679 0.405339 0.776358
O O3 0.312089 0.389909 0.576704
O O4 0.211737 0.373085 0.711803
O O5 0.789024 0.911516 0.229263
O O6 0.722568 0.904619 0.377494
O O7 0.534756 0.866639 0.186727
O O8 0.598172 0.000000 0.227776
O O9 0.660566 0.500000 0.889147
O O10 0.700362 0.630455 0.940558
O O11 0.000000 0.884275 0.500000
O O12 0.886158 0.000000 0.513767
O O13 0.440291 0.768704 0.267455
O O14 0.175936 0.748656 0.251947
O O15 0.244339 0.804159 0.110138
O O16 0.066642 0.250086 0.924347
O O17 0.000000 0.859931 0.000000
#
# Coordination Sequence:
#
# PCOD8083429 Si02
#       7
#     8   8   8   8   8   8   8
#     4  10  19  34  59  91 123 151 192 243 291 351
#     4  10  21  37  60  89 121 158 197 247 300 348
#     4  10  18  32  57  89 121 151 192 241 289 349
#     4   9  16  31  59  92 121 155 198 241 292 353
#     4  11  24  40  61  87 116 160 200 246 301 355
#     4  11  23  39  61  83 117 156 202 246 294 358
#     4  10  20  37  58  87 115 157 201 243 299 355
#
# _framework density 21.414845
#
# number of rings (size 3 to 8) (size 9 to 14) (size 15 to 20)
#    0.000    1.857    4.286    1.286    0.000    3.714 
#    0.000    1.429    0.000    8.143    0.000    0.000 
#    0.000    0.000    0.000    0.000    0.000    0.000 
#
# Total GULP energy -346988.562512 kJ/mol
# GULP energy per Si atom -12392.448661 kJ/mol
# Density = 2.136610 g / cm^3
# Si number density = 21.414845 Si / 1000 Ang^3
#
#
#
# Elastic Constant Matrix: (Units=GPa)
#
#
# Indices 1 2 3 4 5 6 
#
# 1 99.6394 44.2727 37.4233 0.0000 -32.5755 0.0000
# 2 44.2727 103.4016 52.5827 0.0000 -14.8008 0.0000
# 3 37.4233 52.5827 76.8993 0.0000 -15.1980 0.0000
# 4 0.0000 0.0000 0.0000 22.8885 0.0000 -6.3326
# 5 -32.5755 -14.8008 -15.1980 0.0000 19.5074 0.0000
# 6 0.0000 0.0000 0.0000 -6.3326 0.0000 35.3325
#
#
#
# Elastic Compliance Matrix: (Units=1/GPa)
#
#
# Indices 1 2 3 4 5 6 
#
# 1 0.024477 -0.004416 -0.001745 0.000000 0.036165 0.000000
# 2 -0.004416 0.015887 -0.009207 0.000000 -0.002494 0.000000
# 3 -0.001745 -0.009207 0.021503 0.000000 0.006854 0.000000
# 4 0.000000 0.000000 0.000000 0.045970 0.000000 0.008239
# 5 0.036165 -0.002494 0.006854 0.000000 0.115101 0.000000
# 6 0.000000 0.000000 0.000000 0.008239 0.000000 0.029779
#
#
# Mechanical properties :
#
#
# Convention : Reuss Voigt Hill
#
# Bulk Modulus (GPa) = 32.12203 60.94418 46.53310
# Shear Modulus (GPa) = 17.01661 25.25646 21.13653
#
# Velocity S-wave (km/s) = 2.82195 3.43795 3.14507
# Velocity P-wave (km/s) = 5.06462 6.65432 5.91313
#
# Compressibility (1/GPa) = 0.03113128
#
# Stress axis : x y z
#
# Youngs Moduli (GPa) = 40.85426 62.94469 46.50465
#
# Poissons Ratio (x) = 0.27799 0.08113
# Poissons Ratio (y) = 0.18043 0.42817
# Poissons Ratio (z) = 0.07128 0.57953
#
# Static dielectric constant tensor:
#      x y z
#    x 3.981870 0.000000 -0.291970 
#    y 0.000000 3.802190 0.000000 
#    z -0.291970 0.000000 3.671940 
# 
# 
# High freq. dielectric constant tensor:
#      x y z
#    x 1.840180 0.000000 -0.025990 
#    y 0.000000 1.826480 0.000000 
#    z -0.025990 0.000000 1.817040 
# 
# From -- ./inp_files/206269.got.cif
#   From: 2010.06.25/outbox.cif.g09.slc.cpg/sg12_104_cif.got.tgz:206269.got - 2010.06.28 00:19:55.
