data_PCOD8083780
_publ_section_title
;
Structure prediction by ZEFSAII (Michael W. Deem and Ramdas Pophale) SiO2 
 PCOD8083780
Probable space group: C 2/M
;
_chemical_formula_sum "Si O2"
_cell_formula_units_Z 64
_cell_length_a 30.855084
_cell_length_b 8.561940
_cell_length_c 19.541994
_cell_angle_alpha 90.000000
_cell_angle_beta 142.188576
_cell_angle_gamma 90.000000
_cell_volume 3165.002224
_symmetry_space_group_name_H-M "C 2/M"
_symmetry_group_IT_number 12
_symmetry_cell_setting 'monoclinic'
loop_
_space_group_symop_operation_xyz
x,y,z
-x,y,-z
-x,-y,-z
x,-y,z
1/2+x,1/2+y,z
1/2-x,1/2+y,-z
1/2-x,1/2-y,-z
1/2+x,1/2-y,z
loop_
_atom_site_type_symbol
_atom_site_label
_atom_site_fract_x
_atom_site_fract_y
_atom_site_fract_z
Si Si1 0.554832 0.680853 0.508856
Si Si2 0.186209 0.816813 0.876506
Si Si3 0.286915 0.684938 0.731344
Si Si4 0.694346 0.182093 0.738961
Si Si5 0.535168 0.181024 0.721783
Si Si6 0.061706 0.184105 0.123947
Si Si7 0.447254 0.180387 0.740368
Si Si8 0.201559 0.315617 0.498311
O O1 0.500000 0.719889 0.500000
O O2 0.576686 0.500000 0.536622
O O3 0.623741 0.785165 0.607596
O O4 0.518897 0.722958 0.392377
O O5 0.198776 0.785018 0.812348
O O6 0.114808 0.736252 0.812217
O O7 0.179663 0.000000 0.880605
O O8 0.250000 0.750000 0.000000
O O9 0.290231 0.500000 0.728605
O O10 0.261635 0.730362 0.776078
O O11 0.363767 0.756931 0.809008
O O12 0.229608 0.750962 0.605648
O O13 0.696332 0.000000 0.761228
O O14 0.514553 0.208195 0.775357
O O15 0.528798 0.000000 0.693448
O O16 0.044201 0.221287 0.180409
O O17 0.064414 0.000000 0.118337
O O18 0.000000 0.256601 0.000000
O O19 0.378581 0.239731 0.613157
O O20 0.439223 0.000000 0.750985
O O21 0.206995 0.500000 0.504035
O O22 0.250000 0.250000 0.500000
#
# Coordination Sequence:
#
# PCOD8083780 Si02
#       8
#     8   8   8   8   8   8   8   8
#     4  11  22  37  60  92 127 158 197 252 304 364
#     4  12  26  45  65  90 122 158 205 256 302 360
#     4   9  19  36  58  86 120 153 194 244 295 357
#     4  11  22  39  64  90 121 164 204 249 308 364
#     4  11  23  41  65  92 123 162 202 247 306 367
#     4  10  21  38  60  85 115 156 203 246 292 351
#     4  10  22  38  59  89 121 153 196 246 301 360
#     4  10  18  33  57  85 118 154 192 237 291 352
#
# _framework density 20.221153999999999
#
# number of rings (size 3 to 8) (size 9 to 14) (size 15 to 20)
#    0.000    1.500    2.500    3.000    0.000    4.750 
#    0.000    5.000    0.000    0.000    0.000    0.000 
#    0.000    0.000    0.000    0.000    0.000    0.000 
#
# Total GULP energy -396864.850827 kJ/mol
# GULP energy per Si atom -12402.026588 kJ/mol
# Density = 2.017513 g / cm^3
# Si number density = 20.221154 Si / 1000 Ang^3
#
#
#
# Elastic Constant Matrix: (Units=GPa)
#
#
# Indices 1 2 3 4 5 6 
#
# 1 139.3916 22.0797 55.0733 0.0000 -6.0948 0.0000
# 2 22.0797 30.3976 6.0072 0.0000 -0.3877 0.0000
# 3 55.0733 6.0072 136.0962 0.0000 3.2752 0.0000
# 4 0.0000 0.0000 0.0000 25.9199 0.0000 -4.4700
# 5 -6.0948 -0.3877 3.2752 0.0000 8.3317 0.0000
# 6 0.0000 0.0000 0.0000 -4.4700 0.0000 30.7147
#
#
#
# Elastic Compliance Matrix: (Units=1/GPa)
#
#
# Indices 1 2 3 4 5 6 
#
# 1 0.010181 -0.006484 -0.004044 0.000000 0.008735 0.000000
# 2 -0.006484 0.037355 0.001058 0.000000 -0.003421 0.000000
# 3 -0.004044 0.001058 0.009093 0.000000 -0.006484 0.000000
# 4 0.000000 0.000000 0.000000 0.039574 0.000000 0.005759
# 5 0.008735 -0.003421 -0.006484 0.000000 0.128804 0.000000
# 6 0.000000 0.000000 0.000000 0.005759 0.000000 0.033396
#
#
# Mechanical properties :
#
#
# Convention : Reuss Voigt Hill
#
# Bulk Modulus (GPa) = 26.53392 52.46732 39.50062
# Shear Modulus (GPa) = 17.24695 27.84160 22.54427
#
# Velocity S-wave (km/s) = 2.92364 3.71463 3.34261
# Velocity P-wave (km/s) = 4.95452 6.66341 5.87147
#
# Compressibility (1/GPa) = 0.03768761
#
# Stress axis : x y z
#
# Youngs Moduli (GPa) = 98.22382 26.77036 109.96887
#
# Poissons Ratio (x) = 0.17359 0.44469
# Poissons Ratio (y) = 0.63693 -0.11630
# Poissons Ratio (z) = 0.39720 -0.02831
#
# Static dielectric constant tensor:
#      x y z
#    x 3.854190 0.000000 0.108610 
#    y 0.000000 3.437990 0.000000 
#    z 0.108610 0.000000 3.803550 
# 
# 
# High freq. dielectric constant tensor:
#      x y z
#    x 1.804700 0.000000 0.000630 
#    y 0.000000 1.774680 0.000000 
#    z 0.000630 0.000000 1.789740 
# 
# From -- ./inp_files/295842.got.cif
#   From: 2010.06.25/outbox.cif.g09.slc.cpg/sg12_148_cif.got.tgz:295842.got - 2010.06.28 00:19:55.
