data_PCOD8083154
_publ_section_title
;
Structure prediction by ZEFSAII (Michael W. Deem and Ramdas Pophale) SiO2 
 PCOD8083154
Probable space group: C 2/M
;
_chemical_formula_sum "Si O2"
_cell_formula_units_Z 48
_cell_length_a 22.327070
_cell_length_b 16.466045
_cell_length_c 20.938449
_cell_angle_alpha 90.000000
_cell_angle_beta 20.261612
_cell_angle_gamma 90.000000
_cell_volume 2665.796848
_symmetry_space_group_name_H-M "C 2/M"
_symmetry_group_IT_number 12
_symmetry_cell_setting 'monoclinic'
loop_
_space_group_symop_operation_xyz
x,y,z
-x,y,-z
-x,-y,-z
x,-y,z
1/2+x,1/2+y,z
1/2-x,1/2+y,-z
1/2-x,1/2-y,-z
1/2+x,1/2-y,z
loop_
_atom_site_type_symbol
_atom_site_label
_atom_site_fract_x
_atom_site_fract_y
_atom_site_fract_z
Si Si1 0.466223 0.500000 0.107336
Si Si2 0.282451 0.095556 0.438853
Si Si3 0.472982 0.324876 0.102249
Si Si4 0.941163 0.500000 0.486162
Si Si5 0.921201 0.702802 0.904006
Si Si6 0.118363 0.347315 0.521005
Si Si7 0.541576 0.302503 0.258265
O O1 0.542239 0.414493 0.058297
O O2 0.262608 0.500000 0.321526
O O3 0.500000 0.500000 0.000000
O O4 0.437188 0.131757 0.240988
O O5 0.300066 0.121635 0.494466
O O6 0.099930 0.126953 0.593645
O O7 0.287284 0.000000 0.426812
O O8 0.573511 0.250891 0.034476
O O9 0.269204 0.319464 0.321953
O O10 0.500000 0.316054 0.000000
O O11 0.003884 0.417432 0.388353
O O12 0.000000 0.500000 0.500000
O O13 0.963939 0.769716 0.808061
O O14 0.731917 0.662998 0.084104
O O15 0.996223 0.270494 0.654863
#
# Coordination Sequence:
#
# PCOD8083154 Si02
#       7
#     4   8   8   4   8   8   8
#     4   8  18  30  46  72 108 156 190 210 258 321
#     4  11  20  36  62  80 110 149 187 248 292 327
#     4  10  18  32  54  78 115 156 189 224 273 342
#     4  10  20  30  50  78 120 152 187 221 256 336
#     4  10  20  36  54  84 112 142 192 238 285 343
#     4  10  18  35  52  78 114 155 191 224 279 339
#     4  10  20  34  58  81 111 146 190 244 286 329
#
# _framework density 18.005873999999999
#
# number of rings (size 3 to 8) (size 9 to 14) (size 15 to 20)
#    0.000    2.000    4.167    1.000    0.000    4.667 
#    0.000    0.000    0.000    0.500    0.000    1.167 
#    0.000    0.000    0.000    0.000    0.000    0.000 
#
# Total GULP energy -297447.786015 kJ/mol
# GULP energy per Si atom -12393.657751 kJ/mol
# Density = 1.796489 g / cm^3
# Si number density = 18.005874 Si / 1000 Ang^3
#
#
#
# Elastic Constant Matrix: (Units=GPa)
#
#
# Indices 1 2 3 4 5 6 
#
# 1 71.5465 39.6035 31.4814 -0.0033 8.3440 0.0017
# 2 39.6035 89.8296 62.9110 -0.0076 -2.0297 0.0033
# 3 31.4814 62.9110 105.1314 -0.0151 -5.8938 0.0106
# 4 -0.0033 -0.0076 -0.0151 13.0813 0.0050 6.1177
# 5 8.3440 -2.0297 -5.8938 0.0050 27.7027 -0.0020
# 6 0.0017 0.0033 0.0106 6.1177 -0.0020 26.8308
#
#
#
# Elastic Compliance Matrix: (Units=1/GPa)
#
#
# Indices 1 2 3 4 5 6 
#
# 1 0.019784 -0.007675 -0.001718 0.000001 -0.006887 0.000000
# 2 -0.007675 0.022171 -0.010878 -0.000004 0.001622 0.000003
# 3 -0.001718 -0.010878 0.016719 0.000015 0.003277 -0.000008
# 4 0.000001 -0.000004 0.000015 0.085569 -0.000014 -0.019511
# 5 -0.006887 0.001622 0.003277 -0.000014 0.038988 0.000005
# 6 0.000000 0.000003 -0.000008 -0.019511 0.000005 0.041719
#
#
# Mechanical properties :
#
#
# Convention : Reuss Voigt Hill
#
# Bulk Modulus (GPa) = 55.14735 59.38882 57.26809
# Shear Modulus (GPa) = 18.41375 22.35708 20.38542
#
# Velocity S-wave (km/s) = 3.20136 3.52753 3.36840
# Velocity P-wave (km/s) = 6.66025 7.04599 6.85583
#
# Compressibility (1/GPa) = 0.01813324
#
# Stress axis : x y z
#
# Youngs Moduli (GPa) = 50.54526 45.10464 59.81094
#
# Poissons Ratio (x) = 0.34618 0.10274
# Poissons Ratio (y) = 0.38793 0.65061
# Poissons Ratio (z) = 0.08682 0.49064
#
# Static dielectric constant tensor:
#      x y z
#    x 3.081750 -0.000020 0.139470 
#    y -0.000020 3.509820 0.000080 
#    z 0.139470 0.000080 3.429970 
# 
# 
# High freq. dielectric constant tensor:
#      x y z
#    x 1.665750 0.000000 0.009240 
#    y 0.000000 1.686980 0.000010 
#    z 0.009240 0.000010 1.701930 
# 
# From -- ./inp_files/95708.got.cif
#   From: 2010.06.25/outbox.cif.g09.slc.cpg/sg12_48_cif.got.tgz:95708.got - 2010.06.28 00:19:55.
