data_PCOD8083426
_publ_section_title
;
Structure prediction by ZEFSAII (Michael W. Deem and Ramdas Pophale) SiO2 
 PCOD8083426
Probable space group: C 2/M
;
_chemical_formula_sum "Si O2"
_cell_formula_units_Z 48
_cell_length_a 23.025081
_cell_length_b 14.700604
_cell_length_c 7.328042
_cell_angle_alpha 90.000000
_cell_angle_beta 68.341961
_cell_angle_gamma 90.000000
_cell_volume 2305.305128
_symmetry_space_group_name_H-M "C 2/M"
_symmetry_group_IT_number 12
_symmetry_cell_setting 'monoclinic'
loop_
_space_group_symop_operation_xyz
x,y,z
-x,y,-z
-x,-y,-z
x,-y,z
1/2+x,1/2+y,z
1/2-x,1/2+y,-z
1/2-x,1/2-y,-z
1/2+x,1/2-y,z
loop_
_atom_site_type_symbol
_atom_site_label
_atom_site_fract_x
_atom_site_fract_y
_atom_site_fract_z
Si Si1 0.295497 0.365022 0.536032
Si Si2 0.376521 0.397951 0.111971
Si Si3 0.666006 0.162943 0.545428
Si Si4 0.569364 0.789611 0.968651
Si Si5 0.862241 0.605849 0.811655
Si Si6 0.273660 0.399371 0.961829
O O1 0.349459 0.406840 0.347221
O O2 0.305423 0.258398 0.548242
O O3 0.226819 0.393609 0.540522
O O4 0.303082 0.405671 0.727837
O O5 0.399894 0.500000 0.025357
O O6 0.430203 0.321399 0.034288
O O7 0.322749 0.354579 0.044140
O O8 0.616842 0.169677 0.765598
O O9 0.631461 0.116224 0.414168
O O10 0.500000 0.821478 0.000000
O O11 0.586117 0.832707 0.146154
O O12 0.871151 0.500000 0.856376
O O13 0.794505 0.647472 0.951631
O O14 0.263028 0.500000 0.053555
#
# Coordination Sequence:
#
# PCOD8083426 Si02
#       6
#     8   8   8   8   8   8
#     4  10  18  32  57  88 121 150 182 238 301 356
#     4  10  21  37  61  93 123 151 189 241 301 360
#     4  10  21  35  57  85 114 154 196 240 295 343
#     4  11  25  43  60  82 118 164 208 243 282 343
#     4  11  23  38  60  88 119 155 196 247 300 350
#     4  10  19  31  55  89 120 147 180 235 301 358
#
# _framework density 20.821539000000001
#
# number of rings (size 3 to 8) (size 9 to 14) (size 15 to 20)
#    0.000    1.667    3.333    1.500    0.000    4.000 
#    0.000    0.833    0.000    0.000    0.000    9.333 
#    0.000    0.000    0.000    0.000    0.000    0.000 
#
# Total GULP energy -297522.444657 kJ/mol
# GULP energy per Si atom -12396.768527 kJ/mol
# Density = 2.077415 g / cm^3
# Si number density = 20.821539 Si / 1000 Ang^3
#
#
#
# Elastic Constant Matrix: (Units=GPa)
#
#
# Indices 1 2 3 4 5 6 
#
# 1 73.4550 7.0819 12.6568 0.0000 5.8472 0.0000
# 2 7.0819 64.8823 13.9676 0.0000 -2.3391 0.0000
# 3 12.6568 13.9676 88.3057 0.0000 20.8463 0.0000
# 4 0.0000 0.0000 0.0000 38.6753 0.0000 24.3631
# 5 5.8472 -2.3391 20.8463 0.0000 22.0391 0.0000
# 6 0.0000 0.0000 0.0000 24.3631 0.0000 38.1191
#
#
#
# Elastic Compliance Matrix: (Units=1/GPa)
#
#
# Indices 1 2 3 4 5 6 
#
# 1 0.014171 -0.001403 -0.001141 0.000000 -0.002829 0.000000
# 2 -0.001403 0.016582 -0.003766 0.000000 0.005694 0.000000
# 3 -0.001141 -0.003766 0.015587 0.000000 -0.014840 0.000000
# 4 0.000000 0.000000 0.000000 0.043282 0.000000 -0.027663
# 5 -0.002829 0.005694 -0.014840 0.000000 0.060766 0.000000
# 6 0.000000 0.000000 0.000000 -0.027663 0.000000 0.043914
#
#
# Mechanical properties :
#
#
# Convention : Reuss Voigt Hill
#
# Bulk Modulus (GPa) = 29.65699 32.67284 31.16492
# Shear Modulus (GPa) = 22.91878 32.62913 27.77396
#
# Velocity S-wave (km/s) = 3.32132 3.96294 3.65623
# Velocity P-wave (km/s) = 5.38354 6.05522 5.72924
#
# Compressibility (1/GPa) = 0.03371886
#
# Stress axis : x y z
#
# Youngs Moduli (GPa) = 70.56716 60.30757 64.15660
#
# Poissons Ratio (x) = 0.08461 0.07322
# Poissons Ratio (y) = 0.09901 0.24161
# Poissons Ratio (z) = 0.08054 0.22711
#
# Static dielectric constant tensor:
#      x y z
#    x 3.478230 0.000000 0.182550 
#    y 0.000000 3.706780 0.000000 
#    z 0.182550 0.000000 3.638780 
# 
# 
# High freq. dielectric constant tensor:
#      x y z
#    x 1.777880 0.000000 0.019910 
#    y 0.000000 1.817080 0.000000 
#    z 0.019910 0.000000 1.816100 
# 
# From -- ./inp_files/24728.got.cif
#   From: 2010.06.25/outbox.cif.g09.slc.cpg/sg12_13_cif.got.tgz:24728.got - 2010.06.28 00:19:55.
