data_PCOD8083098
_publ_section_title
;
Structure prediction by ZEFSAII (Michael W. Deem and Ramdas Pophale) SiO2 
 PCOD8083098
Probable space group: C 2/M
;
_chemical_formula_sum "Si O2"
_cell_formula_units_Z 56
_cell_length_a 20.304016
_cell_length_b 8.942723
_cell_length_c 29.870408
_cell_angle_alpha 90.000000
_cell_angle_beta 146.379440
_cell_angle_gamma 90.000000
_cell_volume 3003.031399
_symmetry_space_group_name_H-M "C 2/M"
_symmetry_group_IT_number 12
_symmetry_cell_setting 'monoclinic'
loop_
_space_group_symop_operation_xyz
x,y,z
-x,y,-z
-x,-y,-z
x,-y,z
1/2+x,1/2+y,z
1/2-x,1/2+y,-z
1/2-x,1/2-y,-z
1/2+x,1/2-y,z
loop_
_atom_site_type_symbol
_atom_site_label
_atom_site_fract_x
_atom_site_fract_y
_atom_site_fract_z
Si Si1 0.703768 0.674708 0.161611
Si Si2 0.777075 0.175954 0.655825
Si Si3 0.135384 0.326846 0.663411
Si Si4 0.011244 0.327473 0.914193
Si Si5 0.571907 0.331026 0.494844
Si Si6 0.760250 0.826742 0.101263
Si Si7 0.986968 0.323939 0.187922
O O1 0.699984 0.500000 0.147439
O O2 0.802434 0.710263 0.254748
O O3 0.574413 0.722986 0.105409
O O4 0.738480 0.771405 0.138852
O O5 0.723763 0.223538 0.673749
O O6 0.693701 0.238166 0.568828
O O7 0.906372 0.248786 0.724105
O O8 0.788705 0.000000 0.657015
O O9 0.104445 0.500000 0.640391
O O10 0.010868 0.237895 0.590909
O O11 0.973226 0.500000 0.899055
O O12 0.003837 0.277257 0.858630
O O13 0.144135 0.299671 0.005909
O O14 0.500000 0.320720 0.500000
O O15 0.604271 0.500000 0.500265
O O16 0.863536 0.731905 0.137465
O O17 0.796284 0.000000 0.122801
O O18 0.994611 0.500000 0.198615
#
# Coordination Sequence:
#
# PCOD8083098 Si02
#       7
#     8   8   8   8   8   8   8
#     4  11  22  37  58  84 113 147 188 231 276 329
#     4  10  18  32  53  79 111 146 181 223 275 328
#     4   9  18  32  51  78 110 144 181 223 272 325
#     4  10  22  39  59  82 110 144 186 235 283 331
#     4   9  17  28  47  78 111 142 178 224 271 319
#     4  11  24  40  56  79 112 150 188 229 282 336
#     4  11  22  37  58  83 111 145 187 234 279 329
#
# _framework density 18.647824
#
# number of rings (size 3 to 8) (size 9 to 14) (size 15 to 20)
#    0.000    1.857    1.429    3.000    0.000    6.857 
#    0.000    0.000    0.000    0.857    0.000    0.000 
#    0.000    0.000    0.000    0.000    0.000    0.000 
#
# Total GULP energy -347320.442324 kJ/mol
# GULP energy per Si atom -12404.301512 kJ/mol
# Density = 1.860538 g / cm^3
# Si number density = 18.647824 Si / 1000 Ang^3
#
#
#
# Elastic Constant Matrix: (Units=GPa)
#
#
# Indices 1 2 3 4 5 6 
#
# 1 61.8371 24.1828 26.1188 0.0000 16.7687 0.0000
# 2 24.1828 84.4448 52.1836 -0.0001 4.5299 0.0001
# 3 26.1188 52.1836 114.4375 0.0000 16.1617 0.0000
# 4 0.0000 -0.0001 0.0000 37.9723 0.0000 5.0569
# 5 16.7687 4.5299 16.1617 0.0000 21.2303 0.0000
# 6 0.0000 0.0001 0.0000 5.0569 0.0000 29.2573
#
#
#
# Elastic Compliance Matrix: (Units=1/GPa)
#
#
# Indices 1 2 3 4 5 6 
#
# 1 0.022998 -0.005435 -0.000413 0.000000 -0.016690 0.000000
# 2 -0.005435 0.017889 -0.007826 0.000000 0.006433 0.000000
# 3 -0.000413 -0.007826 0.013579 0.000000 -0.008341 0.000000
# 4 0.000000 0.000000 0.000000 0.026955 0.000000 -0.004659
# 5 -0.016690 0.006433 -0.008341 0.000000 0.065262 0.000000
# 6 0.000000 0.000000 0.000000 -0.004659 0.000000 0.034985
#
#
# Mechanical properties :
#
#
# Convention : Reuss Voigt Hill
#
# Bulk Modulus (GPa) = 36.87591 51.74330 44.30961
# Shear Modulus (GPa) = 22.92985 28.24091 25.58538
#
# Velocity S-wave (km/s) = 3.51041 3.89580 3.70811
# Velocity P-wave (km/s) = 6.02067 6.93139 6.49202
#
# Compressibility (1/GPa) = 0.02711797
#
# Stress axis : x y z
#
# Youngs Moduli (GPa) = 43.48275 55.89913 73.64201
#
# Poissons Ratio (x) = 0.30382 0.03044
# Poissons Ratio (y) = 0.23634 0.57629
# Poissons Ratio (z) = 0.01797 0.43744
#
# Static dielectric constant tensor:
#      x y z
#    x 0.813230 0.000000 0.335420 
#    y 0.000000 3.508080 0.000000 
#    z 0.335420 0.000000 3.556540 
# 
# 
# High freq. dielectric constant tensor:
#      x y z
#    x 1.688570 0.000000 0.003930 
#    y 0.000000 1.735550 0.000000 
#    z 0.003930 0.000000 1.741480 
# 
# From -- ./inp_files/314394.got.cif
#   From: 2010.06.25/outbox.cif.g09.slc.cpg/sg12_158_cif.got.tgz:314394.got - 2010.06.28 00:19:55.
