data_PCOD8083862
_publ_section_title
;
Structure prediction by ZEFSAII (Michael W. Deem and Ramdas Pophale) SiO2 
 PCOD8083862
Probable space group: C 2/M
;
_chemical_formula_sum "Si O2"
_cell_formula_units_Z 64
_cell_length_a 28.726799
_cell_length_b 8.878401
_cell_length_c 15.490111
_cell_angle_alpha 90.000000
_cell_angle_beta 56.222272
_cell_angle_gamma 90.000000
_cell_volume 3283.843079
_symmetry_space_group_name_H-M "C 2/M"
_symmetry_group_IT_number 12
_symmetry_cell_setting 'monoclinic'
loop_
_space_group_symop_operation_xyz
x,y,z
-x,y,-z
-x,-y,-z
x,-y,z
1/2+x,1/2+y,z
1/2-x,1/2+y,-z
1/2-x,1/2-y,-z
1/2+x,1/2-y,z
loop_
_atom_site_type_symbol
_atom_site_label
_atom_site_fract_x
_atom_site_fract_y
_atom_site_fract_z
Si Si1 0.189608 0.821706 0.053617
Si Si2 0.621361 0.176996 0.458311
Si Si3 0.998507 0.677650 0.646367
Si Si4 0.622643 0.177890 0.971513
Si Si5 0.113800 0.822065 0.291995
Si Si6 0.997321 0.321392 0.842583
Si Si7 0.613534 0.178293 0.788397
Si Si8 0.689745 0.821234 0.555186
O O1 0.150261 0.765572 0.172792
O O2 0.195392 0.000000 0.047944
O O3 0.250000 0.750000 0.000000
O O4 0.164384 0.768020 0.989233
O O5 0.557214 0.221538 0.542974
O O6 0.642232 0.261603 0.350630
O O7 0.659889 0.231281 0.497871
O O8 0.627508 0.000000 0.437652
O O9 0.988001 0.500000 0.653194
O O10 0.948771 0.757416 0.646552
O O11 0.998612 0.739064 0.743738
O O12 0.637016 0.222716 0.858217
O O13 0.629408 0.000000 0.981681
O O14 0.559312 0.233019 0.053535
O O15 0.111486 0.000000 0.296758
O O16 0.000263 0.500000 0.838952
O O17 0.050910 0.255706 0.838615
O O18 0.654359 0.242122 0.672664
O O19 0.609803 0.000000 0.783800
O O20 0.750000 0.750000 0.500000
O O21 0.694319 0.000000 0.554135
#
# Coordination Sequence:
#
# PCOD8083862 Si02
#       8
#     8   8   8   8   8   8   8   8
#     4  11  25  43  60  79 109 148 191 237 283 334
#     4  10  21  37  59  85 114 151 192 230 273 330
#     4  10  18  33  59  87 115 148 187 228 273 331
#     4  10  19  33  60  91 115 143 180 226 281 334
#     4  11  24  39  57  84 116 147 183 232 289 338
#     4   9  15  28  55  88 116 143 179 222 269 327
#     4   9  17  32  56  87 117 144 180 227 274 326
#     4  10  21  38  57  79 111 148 188 232 275 323
#
# _framework density 19.489360000000001
#
# number of rings (size 3 to 8) (size 9 to 14) (size 15 to 20)
#    0.000    2.000    2.500    1.500    0.000    6.500 
#    0.000    4.375    0.000    3.000    0.000    0.000 
#    0.000    0.000    0.000    0.000    0.000    0.000 
#
# Total GULP energy -396829.441150 kJ/mol
# GULP energy per Si atom -12400.920036 kJ/mol
# Density = 1.944500 g / cm^3
# Si number density = 19.489360 Si / 1000 Ang^3
#
#
#
# Elastic Constant Matrix: (Units=GPa)
#
#
# Indices 1 2 3 4 5 6 
#
# 1 163.0079 39.1648 88.5588 0.0000 3.2255 0.0000
# 2 39.1648 35.0441 26.3394 0.0000 1.5226 0.0003
# 3 88.5588 26.3394 94.2754 0.0000 15.5711 0.0000
# 4 0.0000 0.0000 0.0000 24.1758 0.0000 -0.8106
# 5 3.2255 1.5226 15.5711 0.0000 37.8120 0.0000
# 6 0.0000 0.0003 0.0000 -0.8106 0.0000 27.6203
#
#
#
# Elastic Compliance Matrix: (Units=1/GPa)
#
#
# Indices 1 2 3 4 5 6 
#
# 1 0.014391 -0.007080 -0.012216 0.000000 0.004088 0.000000
# 2 -0.007080 0.039902 -0.004648 0.000000 0.000911 0.000000
# 3 -0.012216 -0.004648 0.024870 0.000000 -0.009012 0.000000
# 4 0.000000 0.000000 0.000000 0.041404 0.000000 0.001215
# 5 0.004088 0.000911 -0.009012 0.000000 0.029772 0.000000
# 6 0.000000 0.000000 0.000000 0.001215 0.000000 0.036241
#
#
# Mechanical properties :
#
#
# Convention : Reuss Voigt Hill
#
# Bulk Modulus (GPa) = 31.97446 66.71704 49.34575
# Shear Modulus (GPa) = 20.41704 27.13923 23.77814
#
# Velocity S-wave (km/s) = 3.24018 3.73569 3.49672
# Velocity P-wave (km/s) = 5.51725 7.27420 6.45578
#
# Compressibility (1/GPa) = 0.03127496
#
# Stress axis : x y z
#
# Youngs Moduli (GPa) = 69.48556 25.06164 40.20962
#
# Poissons Ratio (x) = 0.17743 0.49120
# Poissons Ratio (y) = 0.49193 0.18690
# Poissons Ratio (z) = 0.84884 0.11649
#
# Static dielectric constant tensor:
#      x y z
#    x 3.467860 0.000000 0.135120 
#    y 0.000000 3.148550 0.000000 
#    z 0.135120 0.000000 3.822410 
# 
# 
# High freq. dielectric constant tensor:
#      x y z
#    x 1.768510 0.000000 0.009750 
#    y 0.000000 1.719460 0.000000 
#    z 0.009750 0.000000 1.770290 
# 
# From -- ./inp_files/249724.got.cif
#   From: 2010.06.25/outbox.cif.g09.slc.cpg/sg12_125_cif.got.tgz:249724.got - 2010.06.28 00:19:55.
