data_PCOD8083812
_publ_section_title
;
Structure prediction by ZEFSAII (Michael W. Deem and Ramdas Pophale) SiO2 
 PCOD8083812
Probable space group: C 2/M
;
_chemical_formula_sum "Si O2"
_cell_formula_units_Z 64
_cell_length_a 30.548239
_cell_length_b 9.136848
_cell_length_c 16.257869
_cell_angle_alpha 90.000000
_cell_angle_beta 132.910493
_cell_angle_gamma 90.000000
_cell_volume 3323.573900
_symmetry_space_group_name_H-M "C 2/M"
_symmetry_group_IT_number 12
_symmetry_cell_setting 'monoclinic'
loop_
_space_group_symop_operation_xyz
x,y,z
-x,y,-z
-x,-y,-z
x,-y,z
1/2+x,1/2+y,z
1/2-x,1/2+y,-z
1/2-x,1/2-y,-z
1/2+x,1/2-y,z
loop_
_atom_site_type_symbol
_atom_site_label
_atom_site_fract_x
_atom_site_fract_y
_atom_site_fract_z
Si Si1 0.911926 0.831956 0.692873
Si Si2 0.866845 0.326686 0.337217
Si Si3 0.974116 0.831386 0.054836
Si Si4 0.710157 0.670898 0.381737
Si Si5 0.261534 0.325915 0.766624
Si Si6 0.915703 0.326048 0.229564
Si Si7 0.366292 0.173554 0.991764
Si Si8 0.449490 0.826943 0.587981
O O1 0.859113 0.792891 0.688813
O O2 0.906822 0.735143 0.604791
O O3 0.975144 0.796320 0.814425
O O4 0.907233 0.000000 0.660474
O O5 0.864379 0.500000 0.330626
O O6 0.804156 0.269221 0.292524
O O7 0.879414 0.264267 0.261863
O O8 0.921190 0.276323 0.465319
O O9 0.952802 0.000000 0.031543
O O10 0.918466 0.725903 0.998048
O O11 0.000000 0.792276 0.000000
O O12 0.724165 0.500000 0.405977
O O13 0.750000 0.750000 0.500000
O O14 0.724908 0.727591 0.308899
O O15 0.268912 0.500000 0.783466
O O16 0.305234 0.249529 0.887230
O O17 0.919209 0.500000 0.237222
O O18 0.983352 0.263540 0.318824
O O19 0.881960 0.273621 0.104321
O O20 0.359756 0.000000 0.977579
O O21 0.448893 0.000000 0.595794
#
# Coordination Sequence:
#
# PCOD8083812 Si02
#       8
#     8   8   8   8   8   8   8   8
#     4  10  20  33  52  78 110 143 174 216 275 331
#     4   9  18  33  57  83 106 143 190 231 274 328
#     4  10  20  36  57  78 104 143 185 222 266 326
#     4  10  21  37  56  81 112 146 185 228 272 321
#     4  10  21  38  57  79 110 150 195 230 265 328
#     4   9  18  33  54  84 115 139 177 234 285 325
#     4  11  22  36  55  82 115 146 179 230 282 326
#     4  10  18  33  58  84 110 140 180 230 278 329
#
# _framework density 19.256378999999999
#
# number of rings (size 3 to 8) (size 9 to 14) (size 15 to 20)
#    0.000    2.125    1.250    2.250    0.000    6.250 
#    0.000    1.875    0.000    4.500    0.000    0.000 
#    0.000    0.000    0.000    0.000    0.000    0.000 
#
# Total GULP energy -396838.099735 kJ/mol
# GULP energy per Si atom -12401.190617 kJ/mol
# Density = 1.921255 g / cm^3
# Si number density = 19.256379 Si / 1000 Ang^3
#
#
#
# Elastic Constant Matrix: (Units=GPa)
#
#
# Indices 1 2 3 4 5 6 
#
# 1 137.5231 28.3413 70.2577 0.0000 -6.4985 0.0000
# 2 28.3413 30.8321 35.0774 0.0000 -1.0114 0.0000
# 3 70.2577 35.0774 140.6679 0.0000 -7.3266 0.0000
# 4 0.0000 0.0000 0.0000 30.6081 0.0000 1.4173
# 5 -6.4985 -1.0114 -7.3266 0.0000 35.5960 0.0000
# 6 0.0000 0.0000 0.0000 1.4173 0.0000 22.2119
#
#
#
# Elastic Compliance Matrix: (Units=1/GPa)
#
#
# Indices 1 2 3 4 5 6 
#
# 1 0.010327 -0.005095 -0.003838 0.000000 0.000951 0.000000
# 2 -0.005095 0.047832 -0.009462 0.000000 -0.001519 0.000000
# 3 -0.003838 -0.009462 0.011458 0.000000 0.001389 0.000000
# 4 0.000000 0.000000 0.000000 0.032768 0.000000 -0.002091
# 5 0.000951 -0.001519 0.001389 0.000000 0.028509 0.000000
# 6 0.000000 0.000000 0.000000 -0.002091 0.000000 0.045154
#
#
# Mechanical properties :
#
#
# Convention : Reuss Voigt Hill
#
# Bulk Modulus (GPa) = 30.46284 64.04177 47.25231
# Shear Modulus (GPa) = 22.34327 29.37296 25.85812
#
# Velocity S-wave (km/s) = 3.41002 3.90983 3.66845
# Velocity P-wave (km/s) = 5.59985 7.32884 6.52189
#
# Compressibility (1/GPa) = 0.03282688
#
# Stress axis : x y z
#
# Youngs Moduli (GPa) = 96.83155 20.90641 87.27867
#
# Poissons Ratio (x) = 0.10653 0.33497
# Poissons Ratio (y) = 0.49340 0.82581
# Poissons Ratio (z) = 0.37163 0.19781
#
# Static dielectric constant tensor:
#      x y z
#    x 3.780780 0.000000 0.005570 
#    y 0.000000 3.185920 0.000000 
#    z 0.005570 0.000000 3.740850 
# 
# 
# High freq. dielectric constant tensor:
#      x y z
#    x 1.760150 0.000000 -0.002190 
#    y 0.000000 1.712070 0.000000 
#    z -0.002190 0.000000 1.760900 
# 
# From -- ./inp_files/250055.got.cif
#   From: 2010.06.25/outbox.cif.g09.slc.cpg/sg12_126_cif.got.tgz:250055.got - 2010.06.28 00:19:55.
