data_PCOD8083795
_publ_section_title
;
Structure prediction by ZEFSAII (Michael W. Deem and Ramdas Pophale) SiO2 
 PCOD8083795
Probable space group: C 2/M
;
_chemical_formula_sum "Si O2"
_cell_formula_units_Z 56
_cell_length_a 19.127122
_cell_length_b 8.932330
_cell_length_c 19.803831
_cell_angle_alpha 90.000000
_cell_angle_beta 64.218123
_cell_angle_gamma 90.000000
_cell_volume 3046.676092
_symmetry_space_group_name_H-M "C 2/M"
_symmetry_group_IT_number 12
_symmetry_cell_setting 'monoclinic'
loop_
_space_group_symop_operation_xyz
x,y,z
-x,y,-z
-x,-y,-z
x,-y,z
1/2+x,1/2+y,z
1/2-x,1/2+y,-z
1/2-x,1/2-y,-z
1/2+x,1/2-y,z
loop_
_atom_site_type_symbol
_atom_site_label
_atom_site_fract_x
_atom_site_fract_y
_atom_site_fract_z
Si Si1 0.374076 0.178724 0.762577
Si Si2 0.202828 0.178825 0.580171
Si Si3 0.017318 0.663434 0.069906
Si Si4 0.177388 0.325106 0.067227
Si Si5 0.589006 0.667061 0.797382
Si Si6 0.550278 0.825665 0.682701
Si Si7 0.758771 0.668568 0.701100
O O1 0.342574 0.238298 0.848623
O O2 0.461913 0.229473 0.708198
O O3 0.323042 0.247609 0.721867
O O4 0.369131 0.000000 0.766702
O O5 0.250000 0.250000 0.500000
O O6 0.113211 0.233269 0.612201
O O7 0.242691 0.238587 0.633352
O O8 0.203633 0.000000 0.576307
O O9 0.002361 0.500000 0.111002
O O10 0.104837 0.712226 0.049487
O O11 0.959438 0.794429 0.116456
O O12 0.000000 0.644887 0.000000
O O13 0.195221 0.500000 0.064366
O O14 0.250000 0.250000 0.000000
O O15 0.568911 0.500000 0.778689
O O16 0.567332 0.794473 0.753359
O O17 0.679637 0.674697 0.777426
O O18 0.560171 0.000000 0.661655
O O19 0.786860 0.500000 0.676578
#
# Coordination Sequence:
#
# PCOD8083795 Si02
#       7
#     8   8   8   8   8   8   8
#     4   9  17  33  55  76 104 139 179 221 265 317
#     4  10  20  36  58  84 113 141 175 216 260 313
#     4  10  21  36  51  70 102 138 178 224 274 325
#     4  10  21  36  52  74 104 142 180 223 275 321
#     4  10  19  32  52  76 102 134 178 224 264 311
#     4  10  18  33  58  81 105 140 175 212 265 317
#     4   8  17  32  52  79 105 132 173 221 259 305
#
# _framework density 18.380687000000002
#
# number of rings (size 3 to 8) (size 9 to 14) (size 15 to 20)
#    0.000    2.429    1.429    2.143    2.000    0.857 
#    0.000    0.714    0.000   15.429    0.000    0.000 
#    0.000    0.000    0.000    0.000    0.000    0.000 
#
# Total GULP energy -346899.951630 kJ/mol
# GULP energy per Si atom -12389.283987 kJ/mol
# Density = 1.833885 g / cm^3
# Si number density = 18.380687 Si / 1000 Ang^3
#
#
#
# Elastic Constant Matrix: (Units=GPa)
#
#
# Indices 1 2 3 4 5 6 
#
# 1 146.4901 35.2034 74.6635 0.0000 -6.3046 0.0000
# 2 35.2034 50.9963 41.0866 0.0000 -10.1690 -0.0002
# 3 74.6635 41.0866 133.1045 0.0000 -19.2216 0.0000
# 4 0.0000 0.0000 0.0000 30.0494 0.0000 -7.8458
# 5 -6.3046 -10.1690 -19.2216 0.0000 24.7811 0.0000
# 6 0.0000 -0.0002 0.0000 -7.8458 0.0000 19.9046
#
#
#
# Elastic Compliance Matrix: (Units=1/GPa)
#
#
# Indices 1 2 3 4 5 6 
#
# 1 0.010083 -0.003500 -0.004969 0.000000 -0.002725 0.000000
# 2 -0.003500 0.027883 -0.005765 0.000000 0.006079 0.000000
# 3 -0.004969 -0.005765 0.013013 0.000000 0.006464 0.000000
# 4 0.000000 0.000000 0.000000 0.037096 0.000000 0.014622
# 5 -0.002725 0.006079 0.006464 0.000000 0.047168 0.000000
# 6 0.000000 0.000000 0.000000 0.014622 0.000000 0.056003
#
#
# Mechanical properties :
#
#
# Convention : Reuss Voigt Hill
#
# Bulk Modulus (GPa) = 44.42569 70.27753 57.35161
# Shear Modulus (GPa) = 22.00509 26.92284 24.46397
#
# Velocity S-wave (km/s) = 3.46379 3.83134 3.65219
# Velocity P-wave (km/s) = 6.34187 7.60852 7.00389
#
# Compressibility (1/GPa) = 0.02250950
#
# Stress axis : x y z
#
# Youngs Moduli (GPa) = 99.17787 35.86412 76.84448
#
# Poissons Ratio (x) = 0.12554 0.38184
# Poissons Ratio (y) = 0.34717 0.44304
# Poissons Ratio (z) = 0.49281 0.20677
#
# Static dielectric constant tensor:
#      x y z
#    x 3.768450 0.000000 -0.214050 
#    y 0.000000 3.288770 0.000000 
#    z -0.214050 0.000000 3.531750 
# 
# 
# High freq. dielectric constant tensor:
#      x y z
#    x 1.715870 0.000000 -0.009450 
#    y 0.000000 1.688460 0.000000 
#    z -0.009450 0.000000 1.704700 
# 
# From -- ./inp_files/313685.got.cif
#   From: 2010.06.25/outbox.cif.g09.slc.cpg/sg12_157_cif.got.tgz:313685.got - 2010.06.28 00:19:55.
