data_PCOD8083091
_publ_section_title
;
Structure prediction by ZEFSAII (Michael W. Deem and Ramdas Pophale) SiO2 
 PCOD8083091
Probable space group: C 2/M
;
_chemical_formula_sum "Si O2"
_cell_formula_units_Z 56
_cell_length_a 31.219954
_cell_length_b 9.039582
_cell_length_c 11.802041
_cell_angle_alpha 90.000000
_cell_angle_beta 56.642682
_cell_angle_gamma 90.000000
_cell_volume 2782.007000
_symmetry_space_group_name_H-M "C 2/M"
_symmetry_group_IT_number 12
_symmetry_cell_setting 'monoclinic'
loop_
_space_group_symop_operation_xyz
x,y,z
-x,y,-z
-x,-y,-z
x,-y,z
1/2+x,1/2+y,z
1/2-x,1/2+y,-z
1/2-x,1/2-y,-z
1/2+x,1/2-y,z
loop_
_atom_site_type_symbol
_atom_site_label
_atom_site_fract_x
_atom_site_fract_y
_atom_site_fract_z
Si Si1 0.113847 0.328503 0.824635
Si Si2 0.891770 0.670159 0.915063
Si Si3 0.917336 0.824173 0.352988
Si Si4 0.195056 0.174785 0.083811
Si Si5 0.230189 0.326347 0.639593
Si Si6 0.174945 0.826266 0.360895
Si Si7 0.994634 0.327887 0.638450
O O1 0.109702 0.500000 0.796430
O O2 0.084252 0.234897 0.773146
O O3 0.172721 0.275549 0.749675
O O4 0.089078 0.298192 0.984194
O O5 0.874307 0.500000 0.930437
O O6 0.841967 0.768658 0.961439
O O7 0.937104 0.707529 0.762239
O O8 0.869051 0.757479 0.494191
O O9 0.968576 0.770101 0.338507
O O10 0.917432 0.000000 0.348990
O O11 0.167393 0.221270 0.241958
O O12 0.202799 0.000000 0.062680
O O13 0.250000 0.250000 0.000000
O O14 0.233157 0.500000 0.616498
O O15 0.250000 0.250000 0.500000
O O16 0.268080 0.274654 0.685216
O O17 0.169961 0.000000 0.381078
O O18 0.008248 0.500000 0.635502
O O19 0.000000 0.280112 0.500000
#
# Coordination Sequence:
#
# PCOD8083091 Si02
#       7
#     8   8   8   8   8   8   8
#     4  10  21  37  58  83 116 156 193 235 290 350
#     4  10  22  41  62  84 116 156 193 237 292 345
#     4  11  22  37  60  87 116 150 193 243 289 341
#     4  11  22  38  60  86 118 154 193 236 285 345
#     4  10  18  32  53  78 111 148 187 229 276 333
#     4   9  19  35  55  81 116 153 188 235 291 341
#     4  10  22  41  64  88 115 148 192 243 292 346
#
# _framework density 20.129352000000001
#
# number of rings (size 3 to 8) (size 9 to 14) (size 15 to 20)
#    0.000    1.857    1.429    2.571    0.000    4.286 
#    0.000    7.857    0.000    0.000    0.000    0.000 
#    0.000    0.000    0.000    0.000    0.000    0.000 
#
# Total GULP energy -347223.986562 kJ/mol
# GULP energy per Si atom -12400.856663 kJ/mol
# Density = 2.008354 g / cm^3
# Si number density = 20.129352 Si / 1000 Ang^3
#
#
#
# Elastic Constant Matrix: (Units=GPa)
#
#
# Indices 1 2 3 4 5 6 
#
# 1 125.9341 55.9334 46.8168 0.0000 12.9807 0.0000
# 2 55.9334 69.9491 43.0682 0.0000 4.4639 0.0000
# 3 46.8168 43.0682 119.9175 0.0000 8.6292 0.0000
# 4 0.0000 0.0000 0.0000 25.7348 0.0000 0.9409
# 5 12.9807 4.4639 8.6292 0.0000 29.9813 0.0000
# 6 0.0000 0.0000 0.0000 0.9409 0.0000 33.7268
#
#
#
# Elastic Compliance Matrix: (Units=1/GPa)
#
#
# Indices 1 2 3 4 5 6 
#
# 1 0.012982 -0.009226 -0.001480 0.000000 -0.003821 0.000000
# 2 -0.009226 0.024933 -0.005487 0.000000 0.001861 0.000000
# 3 -0.001480 -0.005487 0.011011 0.000000 -0.001711 0.000000
# 4 0.000000 0.000000 0.000000 0.038898 0.000000 -0.001085
# 5 -0.003821 0.001861 -0.001711 0.000000 0.035224 0.000000
# 6 0.000000 0.000000 0.000000 -0.001085 0.000000 0.029680
#
#
# Mechanical properties :
#
#
# Convention : Reuss Voigt Hill
#
# Bulk Modulus (GPa) = 60.45740 67.49305 63.97522
# Shear Modulus (GPa) = 26.22927 29.22074 27.72501
#
# Velocity S-wave (km/s) = 3.61368 3.81418 3.71528
# Velocity P-wave (km/s) = 6.89284 7.28010 7.08911
#
# Compressibility (1/GPa) = 0.01654057
#
# Stress axis : x y z
#
# Youngs Moduli (GPa) = 77.02688 40.10753 90.82225
#
# Poissons Ratio (x) = 0.37004 0.13441
# Poissons Ratio (y) = 0.71066 0.49831
# Poissons Ratio (z) = 0.11400 0.22006
#
# Static dielectric constant tensor:
#      x y z
#    x 3.430570 0.000000 0.092230 
#    y 0.000000 3.427100 0.000000 
#    z 0.092230 0.000000 3.852280 
# 
# 
# High freq. dielectric constant tensor:
#      x y z
#    x 1.789580 0.000000 0.006400 
#    y 0.000000 1.765640 0.000000 
#    z 0.006400 0.000000 1.796860 
# 
# From -- ./inp_files/187159.got.cif
#   From: 2010.06.25/outbox.cif.g09.slc.cpg/sg12_94_cif.got.tgz:187159.got - 2010.06.28 00:19:55.
