data_PCOD8083123
_publ_section_title
;
Structure prediction by ZEFSAII (Michael W. Deem and Ramdas Pophale) SiO2 
 PCOD8083123
Probable space group: C 2/M
;
_chemical_formula_sum "Si O2"
_cell_formula_units_Z 48
_cell_length_a 23.522073
_cell_length_b 17.046609
_cell_length_c 10.298300
_cell_angle_alpha 90.000000
_cell_angle_beta 38.883324
_cell_angle_gamma 90.000000
_cell_volume 2592.128515
_symmetry_space_group_name_H-M "C 2/M"
_symmetry_group_IT_number 12
_symmetry_cell_setting 'monoclinic'
loop_
_space_group_symop_operation_xyz
x,y,z
-x,y,-z
-x,-y,-z
x,-y,z
1/2+x,1/2+y,z
1/2-x,1/2+y,-z
1/2-x,1/2-y,-z
1/2+x,1/2-y,z
loop_
_atom_site_type_symbol
_atom_site_label
_atom_site_fract_x
_atom_site_fract_y
_atom_site_fract_z
Si Si1 0.435298 0.152541 0.225490
Si Si2 0.770921 0.091083 0.155559
Si Si3 0.540660 0.590935 0.292264
Si Si4 0.056118 0.838851 0.778858
Si Si5 0.066814 0.591956 0.490335
Si Si6 0.761972 0.839861 0.442843
O O1 0.437509 0.245827 0.220574
O O2 0.465154 0.124646 0.314282
O O3 0.335395 0.118538 0.367257
O O4 0.500000 0.117096 0.000000
O O5 0.672216 0.113193 0.271625
O O6 0.792376 0.147563 0.239096
O O7 0.771200 0.000000 0.200175
O O8 0.850700 0.105830 0.908162
O O9 0.500000 0.621577 0.500000
O O10 0.517940 0.500000 0.312823
O O11 0.488845 0.638726 0.275110
O O12 0.158446 0.874514 0.606849
O O13 0.000000 0.873327 0.000000
O O14 0.052834 0.500000 0.518892
O O15 0.000000 0.628827 0.500000
O O16 0.750000 0.750000 0.500000
#
# Coordination Sequence:
#
# PCOD8083123 Si02
#       6
#     8   8   8   8   8   8
#     4   9  19  33  51  75 104 130 163 215 259 293
#     4   9  17  32  54  76 102 135 169 207 255 304
#     4  10  21  35  51  76 110 138 165 209 259 303
#     4  10  18  32  54  75 100 136 172 205 247 309
#     4   9  18  34  55  74  97 134 174 208 249 305
#     4   9  17  31  52  75 102 132 168 208 250 297
#
# _framework density 18.517600999999999
#
# number of rings (size 3 to 8) (size 9 to 14) (size 15 to 20)
#    0.000    2.667    1.667    0.000    0.000    2.000 
#    3.000    0.000    0.000    4.000    0.000    0.000 
#    0.000    0.000    0.000    0.000    0.000    0.000 
#
# Total GULP energy -297401.699247 kJ/mol
# GULP energy per Si atom -12391.737469 kJ/mol
# Density = 1.847545 g / cm^3
# Si number density = 18.517601 Si / 1000 Ang^3
#
#
#
# Elastic Constant Matrix: (Units=GPa)
#
#
# Indices 1 2 3 4 5 6 
#
# 1 155.2174 20.5225 84.8895 0.0000 -11.3949 0.0000
# 2 20.5225 19.7806 21.8327 0.0000 0.3741 0.0000
# 3 84.8895 21.8327 164.6088 0.0000 0.5282 0.0000
# 4 0.0000 0.0000 0.0000 15.4132 0.0000 6.8156
# 5 -11.3949 0.3741 0.5282 0.0000 27.1642 0.0000
# 6 0.0000 0.0000 0.0000 6.8156 0.0000 24.5755
#
#
#
# Elastic Compliance Matrix: (Units=1/GPa)
#
#
# Indices 1 2 3 4 5 6 
#
# 1 0.009881 -0.005499 -0.004380 0.000000 0.004306 0.000000
# 2 -0.005499 0.062297 -0.005417 0.000000 -0.003059 0.000000
# 3 -0.004380 -0.005417 0.009059 0.000000 -0.001939 0.000000
# 4 0.000000 0.000000 0.000000 0.073948 0.000000 -0.020508
# 5 0.004306 -0.003059 -0.001939 0.000000 0.038699 0.000000
# 6 0.000000 0.000000 0.000000 -0.020508 0.000000 0.046379
#
#
# Mechanical properties :
#
#
# Convention : Reuss Voigt Hill
#
# Bulk Modulus (GPa) = 19.74556 66.01068 42.87812
# Shear Modulus (GPa) = 17.37703 27.58806 22.48255
#
# Velocity S-wave (km/s) = 3.06666 3.86402 3.48820
# Velocity P-wave (km/s) = 4.81929 7.45872 6.27925
#
# Compressibility (1/GPa) = 0.05064431
#
# Stress axis : x y z
#
# Youngs Moduli (GPa) = 101.20068 16.05226 110.39094
#
# Poissons Ratio (x) = 0.08826 0.48355
# Poissons Ratio (y) = 0.55646 0.59801
# Poissons Ratio (z) = 0.44330 0.08696
#
# Static dielectric constant tensor:
#      x y z
#    x 3.729060 0.000000 -0.314280 
#    y 0.000000 3.133120 0.000000 
#    z -0.314280 0.000000 3.802810 
# 
# 
# High freq. dielectric constant tensor:
#      x y z
#    x 1.719220 0.000000 -0.019700 
#    y 0.000000 1.690650 0.000000 
#    z -0.019700 0.000000 1.723690 
# 
# From -- ./inp_files/62777.got.cif
#   From: 2010.06.25/outbox.cif.g09.slc.cpg/sg12_32_cif.got.tgz:62777.got - 2010.06.28 00:19:55.
