data_PCOD8083032
_publ_section_title
;
Structure prediction by ZEFSAII (Michael W. Deem and Ramdas Pophale) SiO2 
 PCOD8083032
Probable space group: C 2/M
;
_chemical_formula_sum "Si O2"
_cell_formula_units_Z 44
_cell_length_a 19.994219
_cell_length_b 9.243649
_cell_length_c 12.328501
_cell_angle_alpha 90.000000
_cell_angle_beta 78.041581
_cell_angle_gamma 90.000000
_cell_volume 2229.099391
_symmetry_space_group_name_H-M "C 2/M"
_symmetry_group_IT_number 12
_symmetry_cell_setting 'monoclinic'
loop_
_space_group_symop_operation_xyz
x,y,z
-x,y,-z
-x,-y,-z
x,-y,z
1/2+x,1/2+y,z
1/2-x,1/2+y,-z
1/2-x,1/2-y,-z
1/2+x,1/2-y,z
loop_
_atom_site_type_symbol
_atom_site_label
_atom_site_fract_x
_atom_site_fract_y
_atom_site_fract_z
Si Si1 0.824968 0.668770 0.750915
Si Si2 0.063295 0.161544 0.761583
Si Si3 0.140292 0.337690 0.026585
Si Si4 0.308220 0.173126 0.217224
Si Si5 0.000000 0.241156 0.000000
Si Si6 0.973036 0.333447 0.626672
O O1 0.804374 0.500000 0.761590
O O2 0.840532 0.736496 0.865615
O O3 0.763722 0.761682 0.718577
O O4 0.891539 0.691204 0.654411
O O5 0.130827 0.261143 0.731077
O O6 0.033818 0.146291 0.893579
O O7 0.006603 0.230927 0.704023
O O8 0.081056 0.000000 0.715451
O O9 0.165203 0.500000 0.029585
O O10 0.180411 0.270186 0.910565
O O11 0.058827 0.338854 0.034078
O O12 0.309797 0.000000 0.227602
O O13 0.990401 0.500000 0.649303
O O14 0.000000 0.289437 0.500000
#
# Coordination Sequence:
#
# PCOD8083032 Si02
#       6
#     8   8   8   8   4   8
#     4  10  19  35  56  82 114 150 189 234 287 340
#     4  11  22  37  58  86 119 153 191 238 288 340
#     4   9  17  29  51  81 115 153 190 228 279 343
#     4  10  21  35  54  83 117 153 190 232 283 346
#     4  10  18  32  52  86 119 154 187 230 285 344
#     4  10  22  41  64  87 113 150 196 242 286 338
#
# _framework density 19.738913
#
# number of rings (size 3 to 8) (size 9 to 14) (size 15 to 20)
#    0.000    2.000    1.818    2.182    0.000    2.545 
#    0.000    1.818    0.000    0.000    0.000    0.000 
#    0.000    0.000    0.000    0.000    0.000    0.000 
#
# Total GULP energy -272717.238492 kJ/mol
# GULP energy per Si atom -12396.238113 kJ/mol
# Density = 1.969399 g / cm^3
# Si number density = 19.738913 Si / 1000 Ang^3
#
#
#
# Elastic Constant Matrix: (Units=GPa)
#
#
# Indices 1 2 3 4 5 6 
#
# 1 133.8357 55.9188 31.1958 0.0000 -11.4946 0.0000
# 2 55.9188 102.0635 32.5819 0.0000 -3.1839 0.0000
# 3 31.1958 32.5819 56.0262 0.0000 -8.2248 0.0000
# 4 0.0000 0.0000 0.0000 9.5513 0.0000 -4.0924
# 5 -11.4946 -3.1839 -8.2248 0.0000 21.4323 0.0000
# 6 0.0000 0.0000 0.0000 -4.0924 0.0000 31.3350
#
#
#
# Elastic Compliance Matrix: (Units=1/GPa)
#
#
# Indices 1 2 3 4 5 6 
#
# 1 0.010373 -0.004790 -0.002414 0.000000 0.003925 0.000000
# 2 -0.004790 0.014262 -0.006033 0.000000 -0.002765 0.000000
# 3 -0.002414 -0.006033 0.023716 0.000000 0.006910 0.000000
# 4 0.000000 0.000000 0.000000 0.110904 0.000000 0.014484
# 5 0.003925 -0.002765 0.006910 0.000000 0.051005 0.000000
# 6 0.000000 0.000000 0.000000 0.014484 0.000000 0.033805
#
#
# Mechanical properties :
#
#
# Convention : Reuss Voigt Hill
#
# Bulk Modulus (GPa) = 45.71005 59.03538 52.37272
# Shear Modulus (GPa) = 17.99664 23.94563 20.97114
#
# Velocity S-wave (km/s) = 3.02277 3.48676 3.26302
# Velocity P-wave (km/s) = 5.94899 6.79581 6.38645
#
# Compressibility (1/GPa) = 0.02187703
#
# Stress axis : x y z
#
# Youngs Moduli (GPa) = 96.40371 70.11717 42.16647
#
# Poissons Ratio (x) = 0.33587 0.10178
# Poissons Ratio (y) = 0.46179 0.25438
# Poissons Ratio (z) = 0.23270 0.42299
#
# Static dielectric constant tensor:
#      x y z
#    x 3.589860 0.000000 -0.053070 
#    y 0.000000 3.280880 0.000000 
#    z -0.053070 0.000000 3.478200 
# 
# 
# High freq. dielectric constant tensor:
#      x y z
#    x 1.777630 0.000000 -0.004510 
#    y 0.000000 1.750610 0.000000 
#    z -0.004510 0.000000 1.742170 
# 
# From -- ./inp_files/163141.got.cif
#   From: 2010.06.25/outbox.cif.g09.slc.cpg/sg12_82_cif.got.tgz:163141.got - 2010.06.28 00:19:55.
