data_PCOD8083106
_publ_section_title
;
Structure prediction by ZEFSAII (Michael W. Deem and Ramdas Pophale) SiO2 
 PCOD8083106
Probable space group: C 2/M
;
_chemical_formula_sum "Si O2"
_cell_formula_units_Z 64
_cell_length_a 11.749116
_cell_length_b 21.913111
_cell_length_c 17.425441
_cell_angle_alpha 90.000000
_cell_angle_beta 53.852984
_cell_angle_gamma 90.000000
_cell_volume 3622.753915
_symmetry_space_group_name_H-M "C 2/M"
_symmetry_group_IT_number 12
_symmetry_cell_setting 'monoclinic'
loop_
_space_group_symop_operation_xyz
x,y,z
-x,y,-z
-x,-y,-z
x,-y,z
1/2+x,1/2+y,z
1/2-x,1/2+y,-z
1/2-x,1/2-y,-z
1/2+x,1/2-y,z
loop_
_atom_site_type_symbol
_atom_site_label
_atom_site_fract_x
_atom_site_fract_y
_atom_site_fract_z
Si Si1 0.869054 0.143663 0.803984
Si Si2 0.851460 0.267952 0.891589
Si Si3 0.513070 0.429054 0.620286
Si Si4 0.496806 0.930149 0.231185
Si Si5 0.052302 0.355702 0.892139
Si Si6 0.557214 0.428665 0.084169
Si Si7 0.786488 0.882818 0.124781
Si Si8 0.222015 0.930112 0.413036
O O1 0.906213 0.211039 0.819909
O O2 0.990110 0.117252 0.700086
O O3 0.719858 0.147533 0.821131
O O4 0.855228 0.095504 0.878606
O O5 0.760366 0.313485 0.874010
O O6 0.989634 0.295552 0.876640
O O7 0.750000 0.250000 0.000000
O O8 0.531191 0.500000 0.640216
O O9 0.648825 0.403220 0.519170
O O10 0.377983 0.424257 0.620152
O O11 0.501194 0.910648 0.140124
O O12 0.647030 0.917197 0.210994
O O13 0.371523 0.898037 0.331244
O O14 0.458583 0.000000 0.245755
O O15 0.000000 0.363884 0.000000
O O16 0.520834 0.500000 0.106418
O O17 0.411923 0.388659 0.137060
O O18 0.656916 0.418096 0.972186
O O19 0.246149 0.000000 0.424577
#
# Coordination Sequence:
#
# PCOD8083106 Si02
#       8
#     8   8   8   8   8   8   8   8
#     4  12  22  33  55  78 108 143 174 234 276 310
#     4  11  22  37  52  72 103 145 195 224 265 311
#     4   9  17  32  52  83 112 134 172 219 278 339
#     4  10  18  32  53  81 110 139 172 220 278 328
#     4  11  22  33  50  78 105 140 182 223 266 325
#     4  11  22  35  53  79 110 149 185 223 277 325
#     4  10  21  36  53  72 104 151 191 225 251 331
#     4   8  15  29  54  80 108 139 168 212 272 342
#
# _framework density 17.666118000000001
#
# number of rings (size 3 to 8) (size 9 to 14) (size 15 to 20)
#    0.000    1.750    3.750    3.375    1.750    0.750 
#    0.000    0.000    0.000    3.750    0.000    3.500 
#    0.000    0.000    0.000    0.000    0.000    0.000 
#
# Total GULP energy -396541.325688 kJ/mol
# GULP energy per Si atom -12391.916428 kJ/mol
# Density = 1.762591 g / cm^3
# Si number density = 17.666118 Si / 1000 Ang^3
#
#
#
# Elastic Constant Matrix: (Units=GPa)
#
#
# Indices 1 2 3 4 5 6 
#
# 1 72.9705 26.7522 29.7883 0.0000 -16.7027 0.0000
# 2 26.7522 94.1743 44.9198 0.0000 3.0148 0.0000
# 3 29.7883 44.9198 91.2208 0.0000 -19.9648 0.0000
# 4 0.0000 0.0000 0.0000 18.4824 0.0000 5.1147
# 5 -16.7027 3.0148 -19.9648 0.0000 24.3438 0.0000
# 6 0.0000 0.0000 0.0000 5.1147 0.0000 20.0928
#
#
#
# Elastic Compliance Matrix: (Units=1/GPa)
#
#
# Indices 1 2 3 4 5 6 
#
# 1 0.019008 -0.005552 -0.000571 0.000000 0.013261 0.000000
# 2 -0.005552 0.017297 -0.009759 0.000000 -0.013955 0.000000
# 3 -0.000571 -0.009759 0.019662 0.000000 0.016942 0.000000
# 4 0.000000 0.000000 0.000000 0.058206 0.000000 -0.014816
# 5 0.013261 -0.013955 0.016942 0.000000 0.065800 0.000000
# 6 0.000000 0.000000 0.000000 -0.014816 0.000000 0.053540
#
#
# Mechanical properties :
#
#
# Convention : Reuss Voigt Hill
#
# Bulk Modulus (GPa) = 41.31453 51.25401 46.28427
# Shear Modulus (GPa) = 18.29189 23.04417 20.66803
#
# Velocity S-wave (km/s) = 3.22129 3.61560 3.42413
# Velocity P-wave (km/s) = 6.10514 6.81951 6.47219
#
# Compressibility (1/GPa) = 0.02420456
#
# Stress axis : x y z
#
# Youngs Moduli (GPa) = 52.60923 57.81239 50.85840
#
# Poissons Ratio (x) = 0.32097 0.02903
# Poissons Ratio (y) = 0.29208 0.49632
# Poissons Ratio (z) = 0.03003 0.56419
#
# Static dielectric constant tensor:
#      x y z
#    x 3.437130 0.000000 -0.200530 
#    y 0.000000 3.707320 0.000000 
#    z -0.200530 0.000000 3.421350 
# 
# 
# High freq. dielectric constant tensor:
#      x y z
#    x 1.676410 0.000000 -0.014410 
#    y 0.000000 1.667560 0.000000 
#    z -0.014410 0.000000 1.671950 
# 
# From -- ./inp_files/265060.got.cif
#   From: 2010.06.25/outbox.cif.g09.slc.cpg/sg12_133_cif.got.tgz:265060.got - 2010.06.28 00:19:55.
