data_PCOD8083476
_publ_section_title
;
Structure prediction by ZEFSAII (Michael W. Deem and Ramdas Pophale) SiO2 
 PCOD8083476
Probable space group: C 2/M
;
_chemical_formula_sum "Si O2"
_cell_formula_units_Z 48
_cell_length_a 14.063910
_cell_length_b 18.421588
_cell_length_c 14.294931
_cell_angle_alpha 90.000000
_cell_angle_beta 38.918680
_cell_angle_gamma 90.000000
_cell_volume 2326.616055
_symmetry_space_group_name_H-M "C 2/M"
_symmetry_group_IT_number 12
_symmetry_cell_setting 'monoclinic'
loop_
_space_group_symop_operation_xyz
x,y,z
-x,y,-z
-x,-y,-z
x,-y,z
1/2+x,1/2+y,z
1/2-x,1/2+y,-z
1/2-x,1/2-y,-z
1/2+x,1/2-y,z
loop_
_atom_site_type_symbol
_atom_site_label
_atom_site_fract_x
_atom_site_fract_y
_atom_site_fract_z
Si Si1 0.507774 0.086486 0.599393
Si Si2 0.703647 0.167022 0.104112
Si Si3 0.158413 0.311966 0.933666
Si Si4 0.021414 0.081421 0.085846
Si Si5 0.174887 0.081594 0.597240
Si Si6 0.918712 0.086133 0.660674
O O1 0.500000 0.117100 0.500000
O O2 0.368312 0.112817 0.766461
O O3 0.659583 0.118005 0.534431
O O4 0.512632 0.000000 0.593781
O O5 0.734088 0.241620 0.136342
O O6 0.609963 0.170057 0.078536
O O7 0.860705 0.131570 0.949664
O O8 0.258991 0.372149 0.800615
O O9 0.000000 0.299116 0.000000
O O10 0.864904 0.082177 0.261973
O O11 0.086552 0.000000 0.027847
O O12 0.000000 0.115637 0.000000
O O13 0.041512 0.118762 0.640164
O O14 0.185850 0.000000 0.549457
O O15 0.000000 0.102269 0.500000
O O16 0.885226 0.000000 0.699527
#
# Coordination Sequence:
#
# PCOD8083476 Si02
#       6
#     8   8   8   8   8   8
#     4  10  21  37  61  96 128 158 200 247 302 363
#     4  11  23  41  61  87 125 164 198 252 303 358
#     4  11  26  44  62  89 121 160 209 253 303 364
#     4  10  18  32  60  91 120 160 200 242 300 359
#     4   9  18  34  56  87 123 152 193 248 295 351
#     4  10  22  42  66  90 118 156 202 252 304 357
#
# _framework density 20.630821999999998
#
# number of rings (size 3 to 8) (size 9 to 14) (size 15 to 20)
#    0.000    1.833    1.667    2.000    2.333    4.333 
#    0.000    0.833    0.000    0.000    0.000    0.000 
#    0.000    0.000    0.000    0.000    0.000    0.000 
#
# Total GULP energy -297332.632897 kJ/mol
# GULP energy per Si atom -12388.859704 kJ/mol
# Density = 2.058386 g / cm^3
# Si number density = 20.630822 Si / 1000 Ang^3
#
#
#
# Elastic Constant Matrix: (Units=GPa)
#
#
# Indices 1 2 3 4 5 6 
#
# 1 123.2442 25.9831 38.8728 -0.0006 6.2568 0.0011
# 2 25.9831 50.9185 29.1120 0.0052 -3.5088 -0.0023
# 3 38.8728 29.1120 97.2066 0.0031 5.8875 -0.0007
# 4 -0.0006 0.0052 0.0031 9.9699 -0.0048 1.8973
# 5 6.2568 -3.5088 5.8875 -0.0048 31.6141 0.0017
# 6 0.0011 -0.0023 -0.0007 1.8973 0.0017 19.4555
#
#
#
# Elastic Compliance Matrix: (Units=1/GPa)
#
#
# Indices 1 2 3 4 5 6 
#
# 1 0.009826 -0.003568 -0.002750 0.000003 -0.001829 -0.000001
# 2 -0.003568 0.025502 -0.006498 -0.000010 0.004747 0.000004
# 3 -0.002750 -0.006498 0.013496 -0.000002 -0.002690 0.000000
# 4 0.000003 -0.000010 -0.000002 0.102199 0.000015 -0.009966
# 5 -0.001829 0.004747 -0.002690 0.000015 0.033021 -0.000004
# 6 -0.000001 0.000004 0.000000 -0.009966 -0.000004 0.052371
#
#
# Mechanical properties :
#
#
# Convention : Reuss Voigt Hill
#
# Bulk Modulus (GPa) = 43.11810 51.03389 47.07600
# Shear Modulus (GPa) = 18.53361 24.03466 21.28414
#
# Velocity S-wave (km/s) = 3.00049 3.41689 3.21544
# Velocity P-wave (km/s) = 5.74014 6.35274 6.05419
#
# Compressibility (1/GPa) = 0.02319212
#
# Stress axis : x y z
#
# Youngs Moduli (GPa) = 101.76564 39.21221 74.09437
#
# Poissons Ratio (x) = 0.13990 0.20378
# Poissons Ratio (y) = 0.36309 0.48148
# Poissons Ratio (z) = 0.27989 0.25481
#
# Static dielectric constant tensor:
#      x y z
#    x 3.954410 0.000000 0.055670 
#    y 0.000000 3.510000 0.000000 
#    z 0.055670 0.000000 3.614530 
# 
# 
# High freq. dielectric constant tensor:
#      x y z
#    x 1.816490 0.000000 0.004370 
#    y 0.000000 1.778110 0.000000 
#    z 0.004370 0.000000 1.809650 
# 
# From -- ./inp_files/133718.got.cif
#   From: 2010.06.25/outbox.cif.g09.slc.cpg/sg12_67_cif.got.tgz:133718.got - 2010.06.28 00:19:55.
