data_PCOD8083844
_publ_section_title
;
Structure prediction by ZEFSAII (Michael W. Deem and Ramdas Pophale) SiO2 
 PCOD8083844
Probable space group: C 2/M
;
_chemical_formula_sum "Si O2"
_cell_formula_units_Z 56
_cell_length_a 19.399067
_cell_length_b 8.981711
_cell_length_c 21.100950
_cell_angle_alpha 90.000000
_cell_angle_beta 125.144776
_cell_angle_gamma 90.000000
_cell_volume 3006.325379
_symmetry_space_group_name_H-M "C 2/M"
_symmetry_group_IT_number 12
_symmetry_cell_setting 'monoclinic'
loop_
_space_group_symop_operation_xyz
x,y,z
-x,y,-z
-x,-y,-z
x,-y,z
1/2+x,1/2+y,z
1/2-x,1/2+y,-z
1/2-x,1/2-y,-z
1/2+x,1/2-y,z
loop_
_atom_site_type_symbol
_atom_site_label
_atom_site_fract_x
_atom_site_fract_y
_atom_site_fract_z
Si Si1 0.575567 0.176905 0.495272
Si Si2 0.136220 0.823295 0.198178
Si Si3 0.257829 0.677101 0.631765
Si Si4 0.401358 0.332756 0.958639
Si Si5 0.339505 0.174672 0.046580
Si Si6 0.586333 0.671859 0.369291
Si Si7 0.022264 0.827927 0.808623
O O1 0.500000 0.236274 0.500000
O O2 0.665061 0.241004 0.568022
O O3 0.561556 0.232690 0.416946
O O4 0.576511 0.000000 0.495273
O O5 0.213514 0.765345 0.283092
O O6 0.145457 0.773228 0.130061
O O7 0.048552 0.764492 0.180949
O O8 0.132161 0.000000 0.200178
O O9 0.257132 0.500000 0.630980
O O10 0.325856 0.730680 0.615103
O O11 0.369190 0.500000 0.958794
O O12 0.500000 0.339269 0.000000
O O13 0.383821 0.216796 0.004388
O O14 0.393428 0.233204 0.134997
O O15 0.329366 0.000000 0.047089
O O16 0.250000 0.250000 0.000000
O O17 0.595979 0.500000 0.393886
O O18 0.509418 0.693119 0.279784
O O19 0.042375 0.000000 0.833796
#
# Coordination Sequence:
#
# PCOD8083844 Si02
#       7
#     8   8   8   8   8   8   8
#     4  10  20  33  49  74 112 146 175 217 266 319
#     4   8  14  28  54  81 104 136 180 224 266 322
#     4   8  15  30  52  77 103 138 181 218 259 313
#     4  10  18  33  59  84 107 141 184 226 275 330
#     4  12  25  39  55  78 112 149 185 226 271 325
#     4   9  18  33  58  81  99 133 180 226 268 316
#     4   9  17  35  58  80 105 136 179 227 275 326
#
# _framework density 18.627390999999999
#
# number of rings (size 3 to 8) (size 9 to 14) (size 15 to 20)
#    0.000    2.571    1.429    3.429    0.000    1.143 
#    2.571    0.000    0.000    1.714    0.000    0.000 
#    0.000    0.000    0.000    0.000    0.000    0.000 
#
# Total GULP energy -347084.064634 kJ/mol
# GULP energy per Si atom -12395.859451 kJ/mol
# Density = 1.858499 g / cm^3
# Si number density = 18.627391 Si / 1000 Ang^3
#
#
#
# Elastic Constant Matrix: (Units=GPa)
#
#
# Indices 1 2 3 4 5 6 
#
# 1 92.4017 29.1728 60.6113 0.0000 8.7981 0.0000
# 2 29.1728 57.1635 36.6798 0.0000 7.9993 0.0000
# 3 60.6113 36.6798 135.4364 0.0000 6.0611 0.0000
# 4 0.0000 0.0000 0.0000 27.4890 0.0000 -2.8481
# 5 8.7981 7.9993 6.0611 0.0000 29.3673 0.0000
# 6 0.0000 0.0000 0.0000 -2.8481 0.0000 15.5193
#
#
#
# Elastic Compliance Matrix: (Units=1/GPa)
#
#
# Indices 1 2 3 4 5 6 
#
# 1 0.016352 -0.004076 -0.006101 0.000000 -0.002529 0.000000
# 2 -0.004076 0.022831 -0.004174 0.000000 -0.004136 0.000000
# 3 -0.006101 -0.004174 0.011215 0.000000 0.000650 0.000000
# 4 0.000000 0.000000 0.000000 0.037083 0.000000 0.006805
# 5 -0.002529 -0.004136 0.000650 0.000000 0.035802 0.000000
# 6 0.000000 0.000000 0.000000 0.006805 0.000000 0.065685
#
#
# Mechanical properties :
#
#
# Convention : Reuss Voigt Hill
#
# Bulk Modulus (GPa) = 46.09139 59.76994 52.93066
# Shear Modulus (GPa) = 22.23190 25.04430 23.63810
#
# Velocity S-wave (km/s) = 3.45846 3.67070 3.56616
# Velocity P-wave (km/s) = 6.38322 7.07970 6.74047
#
# Compressibility (1/GPa) = 0.02169603
#
# Stress axis : x y z
#
# Youngs Moduli (GPa) = 61.15475 43.80000 89.16577
#
# Poissons Ratio (x) = 0.17855 0.54397
# Poissons Ratio (y) = 0.24930 0.37216
# Poissons Ratio (z) = 0.37309 0.18281
#
# Static dielectric constant tensor:
#      x y z
#    x 3.236690 0.000000 0.197390 
#    y 0.000000 3.132610 0.000000 
#    z 0.197390 0.000000 3.809100 
# 
# 
# High freq. dielectric constant tensor:
#      x y z
#    x 1.704900 0.000000 0.002110 
#    y 0.000000 1.682700 0.000000 
#    z 0.002110 0.000000 1.742740 
# 
# From -- ./inp_files/314368.got.cif
#   From: 2010.06.25/outbox.cif.g09.slc.cpg/sg12_158_cif.got.tgz:314368.got - 2010.06.28 00:19:55.
