data_PCOD8083839
_publ_section_title
;
Structure prediction by ZEFSAII (Michael W. Deem and Ramdas Pophale) SiO2 
 PCOD8083839
Probable space group: C 2/M
;
_chemical_formula_sum "Si O2"
_cell_formula_units_Z 56
_cell_length_a 28.819877
_cell_length_b 15.383301
_cell_length_c 12.305648
_cell_angle_alpha 90.000000
_cell_angle_beta 33.608682
_cell_angle_gamma 90.000000
_cell_volume 3019.796692
_symmetry_space_group_name_H-M "C 2/M"
_symmetry_group_IT_number 12
_symmetry_cell_setting 'monoclinic'
loop_
_space_group_symop_operation_xyz
x,y,z
-x,y,-z
-x,-y,-z
x,-y,z
1/2+x,1/2+y,z
1/2-x,1/2+y,-z
1/2-x,1/2-y,-z
1/2+x,1/2-y,z
loop_
_atom_site_type_symbol
_atom_site_label
_atom_site_fract_x
_atom_site_fract_y
_atom_site_fract_z
Si Si1 0.291732 0.099524 0.236696
Si Si2 0.086446 0.601167 0.395163
Si Si3 0.930175 0.745390 0.394073
Si Si4 0.735407 0.100844 0.952613
Si Si5 0.325213 0.299206 0.407439
Si Si6 0.922173 0.899583 0.573824
Si Si7 0.436928 0.781123 0.035245
O O1 0.274600 0.139394 0.149719
O O2 0.208574 0.110604 0.475012
O O3 0.367938 0.147550 0.144487
O O4 0.315900 0.000000 0.181574
O O5 0.099207 0.500000 0.402951
O O6 0.081534 0.659517 0.511483
O O7 0.000000 0.613590 0.500000
O O8 0.165108 0.639084 0.171518
O O9 0.858359 0.741344 0.443456
O O10 0.928256 0.836231 0.460614
O O11 0.020642 0.745916 0.159898
O O12 0.830958 0.117332 0.808805
O O13 0.715252 0.000000 0.984553
O O14 0.250000 0.250000 0.500000
O O15 0.397017 0.304998 0.173956
O O16 0.000000 0.877933 0.500000
O O17 0.926257 0.000000 0.526023
O O18 0.500000 0.824230 0.000000
#
# Coordination Sequence:
#
# PCOD8083839 Si02
#       7
#     8   8   8   8   8   8   8
#     4  10  18  33  59  81 106 148 189 227 285 353
#     4  10  21  36  55  85 124 150 180 229 280 347
#     4  11  20  36  58  81 108 153 189 226 282 350
#     4   9  18  34  54  80 112 146 182 229 280 330
#     4   9  19  37  53  76 108 141 182 238 277 321
#     4  10  21  37  55  80 113 146 191 243 281 329
#     4   9  20  35  53  78 112 142 182 240 291 327
#
# _framework density 18.544295999999999
#
# number of rings (size 3 to 8) (size 9 to 14) (size 15 to 20)
#    0.000    2.286    1.429    1.286    0.000    2.571 
#    5.143    6.429    0.000    2.571    0.000    0.000 
#    0.000    0.000    0.000    0.000    0.000    0.000 
#
# Total GULP energy -346868.192675 kJ/mol
# GULP energy per Si atom -12388.149738 kJ/mol
# Density = 1.850209 g / cm^3
# Si number density = 18.544296 Si / 1000 Ang^3
#
#
#
# Elastic Constant Matrix: (Units=GPa)
#
#
# Indices 1 2 3 4 5 6 
#
# 1 107.6114 33.1522 60.9144 0.0000 -10.4413 0.0000
# 2 33.1522 61.8531 47.5080 0.0000 6.8666 0.0000
# 3 60.9144 47.5080 171.9217 0.0000 6.3468 0.0000
# 4 0.0000 0.0000 0.0000 23.4617 0.0000 4.0115
# 5 -10.4413 6.8666 6.3468 0.0000 34.3649 0.0000
# 6 0.0000 0.0000 0.0000 4.0115 0.0000 12.3706
#
#
#
# Elastic Compliance Matrix: (Units=1/GPa)
#
#
# Indices 1 2 3 4 5 6 
#
# 1 0.013443 -0.005107 -0.003565 0.000000 0.005763 0.000000
# 2 -0.005107 0.022791 -0.004292 0.000000 -0.005313 0.000000
# 3 -0.003565 -0.004292 0.008331 0.000000 -0.001764 0.000000
# 4 0.000000 0.000000 0.000000 0.045125 0.000000 -0.014633
# 5 0.005763 -0.005313 -0.001764 0.000000 0.032238 0.000000
# 6 0.000000 0.000000 0.000000 -0.014633 0.000000 0.085582
#
#
# Mechanical properties :
#
#
# Convention : Reuss Voigt Hill
#
# Bulk Modulus (GPa) = 53.65657 69.39284 61.52470
# Shear Modulus (GPa) = 20.86376 27.36021 24.11199
#
# Velocity S-wave (km/s) = 3.35786 3.84526 3.60979
# Velocity P-wave (km/s) = 6.63556 7.56412 7.11501
#
# Compressibility (1/GPa) = 0.01863705
#
# Stress axis : x y z
#
# Youngs Moduli (GPa) = 74.38805 43.87615 120.03623
#
# Poissons Ratio (x) = 0.22408 0.42787
# Poissons Ratio (y) = 0.37992 0.51524
# Poissons Ratio (z) = 0.26516 0.18833
#
# Static dielectric constant tensor:
#      x y z
#    x 3.566290 0.000000 -0.049400 
#    y 0.000000 3.206700 0.000000 
#    z -0.049400 0.000000 4.092010 
# 
# 
# High freq. dielectric constant tensor:
#      x y z
#    x 1.728010 0.000000 -0.010290 
#    y 0.000000 1.687740 0.000000 
#    z -0.010290 0.000000 1.736080 
# 
# From -- ./inp_files/189631.got.cif
#   From: 2010.06.25/outbox.cif.g09.slc.cpg/sg12_95_cif.got.tgz:189631.got - 2010.06.28 00:19:55.
