data_PCOD8083185
_publ_section_title
;
Structure prediction by ZEFSAII (Michael W. Deem and Ramdas Pophale) SiO2 
 PCOD8083185
Probable space group: C 2/M
;
_chemical_formula_sum "Si O2"
_cell_formula_units_Z 56
_cell_length_a 9.007113
_cell_length_b 25.303367
_cell_length_c 12.260442
_cell_angle_alpha 90.000000
_cell_angle_beta 109.753337
_cell_angle_gamma 90.000000
_cell_volume 2629.855109
_symmetry_space_group_name_H-M "C 2/M"
_symmetry_group_IT_number 12
_symmetry_cell_setting 'monoclinic'
loop_
_space_group_symop_operation_xyz
x,y,z
-x,y,-z
-x,-y,-z
x,-y,z
1/2+x,1/2+y,z
1/2-x,1/2+y,-z
1/2-x,1/2-y,-z
1/2+x,1/2-y,z
loop_
_atom_site_type_symbol
_atom_site_label
_atom_site_fract_x
_atom_site_fract_y
_atom_site_fract_z
Si Si1 0.865069 0.748213 0.738618
Si Si2 0.411672 0.941876 0.728270
Si Si3 0.875396 0.058385 0.177086
Si Si4 0.358229 0.101364 0.048193
Si Si5 0.174802 0.285810 0.889340
Si Si6 0.459135 0.645637 0.662708
Si Si7 0.255264 0.849727 0.583020
O O1 0.722819 0.768145 0.778877
O O2 0.965227 0.797665 0.720302
O O3 0.812594 0.709798 0.626128
O O4 0.984629 0.716592 0.847029
O O5 0.259148 0.940155 0.765891
O O6 0.571265 0.934052 0.837060
O O7 0.391287 0.893706 0.637393
O O8 0.421836 0.000000 0.674116
O O9 0.017917 0.099093 0.241786
O O10 0.951110 0.000000 0.188262
O O11 0.789347 0.071464 0.042064
O O12 0.278973 0.154069 0.076731
O O13 0.500000 0.114887 0.000000
O O14 0.250000 0.250000 0.000000
O O15 0.292784 0.643664 0.555931
O O16 0.603235 0.638884 0.617078
#
# Coordination Sequence:
#
# PCOD8083185 Si02
#       7
#     8   8   8   8   8   8   8
#     4  12  22  40  56  85 119 153 195 233 286 344
#     4   9  17  30  53  83 112 143 186 239 291 336
#     4   9  18  32  54  83 113 147 188 237 290 338
#     4  10  18  32  54  81 115 148 187 235 287 345
#     4  12  24  35  58  85 119 155 188 232 286 346
#     4  10  21  36  57  81 114 153 194 237 284 341
#     4  10  20  36  56  83 115 150 193 240 286 336
#
# _framework density 21.293949999999999
#
# number of rings (size 3 to 8) (size 9 to 14) (size 15 to 20)
#    0.000    1.714    2.857    3.000    2.000    2.286 
#    0.000    2.857    0.000    2.571    0.000    1.000 
#    0.000    0.000    0.000    0.000    0.000    0.000 
#
# Total GULP energy -347046.939736 kJ/mol
# GULP energy per Si atom -12394.533562 kJ/mol
# Density = 2.124548 g / cm^3
# Si number density = 21.293950 Si / 1000 Ang^3
#
#
#
# Elastic Constant Matrix: (Units=GPa)
#
#
# Indices 1 2 3 4 5 6 
#
# 1 20.0889 11.5784 14.3503 0.0000 7.8419 0.0000
# 2 11.5784 173.5979 65.1912 0.0000 17.5451 0.0000
# 3 14.3503 65.1912 128.8408 0.0000 29.9271 0.0000
# 4 0.0000 0.0000 0.0000 30.1365 0.0000 9.8123
# 5 7.8419 17.5451 29.9271 0.0000 20.3848 0.0000
# 6 0.0000 0.0000 0.0000 9.8123 0.0000 22.9921
#
#
#
# Elastic Compliance Matrix: (Units=1/GPa)
#
#
# Indices 1 2 3 4 5 6 
#
# 1 0.059209 -0.001483 -0.001290 0.000000 -0.019607 0.000000
# 2 -0.001483 0.007171 -0.003281 0.000000 -0.000785 0.000000
# 3 -0.001290 -0.003281 0.013345 0.000000 -0.016272 0.000000
# 4 0.000000 0.000000 0.000000 0.038537 0.000000 -0.016447
# 5 -0.019607 -0.000785 -0.016272 0.000000 0.081163 0.000000
# 6 0.000000 0.000000 0.000000 -0.016447 0.000000 0.050512
#
#
# Mechanical properties :
#
#
# Convention : Reuss Voigt Hill
#
# Bulk Modulus (GPa) = 14.78930 56.08526 35.43728
# Shear Modulus (GPa) = 17.56959 30.12985 23.84972
#
# Velocity S-wave (km/s) = 2.87557 3.76566 3.35031
# Velocity P-wave (km/s) = 4.24094 6.73073 5.62531
#
# Compressibility (1/GPa) = 0.06761643
#
# Stress axis : x y z
#
# Youngs Moduli (GPa) = 16.88946 139.45646 74.93553
#
# Poissons Ratio (x) = 0.20681 0.09667
# Poissons Ratio (y) = 0.02505 0.24585
# Poissons Ratio (z) = 0.02179 0.45753
#
# Static dielectric constant tensor:
#      x y z
#    x 3.354770 0.000000 0.221820 
#    y 0.000000 4.096070 0.000000 
#    z 0.221820 0.000000 4.089010 
# 
# 
# High freq. dielectric constant tensor:
#      x y z
#    x 1.781640 0.000000 0.022360 
#    y 0.000000 1.847060 0.000000 
#    z 0.022360 0.000000 1.837890 
# 
# From -- ./inp_files/198964.got.cif
#   From: 2010.06.25/outbox.cif.g09.slc.cpg/sg12_100_cif.got.tgz:198964.got - 2010.06.28 00:19:55.
