data_PCOD8083439
_publ_section_title
;
Structure prediction by ZEFSAII (Michael W. Deem and Ramdas Pophale) SiO2 
 PCOD8083439
Probable space group: C 2/M
;
_chemical_formula_sum "Si O2"
_cell_formula_units_Z 56
_cell_length_a 14.916471
_cell_length_b 18.379239
_cell_length_c 12.309918
_cell_angle_alpha 90.000000
_cell_angle_beta 63.851331
_cell_angle_gamma 90.000000
_cell_volume 3029.406321
_symmetry_space_group_name_H-M "C 2/M"
_symmetry_group_IT_number 12
_symmetry_cell_setting 'monoclinic'
loop_
_space_group_symop_operation_xyz
x,y,z
-x,y,-z
-x,-y,-z
x,-y,z
1/2+x,1/2+y,z
1/2-x,1/2+y,-z
1/2-x,1/2-y,-z
1/2+x,1/2-y,z
loop_
_atom_site_type_symbol
_atom_site_label
_atom_site_fract_x
_atom_site_fract_y
_atom_site_fract_z
Si Si1 0.255274 0.206651 0.698798
Si Si2 0.725256 0.583228 0.548941
Si Si3 0.402761 0.694817 0.488724
Si Si4 0.834146 0.705561 0.896403
Si Si5 0.387371 0.081689 0.027389
Si Si6 0.627929 0.079595 0.730132
Si Si7 0.449879 0.229465 0.252875
O O1 0.269664 0.131853 0.623220
O O2 0.313156 0.273798 0.610617
O O3 0.300761 0.189665 0.791282
O O4 0.138372 0.231641 0.769908
O O5 0.707054 0.500000 0.597947
O O6 0.624226 0.622209 0.564009
O O7 0.791884 0.585232 0.406561
O O8 0.500000 0.671148 0.500000
O O9 0.431773 0.757462 0.389190
O O10 0.938197 0.752192 0.843549
O O11 0.750000 0.750000 0.000000
O O12 0.842109 0.630720 0.957451
O O13 0.323601 0.089066 0.174594
O O14 0.383562 0.000000 0.984225
O O15 0.500000 0.104811 0.000000
O O16 0.546069 0.142029 0.759125
O O17 0.574805 0.000000 0.753672
#
# Coordination Sequence:
#
# PCOD8083439 Si02
#       7
#     8   8   8   8   8   8   8
#     4  11  22  39  59  89 119 158 195 240 301 350
#     4  10  21  37  60  88 118 155 193 240 297 356
#     4  11  20  35  61  89 119 153 197 245 299 348
#     4  12  26  36  60  90 119 156 207 242 287 356
#     4  10  21  36  56  82 117 158 194 241 297 346
#     4  10  18  32  58  84 113 153 194 237 294 355
#     4  11  20  38  59  83 124 155 192 247 300 349
#
# _framework density 18.485472000000001
#
# number of rings (size 3 to 8) (size 9 to 14) (size 15 to 20)
#    0.000    1.286    5.714    1.714    0.000    0.857 
#    0.000    0.000    0.000    6.000    0.000    5.000 
#    0.000    0.000    0.000    0.000    0.000    0.000 
#
# Total GULP energy -346946.930128 kJ/mol
# GULP energy per Si atom -12390.961790 kJ/mol
# Density = 1.844340 g / cm^3
# Si number density = 18.485472 Si / 1000 Ang^3
#
#
#
# Elastic Constant Matrix: (Units=GPa)
#
#
# Indices 1 2 3 4 5 6 
#
# 1 107.9353 41.3025 49.6310 0.0000 -2.6983 0.0000
# 2 41.3025 110.8110 45.6092 0.0000 3.0472 0.0000
# 3 49.6310 45.6092 106.2592 0.0000 2.7202 0.0000
# 4 0.0000 0.0000 0.0000 26.4504 0.0000 5.3925
# 5 -2.6983 3.0472 2.7202 0.0000 29.6628 0.0000
# 6 0.0000 0.0000 0.0000 5.3925 0.0000 16.6530
#
#
#
# Elastic Compliance Matrix: (Units=1/GPa)
#
#
# Indices 1 2 3 4 5 6 
#
# 1 0.012544 -0.002788 -0.004710 0.000000 0.001859 0.000000
# 2 -0.002788 0.011595 -0.003646 0.000000 -0.001110 0.000000
# 3 -0.004710 -0.003646 0.013208 0.000000 -0.001265 0.000000
# 4 0.000000 0.000000 0.000000 0.040479 0.000000 -0.013108
# 5 0.001859 -0.001110 -0.001265 0.000000 0.034112 0.000000
# 6 0.000000 0.000000 0.000000 -0.013108 0.000000 0.064294
#
#
# Mechanical properties :
#
#
# Convention : Reuss Voigt Hill
#
# Bulk Modulus (GPa) = 66.40615 66.45453 66.43034
# Shear Modulus (GPa) = 24.56534 27.11741 25.84137
#
# Velocity S-wave (km/s) = 3.64936 3.83424 3.74294
# Velocity P-wave (km/s) = 7.33202 7.45852 7.39554
#
# Compressibility (1/GPa) = 0.01505885
#
# Stress axis : x y z
#
# Youngs Moduli (GPa) = 79.72039 86.24528 75.71057
#
# Poissons Ratio (x) = 0.24046 0.35658
# Poissons Ratio (y) = 0.22226 0.27605
# Poissons Ratio (z) = 0.37547 0.31446
#
# Static dielectric constant tensor:
#      x y z
#    x 3.388120 0.000000 0.039500 
#    y 0.000000 3.380750 0.000000 
#    z 0.039500 0.000000 3.721580 
# 
# 
# High freq. dielectric constant tensor:
#      x y z
#    x 1.696920 0.000000 0.002670 
#    y 0.000000 1.712740 0.000000 
#    z 0.002670 0.000000 1.730970 
# 
# From -- ./inp_files/145490.got.cif
#   From: 2010.06.25/outbox.cif.g09.slc.cpg/sg12_73_cif.got.tgz:145490.got - 2010.06.28 00:19:55.
