data_PCOD8083804
_publ_section_title
;
Structure prediction by ZEFSAII (Michael W. Deem and Ramdas Pophale) SiO2 
 PCOD8083804
Probable space group: C 2/M
;
_chemical_formula_sum "Si O2"
_cell_formula_units_Z 56
_cell_length_a 20.394411
_cell_length_b 8.998521
_cell_length_c 23.004544
_cell_angle_alpha 90.000000
_cell_angle_beta 46.907263
_cell_angle_gamma 90.000000
_cell_volume 3082.952498
_symmetry_space_group_name_H-M "C 2/M"
_symmetry_group_IT_number 12
_symmetry_cell_setting 'monoclinic'
loop_
_space_group_symop_operation_xyz
x,y,z
-x,y,-z
-x,-y,-z
x,-y,z
1/2+x,1/2+y,z
1/2-x,1/2+y,-z
1/2-x,1/2-y,-z
1/2+x,1/2-y,z
loop_
_atom_site_type_symbol
_atom_site_label
_atom_site_fract_x
_atom_site_fract_y
_atom_site_fract_z
Si Si1 0.988863 0.827040 0.169670
Si Si2 0.738762 0.172407 0.165899
Si Si3 0.859407 0.176395 0.593099
Si Si4 0.809912 0.323720 0.237706
Si Si5 0.323943 0.329202 0.993301
Si Si6 0.982757 0.175823 0.420815
Si Si7 0.447938 0.326431 0.741525
O O1 0.907396 0.733521 0.194261
O O2 0.998160 0.794168 0.232448
O O3 0.970740 0.000000 0.168455
O O4 0.077293 0.769391 0.082620
O O5 0.778377 0.262394 0.195272
O O6 0.808015 0.195382 0.071079
O O7 0.642825 0.233191 0.204062
O O8 0.729332 0.000000 0.188221
O O9 0.759879 0.232640 0.670034
O O10 0.893165 0.234882 0.508993
O O11 0.928549 0.236152 0.600124
O O12 0.860155 0.000000 0.593392
O O13 0.811409 0.500000 0.232551
O O14 0.318281 0.500000 0.978499
O O15 0.250000 0.250000 0.000000
O O16 0.987460 0.226422 0.350782
O O17 0.982093 0.000000 0.425048
O O18 0.422444 0.500000 0.751229
#
# Coordination Sequence:
#
# PCOD8083804 Si02
#       7
#     8   8   8   8   8   8   8
#     4  10  22  38  55  78 111 146 177 220 275 326
#     4  11  22  35  56  83 111 141 176 225 275 319
#     4   8  14  26  49  79 107 135 175 225 267 310
#     4  11  22  37  56  79 109 147 186 223 266 323
#     4  10  21  37  58  82 109 141 178 222 270 320
#     4   8  13  25  50  82 106 131 176 226 266 311
#     4  10  18  33  58  83 107 141 184 222 262 324
#
# _framework density 18.164404999999999
#
# number of rings (size 3 to 8) (size 9 to 14) (size 15 to 20)
#    0.000    2.286    2.857    1.714    0.000    2.286 
#    0.000    3.571    0.000    2.571    0.000    0.000 
#    0.000    0.000    0.000    0.000    0.000    0.000 
#
# Total GULP energy -347072.856390 kJ/mol
# GULP energy per Si atom -12395.459157 kJ/mol
# Density = 1.812306 g / cm^3
# Si number density = 18.164405 Si / 1000 Ang^3
#
#
#
# Elastic Constant Matrix: (Units=GPa)
#
#
# Indices 1 2 3 4 5 6 
#
# 1 74.6888 32.7131 29.3914 0.0000 -15.2043 0.0000
# 2 32.7131 50.4038 28.4153 0.0001 -6.0462 0.0000
# 3 29.3914 28.4153 117.4173 0.0000 -12.0015 0.0000
# 4 0.0000 0.0001 0.0000 19.2096 0.0000 0.4065
# 5 -15.2043 -6.0462 -12.0015 0.0000 28.2518 0.0000
# 6 0.0000 0.0000 0.0000 0.4065 0.0000 27.0193
#
#
#
# Elastic Compliance Matrix: (Units=1/GPa)
#
#
# Indices 1 2 3 4 5 6 
#
# 1 0.020714 -0.011605 -0.001559 0.000000 0.008002 0.000000
# 2 -0.011605 0.029671 -0.004458 0.000000 -0.001790 0.000000
# 3 -0.001559 -0.004458 0.010247 0.000000 0.002560 0.000000
# 4 0.000000 0.000000 0.000000 0.052074 0.000000 -0.000783
# 5 0.008002 -0.001790 0.002560 0.000000 0.040407 0.000000
# 6 0.000000 0.000000 0.000000 -0.000783 0.000000 0.037022
#
#
# Mechanical properties :
#
#
# Convention : Reuss Voigt Hill
#
# Bulk Modulus (GPa) = 39.38933 47.06104 43.22519
# Shear Modulus (GPa) = 21.38189 25.02882 23.20535
#
# Velocity S-wave (km/s) = 3.43466 3.71604 3.57812
# Velocity P-wave (km/s) = 6.12055 6.66157 6.39678
#
# Compressibility (1/GPa) = 0.02538758
#
# Stress axis : x y z
#
# Youngs Moduli (GPa) = 48.27579 33.70338 97.58588
#
# Poissons Ratio (x) = 0.39114 0.15211
# Poissons Ratio (y) = 0.56026 0.43506
# Poissons Ratio (z) = 0.07525 0.15026
#
# Static dielectric constant tensor:
#      x y z
#    x 3.185640 0.000000 0.047980 
#    y 0.000000 3.112470 0.000000 
#    z 0.047980 0.000000 4.125970 
# 
# 
# High freq. dielectric constant tensor:
#      x y z
#    x 1.682850 0.000000 0.003230 
#    y 0.000000 1.675610 0.000000 
#    z 0.003230 0.000000 1.729630 
# 
# From -- ./inp_files/319685.got.cif
#   From: 2010.06.25/outbox.cif.g09.slc.cpg/sg12_160_cif.got.tgz:319685.got - 2010.06.28 00:19:55.
