data_PCOD8083949
_publ_section_title
;
Structure prediction by ZEFSAII (Michael W. Deem and Ramdas Pophale) SiO2 
 PCOD8083949
Probable space group: C 2/M
;
_chemical_formula_sum "Si O2"
_cell_formula_units_Z 64
_cell_length_a 16.767868
_cell_length_b 14.119486
_cell_length_c 26.059983
_cell_angle_alpha 90.000000
_cell_angle_beta 146.159945
_cell_angle_gamma 90.000000
_cell_volume 3435.814322
_symmetry_space_group_name_H-M "C 2/M"
_symmetry_group_IT_number 12
_symmetry_cell_setting 'monoclinic'
loop_
_space_group_symop_operation_xyz
x,y,z
-x,y,-z
-x,-y,-z
x,-y,z
1/2+x,1/2+y,z
1/2-x,1/2+y,-z
1/2-x,1/2-y,-z
1/2+x,1/2-y,z
loop_
_atom_site_type_symbol
_atom_site_label
_atom_site_fract_x
_atom_site_fract_y
_atom_site_fract_z
Si Si1 0.352584 0.256316 0.944862
Si Si2 0.042304 0.755903 0.190326
Si Si3 0.041803 0.742103 0.741206
Si Si4 0.549200 0.897062 0.929648
Si Si5 0.540714 0.109836 0.395689
Si Si6 0.790045 0.392148 0.337605
Si Si7 0.305158 0.608499 0.600299
Si Si8 0.336054 0.395535 0.027216
O O1 0.214584 0.242741 0.833879
O O2 0.500000 0.294642 0.000000
O O3 0.389677 0.153015 0.987104
O O4 0.315815 0.339679 0.964008
O O5 0.181477 0.818178 0.255028
O O6 0.018344 0.714115 0.234518
O O7 0.061288 0.671563 0.159167
O O8 0.910793 0.826926 0.108493
O O9 0.006788 0.661892 0.681293
O O10 0.955624 0.836352 0.678869
O O11 0.479876 0.000000 0.906283
O O12 0.677064 0.914984 0.959488
O O13 0.441535 0.131073 0.392272
O O14 0.701794 0.139810 0.498185
O O15 0.534610 0.000000 0.378467
O O16 0.743383 0.500000 0.300024
O O17 0.788573 0.376199 0.398060
O O18 0.350362 0.500000 0.618962
O O19 0.411211 0.500000 0.061268
#
# Coordination Sequence:
#
# PCOD8083949 Si02
#       8
#     8   8   8   8   8   8   8   8
#     4  11  23  37  52  78 115 143 176 224 266 314
#     4  10  18  34  52  78 107 137 183 221 251 316
#     4  11  21  34  53  81 108 145 178 214 268 321
#     4  10  20  36  56  71 100 146 190 225 254 299
#     4  10  21  35  54  84 114 136 167 220 281 327
#     4   9  18  32  57  84 107 134 168 215 275 325
#     4   9  19  37  59  80 105 139 180 221 261 320
#     4  10  19  35  57  76 103 141 182 222 264 312
#
# _framework density 18.627316
#
# number of rings (size 3 to 8) (size 9 to 14) (size 15 to 20)
#    0.000    2.000    2.500    1.875    3.500    4.000 
#    0.000    0.000    0.000    0.000    0.000    0.000 
#    0.000    9.000    0.000    0.000    0.000    0.000 
#
# Total GULP energy -396489.841797 kJ/mol
# GULP energy per Si atom -12390.307556 kJ/mol
# Density = 1.858492 g / cm^3
# Si number density = 18.627316 Si / 1000 Ang^3
#
#
#
# Elastic Constant Matrix: (Units=GPa)
#
#
# Indices 1 2 3 4 5 6 
#
# 1 39.5889 13.5086 32.0733 0.0000 -1.9014 0.0000
# 2 13.5086 94.2311 45.5237 0.0000 -17.8753 0.0000
# 3 32.0733 45.5237 132.2908 0.0002 -7.8716 0.0001
# 4 0.0000 0.0000 0.0002 24.1362 0.0000 5.4271
# 5 -1.9014 -17.8753 -7.8716 0.0000 21.5882 0.0000
# 6 0.0000 0.0000 0.0001 5.4271 0.0000 0.0553
#
#
#
# Elastic Compliance Matrix: (Units=1/GPa)
#
#
# Indices 1 2 3 4 5 6 
#
# 1 0.031524 -0.001154 -0.007296 0.000000 -0.000839 0.000000
# 2 -0.001154 0.014819 -0.004187 0.000000 0.010642 0.000000
# 3 -0.007296 -0.004187 0.010757 0.000000 -0.000187 0.000000
# 4 0.000000 0.000000 0.000000 -0.001967 0.000000 0.193009
# 5 -0.000839 0.010642 -0.000187 0.000000 0.054991 0.000000
# 6 0.000000 0.000000 0.000000 0.193009 0.000000 -0.858384
#
#
# Mechanical properties :
#
#
# Convention : Reuss Voigt Hill
#
# Bulk Modulus (GPa) = 31.41862 49.81355 40.61609
# Shear Modulus (GPa) = -7.01874 20.82298 6.90212
#
# Velocity S-wave (km/s) = -1.94324 3.34709 1.92702
# Velocity P-wave (km/s) = 3.44510 6.46046 5.17718
#
# Compressibility (1/GPa) = 0.03182826
#
# Stress axis : x y z
#
# Youngs Moduli (GPa) = 31.72229 67.48138 92.95878
#
# Poissons Ratio (x) = 0.07785 0.67820
# Poissons Ratio (y) = 0.03660 0.38917
# Poissons Ratio (z) = 0.23144 0.28251
#
# Static dielectric constant tensor:
#      x y z
#    x 2.848420 0.000000 0.061340 
#    y 0.000000 3.708340 0.000000 
#    z 0.061340 0.000000 3.529360 
# 
# 
# High freq. dielectric constant tensor:
#      x y z
#    x 1.705990 0.000000 -0.004540 
#    y 0.000000 1.721830 0.000000 
#    z -0.004540 0.000000 1.721670 
# 
# From -- ./inp_files/340196.got.cif
#   From: 2010.06.25/outbox.cif.g09.slc.cpg/sg12_171_cif.got.tgz:340196.got - 2010.06.28 00:19:55.
