data_PCOD8083094
_publ_section_title
;
Structure prediction by ZEFSAII (Michael W. Deem and Ramdas Pophale) SiO2 
 PCOD8083094
Probable space group: C 2/M
;
_chemical_formula_sum "Si O2"
_cell_formula_units_Z 56
_cell_length_a 23.909344
_cell_length_b 9.101941
_cell_length_c 31.861632
_cell_angle_alpha 90.000000
_cell_angle_beta 26.182284
_cell_angle_gamma 90.000000
_cell_volume 3059.378071
_symmetry_space_group_name_H-M "C 2/M"
_symmetry_group_IT_number 12
_symmetry_cell_setting 'monoclinic'
loop_
_space_group_symop_operation_xyz
x,y,z
-x,y,-z
-x,-y,-z
x,-y,z
1/2+x,1/2+y,z
1/2-x,1/2+y,-z
1/2-x,1/2-y,-z
1/2+x,1/2-y,z
loop_
_atom_site_type_symbol
_atom_site_label
_atom_site_fract_x
_atom_site_fract_y
_atom_site_fract_z
Si Si1 0.612303 0.169551 0.233933
Si Si2 0.272472 0.672487 0.920325
Si Si3 0.663595 0.827904 0.454245
Si Si4 0.220562 0.171856 0.710437
Si Si5 0.561362 0.326639 0.112990
Si Si6 0.318480 0.830304 0.416241
Si Si7 0.392001 0.825143 0.668379
O O1 0.697220 0.266225 0.146015
O O2 0.467163 0.192181 0.320049
O O3 0.635759 0.226991 0.265593
O O4 0.652542 0.000000 0.202421
O O5 0.250715 0.500000 0.931852
O O6 0.385939 0.712105 0.876180
O O7 0.142987 0.746377 0.022662
O O8 0.680902 0.795453 0.393346
O O9 0.775822 0.741693 0.401577
O O10 0.528295 0.766323 0.560784
O O11 0.678581 0.000000 0.454369
O O12 0.282127 0.237398 0.711658
O O13 0.081318 0.237447 0.794843
O O14 0.201989 0.000000 0.728518
O O15 0.569381 0.500000 0.099533
O O16 0.250000 0.750000 0.500000
O O17 0.280167 0.000000 0.443278
O O18 0.397228 0.000000 0.662520
#
# Coordination Sequence:
#
# PCOD8083094 Si02
#       7
#     8   8   8   8   8   8   8
#     4  10  20  34  51  75 106 138 172 210 254 304
#     4  10  20  34  55  80 103 131 165 209 266 319
#     4  10  18  32  53  79 107 137 175 218 259 304
#     4   9  17  30  54  80 102 134 178 221 257 298
#     4   9  18  34  54  79 104 128 167 216 260 307
#     4  11  21  33  50  75 106 139 172 210 255 303
#     4   9  17  31  50  76 107 139 176 215 254 299
#
# _framework density 18.304373999999999
#
# number of rings (size 3 to 8) (size 9 to 14) (size 15 to 20)
#    0.000    2.286    1.429    2.143    0.000    4.571 
#    0.000    1.429    0.000    8.571    0.000    0.000 
#    0.000    0.000    0.000    0.000    0.000    0.000 
#
# Total GULP energy -347193.269609 kJ/mol
# GULP energy per Si atom -12399.759629 kJ/mol
# Density = 1.826271 g / cm^3
# Si number density = 18.304374 Si / 1000 Ang^3
#
#
#
# Elastic Constant Matrix: (Units=GPa)
#
#
# Indices 1 2 3 4 5 6 
#
# 1 131.4787 25.7329 58.9490 -0.0269 7.2173 0.0424
# 2 25.7329 41.1898 30.6284 -0.0389 7.1507 0.0720
# 3 58.9490 30.6284 107.3500 0.0005 14.8201 0.0169
# 4 -0.0269 -0.0389 0.0005 24.1371 0.0049 1.9408
# 5 7.2173 7.1507 14.8201 0.0049 29.9232 -0.0188
# 6 0.0424 0.0720 0.0169 1.9408 -0.0188 20.0716
#
#
#
# Elastic Compliance Matrix: (Units=1/GPa)
#
#
# Indices 1 2 3 4 5 6 
#
# 1 0.010357 -0.002903 -0.004948 0.000007 0.000646 -0.000007
# 2 -0.002903 0.031923 -0.007039 0.000058 -0.003443 -0.000111
# 3 -0.004948 -0.007039 0.014645 -0.000018 -0.004378 0.000021
# 4 0.000007 0.000058 -0.000018 0.041755 -0.000016 -0.004038
# 5 0.000646 -0.003443 -0.004378 -0.000016 0.036254 0.000050
# 6 -0.000007 -0.000111 0.000021 -0.004038 0.000050 0.050212
#
#
# Mechanical properties :
#
#
# Convention : Reuss Voigt Hill
#
# Bulk Modulus (GPa) = 36.83874 56.73768 46.78821
# Shear Modulus (GPa) = 22.32386 25.80692 24.06539
#
# Velocity S-wave (km/s) = 3.49605 3.75891 3.62986
# Velocity P-wave (km/s) = 6.03870 7.06422 6.57150
#
# Compressibility (1/GPa) = 0.02714534
#
# Stress axis : x y z
#
# Youngs Moduli (GPa) = 96.55192 31.32499 68.28180
#
# Poissons Ratio (x) = 0.09094 0.33788
# Poissons Ratio (y) = 0.28031 0.48061
# Poissons Ratio (z) = 0.47777 0.22049
#
# Static dielectric constant tensor:
#      x y z
#    x 3.650870 -0.000720 0.020870 
#    y -0.000720 3.196440 0.000670 
#    z 0.020870 0.000670 3.282590 
# 
# 
# High freq. dielectric constant tensor:
#      x y z
#    x 1.714690 0.000000 0.005370 
#    y 0.000000 1.677020 0.000000 
#    z 0.005370 0.000000 1.708730 
# 
# From -- ./inp_files/237446.got.cif
#   From: 2010.06.25/outbox.cif.g09.slc.cpg/sg12_119_cif.got.tgz:237446.got - 2010.06.28 00:19:55.
