data_PCOD8083620
_publ_section_title
;
Structure prediction by ZEFSAII (Michael W. Deem and Ramdas Pophale) SiO2 
 PCOD8083620
Probable space group: C 2/M
;
_chemical_formula_sum "Si O2"
_cell_formula_units_Z 40
_cell_length_a 15.677527
_cell_length_b 16.319363
_cell_length_c 8.942211
_cell_angle_alpha 90.000000
_cell_angle_beta 92.298867
_cell_angle_gamma 90.000000
_cell_volume 2285.998850
_symmetry_space_group_name_H-M "C 2/M"
_symmetry_group_IT_number 12
_symmetry_cell_setting 'monoclinic'
loop_
_space_group_symop_operation_xyz
x,y,z
-x,y,-z
-x,-y,-z
x,-y,z
1/2+x,1/2+y,z
1/2-x,1/2+y,-z
1/2-x,1/2-y,-z
1/2+x,1/2-y,z
loop_
_atom_site_type_symbol
_atom_site_label
_atom_site_fract_x
_atom_site_fract_y
_atom_site_fract_z
Si Si1 0.593832 0.500000 0.571395
Si Si2 0.329864 0.093263 0.345780
Si Si3 0.991005 0.404888 0.167206
Si Si4 0.140700 0.122014 0.341678
Si Si5 0.517275 0.500000 0.176327
Si Si6 0.582890 0.200499 0.410483
O O1 0.500000 0.500000 0.500000
O O2 0.640276 0.581061 0.508721
O O3 0.577448 0.500000 0.749554
O O4 0.394536 0.112031 0.214806
O O5 0.234421 0.108229 0.278614
O O6 0.347867 0.152992 0.485658
O O7 0.342579 0.000000 0.401792
O O8 0.015210 0.500000 0.179641
O O9 0.059046 0.357175 0.271391
O O10 0.000000 0.371902 0.000000
O O11 0.071032 0.080374 0.227767
O O12 0.124144 0.217697 0.349537
O O13 0.500000 0.500000 0.000000
O O14 0.500000 0.224009 0.500000
#
# Coordination Sequence:
#
# PCOD8083620 Si02
#       6
#     4   8   8   8   4   8
#     4   8  16  32  52  68  96 135 168 205 247 304
#     4  10  18  33  55  76 103 134 174 217 262 298
#     4   9  19  35  52  72 103 142 172 206 257 317
#     4  10  18  34  53  77 105 132 171 221 264 292
#     4  10  20  34  52  74 104 145 175 199 253 320
#     4  10  19  31  53  80 101 134 176 215 253 309
#
# _framework density 17.497820999999998
#
# number of rings (size 3 to 8) (size 9 to 14) (size 15 to 20)
#    0.000    2.600    2.000    3.000    0.000    3.200 
#    0.000    3.000    0.000    0.000    0.000    0.000 
#    0.000    0.000    0.000    0.000    0.000    0.000 
#
# Total GULP energy -247935.354923 kJ/mol
# GULP energy per Si atom -12396.767746 kJ/mol
# Density = 1.745800 g / cm^3
# Si number density = 17.497821 Si / 1000 Ang^3
#
#
#
# Elastic Constant Matrix: (Units=GPa)
#
#
# Indices 1 2 3 4 5 6 
#
# 1 84.4546 35.8932 41.6544 0.0000 -6.6429 0.0000
# 2 35.8932 97.9876 44.1476 0.0000 -3.2448 0.0000
# 3 41.6544 44.1476 128.1676 0.0000 -6.5395 0.0000
# 4 0.0000 0.0000 0.0000 1.8221 0.0000 -5.2750
# 5 -6.6429 -3.2448 -6.5395 0.0000 16.3862 0.0000
# 6 0.0000 0.0000 0.0000 -5.2750 0.0000 25.6242
#
#
#
# Elastic Compliance Matrix: (Units=1/GPa)
#
#
# Indices 1 2 3 4 5 6 
#
# 1 0.015582 -0.004006 -0.003473 0.000000 0.004137 0.000000
# 2 -0.004006 0.013119 -0.003233 0.000000 -0.000316 0.000000
# 3 -0.003473 -0.003233 0.010147 0.000000 0.002001 0.000000
# 4 0.000000 0.000000 0.000000 1.358251 0.000000 0.279609
# 5 0.004137 -0.000316 0.002001 0.000000 0.063440 0.000000
# 6 0.000000 0.000000 0.000000 0.279609 0.000000 0.096586
#
#
# Mechanical properties :
#
#
# Convention : Reuss Voigt Hill
#
# Bulk Modulus (GPa) = 57.39449 61.55557 59.47503
# Shear Modulus (GPa) = 3.15586 21.36082 12.25834
#
# Velocity S-wave (km/s) = 1.34443 3.49774 2.64969
# Velocity P-wave (km/s) = 5.93988 7.18106 6.58976
#
# Compressibility (1/GPa) = 0.01742328
#
# Stress axis : x y z
#
# Youngs Moduli (GPa) = 64.17844 76.22603 98.55337
#
# Poissons Ratio (x) = 0.30535 0.34228
# Poissons Ratio (y) = 0.25709 0.31863
# Poissons Ratio (z) = 0.22290 0.24645
#
# Static dielectric constant tensor:
#      x y z
#    x 3.403290 0.000000 -0.410430 
#    y 0.000000 3.244110 0.000000 
#    z -0.410430 0.000000 3.432220 
# 
# 
# High freq. dielectric constant tensor:
#      x y z
#    x 1.675090 0.000000 -0.014960 
#    y 0.000000 1.680900 0.000000 
#    z -0.014960 0.000000 1.650870 
# 
# From -- ./inp_files/59143.got.cif
#   From: 2010.06.25/outbox.cif.g09.slc.cpg/sg12_30_cif.got.tgz:59143.got - 2010.06.28 00:19:55.
