data_PCOD8083505
_publ_section_title
;
Structure prediction by ZEFSAII (Michael W. Deem and Ramdas Pophale) SiO2 
 PCOD8083505
Probable space group: C 2/M
;
_chemical_formula_sum "Si O2"
_cell_formula_units_Z 44
_cell_length_a 10.302355
_cell_length_b 24.755897
_cell_length_c 15.852814
_cell_angle_alpha 90.000000
_cell_angle_beta 140.553959
_cell_angle_gamma 90.000000
_cell_volume 2568.830397
_symmetry_space_group_name_H-M "C 2/M"
_symmetry_group_IT_number 12
_symmetry_cell_setting 'monoclinic'
loop_
_space_group_symop_operation_xyz
x,y,z
-x,y,-z
-x,-y,-z
x,-y,z
1/2+x,1/2+y,z
1/2-x,1/2+y,-z
1/2-x,1/2-y,-z
1/2+x,1/2-y,z
loop_
_atom_site_type_symbol
_atom_site_label
_atom_site_fract_x
_atom_site_fract_y
_atom_site_fract_z
Si Si1 0.692100 0.636548 0.457728
Si Si2 0.627000 0.561081 0.650223
Si Si3 0.500000 0.180281 0.500000
Si Si4 0.622531 0.727700 0.680856
Si Si5 0.727348 0.278573 0.079558
Si Si6 0.912646 0.352406 0.736964
O O1 0.532103 0.587444 0.363445
O O2 0.810348 0.642143 0.429196
O O3 0.574647 0.690625 0.424414
O O4 0.856725 0.629196 0.614649
O O5 0.500000 0.565029 0.500000
O O6 0.682030 0.500000 0.703009
O O7 0.837724 0.595975 0.755444
O O8 0.435217 0.214793 0.386727
O O9 0.677882 0.736438 0.806171
O O10 0.802273 0.701568 0.715806
O O11 0.847730 0.336506 0.137399
O O12 0.500000 0.291049 0.000000
O O13 0.750000 0.250000 0.000000
#
# Coordination Sequence:
#
# PCOD8083505 Si02
#       6
#     8   8   4   8   8   8
#     4  10  19  28  50  77 100 130 170 208 260 312
#     4   8  16  32  53  75  97 122 165 219 268 309
#     4  12  18  26  47  76 105 138 158 204 258 316
#     4  11  19  31  49  72 104 138 171 202 253 308
#     4  12  24  34  46  71 112 149 174 203 243 300
#     4  10  18  33  50  74  99 135 171 208 252 307
#
# _framework density 17.128419000000001
#
# number of rings (size 3 to 8) (size 9 to 14) (size 15 to 20)
#    0.000    1.636    5.455    2.727    0.000    0.000 
#    0.000    0.455    0.000    0.545    0.000   10.182 
#    0.000    0.000    0.000    0.000    0.000    0.000 
#
# Total GULP energy -272609.092013 kJ/mol
# GULP energy per Si atom -12391.322364 kJ/mol
# Density = 1.708943 g / cm^3
# Si number density = 17.128419 Si / 1000 Ang^3
#
#
#
# Elastic Constant Matrix: (Units=GPa)
#
#
# Indices 1 2 3 4 5 6 
#
# 1 108.3537 40.7580 24.4579 0.0000 25.3196 0.0000
# 2 40.7580 99.6703 20.9937 0.0000 21.0765 0.0000
# 3 24.4579 20.9937 61.1971 0.0000 5.7890 0.0000
# 4 0.0000 0.0000 0.0000 13.0433 0.0000 2.5491
# 5 25.3196 21.0765 5.7890 0.0000 30.3204 0.0000
# 6 0.0000 0.0000 0.0000 2.5491 0.0000 7.1835
#
#
#
# Elastic Compliance Matrix: (Units=1/GPa)
#
#
# Indices 1 2 3 4 5 6 
#
# 1 0.012998 -0.002854 -0.003439 0.000000 -0.008214 0.000000
# 2 -0.002854 0.013091 -0.002765 0.000000 -0.006189 0.000000
# 3 -0.003439 -0.002765 0.018545 0.000000 0.001253 0.000000
# 4 0.000000 0.000000 0.000000 0.082380 0.000000 -0.029233
# 5 -0.008214 -0.006189 0.001253 0.000000 0.043903 0.000000
# 6 0.000000 0.000000 0.000000 -0.029233 0.000000 0.149580
#
#
# Mechanical properties :
#
#
# Convention : Reuss Voigt Hill
#
# Bulk Modulus (GPa) = 37.70877 49.07112 43.38994
# Shear Modulus (GPa) = 14.39043 22.31023 18.35033
#
# Velocity S-wave (km/s) = 2.90168 3.61297 3.27668
# Velocity P-wave (km/s) = 5.76970 6.79087 6.30100
#
# Compressibility (1/GPa) = 0.02651903
#
# Stress axis : x y z
#
# Youngs Moduli (GPa) = 76.93380 76.38677 53.92306
#
# Poissons Ratio (x) = 0.21802 0.18543
# Poissons Ratio (y) = 0.21958 0.14909
# Poissons Ratio (z) = 0.26455 0.21120
#
# Static dielectric constant tensor:
#      x y z
#    x 3.484440 0.000000 0.146920 
#    y 0.000000 3.074710 0.000000 
#    z 0.146920 0.000000 3.018560 
# 
# 
# High freq. dielectric constant tensor:
#      x y z
#    x 1.674700 0.000000 0.007650 
#    y 0.000000 1.626590 0.000000 
#    z 0.007650 0.000000 1.630880 
# 
# From -- ./inp_files/199488.got.cif
#   From: 2010.06.25/outbox.cif.g09.slc.cpg/sg12_100_cif.got.tgz:199488.got - 2010.06.28 00:19:55.
