data_PCOD8083597
_publ_section_title
;
Structure prediction by ZEFSAII (Michael W. Deem and Ramdas Pophale) SiO2 
 PCOD8083597
Probable space group: C 2/M
;
_chemical_formula_sum "Si O2"
_cell_formula_units_Z 52
_cell_length_a 27.671157
_cell_length_b 18.500472
_cell_length_c 12.641361
_cell_angle_alpha 90.000000
_cell_angle_beta 154.485084
_cell_angle_gamma 90.000000
_cell_volume 2787.566712
_symmetry_space_group_name_H-M "C 2/M"
_symmetry_group_IT_number 12
_symmetry_cell_setting 'monoclinic'
loop_
_space_group_symop_operation_xyz
x,y,z
-x,y,-z
-x,-y,-z
x,-y,z
1/2+x,1/2+y,z
1/2-x,1/2+y,-z
1/2-x,1/2-y,-z
1/2+x,1/2-y,z
loop_
_atom_site_type_symbol
_atom_site_label
_atom_site_fract_x
_atom_site_fract_y
_atom_site_fract_z
Si Si1 0.633252 0.158405 0.246858
Si Si2 0.130339 0.500000 0.273026
Si Si3 0.566137 0.633024 0.379932
Si Si4 0.277017 0.247914 0.385600
Si Si5 0.743341 0.500000 0.268459
Si Si6 0.504370 0.500000 0.132168
Si Si7 0.629070 0.418519 0.723277
Si Si8 0.187695 0.858400 0.048979
O O1 0.695663 0.185862 0.475640
O O2 0.672619 0.204522 0.223069
O O3 0.674715 0.075232 0.309718
O O4 0.500000 0.164831 0.000000
O O5 0.157316 0.500000 0.450645
O O6 0.000000 0.500000 0.000000
O O7 0.613587 0.703484 0.415921
O O8 0.572175 0.569001 0.307238
O O9 0.642622 0.613199 0.632505
O O10 0.439218 0.645629 0.162404
O O11 0.247050 0.212708 0.212943
O O12 0.754346 0.428878 0.219452
O O13 0.622577 0.500000 0.082584
O O14 0.500000 0.500000 0.000000
O O15 0.500000 0.423819 0.500000
O O16 0.679595 0.500000 0.828315
O O17 0.691539 0.364098 0.928586
#
# Coordination Sequence:
#
# PCOD8083597 Si02
#       8
#     8   4   8   8   4   4   8   8
#     4  10  22  37  52  73 105 145 182 215 263 319
#     4  10  20  36  55  70  98 141 191 218 239 309
#     4  10  21  34  51  82 110 138 178 218 280 320
#     4  11  22  33  53  77 114 141 167 227 271 327
#     4  10  18  33  54  78  99 130 190 223 247 310
#     4  10  22  31  53  78 111 140 168 222 268 327
#     4   9  16  32  56  77 105 138 176 226 269 316
#     4  10  19  34  55  79 103 140 182 224 264 318
#
# _framework density 18.654261999999999
#
# number of rings (size 3 to 8) (size 9 to 14) (size 15 to 20)
#    0.000    2.000    3.077    0.923    2.154    2.462 
#    0.000    0.000    0.000    0.000    0.000    0.000 
#    0.000    5.231    0.000    0.000    0.000    0.000 
#
# Total GULP energy -322282.080052 kJ/mol
# GULP energy per Si atom -12395.464617 kJ/mol
# Density = 1.861180 g / cm^3
# Si number density = 18.654262 Si / 1000 Ang^3
#
#
#
# Elastic Constant Matrix: (Units=GPa)
#
#
# Indices 1 2 3 4 5 6 
#
# 1 52.3447 33.4546 24.8878 0.0000 -22.8091 0.0000
# 2 33.4546 132.4315 44.9132 0.0000 -12.4554 0.0000
# 3 24.8878 44.9132 88.4613 0.0000 -22.7266 0.0000
# 4 0.0000 0.0000 0.0000 28.0764 0.0000 -4.4169
# 5 -22.8091 -12.4554 -22.7266 0.0000 33.5792 0.0000
# 6 0.0000 0.0000 0.0000 -4.4169 0.0000 14.4411
#
#
#
# Elastic Compliance Matrix: (Units=1/GPa)
#
#
# Indices 1 2 3 4 5 6 
#
# 1 0.031370 -0.005804 -0.001159 0.000000 0.018371 0.000000
# 2 -0.005804 0.010198 -0.004341 0.000000 -0.003097 0.000000
# 3 -0.001159 -0.004341 0.016001 0.000000 0.008432 0.000000
# 4 0.000000 0.000000 0.000000 0.037417 0.000000 0.011444
# 5 0.018371 -0.003097 0.008432 0.000000 0.046817 0.000000
# 6 0.000000 0.000000 0.000000 0.011444 0.000000 0.072747
#
#
# Mechanical properties :
#
#
# Convention : Reuss Voigt Hill
#
# Bulk Modulus (GPa) = 28.60321 53.30543 40.95432
# Shear Modulus (GPa) = 20.09563 26.55146 23.32355
#
# Velocity S-wave (km/s) = 3.28574 3.77682 3.53980
# Velocity P-wave (km/s) = 5.45540 6.90338 6.22166
#
# Compressibility (1/GPa) = 0.03496111
#
# Stress axis : x y z
#
# Youngs Moduli (GPa) = 31.87801 98.05908 62.49795
#
# Poissons Ratio (x) = 0.56909 0.07246
# Poissons Ratio (y) = 0.18501 0.27128
# Poissons Ratio (z) = 0.03696 0.42563
#
# Static dielectric constant tensor:
#      x y z
#    x 3.140650 0.000000 -0.293450 
#    y 0.000000 3.708280 0.000000 
#    z -0.293450 0.000000 3.403220 
# 
# 
# High freq. dielectric constant tensor:
#      x y z
#    x 1.693190 0.000000 -0.024450 
#    y 0.000000 1.735210 0.000000 
#    z -0.024450 0.000000 1.717620 
# 
# From -- ./inp_files/184388.got.cif
#   From: 2010.06.25/outbox.cif.g09.slc.cpg/sg12_93_cif.got.tgz:184388.got - 2010.06.28 00:19:55.
