data_PCOD8083533
_publ_section_title
;
Structure prediction by ZEFSAII (Michael W. Deem and Ramdas Pophale) SiO2 
 PCOD8083533
Probable space group: C 2/M
;
_chemical_formula_sum "Si O2"
_cell_formula_units_Z 64
_cell_length_a 21.153394
_cell_length_b 17.726741
_cell_length_c 15.716621
_cell_angle_alpha 90.000000
_cell_angle_beta 143.483723
_cell_angle_gamma 90.000000
_cell_volume 3506.892243
_symmetry_space_group_name_H-M "C 2/M"
_symmetry_group_IT_number 12
_symmetry_cell_setting 'monoclinic'
loop_
_space_group_symop_operation_xyz
x,y,z
-x,y,-z
-x,-y,-z
x,-y,z
1/2+x,1/2+y,z
1/2-x,1/2+y,-z
1/2-x,1/2-y,-z
1/2+x,1/2-y,z
loop_
_atom_site_type_symbol
_atom_site_label
_atom_site_fract_x
_atom_site_fract_y
_atom_site_fract_z
Si Si1 0.384682 0.583305 0.411402
Si Si2 0.808228 0.764093 0.285248
Si Si3 0.855782 0.843617 0.062084
Si Si4 0.882709 0.164726 0.899391
Si Si5 0.404578 0.798563 0.553491
Si Si6 0.217620 0.086188 0.362524
Si Si7 0.575107 0.633226 0.362548
Si Si8 0.136052 0.304054 0.834619
O O1 0.500000 0.602420 0.500000
O O2 0.346603 0.500000 0.342631
O O3 0.305368 0.645296 0.287887
O O4 0.384135 0.587417 0.512766
O O5 0.690823 0.738514 0.185881
O O6 0.892875 0.726333 0.442251
O O7 0.837865 0.742418 0.222492
O O8 0.862471 0.752567 0.083164
O O9 0.946978 0.881275 0.218699
O O10 0.881592 0.867286 0.993619
O O11 0.731954 0.865937 0.950291
O O12 0.836736 0.100481 0.787561
O O13 0.000000 0.189851 0.000000
O O14 0.316651 0.858585 0.486826
O O15 0.398153 0.722415 0.602949
O O16 0.518891 0.839175 0.694464
O O17 0.129907 0.099907 0.339024
O O18 0.257691 0.000000 0.408192
#
# Coordination Sequence:
#
# PCOD8083533 Si02
#       8
#     8   8   8   8   8   8   8   8
#     4  10  19  31  49  76 104 128 157 203 263 309
#     4   9  17  30  53  75  99 129 163 212 252 295
#     4   9  17  29  50  76 100 124 166 205 250 286
#     4  10  19  34  50  72  98 131 173 205 245 294
#     4   9  18  31  52  76 100 130 169 208 251 300
#     4  11  22  34  50  72 104 138 169 208 254 298
#     4  10  18  33  52  75 101 130 170 209 246 300
#     4   9  16  29  52  79 100 124 162 215 251 287
#
# _framework density 18.249777999999999
#
# number of rings (size 3 to 8) (size 9 to 14) (size 15 to 20)
#    0.000    2.375    1.250    3.375    0.000    0.250 
#    0.000    0.000    0.000   16.125    0.000   21.000 
#    0.000    0.000    0.000    0.000    0.000    0.000 
#
# Total GULP energy -396545.497499 kJ/mol
# GULP energy per Si atom -12392.046797 kJ/mol
# Density = 1.820824 g / cm^3
# Si number density = 18.249778 Si / 1000 Ang^3
#
#
#
# Elastic Constant Matrix: (Units=GPa)
#
#
# Indices 1 2 3 4 5 6 
#
# 1 64.4180 11.8045 11.7299 0.0000 1.2663 0.0000
# 2 11.8045 82.8270 21.5640 0.0000 9.4932 0.0000
# 3 11.7299 21.5640 82.1236 0.0000 17.6476 0.0000
# 4 0.0000 0.0000 0.0000 10.8872 0.0000 -2.0807
# 5 1.2663 9.4932 17.6476 0.0000 35.7062 0.0000
# 6 0.0000 0.0000 0.0000 -2.0807 0.0000 12.5282
#
#
#
# Elastic Compliance Matrix: (Units=1/GPa)
#
#
# Indices 1 2 3 4 5 6 
#
# 1 0.016220 -0.001892 -0.002019 0.000000 0.000926 0.000000
# 2 -0.001892 0.013305 -0.002772 0.000000 -0.002100 0.000000
# 3 -0.002019 -0.002772 0.014566 0.000000 -0.006391 0.000000
# 4 0.000000 0.000000 0.000000 0.094862 0.000000 0.015755
# 5 0.000926 -0.002100 -0.006391 0.000000 0.031690 0.000000
# 6 0.000000 0.000000 0.000000 0.015755 0.000000 0.082437
#
#
# Mechanical properties :
#
#
# Convention : Reuss Voigt Hill
#
# Bulk Modulus (GPa) = 32.54636 35.50728 34.02682
# Shear Modulus (GPa) = 18.07088 24.10901 21.08994
#
# Velocity S-wave (km/s) = 3.15015 3.63858 3.40314
# Velocity P-wave (km/s) = 5.57708 6.09515 5.84186
#
# Compressibility (1/GPa) = 0.03072540
#
# Stress axis : x y z
#
# Youngs Moduli (GPa) = 61.65326 75.15698 68.65153
#
# Poissons Ratio (x) = 0.14221 0.13859
# Poissons Ratio (y) = 0.11666 0.19031
# Poissons Ratio (z) = 0.12446 0.20835
#
# Static dielectric constant tensor:
#      x y z
#    x 3.393850 0.000000 0.030270 
#    y 0.000000 3.035980 0.000000 
#    z 0.030270 0.000000 3.741880 
# 
# 
# High freq. dielectric constant tensor:
#      x y z
#    x 1.710140 0.000000 -0.005740 
#    y 0.000000 1.660690 0.000000 
#    z -0.005740 0.000000 1.718550 
# 
# From -- ./inp_files/290467.got.cif
#   From: 2010.06.25/outbox.cif.g09.slc.cpg/sg12_146_cif.got.tgz:290467.got - 2010.06.28 00:19:55.
