data_PCOD8083583
_publ_section_title
;
Structure prediction by ZEFSAII (Michael W. Deem and Ramdas Pophale) SiO2 
 PCOD8083583
Probable space group: C 2/M
;
_chemical_formula_sum "Si O2"
_cell_formula_units_Z 40
_cell_length_a 9.948549
_cell_length_b 17.259299
_cell_length_c 19.033251
_cell_angle_alpha 90.000000
_cell_angle_beta 133.756407
_cell_angle_gamma 90.000000
_cell_volume 2360.507838
_symmetry_space_group_name_H-M "C 2/M"
_symmetry_group_IT_number 12
_symmetry_cell_setting 'monoclinic'
loop_
_space_group_symop_operation_xyz
x,y,z
-x,y,-z
-x,-y,-z
x,-y,z
1/2+x,1/2+y,z
1/2-x,1/2+y,-z
1/2-x,1/2-y,-z
1/2+x,1/2-y,z
loop_
_atom_site_type_symbol
_atom_site_label
_atom_site_fract_x
_atom_site_fract_y
_atom_site_fract_z
Si Si1 0.211088 0.911358 0.579884
Si Si2 0.888690 0.590266 0.891067
Si Si3 0.142358 0.690998 0.244443
Si Si4 0.461175 0.676677 0.261468
Si Si5 0.800387 0.588878 0.453388
O O1 0.324868 0.859302 0.674453
O O2 0.303514 0.901721 0.537846
O O3 0.000000 0.881934 0.500000
O O4 0.216315 0.000000 0.608670
O O5 0.914953 0.500000 0.885635
O O6 0.968463 0.638269 0.852836
O O7 0.668454 0.610181 0.820861
O O8 0.000000 0.616915 0.000000
O O9 0.339109 0.717228 0.279728
O O10 0.017425 0.763976 0.220481
O O11 0.644689 0.640966 0.361449
O O12 0.764143 0.500000 0.418443
O O13 0.000000 0.618651 0.500000
#
# Coordination Sequence:
#
# PCOD8083583 Si02
#       5
#     8   8   8   8   8
#     4  10  18  33  54  75 105 149 193 231 262 312
#     4   9  19  38  64  84 103 141 187 227 271 330
#     4  10  22  34  54  82 111 144 178 224 281 322
#     4  10  22  36  53  80 116 140 181 227 272 325
#     4  10  21  34  52  77 109 151 189 223 269 318
#
# _framework density 16.945506000000002
#
# number of rings (size 3 to 8) (size 9 to 14) (size 15 to 20)
#    1.200    1.000    2.000    1.200    2.800    2.400 
#    0.000    0.000    0.000    0.000    0.000    2.800 
#    0.000    0.000    0.000    0.000    0.000    0.000 
#
# Total GULP energy -247881.853721 kJ/mol
# GULP energy per Si atom -12394.092686 kJ/mol
# Density = 1.690694 g / cm^3
# Si number density = 16.945506 Si / 1000 Ang^3
#
#
#
# Elastic Constant Matrix: (Units=GPa)
#
#
# Indices 1 2 3 4 5 6 
#
# 1 99.9854 25.7470 25.0696 0.0000 -5.5987 0.0000
# 2 25.7470 60.2046 32.0136 0.0000 -11.7272 0.0000
# 3 25.0696 32.0136 93.0068 0.0000 -10.7933 0.0000
# 4 0.0000 0.0000 0.0000 6.8248 0.0000 14.7458
# 5 -5.5987 -11.7272 -10.7933 0.0000 17.9529 0.0000
# 6 0.0000 0.0000 0.0000 14.7458 0.0000 1.7310
#
#
#
# Elastic Compliance Matrix: (Units=1/GPa)
#
#
# Indices 1 2 3 4 5 6 
#
# 1 0.011459 -0.004000 -0.001720 0.000000 -0.000074 0.000000
# 2 -0.004000 0.023451 -0.005763 0.000000 0.010607 0.000000
# 3 -0.001720 -0.005763 0.013653 0.000000 0.003907 0.000000
# 4 0.000000 0.000000 0.000000 -0.008418 0.000000 0.071712
# 5 -0.000074 0.010607 0.003907 0.000000 0.064956 0.000000
# 6 0.000000 0.000000 0.000000 0.071712 0.000000 -0.033190
#
#
# Mechanical properties :
#
#
# Convention : Reuss Voigt Hill
#
# Bulk Modulus (GPa) = 39.06880 46.53970 42.80425
# Shear Modulus (GPa) = 48.35196 16.65950 32.50573
#
# Velocity S-wave (km/s) = 5.34750 3.13888 4.38454
# Velocity P-wave (km/s) = 7.82517 6.37657 7.13772
#
# Compressibility (1/GPa) = 0.02559587
#
# Stress axis : x y z
#
# Youngs Moduli (GPa) = 87.26983 42.64182 73.24560
#
# Poissons Ratio (x) = 0.17057 0.12601
# Poissons Ratio (y) = 0.34908 0.42211
# Poissons Ratio (z) = 0.15014 0.24574
#
# Static dielectric constant tensor:
#      x y z
#    x 3.156230 0.000000 -0.078780 
#    y 0.000000 3.074200 0.000000 
#    z -0.078780 0.000000 3.053660 
# 
# 
# High freq. dielectric constant tensor:
#      x y z
#    x 1.647490 0.000000 -0.009120 
#    y 0.000000 1.647740 0.000000 
#    z -0.009120 0.000000 1.646300 
# 
# From -- ./inp_files/195057.got.cif
#   From: 2010.06.25/outbox.cif.g09.slc.cpg/sg12_98_cif.got.tgz:195057.got - 2010.06.28 00:19:55.
