data_PCOD8083065
_publ_section_title
;
Structure prediction by ZEFSAII (Michael W. Deem and Ramdas Pophale) SiO2 
 PCOD8083065
Probable space group: C 2/M
;
_chemical_formula_sum "Si O2"
_cell_formula_units_Z 64
_cell_length_a 14.855399
_cell_length_b 8.885110
_cell_length_c 30.192059
_cell_angle_alpha 90.000000
_cell_angle_beta 60.382657
_cell_angle_gamma 90.000000
_cell_volume 3464.433348
_symmetry_space_group_name_H-M "C 2/M"
_symmetry_group_IT_number 12
_symmetry_cell_setting 'monoclinic'
loop_
_space_group_symop_operation_xyz
x,y,z
-x,y,-z
-x,-y,-z
x,-y,z
1/2+x,1/2+y,z
1/2-x,1/2+y,-z
1/2-x,1/2-y,-z
1/2+x,1/2-y,z
loop_
_atom_site_type_symbol
_atom_site_label
_atom_site_fract_x
_atom_site_fract_y
_atom_site_fract_z
Si Si1 0.755668 0.321926 0.131823
Si Si2 0.151232 0.821895 0.499723
Si Si3 0.092780 0.321652 0.765696
Si Si4 0.179908 0.178301 0.309286
Si Si5 0.077301 0.178821 0.422783
Si Si6 0.681771 0.321282 0.054610
Si Si7 0.531959 0.821641 0.878377
Si Si8 0.915069 0.822181 0.758647
O O1 0.749990 0.500000 0.134970
O O2 0.726011 0.261484 0.090632
O O3 0.871074 0.269303 0.115562
O O4 0.675656 0.257930 0.187601
O O5 0.250000 0.750000 0.500000
O O6 0.142263 0.769844 0.450397
O O7 0.042763 0.767537 0.548153
O O8 0.164226 0.000000 0.500169
O O9 0.094125 0.500000 0.764051
O O10 0.206559 0.255964 0.728360
O O11 0.052181 0.267033 0.823323
O O12 0.021649 0.257056 0.744575
O O13 0.133460 0.247511 0.365829
O O14 0.106643 0.224228 0.286477
O O15 0.186992 0.000000 0.311657
O O16 0.076291 0.000000 0.422026
O O17 0.686037 0.500000 0.050160
O O18 0.564932 0.264977 0.077597
O O19 0.750000 0.250000 0.000000
O O20 0.513404 0.000000 0.885381
O O21 0.925892 0.000000 0.761883
#
# Coordination Sequence:
#
# PCOD8083065 Si02
#       8
#     8   8   8   8   8   8   8   8
#     4   9  18  34  56  76  99 133 169 200 242 303
#     4   9  17  31  52  74 100 136 180 220 260 309
#     4  10  19  31  51  78 103 130 166 210 255 302
#     4   9  17  31  52  75 103 138 176 212 251 308
#     4   8  16  31  49  72 102 139 177 214 256 309
#     4  11  23  39  57  79 106 134 167 211 257 302
#     4  10  19  35  57  78 100 131 170 207 248 302
#     4  10  18  32  53  76 100 133 173 207 246 306
#
# _framework density 18.47344
#
# number of rings (size 3 to 8) (size 9 to 14) (size 15 to 20)
#    0.000    2.500    2.500    1.125    0.000    1.500 
#    0.000    6.250    0.000    1.500    0.000    0.000 
#    0.000    0.000    0.000    0.000    0.000    0.000 
#
# Total GULP energy -396723.375835 kJ/mol
# GULP energy per Si atom -12397.605495 kJ/mol
# Density = 1.843139 g / cm^3
# Si number density = 18.473440 Si / 1000 Ang^3
#
#
#
# Elastic Constant Matrix: (Units=GPa)
#
#
# Indices 1 2 3 4 5 6 
#
# 1 115.2830 9.7544 31.0954 0.0000 -3.3799 0.0000
# 2 9.7544 17.7083 14.2692 0.0000 -3.6775 0.0000
# 3 31.0954 14.2692 118.9442 0.0000 -0.1751 0.0000
# 4 0.0000 0.0000 0.0000 14.7991 0.0000 0.5923
# 5 -3.3799 -3.6775 -0.1751 0.0000 26.8631 0.0000
# 6 0.0000 0.0000 0.0000 0.5923 0.0000 31.9959
#
#
#
# Elastic Compliance Matrix: (Units=1/GPa)
#
#
# Indices 1 2 3 4 5 6 
#
# 1 0.009548 -0.003431 -0.002083 0.000000 0.000718 0.000000
# 2 -0.003431 0.065754 -0.006979 0.000000 0.008524 0.000000
# 3 -0.002083 -0.006979 0.009787 0.000000 -0.001154 0.000000
# 4 0.000000 0.000000 0.000000 0.067622 0.000000 -0.001252
# 5 0.000718 0.008524 -0.001154 0.000000 0.038476 0.000000
# 6 0.000000 0.000000 0.000000 -0.001252 0.000000 0.031277
#
#
# Mechanical properties :
#
#
# Convention : Reuss Voigt Hill
#
# Bulk Modulus (GPa) = 16.63818 40.24154 28.43986
# Shear Modulus (GPa) = 18.69264 27.85273 23.27269
#
# Velocity S-wave (km/s) = 3.18443 3.88715 3.55320
# Velocity P-wave (km/s) = 4.74836 6.47899 5.67997
#
# Compressibility (1/GPa) = 0.06010273
#
# Stress axis : x y z
#
# Youngs Moduli (GPa) = 104.73803 15.20811 102.17172
#
# Poissons Ratio (x) = 0.05218 0.21286
# Poissons Ratio (y) = 0.35940 0.71302
# Poissons Ratio (z) = 0.21820 0.10613
#
# Static dielectric constant tensor:
#      x y z
#    x 3.574620 0.000000 0.028620 
#    y 0.000000 2.932550 0.000000 
#    z 0.028620 0.000000 3.683570 
# 
# 
# High freq. dielectric constant tensor:
#      x y z
#    x 1.730150 0.000000 0.000220 
#    y 0.000000 1.671650 0.000000 
#    z 0.000220 0.000000 1.721330 
# 
# From -- ./inp_files/375012.got.cif
#   From: 2010.06.25/outbox.cif.g09.slc.cpg/sg12_188_cif.got.tgz:375012.got - 2010.06.28 00:19:55.
