data_PCOD8083372
_publ_section_title
;
Structure prediction by ZEFSAII (Michael W. Deem and Ramdas Pophale) SiO2 
 PCOD8083372
Probable space group: C 2/M
;
_chemical_formula_sum "Si O2"
_cell_formula_units_Z 28
_cell_length_a 23.966841
_cell_length_b 10.113554
_cell_length_c 5.019680
_cell_angle_alpha 90.000000
_cell_angle_beta 102.971648
_cell_angle_gamma 90.000000
_cell_volume 1185.670777
_symmetry_space_group_name_H-M "C 2/M"
_symmetry_group_IT_number 12
_symmetry_cell_setting 'monoclinic'
loop_
_space_group_symop_operation_xyz
x,y,z
-x,y,-z
-x,-y,-z
x,-y,z
1/2+x,1/2+y,z
1/2-x,1/2+y,-z
1/2-x,1/2-y,-z
1/2+x,1/2-y,z
loop_
_atom_site_type_symbol
_atom_site_label
_atom_site_fract_x
_atom_site_fract_y
_atom_site_fract_z
Si Si1 0.698834 0.000000 0.212889
Si Si2 0.039931 0.500000 0.296114
Si Si3 0.433876 0.730021 0.471114
Si Si4 0.363423 0.275070 0.862716
Si Si5 0.775060 0.000000 0.794819
O O1 0.660196 0.128600 0.222198
O O2 0.752475 0.000000 0.469457
O O3 0.721216 0.000000 0.934793
O O4 0.075201 0.366338 0.368928
O O5 0.000000 0.500000 0.500000
O O6 0.000000 0.500000 0.000000
O O7 0.500000 0.684812 0.500000
O O8 0.395510 0.649322 0.644891
O O9 0.407742 0.734328 0.152915
O O10 0.311249 0.368320 0.890588
#
# Coordination Sequence:
#
# PCOD8083372 Si02
#       5
#     4   4   8   8   4
#     4  12  24  45  69  94 123 164 216 278 329 372
#     4  10  18  32  56  88 124 162 203 256 303 346
#     4  11  22  39  62  96 134 170 208 257 313 385
#     4  12  24  42  67  96 127 171 214 259 324 385
#     4  12  26  45  65  94 129 166 217 274 318 376
#
# _framework density 23.615323
#
# number of rings (size 3 to 8) (size 9 to 14) (size 15 to 20)
#    0.000    0.571    0.000   11.143    0.000    0.000 
#    0.000    4.286    0.000    0.000    0.000    0.000 
#    0.000    0.000    0.000    0.000    0.000    0.000 
#
# Total GULP energy -173460.080158 kJ/mol
# GULP energy per Si atom -12390.005726 kJ/mol
# Density = 2.356157 g / cm^3
# Si number density = 23.615323 Si / 1000 Ang^3
#
#
#
# Elastic Constant Matrix: (Units=GPa)
#
#
# Indices 1 2 3 4 5 6 
#
# 1 158.1615 31.2266 36.5686 0.0000 -13.5825 0.0000
# 2 31.2266 83.9917 25.1342 0.0000 6.8523 0.0000
# 3 36.5686 25.1342 157.5002 0.0000 21.7916 0.0000
# 4 0.0000 0.0000 0.0000-1489.1720 0.0000 -246.5423
# 5 -13.5825 6.8523 21.7916 0.0000 54.8210 0.0000
# 6 0.0000 0.0000 0.0000 -246.5423 0.0000 -51.1472
#
#
#
# Elastic Compliance Matrix: (Units=1/GPa)
#
#
# Indices 1 2 3 4 5 6 
#
# 1 0.007458 -0.002488 -0.001728 0.000000 0.002846 0.000000
# 2 -0.002488 0.013367 -0.001311 0.000000 -0.001766 0.000000
# 3 -0.001728 -0.001311 0.007403 0.000000 -0.003207 0.000000
# 4 0.000000 0.000000 0.000000 -0.003325 0.000000 0.016026
# 5 0.002846 -0.001766 -0.003207 0.000000 0.020442 0.000000
# 6 0.000000 0.000000 0.000000 0.016026 0.000000 -0.096801
#
#
# Mechanical properties :
#
#
# Convention : Reuss Voigt Hill
#
# Bulk Modulus (GPa) = 58.22715 65.05690 61.64202
# Shear Modulus (GPa) = -144.19276 -276.65138 -210.42207
#
# Velocity S-wave (km/s) = -7.82250 -10.83529 -9.44973
# Velocity P-wave (km/s) = 7.54180 11.35471 9.63868
#
# Compressibility (1/GPa) = 0.01717412
#
# Stress axis : x y z
#
# Youngs Moduli (GPa) = 134.08812 74.80967 135.07162
#
# Poissons Ratio (x) = 0.18610 0.23344
# Poissons Ratio (y) = 0.33356 0.17711
# Poissons Ratio (z) = 0.23174 0.09809
#
# Static dielectric constant tensor:
#      x y z
#    x 4.541860 0.000000 -0.029130 
#    y 0.000000 4.336850 0.000000 
#    z -0.029130 0.000000 4.153880 
# 
# 
# High freq. dielectric constant tensor:
#      x y z
#    x 1.972980 0.000000 -0.013780 
#    y 0.000000 1.916710 0.000000 
#    z -0.013780 0.000000 1.948630 
# 
# From -- ./inp_files/18932.got.cif
#   From: 2010.06.25/outbox.cif.g09.slc.cpg/sg12_10_cif.got.tgz:18932.got - 2010.06.28 00:19:55.
