data_PCOD8083211
_publ_section_title
;
Structure prediction by ZEFSAII (Michael W. Deem and Ramdas Pophale) SiO2 
 PCOD8083211
Probable space group: C 2/M
;
_chemical_formula_sum "Si O2"
_cell_formula_units_Z 56
_cell_length_a 19.076418
_cell_length_b 9.143133
_cell_length_c 25.510787
_cell_angle_alpha 90.000000
_cell_angle_beta 44.417782
_cell_angle_gamma 90.000000
_cell_volume 3114.170875
_symmetry_space_group_name_H-M "C 2/M"
_symmetry_group_IT_number 12
_symmetry_cell_setting 'monoclinic'
loop_
_space_group_symop_operation_xyz
x,y,z
-x,y,-z
-x,-y,-z
x,-y,z
1/2+x,1/2+y,z
1/2-x,1/2+y,-z
1/2-x,1/2-y,-z
1/2+x,1/2-y,z
loop_
_atom_site_type_symbol
_atom_site_label
_atom_site_fract_x
_atom_site_fract_y
_atom_site_fract_z
Si Si1 0.009489 0.825716 0.736064
Si Si2 0.813555 0.336825 0.699839
Si Si3 0.981858 0.159129 0.569933
Si Si4 0.093433 0.836138 0.797888
Si Si5 0.354663 0.670845 0.433865
Si Si6 0.206909 0.828347 0.185224
Si Si7 0.594127 0.673488 0.914779
O O1 0.040841 0.757731 0.776182
O O2 0.083050 0.768099 0.650266
O O3 0.893787 0.777591 0.790933
O O4 0.017994 0.000000 0.731600
O O5 0.831893 0.500000 0.712991
O O6 0.902170 0.289413 0.614796
O O7 0.711150 0.334927 0.721814
O O8 0.810514 0.214472 0.745782
O O9 0.000000 0.138797 0.500000
O O10 0.080273 0.204731 0.549337
O O11 0.944716 0.000000 0.611971
O O12 0.075487 0.765005 0.865326
O O13 0.050507 0.000000 0.824056
O O14 0.332396 0.500000 0.438605
O O15 0.250000 0.750000 0.500000
O O16 0.306877 0.744834 0.111818
O O17 0.225426 0.000000 0.169498
O O18 0.612187 0.500000 0.903086
O O19 0.500000 0.718317 0.000000
#
# Coordination Sequence:
#
# PCOD8083211 Si02
#       7
#     8   8   8   8   8   8   8
#     4   9  17  32  52  72 100 134 171 211 253 305
#     4  10  19  32  52  75  98 129 173 216 252 300
#     4  10  21  36  51  69 100 135 170 214 264 310
#     4   8  16  30  50  75  99 129 169 207 248 298
#     4  10  21  36  51  71 100 136 173 214 264 306
#     4  10  18  32  55  77 101 134 169 207 254 306
#     4   9  18  34  55  79 108 137 167 207 252 299
#
# _framework density 17.982313999999999
#
# number of rings (size 3 to 8) (size 9 to 14) (size 15 to 20)
#    0.000    2.571    1.429    1.714    2.000    1.143 
#    0.000    0.714    0.000    8.571    0.000    0.000 
#    0.000    0.000    0.000    0.000    0.000    0.000 
#
# Total GULP energy -346897.898636 kJ/mol
# GULP energy per Si atom -12389.210666 kJ/mol
# Density = 1.794138 g / cm^3
# Si number density = 17.982314 Si / 1000 Ang^3
#
#
#
# Elastic Constant Matrix: (Units=GPa)
#
#
# Indices 1 2 3 4 5 6 
#
# 1 143.8619 35.8057 74.8934 0.0000 -2.8932 -0.0002
# 2 35.8057 41.3673 36.9444 -0.0001 -12.1243 -0.0006
# 3 74.8934 36.9444 122.2001 0.0000 -18.4179 0.0000
# 4 0.0000 -0.0001 0.0000 23.1626 0.0000 -9.6049
# 5 -2.8932 -12.1243 -18.4179 0.0000 27.2810 0.0000
# 6 -0.0002 -0.0006 0.0000 -9.6049 0.0000 21.7753
#
#
#
# Elastic Compliance Matrix: (Units=1/GPa)
#
#
# Indices 1 2 3 4 5 6 
#
# 1 0.011529 -0.006246 -0.006025 0.000000 -0.005620 0.000000
# 2 -0.006246 0.038540 -0.005947 0.000001 0.012451 0.000001
# 3 -0.006025 -0.005947 0.014672 0.000000 0.006623 0.000000
# 4 0.000000 0.000001 0.000000 0.052837 0.000000 0.023306
# 5 -0.005620 0.012451 0.006623 0.000000 0.046064 0.000000
# 6 0.000000 0.000001 0.000000 0.023306 0.000000 0.056204
#
#
# Mechanical properties :
#
#
# Convention : Reuss Voigt Hill
#
# Bulk Modulus (GPa) = 35.32859 66.96848 51.14854
# Shear Modulus (GPa) = 18.81698 25.09617 21.95658
#
# Velocity S-wave (km/s) = 3.23835 3.73983 3.49809
# Velocity P-wave (km/s) = 5.80271 7.48135 6.69485
#
# Compressibility (1/GPa) = 0.02830568
#
# Stress axis : x y z
#
# Youngs Moduli (GPa) = 86.73799 25.94686 68.15713
#
# Poissons Ratio (x) = 0.16206 0.41062
# Poissons Ratio (y) = 0.54174 0.40536
# Poissons Ratio (z) = 0.52257 0.15432
#
# Static dielectric constant tensor:
#      x y z
#    x 3.643090 0.000000 -0.124840 
#    y 0.000000 3.203690 0.000000 
#    z -0.124840 0.000000 3.408470 
# 
# 
# High freq. dielectric constant tensor:
#      x y z
#    x 1.700610 0.000000 -0.005890 
#    y 0.000000 1.668550 0.000000 
#    z -0.005890 0.000000 1.685690 
# 
# From -- ./inp_files/342227.got.cif
#   From: 2010.06.25/outbox.cif.g09.slc.cpg/sg12_172_cif.got.tgz:342227.got - 2010.06.28 00:19:55.
