data_PCOD8083632
_publ_section_title
;
Structure prediction by ZEFSAII (Michael W. Deem and Ramdas Pophale) SiO2 
 PCOD8083632
Probable space group: C 2/M
;
_chemical_formula_sum "Si O2"
_cell_formula_units_Z 56
_cell_length_a 25.099465
_cell_length_b 8.530442
_cell_length_c 15.068775
_cell_angle_alpha 90.000000
_cell_angle_beta 74.320908
_cell_angle_gamma 90.000000
_cell_volume 3106.316554
_symmetry_space_group_name_H-M "C 2/M"
_symmetry_group_IT_number 12
_symmetry_cell_setting 'monoclinic'
loop_
_space_group_symop_operation_xyz
x,y,z
-x,y,-z
-x,-y,-z
x,-y,z
1/2+x,1/2+y,z
1/2-x,1/2+y,-z
1/2-x,1/2-y,-z
1/2+x,1/2-y,z
loop_
_atom_site_type_symbol
_atom_site_label
_atom_site_fract_x
_atom_site_fract_y
_atom_site_fract_z
Si Si1 0.432404 0.814869 0.900025
Si Si2 0.260617 0.314879 0.091830
Si Si3 0.462706 0.318154 0.399811
Si Si4 0.880436 0.815436 0.095740
Si Si5 0.352719 0.814374 0.780895
Si Si6 0.946986 0.682815 0.222810
Si Si7 0.424255 0.183744 0.589151
O O1 0.389807 0.749694 0.845426
O O2 0.493786 0.767588 0.842996
O O3 0.426552 0.000000 0.918372
O O4 0.420763 0.727292 0.996983
O O5 0.261654 0.500000 0.084106
O O6 0.318562 0.252389 0.103714
O O7 0.210650 0.258907 0.178661
O O8 0.250000 0.250000 0.000000
O O9 0.478349 0.500000 0.397484
O O10 0.435029 0.276428 0.318730
O O11 0.419926 0.276803 0.498356
O O12 0.517621 0.214682 0.387995
O O13 0.899361 0.727775 0.175615
O O14 0.881598 0.000000 0.111788
O O15 0.375612 0.753714 0.676037
O O16 0.358604 0.000000 0.780299
O O17 0.944961 0.500000 0.244929
O O18 0.418688 0.000000 0.572562
#
# Coordination Sequence:
#
# PCOD8083632 Si02
#       7
#     8   8   8   8   8   8   8
#     4  10  19  34  54  76 103 141 182 213 252 308
#     4  10  20  35  54  76 104 138 177 217 260 303
#     4  11  21  33  51  79 112 138 165 215 272 315
#     4  11  23  35  50  78 110 141 174 217 267 311
#     4   9  17  32  55  78 104 137 176 218 254 298
#     4  11  22  37  55  75 102 144 184 215 253 314
#     4  10  18  33  55  79 105 139 179 213 253 314
#
# _framework density 18.027782999999999
#
# number of rings (size 3 to 8) (size 9 to 14) (size 15 to 20)
#    0.000    1.714    2.857    3.857    0.000    3.429 
#    0.000    1.429    0.000    0.857    0.000    0.000 
#    0.000    0.000    0.000    0.000    0.000    0.000 
#
# Total GULP energy -347254.424677 kJ/mol
# GULP energy per Si atom -12401.943738 kJ/mol
# Density = 1.798675 g / cm^3
# Si number density = 18.027783 Si / 1000 Ang^3
#
#
#
# Elastic Constant Matrix: (Units=GPa)
#
#
# Indices 1 2 3 4 5 6 
#
# 1 101.3999 17.7618 57.5396 0.0000 6.2949 0.0000
# 2 17.7618 42.3882 23.3073 0.0000 0.4394 0.0000
# 3 57.5396 23.3073 148.4464 0.0000 1.5729 0.0000
# 4 0.0000 0.0000 0.0000 23.4256 0.0000 3.8837
# 5 6.2949 0.4394 1.5729 0.0000 27.2789 0.0000
# 6 0.0000 0.0000 0.0000 3.8837 0.0000 20.2073
#
#
#
# Elastic Compliance Matrix: (Units=1/GPa)
#
#
# Indices 1 2 3 4 5 6 
#
# 1 0.013164 -0.002953 -0.004610 0.000000 -0.002724 0.000000
# 2 -0.002953 0.026484 -0.003018 0.000000 0.000429 0.000000
# 3 -0.004610 -0.003018 0.008991 0.000000 0.000594 0.000000
# 4 0.000000 0.000000 0.000000 0.044093 0.000000 -0.008474
# 5 -0.002724 0.000429 0.000594 0.000000 0.037246 0.000000
# 6 0.000000 0.000000 0.000000 -0.008474 0.000000 0.051116
#
#
# Mechanical properties :
#
#
# Convention : Reuss Voigt Hill
#
# Bulk Modulus (GPa) = 36.39455 54.38355 45.38905
# Shear Modulus (GPa) = 23.65008 27.09076 25.37042
#
# Velocity S-wave (km/s) = 3.62590 3.88070 3.75546
# Velocity P-wave (km/s) = 6.14503 7.09308 6.63601
#
# Compressibility (1/GPa) = 0.02747664
#
# Stress axis : x y z
#
# Youngs Moduli (GPa) = 75.96248 37.75875 111.22283
#
# Poissons Ratio (x) = 0.11150 0.51275
# Poissons Ratio (y) = 0.22432 0.33568
# Poissons Ratio (z) = 0.35020 0.11396
#
# Static dielectric constant tensor:
#      x y z
#    x 3.337540 0.000000 -0.113180 
#    y 0.000000 3.177030 0.000000 
#    z -0.113180 0.000000 3.556960 
# 
# 
# High freq. dielectric constant tensor:
#      x y z
#    x 1.675450 0.000000 -0.000780 
#    y 0.000000 1.690660 0.000000 
#    z -0.000780 0.000000 1.705570 
# 
# From -- ./inp_files/237423.got.cif
#   From: 2010.06.25/outbox.cif.g09.slc.cpg/sg12_119_cif.got.tgz:237423.got - 2010.06.28 00:19:55.
