data_PCOD8083314
_publ_section_title
;
Structure prediction by ZEFSAII (Michael W. Deem and Ramdas Pophale) SiO2 
 PCOD8083314
Probable space group: C 2/M
;
_chemical_formula_sum "Si O2"
_cell_formula_units_Z 64
_cell_length_a 18.170612
_cell_length_b 13.991387
_cell_length_c 15.000655
_cell_angle_alpha 90.000000
_cell_angle_beta 83.786009
_cell_angle_gamma 90.000000
_cell_volume 3791.240641
_symmetry_space_group_name_H-M "C 2/M"
_symmetry_group_IT_number 12
_symmetry_cell_setting 'monoclinic'
loop_
_space_group_symop_operation_xyz
x,y,z
-x,y,-z
-x,-y,-z
x,-y,z
1/2+x,1/2+y,z
1/2-x,1/2+y,-z
1/2-x,1/2-y,-z
1/2+x,1/2-y,z
loop_
_atom_site_type_symbol
_atom_site_label
_atom_site_fract_x
_atom_site_fract_y
_atom_site_fract_z
Si Si1 0.402636 0.710477 0.379417
Si Si2 0.852068 0.391840 0.664615
Si Si3 0.339114 0.388392 0.558156
Si Si4 0.070238 0.210447 0.303286
Si Si5 0.099406 0.888817 0.928368
Si Si6 0.056627 0.886681 0.121963
Si Si7 0.829668 0.609892 0.460116
Si Si8 0.807726 0.889969 0.245603
O O1 0.383380 0.647748 0.467134
O O2 0.487789 0.690231 0.347102
O O3 0.387661 0.822601 0.400950
O O4 0.353496 0.679086 0.302938
O O5 0.880255 0.500000 0.671843
O O6 0.916038 0.324285 0.694943
O O7 0.834325 0.368797 0.564340
O O8 0.778839 0.372912 0.732015
O O9 0.352541 0.500000 0.564330
O O10 0.369157 0.338907 0.642370
O O11 0.252713 0.363538 0.560170
O O12 0.085570 0.170713 0.203137
O O13 0.171637 0.864690 0.859865
O O14 0.026792 0.850497 0.886731
O O15 0.085039 0.000000 0.939992
O O16 0.106140 0.852764 0.029838
O O17 0.061884 0.000000 0.141045
O O18 0.849593 0.500000 0.435807
O O19 0.828741 0.000000 0.265532
#
# Coordination Sequence:
#
# PCOD8083314 Si02
#       8
#     8   8   8   8   8   8   8   8
#     4  12  21  32  50  75 103 132 169 208 250 297
#     4  10  21  37  53  68  96 138 182 217 241 279
#     4  11  22  34  49  73 106 135 161 201 258 309
#     4  12  23  32  48  78 108 135 159 206 263 302
#     4   8  15  30  53  77 101 131 163 199 245 304
#     4   9  17  31  50  77 110 132 155 197 255 315
#     4  10  21  38  54  66  92 142 189 214 232 279
#     4  10  18  32  56  79  98 129 172 210 245 297
#
# _framework density 16.881017
#
# number of rings (size 3 to 8) (size 9 to 14) (size 15 to 20)
#    0.000    1.750    3.750    3.000    0.000    2.500 
#    0.000    1.875    0.000    0.000    0.000    2.625 
#    0.000    0.000    0.000    0.000    0.000    0.000 
#
# Total GULP energy -396757.318312 kJ/mol
# GULP energy per Si atom -12398.666197 kJ/mol
# Density = 1.684259 g / cm^3
# Si number density = 16.881017 Si / 1000 Ang^3
#
#
#
# Elastic Constant Matrix: (Units=GPa)
#
#
# Indices 1 2 3 4 5 6 
#
# 1 24.5633 17.6897 19.6609 0.0000 4.8059 0.0000
# 2 17.6897 73.1672 30.0284 0.0000 3.4713 0.0000
# 3 19.6609 30.0284 99.6501 0.0000 0.3188 0.0000
# 4 0.0000 0.0000 0.0000 18.1409 0.0000 -1.6095
# 5 4.8059 3.4713 0.3188 0.0000 19.9341 0.0000
# 6 0.0000 0.0000 0.0000 -1.6095 0.0000 22.5601
#
#
#
# Elastic Compliance Matrix: (Units=1/GPa)
#
#
# Indices 1 2 3 4 5 6 
#
# 1 0.056610 -0.009765 -0.008189 0.000000 -0.011817 0.000000
# 2 -0.009765 0.017421 -0.003321 0.000000 -0.000626 0.000000
# 3 -0.008189 -0.003321 0.012644 0.000000 0.002350 0.000000
# 4 0.000000 0.000000 0.000000 0.055475 0.000000 0.003958
# 5 -0.011817 -0.000626 0.002350 0.000000 0.053086 0.000000
# 6 0.000000 0.000000 0.000000 0.003958 0.000000 0.044608
#
#
# Mechanical properties :
#
#
# Convention : Reuss Voigt Hill
#
# Bulk Modulus (GPa) = 22.66277 36.90430 29.78354
# Shear Modulus (GPa) = 16.82920 20.79379 18.81150
#
# Velocity S-wave (km/s) = 3.16085 3.51349 3.34182
# Velocity P-wave (km/s) = 5.17450 6.19422 5.70718
#
# Compressibility (1/GPa) = 0.04412522
#
# Stress axis : x y z
#
# Youngs Moduli (GPa) = 17.66465 57.40220 79.08932
#
# Poissons Ratio (x) = 0.56055 0.64764
# Poissons Ratio (y) = 0.17250 0.26265
# Poissons Ratio (z) = 0.14465 0.19063
#
# Static dielectric constant tensor:
#      x y z
#    x 3.017150 0.000000 -0.074630 
#    y 0.000000 3.176170 0.000000 
#    z -0.074630 0.000000 3.348740 
# 
# 
# High freq. dielectric constant tensor:
#      x y z
#    x 1.636320 0.000000 -0.008360 
#    y 0.000000 1.641080 0.000000 
#    z -0.008360 0.000000 1.650100 
# 
# From -- ./inp_files/224757.got.cif
#   From: 2010.06.25/outbox.cif.g09.slc.cpg/sg12_113_cif.got.tgz:224757.got - 2010.06.28 00:19:55.
