data_PCOD8083691
_publ_section_title
;
Structure prediction by ZEFSAII (Michael W. Deem and Ramdas Pophale) SiO2 
 PCOD8083691
Probable space group: C 2/M
;
_chemical_formula_sum "Si O2"
_cell_formula_units_Z 64
_cell_length_a 23.102479
_cell_length_b 13.546577
_cell_length_c 11.623212
_cell_angle_alpha 90.000000
_cell_angle_beta 115.298050
_cell_angle_gamma 90.000000
_cell_volume 3288.738833
_symmetry_space_group_name_H-M "C 2/M"
_symmetry_group_IT_number 12
_symmetry_cell_setting 'monoclinic'
loop_
_space_group_symop_operation_xyz
x,y,z
-x,y,-z
-x,-y,-z
x,-y,z
1/2+x,1/2+y,z
1/2-x,1/2+y,-z
1/2-x,1/2-y,-z
1/2+x,1/2-y,z
loop_
_atom_site_type_symbol
_atom_site_label
_atom_site_fract_x
_atom_site_fract_y
_atom_site_fract_z
Si Si1 0.022081 0.886731 0.746060
Si Si2 0.248485 0.887340 0.123717
Si Si3 0.561594 0.787247 0.620439
Si Si4 0.733203 0.388253 0.504217
Si Si5 0.885911 0.194887 0.993559
Si Si6 0.621162 0.888999 0.884857
Si Si7 0.692611 0.218404 0.611877
Si Si8 0.892510 0.112575 0.751978
O O1 0.047479 0.819569 0.663742
O O2 0.061927 0.870052 0.896123
O O3 0.948730 0.858274 0.711531
O O4 0.028348 0.000000 0.711412
O O5 0.302799 0.881743 0.072966
O O6 0.267688 0.823930 0.249341
O O7 0.237305 0.000000 0.154929
O O8 0.182955 0.842392 0.018449
O O9 0.500000 0.827965 0.500000
O O10 0.581768 0.865349 0.735139
O O11 0.617714 0.775765 0.575087
O O12 0.743528 0.500000 0.551135
O O13 0.720271 0.327492 0.609640
O O14 0.796593 0.349209 0.492450
O O15 0.674192 0.372595 0.367943
O O16 0.895949 0.310918 0.030434
O O17 0.894436 0.182524 0.864849
O O18 0.602997 0.000000 0.909087
O O19 0.901406 0.000000 0.801259
#
# Coordination Sequence:
#
# PCOD8083691 Si02
#       8
#     8   8   8   8   8   8   8   8
#     4  10  21  34  52  84 117 142 172 216 270 327
#     4  10  18  33  56  80 106 141 178 217 266 323
#     4  10  21  37  57  81 106 141 181 220 268 320
#     4  10  20  35  55  79 109 142 179 221 267 318
#     4  11  19  32  55  78 107 141 182 219 261 316
#     4   9  21  37  53  76 107 140 181 226 265 309
#     4  10  20  34  55  81 108 139 181 222 269 315
#     4  10  19  33  56  82 108 143 180 217 268 324
#
# _framework density 19.460346999999999
#
# number of rings (size 3 to 8) (size 9 to 14) (size 15 to 20)
#    0.000    2.000    1.250    3.000    0.000    2.500 
#    0.000    0.625    0.000    6.000    0.000    0.000 
#    0.000    0.000    0.000    0.000    0.000    0.000 
#
# Total GULP energy -396856.581136 kJ/mol
# GULP energy per Si atom -12401.768160 kJ/mol
# Density = 1.941605 g / cm^3
# Si number density = 19.460347 Si / 1000 Ang^3
#
#
#
# Elastic Constant Matrix: (Units=GPa)
#
#
# Indices 1 2 3 4 5 6 
#
# 1 105.0113 45.6443 18.7696 0.0000 -0.5664 0.0000
# 2 45.6443 139.0313 37.0128 0.0000 -8.2641 0.0000
# 3 18.7696 37.0128 43.9792 0.0000 -5.4865 0.0000
# 4 0.0000 0.0000 0.0000 23.5058 0.0000 -2.5889
# 5 -0.5664 -8.2641 -5.4865 0.0000 19.8913 0.0000
# 6 0.0000 0.0000 0.0000 -2.5889 0.0000 24.8545
#
#
#
# Elastic Compliance Matrix: (Units=1/GPa)
#
#
# Indices 1 2 3 4 5 6 
#
# 1 0.011320 -0.003188 -0.002354 0.000000 -0.001652 0.000000
# 2 -0.003188 0.010227 -0.006968 0.000000 0.002236 0.000000
# 3 -0.002354 -0.006968 0.030279 0.000000 0.005390 0.000000
# 4 0.000000 0.000000 0.000000 0.043036 0.000000 0.004483
# 5 -0.001652 0.002236 0.005390 0.000000 0.052642 0.000000
# 6 0.000000 0.000000 0.000000 0.004483 0.000000 0.040701
#
#
# Mechanical properties :
#
#
# Convention : Reuss Voigt Hill
#
# Bulk Modulus (GPa) = 37.30401 54.54172 45.92287
# Shear Modulus (GPa) = 22.50616 26.08999 24.29807
#
# Velocity S-wave (km/s) = 3.40444 3.66549 3.53738
# Velocity P-wave (km/s) = 5.88766 6.78251 6.35086
#
# Compressibility (1/GPa) = 0.02680677
#
# Stress axis : x y z
#
# Youngs Moduli (GPa) = 88.33650 97.78015 33.02606
#
# Poissons Ratio (x) = 0.31171 0.07776
# Poissons Ratio (y) = 0.28160 0.23011
# Poissons Ratio (z) = 0.20799 0.68129
#
# Static dielectric constant tensor:
#      x y z
#    x 3.750210 0.000000 0.119350 
#    y 0.000000 3.607890 0.000000 
#    z 0.119350 0.000000 3.304130 
# 
# 
# High freq. dielectric constant tensor:
#      x y z
#    x 1.764180 0.000000 0.005250 
#    y 0.000000 1.756410 0.000000 
#    z 0.005250 0.000000 1.740000 
# 
# From -- ./inp_files/175306.got.cif
#   From: 2010.06.25/outbox.cif.g09.slc.cpg/sg12_88_cif.got.tgz:175306.got - 2010.06.28 00:19:55.
