data_PCOD8083525
_publ_section_title
;
Structure prediction by ZEFSAII (Michael W. Deem and Ramdas Pophale) SiO2 
 PCOD8083525
Probable space group: C 2/M
;
_chemical_formula_sum "Si O2"
_cell_formula_units_Z 56
_cell_length_a 28.854260
_cell_length_b 19.328450
_cell_length_c 12.532834
_cell_angle_alpha 90.000000
_cell_angle_beta 28.201633
_cell_angle_gamma 90.000000
_cell_volume 3303.146310
_symmetry_space_group_name_H-M "C 2/M"
_symmetry_group_IT_number 12
_symmetry_cell_setting 'monoclinic'
loop_
_space_group_symop_operation_xyz
x,y,z
-x,y,-z
-x,-y,-z
x,-y,z
1/2+x,1/2+y,z
1/2-x,1/2+y,-z
1/2-x,1/2-y,-z
1/2+x,1/2-y,z
loop_
_atom_site_type_symbol
_atom_site_label
_atom_site_fract_x
_atom_site_fract_y
_atom_site_fract_z
Si Si1 0.612393 0.215707 0.677539
Si Si2 0.891474 0.918132 0.847185
Si Si3 0.101011 0.685465 0.937378
Si Si4 0.689128 0.324025 0.811115
Si Si5 0.112341 0.918455 0.385376
Si Si6 0.607133 0.369738 0.758616
Si Si7 0.246100 0.921047 0.301312
O O1 0.645717 0.190496 0.727418
O O2 0.697773 0.200054 0.420792
O O3 0.590102 0.297108 0.731944
O O4 0.515975 0.175412 0.831846
O O5 0.858191 0.898207 0.794769
O O6 0.003311 0.892455 0.636654
O O7 0.879287 0.000000 0.892997
O O8 0.822867 0.875509 0.065820
O O9 0.123258 0.755422 0.957902
O O10 0.153228 0.620797 0.887109
O O11 0.663597 0.364145 0.755097
O O12 0.191854 0.888988 0.307233
O O13 0.108198 0.000000 0.404331
O O14 0.671295 0.418518 0.552517
O O15 0.500000 0.402576 0.000000
O O16 0.277512 0.000000 0.219233
#
# Coordination Sequence:
#
# PCOD8083525 Si02
#       7
#     8   8   8   8   8   8   8
#     4  10  18  33  52  72 101 143 176 199 252 319
#     4   9  18  33  52  77 104 135 173 212 259 312
#     4  10  19  34  52  72 102 145 177 200 251 321
#     4  11  18  30  53  77 101 131 171 215 259 297
#     4   8  17  34  53  72 103 141 169 201 264 328
#     4  11  18  30  52  78 104 131 167 210 262 313
#     4  11  21  33  51  76 106 138 172 216 258 305
#
# _framework density 16.953534000000001
#
# number of rings (size 3 to 8) (size 9 to 14) (size 15 to 20)
#    0.000    2.000    5.714    2.571    0.000    0.857 
#    0.000    2.857    0.000    0.857    0.000    3.000 
#    0.000    0.000    0.000    0.000    0.000    0.000 
#
# Total GULP energy -347145.502151 kJ/mol
# GULP energy per Si atom -12398.053648 kJ/mol
# Density = 1.691495 g / cm^3
# Si number density = 16.953534 Si / 1000 Ang^3
#
#
#
# Elastic Constant Matrix: (Units=GPa)
#
#
# Indices 1 2 3 4 5 6 
#
# 1 82.2229 34.1993 26.9073 0.0000 2.1420 0.0000
# 2 34.1993 54.1290 19.2177 0.0000 4.5115 0.0000
# 3 26.9073 19.2177 71.1139 0.0000 7.6431 0.0000
# 4 0.0000 0.0000 0.0000 22.7711 0.0000 -0.4039
# 5 2.1420 4.5115 7.6431 0.0000 21.3359 0.0000
# 6 0.0000 0.0000 0.0000 -0.4039 0.0000 24.9575
#
#
#
# Elastic Compliance Matrix: (Units=1/GPa)
#
#
# Indices 1 2 3 4 5 6 
#
# 1 0.017541 -0.009742 -0.004198 0.000000 0.001803 0.000000
# 2 -0.009742 0.025969 -0.002960 0.000000 -0.003452 0.000000
# 3 -0.004198 -0.002960 0.016992 0.000000 -0.005040 0.000000
# 4 0.000000 0.000000 0.000000 0.043928 0.000000 0.000711
# 5 0.001803 -0.003452 -0.005040 0.000000 0.049224 0.000000
# 6 0.000000 0.000000 0.000000 0.000711 0.000000 0.040080
#
#
# Mechanical properties :
#
#
# Convention : Reuss Voigt Hill
#
# Bulk Modulus (GPa) = 37.45327 40.90162 39.17745
# Shear Modulus (GPa) = 21.14750 22.28901 21.71826
#
# Velocity S-wave (km/s) = 3.53566 3.62983 3.58305
# Velocity P-wave (km/s) = 6.22957 6.46109 6.34638
#
# Compressibility (1/GPa) = 0.02669994
#
# Stress axis : x y z
#
# Youngs Moduli (GPa) = 57.00893 38.50805 58.85127
#
# Poissons Ratio (x) = 0.37516 0.24706
# Poissons Ratio (y) = 0.55541 0.17422
# Poissons Ratio (z) = 0.23932 0.11400
#
# Static dielectric constant tensor:
#      x y z
#    x 3.373050 0.000000 -0.062120 
#    y 0.000000 2.879950 0.000000 
#    z -0.062120 0.000000 3.072630 
# 
# 
# High freq. dielectric constant tensor:
#      x y z
#    x 1.648830 0.000000 -0.010050 
#    y 0.000000 1.627570 0.000000 
#    z -0.010050 0.000000 1.640910 
# 
# From -- ./inp_files/184568.got.cif
#   From: 2010.06.25/outbox.cif.g09.slc.cpg/sg12_93_cif.got.tgz:184568.got - 2010.06.28 00:19:55.
