data_PCOD8083894
_publ_section_title
;
Structure prediction by ZEFSAII (Michael W. Deem and Ramdas Pophale) SiO2 
 PCOD8083894
Probable space group: C 2/M
;
_chemical_formula_sum "Si O2"
_cell_formula_units_Z 64
_cell_length_a 25.263730
_cell_length_b 8.866720
_cell_length_c 15.308345
_cell_angle_alpha 90.000000
_cell_angle_beta 109.685792
_cell_angle_gamma 90.000000
_cell_volume 3228.746802
_symmetry_space_group_name_H-M "C 2/M"
_symmetry_group_IT_number 12
_symmetry_cell_setting 'monoclinic'
loop_
_space_group_symop_operation_xyz
x,y,z
-x,y,-z
-x,-y,-z
x,-y,z
1/2+x,1/2+y,z
1/2-x,1/2+y,-z
1/2-x,1/2-y,-z
1/2+x,1/2-y,z
loop_
_atom_site_type_symbol
_atom_site_label
_atom_site_fract_x
_atom_site_fract_y
_atom_site_fract_z
Si Si1 0.434543 0.176089 0.955019
Si Si2 0.597986 0.171990 0.872830
Si Si3 0.869460 0.820974 0.759584
Si Si4 0.225723 0.325983 0.901839
Si Si5 0.545329 0.678274 0.686583
Si Si6 0.579878 0.679054 0.393846
Si Si7 0.246166 0.320930 0.261180
Si Si8 0.364357 0.320485 0.400781
O O1 0.406624 0.269152 0.861871
O O2 0.425272 0.000000 0.930257
O O3 0.500000 0.216627 0.000000
O O4 0.403948 0.226185 0.027767
O O5 0.659105 0.192246 0.865950
O O6 0.555754 0.269412 0.791360
O O7 0.577303 0.000000 0.857627
O O8 0.898410 0.761062 0.687059
O O9 0.807678 0.750208 0.723040
O O10 0.864220 0.000000 0.759224
O O11 0.244109 0.500000 0.907018
O O12 0.251690 0.235898 0.836237
O O13 0.250000 0.250000 0.000000
O O14 0.548173 0.500000 0.686851
O O15 0.483655 0.735622 0.624319
O O16 0.591509 0.745995 0.645531
O O17 0.581322 0.500000 0.394566
O O18 0.618941 0.741145 0.494119
O O19 0.241002 0.500000 0.257979
O O20 0.301604 0.264617 0.343646
O O21 0.367104 0.500000 0.399383
#
# Coordination Sequence:
#
# PCOD8083894 Si02
#       8
#     8   8   8   8   8   8   8   8
#     4  10  21  38  59  83 115 156 196 234 282 345
#     4  10  21  35  53  80 114 148 180 225 285 340
#     4  11  23  38  57  84 117 155 195 242 294 345
#     4  11  22  36  56  82 114 151 191 235 285 341
#     4  10  18  33  60  89 114 146 189 237 287 343
#     4   9  19  35  57  86 117 147 190 243 292 344
#     4  11  22  38  59  83 114 152 197 244 289 343
#     4   9  18  34  58  87 115 148 191 240 292 343
#
# _framework density 19.821932
#
# number of rings (size 3 to 8) (size 9 to 14) (size 15 to 20)
#    0.000    1.875    1.250    3.000    0.000    4.250 
#    0.000    0.625    0.000    6.750    0.000    0.000 
#    0.000    0.000    0.000    0.000    0.000    0.000 
#
# Total GULP energy -396856.266959 kJ/mol
# GULP energy per Si atom -12401.758342 kJ/mol
# Density = 1.977682 g / cm^3
# Si number density = 19.821932 Si / 1000 Ang^3
#
#
#
# Elastic Constant Matrix: (Units=GPa)
#
#
# Indices 1 2 3 4 5 6 
#
# 1 129.8337 37.6848 63.1811 0.0000 3.0636 0.0000
# 2 37.6848 50.1529 33.2965 0.0000 4.7865 0.0000
# 3 63.1811 33.2965 155.7336 0.0000 7.0393 0.0000
# 4 0.0000 0.0000 0.0000 18.6989 0.0000 3.0585
# 5 3.0636 4.7865 7.0393 0.0000 37.4040 0.0000
# 6 0.0000 0.0000 0.0000 3.0585 0.0000 21.9982
#
#
#
# Elastic Compliance Matrix: (Units=1/GPa)
#
#
# Indices 1 2 3 4 5 6 
#
# 1 0.011044 -0.006242 -0.003168 0.000000 0.000490 0.000000
# 2 -0.006242 0.026923 -0.003118 0.000000 -0.002347 0.000000
# 3 -0.003168 -0.003118 0.008415 0.000000 -0.000925 0.000000
# 4 0.000000 0.000000 0.000000 0.054723 0.000000 -0.007608
# 5 0.000490 -0.002347 -0.000925 0.000000 0.027169 0.000000
# 6 0.000000 0.000000 0.000000 -0.007608 0.000000 0.046516
#
#
# Mechanical properties :
#
#
# Convention : Reuss Voigt Hill
#
# Bulk Modulus (GPa) = 46.89054 67.11613 57.00334
# Shear Modulus (GPa) = 24.15975 29.05741 26.60858
#
# Velocity S-wave (km/s) = 3.49498 3.83289 3.66783
# Velocity P-wave (km/s) = 6.32406 7.31581 6.83794
#
# Compressibility (1/GPa) = 0.02132626
#
# Stress axis : x y z
#
# Youngs Moduli (GPa) = 90.54619 37.14276 118.83565
#
# Poissons Ratio (x) = 0.23184 0.37649
# Poissons Ratio (y) = 0.56518 0.37051
# Poissons Ratio (z) = 0.28687 0.11580
#
# Static dielectric constant tensor:
#      x y z
#    x 4.028220 0.000000 -0.032580 
#    y 0.000000 3.352550 0.000000 
#    z -0.032580 0.000000 3.744270 
# 
# 
# High freq. dielectric constant tensor:
#      x y z
#    x 1.785590 0.000000 0.001320 
#    y 0.000000 1.744390 0.000000 
#    z 0.001320 0.000000 1.784400 
# 
# From -- ./inp_files/244214.got.cif
#   From: 2010.06.25/outbox.cif.g09.slc.cpg/sg12_123_cif.got.tgz:244214.got - 2010.06.28 00:19:55.
