data_PCOD8083981
_publ_section_title
;
Structure prediction by ZEFSAII (Michael W. Deem and Ramdas Pophale) SiO2 
 PCOD8083981
Probable space group: C 2/M
;
_chemical_formula_sum "Si O2"
_cell_formula_units_Z 64
_cell_length_a 17.046023
_cell_length_b 16.777621
_cell_length_c 12.446430
_cell_angle_alpha 90.000000
_cell_angle_beta 102.791488
_cell_angle_gamma 90.000000
_cell_volume 3471.235205
_symmetry_space_group_name_H-M "C 2/M"
_symmetry_group_IT_number 12
_symmetry_cell_setting 'monoclinic'
loop_
_space_group_symop_operation_xyz
x,y,z
-x,y,-z
-x,-y,-z
x,-y,z
1/2+x,1/2+y,z
1/2-x,1/2+y,-z
1/2-x,1/2-y,-z
1/2+x,1/2-y,z
loop_
_atom_site_type_symbol
_atom_site_label
_atom_site_fract_x
_atom_site_fract_y
_atom_site_fract_z
Si Si1 0.461047 0.411916 0.372440
Si Si2 0.791649 0.844171 0.290514
Si Si3 0.815242 0.687229 0.557326
Si Si4 0.558673 0.772542 0.919545
Si Si5 0.483778 0.751016 0.678877
Si Si6 0.638974 0.172630 0.654060
Si Si7 0.330475 0.090772 0.118082
Si Si8 0.292861 0.669874 0.047273
O O1 0.500000 0.404960 0.500000
O O2 0.476838 0.500000 0.328050
O O3 0.365564 0.398073 0.351528
O O4 0.501440 0.344023 0.312787
O O5 0.718870 0.864385 0.352539
O O6 0.809262 0.750296 0.300824
O O7 0.768950 0.861499 0.159556
O O8 0.750000 0.750000 0.500000
O O9 0.893267 0.734921 0.617665
O O10 0.837673 0.636439 0.456343
O O11 0.498902 0.782144 0.802197
O O12 0.614195 0.851551 0.938280
O O13 0.611781 0.690774 0.928526
O O14 0.500000 0.768258 0.000000
O O15 0.545786 0.798939 0.620648
O O16 0.658868 0.108421 0.751866
O O17 0.356177 0.000000 0.106301
O O18 0.237949 0.103811 0.048401
O O19 0.250000 0.750000 0.000000
#
# Coordination Sequence:
#
# PCOD8083981 Si02
#       8
#     8   8   8   8   8   8   8   8
#     4  10  19  33  54  78 112 149 177 215 277 337
#     4  10  18  34  54  83 106 143 187 235 270 321
#     4  10  20  28  56  85 108 137 187 240 272 318
#     4  10  21  35  61  83 107 145 190 240 272 324
#     4  10  18  34  55  80 109 143 191 227 276 324
#     4   9  17  35  52  80 108 145 186 226 272 333
#     4  10  21  36  60  84 113 151 182 227 289 340
#     4  10  18  36  56  81 113 144 190 228 279 327
#
# _framework density 18.437241
#
# number of rings (size 3 to 8) (size 9 to 14) (size 15 to 20)
#    0.000    2.125    5.000    2.625    3.500    0.750 
#    0.000    0.625    0.000   15.750    0.000    0.000 
#    0.000    0.000    0.000    0.000    0.000    0.000 
#
# Total GULP energy -396466.600544 kJ/mol
# GULP energy per Si atom -12389.581267 kJ/mol
# Density = 1.839528 g / cm^3
# Si number density = 18.437241 Si / 1000 Ang^3
#
#
#
# Elastic Constant Matrix: (Units=GPa)
#
#
# Indices 1 2 3 4 5 6 
#
# 1 109.9257 22.7628 68.5895 0.0000 -2.0069 0.0000
# 2 22.7628 69.2831 32.0026 0.0000 3.5793 0.0000
# 3 68.5895 32.0026 109.7542 0.0000 -3.9618 0.0000
# 4 0.0000 0.0000 0.0000 11.9397 0.0000 2.1584
# 5 -2.0069 3.5793 -3.9618 0.0000 36.7731 0.0000
# 6 0.0000 0.0000 0.0000 2.1584 0.0000 11.1734
#
#
#
# Elastic Compliance Matrix: (Units=1/GPa)
#
#
# Indices 1 2 3 4 5 6 
#
# 1 0.014940 -0.000680 -0.009142 0.000000 -0.000103 0.000000
# 2 -0.000680 0.016883 -0.004576 0.000000 -0.002173 0.000000
# 3 -0.009142 -0.004576 0.016220 0.000000 0.001694 0.000000
# 4 0.000000 0.000000 0.000000 0.086785 0.000000 -0.016764
# 5 -0.000103 -0.002173 0.001694 0.000000 0.027582 0.000000
# 6 0.000000 0.000000 0.000000 -0.016764 0.000000 0.092736
#
#
# Mechanical properties :
#
#
# Convention : Reuss Voigt Hill
#
# Bulk Modulus (GPa) = 51.95832 59.51921 55.73877
# Shear Modulus (GPa) = 17.22001 23.01778 20.11889
#
# Velocity S-wave (km/s) = 3.05942 3.53716 3.30693
# Velocity P-wave (km/s) = 6.38141 7.00244 6.69913
#
# Compressibility (1/GPa) = 0.01924620
#
# Stress axis : x y z
#
# Youngs Moduli (GPa) = 66.93241 59.23080 61.65221
#
# Poissons Ratio (x) = 0.04030 0.56364
# Poissons Ratio (y) = 0.04554 0.28213
# Poissons Ratio (z) = 0.61191 0.27104
#
# Static dielectric constant tensor:
#      x y z
#    x 3.723370 0.000000 0.022790 
#    y 0.000000 3.129890 0.000000 
#    z 0.022790 0.000000 3.771610 
# 
# 
# High freq. dielectric constant tensor:
#      x y z
#    x 1.707200 0.000000 0.015570 
#    y 0.000000 1.670360 0.000000 
#    z 0.015570 0.000000 1.731640 
# 
# From -- ./inp_files/157884.got.cif
#   From: 2010.06.25/outbox.cif.g09.slc.cpg/sg12_79_cif.got.tgz:157884.got - 2010.06.28 00:19:55.
