data_PCOD8083150
_publ_section_title
;
Structure prediction by ZEFSAII (Michael W. Deem and Ramdas Pophale) SiO2 
 PCOD8083150
Probable space group: C 2/M
;
_chemical_formula_sum "Si O2"
_cell_formula_units_Z 56
_cell_length_a 25.041709
_cell_length_b 8.415991
_cell_length_c 16.747965
_cell_angle_alpha 90.000000
_cell_angle_beta 60.027423
_cell_angle_gamma 90.000000
_cell_volume 3057.608285
_symmetry_space_group_name_H-M "C 2/M"
_symmetry_group_IT_number 12
_symmetry_cell_setting 'monoclinic'
loop_
_space_group_symop_operation_xyz
x,y,z
-x,y,-z
-x,-y,-z
x,-y,z
1/2+x,1/2+y,z
1/2-x,1/2+y,-z
1/2-x,1/2-y,-z
1/2+x,1/2-y,z
loop_
_atom_site_type_symbol
_atom_site_label
_atom_site_fract_x
_atom_site_fract_y
_atom_site_fract_z
Si Si1 0.978524 0.816101 0.401586
Si Si2 0.170657 0.814801 0.916018
Si Si3 0.908127 0.684994 0.591773
Si Si4 0.488092 0.683073 0.215041
Si Si5 0.877448 0.685333 0.887938
Si Si6 0.059647 0.683835 0.906104
Si Si7 0.806920 0.312200 0.785236
O O1 0.918920 0.779129 0.500920
O O2 0.035496 0.710576 0.389049
O O3 0.963311 0.772143 0.321610
O O4 0.997116 0.000000 0.395661
O O5 0.118504 0.784344 0.889238
O O6 0.236138 0.757679 0.830731
O O7 0.172580 0.000000 0.937159
O O8 0.159824 0.712409 0.003108
O O9 0.903044 0.500000 0.575398
O O10 0.845808 0.751208 0.680047
O O11 0.475641 0.500000 0.204031
O O12 0.560442 0.714235 0.155000
O O13 0.450878 0.789453 0.179871
O O14 0.893829 0.500000 0.866876
O O15 0.836570 0.751386 0.845435
O O16 0.072410 0.500000 0.914365
O O17 0.000000 0.743012 0.000000
O O18 0.812499 0.500000 0.782395
#
# Coordination Sequence:
#
# PCOD8083150 Si02
#       7
#     8   8   8   8   8   8   8
#     4  10  20  33  50  80 112 136 173 221 268 310
#     4  11  22  37  55  77 108 144 183 220 263 316
#     4  10  18  32  54  78 107 144 179 209 261 319
#     4  11  22  35  55  80 108 142 177 219 270 316
#     4  11  20  34  53  78 112 144 178 217 260 313
#     4  11  23  38  56  78 105 138 180 228 268 309
#     4   9  20  35  53  79 111 145 179 218 260 315
#
# _framework density 18.314969000000001
#
# number of rings (size 3 to 8) (size 9 to 14) (size 15 to 20)
#    0.000    1.571    2.857    3.857    0.000    2.286 
#    0.000    5.000    0.000    0.857    0.000    0.000 
#    0.000    0.000    0.000    0.000    0.000    0.000 
#
# Total GULP energy -347268.260921 kJ/mol
# GULP energy per Si atom -12402.437890 kJ/mol
# Density = 1.827328 g / cm^3
# Si number density = 18.314969 Si / 1000 Ang^3
#
#
#
# Elastic Constant Matrix: (Units=GPa)
#
#
# Indices 1 2 3 4 5 6 
#
# 1 98.6771 7.0091 57.2449 0.0001 -8.5749 0.0003
# 2 7.0091 35.4659 17.1542 0.0003 1.1897 0.0011
# 3 57.2449 17.1542 147.0202 0.0000 -6.5317 0.0001
# 4 0.0001 0.0003 0.0000 28.2813 -0.0001 0.9842
# 5 -8.5749 1.1897 -6.5317 -0.0001 26.4348 -0.0001
# 6 0.0003 0.0011 0.0001 0.9842 -0.0001 19.7876
#
#
#
# Elastic Compliance Matrix: (Units=1/GPa)
#
#
# Indices 1 2 3 4 5 6 
#
# 1 0.013337 -0.000312 -0.005019 0.000000 0.003100 0.000000
# 2 -0.000312 0.030021 -0.003484 0.000000 -0.002313 -0.000002
# 3 -0.005019 -0.003484 0.009198 0.000000 0.000801 0.000000
# 4 0.000000 0.000000 0.000000 0.035420 0.000000 -0.001762
# 5 0.003100 -0.002313 0.000801 0.000000 0.039137 0.000000
# 6 0.000000 -0.000002 0.000000 -0.001762 0.000000 0.050624
#
#
# Mechanical properties :
#
#
# Convention : Reuss Voigt Hill
#
# Bulk Modulus (GPa) = 28.63231 49.33107 38.98169
# Shear Modulus (GPa) = 24.15348 28.21774 26.18561
#
# Velocity S-wave (km/s) = 3.63545 3.92942 3.78529
# Velocity P-wave (km/s) = 5.76968 6.89786 6.35884
#
# Compressibility (1/GPa) = 0.03492557
#
# Stress axis : x y z
#
# Youngs Moduli (GPa) = 74.97802 33.31055 108.71807
#
# Poissons Ratio (x) = 0.01040 0.54565
# Poissons Ratio (y) = 0.02341 0.37877
# Poissons Ratio (z) = 0.37631 0.11605
#
# Static dielectric constant tensor:
#      x y z
#    x 3.232960 0.000000 -0.086040 
#    y 0.000000 3.266930 0.000000 
#    z -0.086040 0.000000 3.708820 
# 
# 
# High freq. dielectric constant tensor:
#      x y z
#    x 1.683520 0.000000 -0.000380 
#    y 0.000000 1.708950 0.000000 
#    z -0.000380 0.000000 1.716310 
# 
# From -- ./inp_files/237390.got.cif
#   From: 2010.06.25/outbox.cif.g09.slc.cpg/sg12_119_cif.got.tgz:237390.got - 2010.06.28 00:19:55.
