data_PCOD8083401
_publ_section_title
;
Structure prediction by ZEFSAII (Michael W. Deem and Ramdas Pophale) SiO2 
 PCOD8083401
Probable space group: C 2/M
;
_chemical_formula_sum "Si O2"
_cell_formula_units_Z 64
_cell_length_a 26.072249
_cell_length_b 17.865371
_cell_length_c 15.564515
_cell_angle_alpha 90.000000
_cell_angle_beta 27.770193
_cell_angle_gamma 90.000000
_cell_volume 3377.873938
_symmetry_space_group_name_H-M "C 2/M"
_symmetry_group_IT_number 12
_symmetry_cell_setting 'monoclinic'
loop_
_space_group_symop_operation_xyz
x,y,z
-x,y,-z
-x,-y,-z
x,-y,z
1/2+x,1/2+y,z
1/2-x,1/2+y,-z
1/2-x,1/2-y,-z
1/2+x,1/2-y,z
loop_
_atom_site_type_symbol
_atom_site_label
_atom_site_fract_x
_atom_site_fract_y
_atom_site_fract_z
Si Si1 0.055272 0.300703 0.629075
Si Si2 0.379537 0.635618 0.142558
Si Si3 0.242101 0.721321 0.739582
Si Si4 0.328012 0.417838 0.039146
Si Si5 0.817842 0.764933 0.986764
Si Si6 0.871305 0.413979 0.178784
Si Si7 0.417752 0.079092 0.546340
Si Si8 0.183643 0.415063 0.548789
O O1 0.138019 0.232025 0.483432
O O2 0.042020 0.352422 0.567105
O O3 0.098016 0.352492 0.643359
O O4 0.932492 0.276675 0.829350
O O5 0.339149 0.718916 0.182918
O O6 0.387090 0.588279 0.043715
O O7 0.300559 0.595773 0.328692
O O8 0.500000 0.641086 0.000000
O O9 0.190889 0.639236 0.797792
O O10 0.253663 0.737982 0.824765
O O11 0.354066 0.500000 0.961169
O O12 0.200359 0.403101 0.241756
O O13 0.357261 0.351976 0.929471
O O14 0.750000 0.750000 0.000000
O O15 0.861971 0.500000 0.159986
O O16 0.805555 0.402979 0.365404
O O17 0.000000 0.392626 0.000000
O O18 0.500000 0.067796 0.500000
O O19 0.412463 0.000000 0.501582
O O20 0.141514 0.500000 0.593795
#
# Coordination Sequence:
#
# PCOD8083401 Si02
#       8
#     8   8   8   8   8   8   8   8
#     4  11  21  34  59  82 114 150 184 235 291 344
#     4  10  20  33  57  85 116 152 183 229 289 348
#     4  10  22  39  54  81 114 147 191 238 285 344
#     4  10  20  38  56  82 122 147 181 239 295 342
#     4  11  23  39  60  86 111 147 192 236 293 350
#     4  10  21  37  56  77 109 151 192 235 276 322
#     4  10  18  32  57  84 111 144 182 236 303 347
#     4  10  20  35  55  84 114 145 190 235 282 340
#
# _framework density 18.946829000000001
#
# number of rings (size 3 to 8) (size 9 to 14) (size 15 to 20)
#    0.000    1.750    3.750    2.625    0.000    6.000 
#    0.000    3.750    0.000    0.000    0.000    1.750 
#    0.000    0.000    0.000    0.000    0.000    0.000 
#
# Total GULP energy -396514.039147 kJ/mol
# GULP energy per Si atom -12391.063723 kJ/mol
# Density = 1.890371 g / cm^3
# Si number density = 18.946829 Si / 1000 Ang^3
#
#
#
# Elastic Constant Matrix: (Units=GPa)
#
#
# Indices 1 2 3 4 5 6 
#
# 1 98.8208 30.3635 29.9850 0.0000 1.7567 0.0000
# 2 30.3635 111.7011 20.9963 -0.0001 9.6486 0.0000
# 3 29.9850 20.9963 48.8080 -0.0001 -7.9456 0.0000
# 4 0.0000 -0.0001 -0.0001 28.5730 0.0000 1.1823
# 5 1.7567 9.6486 -7.9456 0.0000 32.9977 0.0000
# 6 0.0000 0.0000 0.0000 1.1823 0.0000 25.9712
#
#
#
# Elastic Compliance Matrix: (Units=1/GPa)
#
#
# Indices 1 2 3 4 5 6 
#
# 1 0.013024 -0.001972 -0.007465 0.000000 -0.001914 0.000000
# 2 -0.001972 0.010578 -0.003981 0.000000 -0.003947 0.000000
# 3 -0.007465 -0.003981 0.028145 0.000000 0.008339 0.000000
# 4 0.000000 0.000000 0.000000 0.035064 0.000000 -0.001596
# 5 -0.001914 -0.003947 0.008339 0.000000 0.033569 0.000000
# 6 0.000000 0.000000 0.000000 -0.001596 0.000000 0.038577
#
#
# Mechanical properties :
#
#
# Convention : Reuss Voigt Hill
#
# Bulk Modulus (GPa) = 40.14375 46.89105 43.51740
# Shear Modulus (GPa) = 25.76041 29.37406 27.56723
#
# Velocity S-wave (km/s) = 3.69130 3.94171 3.81856
# Velocity P-wave (km/s) = 6.27703 6.74675 6.51612
#
# Compressibility (1/GPa) = 0.02491048
#
# Stress axis : x y z
#
# Youngs Moduli (GPa) = 76.77982 94.53787 35.53070
#
# Poissons Ratio (x) = 0.18641 0.26523
# Poissons Ratio (y) = 0.15140 0.14146
# Poissons Ratio (z) = 0.57315 0.37640
#
# Static dielectric constant tensor:
#      x y z
#    x 3.362330 0.000000 0.044420 
#    y 0.000000 3.909400 0.000000 
#    z 0.044420 0.000000 3.379810 
# 
# 
# High freq. dielectric constant tensor:
#      x y z
#    x 1.725970 0.000000 -0.003270 
#    y 0.000000 1.748330 0.000000 
#    z -0.003270 0.000000 1.723930 
# 
# From -- ./inp_files/241488.got.cif
#   From: 2010.06.25/outbox.cif.g09.slc.cpg/sg12_121_cif.got.tgz:241488.got - 2010.06.28 00:19:55.
