data_PCOD8083997
_publ_section_title
;
Structure prediction by ZEFSAII (Michael W. Deem and Ramdas Pophale) SiO2 
 PCOD8083997
Probable space group: C 2/M
;
_chemical_formula_sum "Si O2"
_cell_formula_units_Z 64
_cell_length_a 24.004022
_cell_length_b 16.724112
_cell_length_c 22.698340
_cell_angle_alpha 90.000000
_cell_angle_beta 21.562072
_cell_angle_gamma 90.000000
_cell_volume 3348.799506
_symmetry_space_group_name_H-M "C 2/M"
_symmetry_group_IT_number 12
_symmetry_cell_setting 'monoclinic'
loop_
_space_group_symop_operation_xyz
x,y,z
-x,y,-z
-x,-y,-z
x,-y,z
1/2+x,1/2+y,z
1/2-x,1/2+y,-z
1/2-x,1/2-y,-z
1/2+x,1/2-y,z
loop_
_atom_site_type_symbol
_atom_site_label
_atom_site_fract_x
_atom_site_fract_y
_atom_site_fract_z
Si Si1 0.906541 0.406248 0.310088
Si Si2 0.108512 0.408766 0.219914
Si Si3 0.529411 0.231052 0.111565
Si Si4 0.349873 0.775037 0.178567
Si Si5 0.825827 0.271347 0.755366
Si Si6 0.433444 0.636576 0.507485
Si Si7 0.852891 0.826850 0.909824
Si Si8 0.930469 0.087848 0.383367
O O1 0.927907 0.500000 0.273690
O O2 0.731295 0.379676 0.479726
O O3 0.965504 0.387637 0.318394
O O4 0.996015 0.355902 0.172431
O O5 0.100806 0.500000 0.249811
O O6 0.116511 0.352646 0.270023
O O7 0.256259 0.398267 0.033427
O O8 0.410489 0.263181 0.179748
O O9 0.516078 0.299894 0.173843
O O10 0.703201 0.226361 0.917136
O O11 0.260476 0.713043 0.222955
O O12 0.240134 0.846208 0.305455
O O13 0.500000 0.812124 0.000000
O O14 0.972904 0.217599 0.598669
O O15 0.500000 0.592602 0.500000
O O16 0.436146 0.580237 0.448381
O O17 0.935037 0.854308 0.769618
O O18 0.750000 0.750000 0.000000
O O19 0.957642 0.000000 0.330076
#
# Coordination Sequence:
#
# PCOD8083997 Si02
#       8
#     8   8   8   8   8   8   8   8
#     4  10  21  34  51  79 116 150 181 221 281 342
#     4  10  20  36  56  81 118 152 182 228 287 342
#     4  10  18  34  55  79 111 145 186 231 275 330
#     4   9  18  35  57  79 106 143 183 235 279 322
#     4   9  20  34  57  82 109 138 194 237 271 327
#     4  10  20  35  55  81 107 141 189 238 274 324
#     4  11  21  35  55  86 113 144 194 233 278 338
#     4  11  23  37  54  79 117 151 183 230 284 339
#
# _framework density 19.111325999999998
#
# number of rings (size 3 to 8) (size 9 to 14) (size 15 to 20)
#    0.000    2.000    2.500    1.875    0.000    1.750 
#    0.000    0.000    0.000   21.750    0.000    0.000 
#    0.000    0.000    0.000    0.000    0.000    0.000 
#
# Total GULP energy -396496.562080 kJ/mol
# GULP energy per Si atom -12390.517565 kJ/mol
# Density = 1.906783 g / cm^3
# Si number density = 19.111326 Si / 1000 Ang^3
#
#
#
# Elastic Constant Matrix: (Units=GPa)
#
#
# Indices 1 2 3 4 5 6 
#
# 1 126.5629 32.8911 33.0832 0.0103 -12.2023 -0.0064
# 2 32.8911 65.9492 30.8229 0.0214 -4.6789 -0.0078
# 3 33.0832 30.8229 87.7619 0.0341 -5.3798 -0.0094
# 4 0.0103 0.0214 0.0341 21.6906 -0.0099 0.4404
# 5 -12.2023 -4.6789 -5.3798 -0.0099 29.7751 0.0025
# 6 -0.0064 -0.0078 -0.0094 0.4404 0.0025 25.9549
#
#
#
# Elastic Compliance Matrix: (Units=1/GPa)
#
#
# Indices 1 2 3 4 5 6 
#
# 1 0.009703 -0.003592 -0.002212 0.000004 0.003012 0.000000
# 2 -0.003592 0.019558 -0.005477 -0.000009 0.000612 0.000003
# 3 -0.002212 -0.005477 0.014201 -0.000016 0.000799 0.000003
# 4 0.000004 -0.000009 -0.000016 0.046119 0.000013 -0.000782
# 5 0.003012 0.000612 0.000799 0.000013 0.035060 -0.000002
# 6 0.000000 0.000003 0.000003 -0.000782 -0.000002 0.038542
#
#
# Mechanical properties :
#
#
# Convention : Reuss Voigt Hill
#
# Bulk Modulus (GPa) = 47.84659 52.65207 50.24933
# Shear Modulus (GPa) = 25.94555 27.71592 26.83073
#
# Velocity S-wave (km/s) = 3.68856 3.81233 3.75095
# Velocity P-wave (km/s) = 6.57501 6.85481 6.71637
#
# Compressibility (1/GPa) = 0.02090013
#
# Stress axis : x y z
#
# Youngs Moduli (GPa) = 103.05840 51.12988 70.41829
#
# Poissons Ratio (x) = 0.18366 0.15574
# Poissons Ratio (y) = 0.37018 0.38571
# Poissons Ratio (z) = 0.22792 0.28006
#
# Static dielectric constant tensor:
#      x y z
#    x 4.125990 0.000010 -0.141060 
#    y 0.000010 3.113490 0.000000 
#    z -0.141060 0.000000 3.551200 
# 
# 
# High freq. dielectric constant tensor:
#      x y z
#    x 1.764540 0.000000 -0.011280 
#    y 0.000000 1.700630 0.000000 
#    z -0.011280 0.000000 1.746810 
# 
# From -- ./inp_files/350000.got.cif
#   From: 2010.06.25/outbox.cif.g09.slc.cpg/sg12_175_cif.got.tgz:350000.got - 2010.06.28 00:19:55.
