data_PCOD8083950
_publ_section_title
;
Structure prediction by ZEFSAII (Michael W. Deem and Ramdas Pophale) SiO2 
 PCOD8083950
Probable space group: C 2/M
;
_chemical_formula_sum "Si O2"
_cell_formula_units_Z 56
_cell_length_a 15.162345
_cell_length_b 24.161385
_cell_length_c 8.532373
_cell_angle_alpha 90.000000
_cell_angle_beta 109.003579
_cell_angle_gamma 90.000000
_cell_volume 2955.416925
_symmetry_space_group_name_H-M "C 2/M"
_symmetry_group_IT_number 12
_symmetry_cell_setting 'monoclinic'
loop_
_space_group_symop_operation_xyz
x,y,z
-x,y,-z
-x,-y,-z
x,-y,z
1/2+x,1/2+y,z
1/2-x,1/2+y,-z
1/2-x,1/2-y,-z
1/2+x,1/2-y,z
loop_
_atom_site_type_symbol
_atom_site_label
_atom_site_fract_x
_atom_site_fract_y
_atom_site_fract_z
Si Si1 0.936141 0.804373 0.601790
Si Si2 0.883925 0.363082 0.296776
Si Si3 0.768038 0.816010 0.006836
Si Si4 0.926706 0.683135 0.633820
Si Si5 0.750181 0.436000 0.396701
Si Si6 0.908099 0.877152 0.870292
Si Si7 0.759382 0.154716 0.350841
O O1 0.970816 0.743810 0.675805
O O2 0.953305 0.844448 0.754165
O O3 0.827424 0.804326 0.486323
O O4 0.000000 0.827707 0.500000
O O5 0.877824 0.318358 0.434074
O O6 0.843758 0.419345 0.352961
O O7 0.992963 0.364599 0.305465
O O8 0.824604 0.344291 0.114526
O O9 0.789818 0.844675 0.187095
O O10 0.750000 0.750000 0.000000
O O11 0.855441 0.832093 0.948620
O O12 0.847132 0.675951 0.717157
O O13 0.755361 0.500000 0.441186
O O14 0.662361 0.424022 0.232212
O O15 0.739576 0.404526 0.558056
O O16 0.000000 0.905279 0.000000
#
# Coordination Sequence:
#
# PCOD8083950 Si02
#       7
#     8   8   8   8   8   8   8
#     4  11  19  32  55  77 114 156 182 225 280 345
#     4   9  19  33  54  81 108 144 188 231 275 339
#     4  11  21  34  52  81 122 151 179 225 288 349
#     4  10  18  34  52  79 113 148 189 225 276 343
#     4   9  20  41  61  78 108 151 199 250 287 320
#     4  10  22  35  54  86 116 147 194 234 283 343
#     4  10  21  34  53  80 110 148 193 234 277 343
#
# _framework density 18.948257999999999
#
# number of rings (size 3 to 8) (size 9 to 14) (size 15 to 20)
#    0.000    2.000    1.429    3.857    2.000    0.857 
#    0.000    8.571    0.000   14.571    0.000   13.000 
#    0.000    0.000    0.000    0.000    0.000    0.000 
#
# Total GULP energy -346932.672780 kJ/mol
# GULP energy per Si atom -12390.452599 kJ/mol
# Density = 1.890513 g / cm^3
# Si number density = 18.948258 Si / 1000 Ang^3
#
#
#
# Elastic Constant Matrix: (Units=GPa)
#
#
# Indices 1 2 3 4 5 6 
#
# 1 116.2443 32.1495 28.9074 0.0000 -2.9191 0.0000
# 2 32.1495 100.4146 28.8736 0.0000 -5.9078 0.0000
# 3 28.9074 28.8736 92.4381 0.0000 2.3149 0.0000
# 4 0.0000 0.0000 0.0000 15.2032 0.0000 -2.4578
# 5 -2.9191 -5.9078 2.3149 0.0000 32.9820 0.0000
# 6 0.0000 0.0000 0.0000 -2.4578 0.0000 17.6780
#
#
#
# Elastic Compliance Matrix: (Units=1/GPa)
#
#
# Indices 1 2 3 4 5 6 
#
# 1 0.009878 -0.002455 -0.002337 0.000000 0.000598 0.000000
# 2 -0.002455 0.011714 -0.002943 0.000000 0.002088 0.000000
# 3 -0.002337 -0.002943 0.012509 0.000000 -0.001612 0.000000
# 4 0.000000 0.000000 0.000000 0.067288 0.000000 0.009355
# 5 0.000598 0.002088 -0.001612 0.000000 0.030860 0.000000
# 6 0.000000 0.000000 0.000000 0.009355 0.000000 0.057868
#
#
# Mechanical properties :
#
#
# Convention : Reuss Voigt Hill
#
# Bulk Modulus (GPa) = 53.67996 54.32867 54.00432
# Shear Modulus (GPa) = 23.60741 27.78372 25.69556
#
# Velocity S-wave (km/s) = 3.53354 3.83338 3.68651
# Velocity P-wave (km/s) = 6.71112 6.95179 6.83252
#
# Compressibility (1/GPa) = 0.01862893
#
# Stress axis : x y z
#
# Youngs Moduli (GPa) = 101.23655 85.36794 79.94463
#
# Poissons Ratio (x) = 0.20961 0.18684
# Poissons Ratio (y) = 0.24857 0.23531
# Poissons Ratio (z) = 0.23660 0.25127
#
# Static dielectric constant tensor:
#      x y z
#    x 3.705930 0.000000 0.036740 
#    y 0.000000 3.029530 0.000000 
#    z 0.036740 0.000000 3.535040 
# 
# 
# High freq. dielectric constant tensor:
#      x y z
#    x 1.753230 0.000000 0.003850 
#    y 0.000000 1.686290 0.000000 
#    z 0.003850 0.000000 1.738010 
# 
# From -- ./inp_files/65422.got.cif
#   From: 2010.06.25/outbox.cif.g09.slc.cpg/sg12_33_cif.got.tgz:65422.got - 2010.06.28 00:19:55.
