data_PCOD8083888
_publ_section_title
;
Structure prediction by ZEFSAII (Michael W. Deem and Ramdas Pophale) SiO2 
 PCOD8083888
Probable space group: C 2/M
;
_chemical_formula_sum "Si O2"
_cell_formula_units_Z 40
_cell_length_a 20.893771
_cell_length_b 10.426170
_cell_length_c 18.785589
_cell_angle_alpha 90.000000
_cell_angle_beta 151.452224
_cell_angle_gamma 90.000000
_cell_volume 1955.670384
_symmetry_space_group_name_H-M "C 2/M"
_symmetry_group_IT_number 12
_symmetry_cell_setting 'monoclinic'
loop_
_space_group_symop_operation_xyz
x,y,z
-x,y,-z
-x,-y,-z
x,-y,z
1/2+x,1/2+y,z
1/2-x,1/2+y,-z
1/2-x,1/2-y,-z
1/2+x,1/2-y,z
loop_
_atom_site_type_symbol
_atom_site_label
_atom_site_fract_x
_atom_site_fract_y
_atom_site_fract_z
Si Si1 0.146028 0.500000 0.110800
Si Si2 0.612182 0.500000 0.550991
Si Si3 0.164684 0.000000 0.153464
Si Si4 0.384484 0.750058 0.539805
Si Si5 0.407748 0.262631 0.979529
Si Si6 0.593246 0.346714 0.287786
Si Si7 0.414660 0.000000 0.488390
O O1 0.242903 0.500000 0.272375
O O2 0.166659 0.626362 0.081343
O O3 0.000000 0.500000 0.000000
O O4 0.500000 0.500000 0.500000
O O5 0.595257 0.627112 0.488929
O O6 0.252779 0.000000 0.312052
O O7 0.202854 0.871993 0.146792
O O8 0.000000 0.000000 0.000000
O O9 0.451380 0.716315 0.680995
O O10 0.228732 0.779591 0.396024
O O11 0.453612 0.874770 0.572168
O O12 0.483419 0.308419 0.123172
O O13 0.500000 0.247311 0.000000
O O14 0.609560 0.500000 0.311154
O O15 0.500000 0.000000 0.500000
#
# Coordination Sequence:
#
# PCOD8083888 Si02
#       7
#     4   4   4   8   8   8   4
#     4  10  20  35  56  92 122 150 207 271 306 357
#     4  12  24  42  64  90 133 175 207 251 324 399
#     4  10  18  33  60  86 114 156 207 253 298 363
#     4  11  23  38  62  91 126 172 209 258 321 380
#     4  10  19  32  58  87 119 153 199 259 317 363
#     4  11  21  38  63  94 129 161 212 273 322 374
#     4  12  24  40  62  94 133 163 207 263 312 377
#
# _framework density 20.453344999999999
#
# number of rings (size 3 to 8) (size 9 to 14) (size 15 to 20)
#    0.000    1.200    3.000    6.600    0.000    0.800 
#    0.000    0.000    0.000    7.200    0.000    0.000 
#    0.000    0.000    0.000    0.000    0.000    0.000 
#
# Total GULP energy -247857.061070 kJ/mol
# GULP energy per Si atom -12392.853053 kJ/mol
# Density = 2.040679 g / cm^3
# Si number density = 20.453345 Si / 1000 Ang^3
#
#
#
# Elastic Constant Matrix: (Units=GPa)
#
#
# Indices 1 2 3 4 5 6 
#
# 1 108.4171 60.7171 32.9919 0.0000 -26.1460 0.0000
# 2 60.7171 226.7113 31.1633 0.0000 -27.7090 0.0000
# 3 32.9919 31.1633 70.2001 -0.0001 -29.7058 0.0000
# 4 0.0000 0.0000 -0.0001 27.1067 0.0000 -32.1069
# 5 -26.1460 -27.7090 -29.7058 0.0000 31.1709 0.0000
# 6 0.0000 0.0000 0.0000 -32.1069 0.0000 48.7347
#
#
#
# Elastic Compliance Matrix: (Units=1/GPa)
#
#
# Indices 1 2 3 4 5 6 
#
# 1 0.012772 -0.002317 -0.002199 0.000000 0.006558 0.000000
# 2 -0.002317 0.005382 -0.000165 0.000000 0.002684 0.000000
# 3 -0.002199 -0.000165 0.024314 0.000000 0.021181 0.000000
# 4 0.000000 0.000000 0.000000 0.167944 0.000001 0.110643
# 5 0.006558 0.002684 0.021181 0.000001 0.060154 0.000000
# 6 0.000000 0.000000 0.000000 0.110643 0.000000 0.093412
#
#
# Mechanical properties :
#
#
# Convention : Reuss Voigt Hill
#
# Bulk Modulus (GPa) = 30.20424 72.78591 51.49508
# Shear Modulus (GPa) = 13.00816 40.09954 26.55385
#
# Velocity S-wave (km/s) = 2.52462 4.43260 3.60705
# Velocity P-wave (km/s) = 4.82677 7.86516 6.52528
#
# Compressibility (1/GPa) = 0.03310793
#
# Stress axis : x y z
#
# Youngs Moduli (GPa) = 78.29812 185.80312 41.12804
#
# Poissons Ratio (x) = 0.43045 0.09043
# Poissons Ratio (y) = 0.18139 0.00677
# Poissons Ratio (z) = 0.17216 0.03057
#
# Static dielectric constant tensor:
#      x y z
#    x 3.427650 0.000000 -0.328130 
#    y 0.000000 6.252070 0.000000 
#    z -0.328130 0.000000 3.635710 
# 
# 
# High freq. dielectric constant tensor:
#      x y z
#    x 1.762780 0.000000 -0.029190 
#    y 0.000000 1.840350 0.000000 
#    z -0.029190 0.000000 1.786220 
# 
# From -- ./inp_files/283455.got.cif
#   From: 2010.06.25/outbox.cif.g09.slc.cpg/sg12_142_cif.got.tgz:283455.got - 2010.06.28 00:19:55.
