data_PCOD8083223
_publ_section_title
;
Structure prediction by ZEFSAII (Michael W. Deem and Ramdas Pophale) SiO2 
 PCOD8083223
Probable space group: C 2/M
;
_chemical_formula_sum "Si O2"
_cell_formula_units_Z 64
_cell_length_a 14.683553
_cell_length_b 8.586042
_cell_length_c 29.774518
_cell_angle_alpha 90.000000
_cell_angle_beta 61.566836
_cell_angle_gamma 90.000000
_cell_volume 3300.973910
_symmetry_space_group_name_H-M "C 2/M"
_symmetry_group_IT_number 12
_symmetry_cell_setting 'monoclinic'
loop_
_space_group_symop_operation_xyz
x,y,z
-x,y,-z
-x,-y,-z
x,-y,z
1/2+x,1/2+y,z
1/2-x,1/2+y,-z
1/2-x,1/2-y,-z
1/2+x,1/2-y,z
loop_
_atom_site_type_symbol
_atom_site_label
_atom_site_fract_x
_atom_site_fract_y
_atom_site_fract_z
Si Si1 0.425429 0.817400 0.320428
Si Si2 0.842844 0.684622 0.506215
Si Si3 0.198826 0.184184 0.056257
Si Si4 0.472095 0.316369 0.134398
Si Si5 0.947406 0.183146 0.789974
Si Si6 0.266181 0.684727 0.133513
Si Si7 0.997690 0.320072 0.398132
Si Si8 0.712312 0.180591 0.382965
O O1 0.492107 0.724429 0.268998
O O2 0.453466 0.745868 0.362810
O O3 0.304537 0.783975 0.341699
O O4 0.449310 0.000000 0.310212
O O5 0.842736 0.500000 0.508566
O O6 0.750000 0.750000 0.500000
O O7 0.830966 0.747199 0.559571
O O8 0.945898 0.747066 0.456217
O O9 0.078051 0.236479 0.084658
O O10 0.261054 0.248947 0.084433
O O11 0.207818 0.000000 0.055321
O O12 0.250000 0.250000 0.000000
O O13 0.461311 0.500000 0.135592
O O14 0.483470 0.260351 0.183612
O O15 0.369350 0.246793 0.134388
O O16 0.835547 0.265379 0.814964
O O17 0.927198 0.000000 0.798176
O O18 0.271569 0.500000 0.129670
O O19 0.966917 0.500000 0.403921
O O20 0.120338 0.295900 0.369109
O O21 0.746122 0.000000 0.378610
#
# Coordination Sequence:
#
# PCOD8083223 Si02
#       8
#     8   8   8   8   8   8   8   8
#     4  11  22  37  55  78 108 138 172 221 274 319
#     4  10  18  32  55  78 102 135 173 213 260 317
#     4  10  20  36  55  83 120 157 191 228 271 317
#     4   8  18  36  58  79 107 147 186 222 270 329
#     4  10  21  39  58  79 108 142 180 224 271 326
#     4  10  19  36  60  84 107 142 188 230 273 322
#     4   9  19  35  54  76 105 139 174 212 262 326
#     4  10  20  35  56  78 101 137 179 215 258 321
#
# _framework density 19.388217000000001
#
# number of rings (size 3 to 8) (size 9 to 14) (size 15 to 20)
#    0.000    2.250    1.250    2.625    0.000    3.000 
#    0.000   16.875    0.000    1.500    0.000    0.000 
#    0.000    0.000    0.000    0.000    0.000    0.000 
#
# Total GULP energy -396651.458294 kJ/mol
# GULP energy per Si atom -12395.358072 kJ/mol
# Density = 1.934409 g / cm^3
# Si number density = 19.388217 Si / 1000 Ang^3
#
#
#
# Elastic Constant Matrix: (Units=GPa)
#
#
# Indices 1 2 3 4 5 6 
#
# 1 130.8979 21.6894 45.2053 0.0000 -13.0582 0.0000
# 2 21.6894 41.5708 20.2131 0.0000 -0.6478 -0.0001
# 3 45.2053 20.2131 129.0318 0.0000 -14.0626 0.0000
# 4 0.0000 0.0000 0.0000 29.0334 0.0000 -2.3413
# 5 -13.0582 -0.6478 -14.0626 0.0000 16.4663 0.0000
# 6 0.0000 -0.0001 0.0000 -2.3413 0.0000 27.9728
#
#
#
# Elastic Compliance Matrix: (Units=1/GPa)
#
#
# Indices 1 2 3 4 5 6 
#
# 1 0.009580 -0.003871 -0.002137 0.000000 0.005619 0.000000
# 2 -0.003871 0.027713 -0.003529 0.000000 -0.004994 0.000000
# 3 -0.002137 -0.003529 0.009760 0.000000 0.006502 0.000000
# 4 0.000000 0.000000 0.000000 0.034677 0.000000 0.002902
# 5 0.005619 -0.004994 0.006502 0.000000 0.070542 0.000000
# 6 0.000000 0.000000 0.000000 0.002902 0.000000 0.035992
#
#
# Mechanical properties :
#
#
# Convention : Reuss Voigt Hill
#
# Bulk Modulus (GPa) = 35.74309 52.85734 44.30022
# Shear Modulus (GPa) = 23.07691 28.98736 26.03213
#
# Velocity S-wave (km/s) = 3.45375 3.87085 3.66823
# Velocity P-wave (km/s) = 5.86345 6.87748 6.39061
#
# Compressibility (1/GPa) = 0.02797744
#
# Stress axis : x y z
#
# Youngs Moduli (GPa) = 104.38736 36.08355 102.45599
#
# Poissons Ratio (x) = 0.13969 0.21898
# Poissons Ratio (y) = 0.40412 0.36160
# Poissons Ratio (z) = 0.22311 0.12735
#
# Static dielectric constant tensor:
#      x y z
#    x 3.745220 0.000000 0.029970 
#    y 0.000000 3.313080 0.000000 
#    z 0.029970 0.000000 3.669750 
# 
# 
# High freq. dielectric constant tensor:
#      x y z
#    x 1.762330 0.000000 -0.002190 
#    y 0.000000 1.730480 0.000000 
#    z -0.002190 0.000000 1.758230 
# 
# From -- ./inp_files/375042.got.cif
#   From: 2010.06.25/outbox.cif.g09.slc.cpg/sg12_188_cif.got.tgz:375042.got - 2010.06.28 00:19:55.
