data_PCOD8083486
_publ_section_title
;
Structure prediction by ZEFSAII (Michael W. Deem and Ramdas Pophale) SiO2 
 PCOD8083486
Probable space group: C 2/M
;
_chemical_formula_sum "Si O2"
_cell_formula_units_Z 60
_cell_length_a 18.061454
_cell_length_b 17.542209
_cell_length_c 12.125386
_cell_angle_alpha 90.000000
_cell_angle_beta 59.994969
_cell_angle_gamma 90.000000
_cell_volume 3326.910945
_symmetry_space_group_name_H-M "C 2/M"
_symmetry_group_IT_number 12
_symmetry_cell_setting 'monoclinic'
loop_
_space_group_symop_operation_xyz
x,y,z
-x,y,-z
-x,-y,-z
x,-y,z
1/2+x,1/2+y,z
1/2-x,1/2+y,-z
1/2-x,1/2-y,-z
1/2+x,1/2-y,z
loop_
_atom_site_type_symbol
_atom_site_label
_atom_site_fract_x
_atom_site_fract_y
_atom_site_fract_z
Si Si1 0.500000 0.709176 0.500000
Si Si2 0.999124 0.584726 0.631819
Si Si3 0.661708 0.335134 0.263688
Si Si4 0.094050 0.209135 0.979837
Si Si5 0.369227 0.805247 0.456653
Si Si6 0.716021 0.250361 0.694579
Si Si7 0.194595 0.087978 0.028878
Si Si8 0.861091 0.314552 0.858281
O O1 0.432963 0.655806 0.615086
O O2 0.448873 0.760488 0.451194
O O3 0.981440 0.500000 0.689408
O O4 0.931301 0.641513 0.735749
O O5 0.000000 0.588268 0.500000
O O6 0.094854 0.610466 0.596538
O O7 0.734319 0.327213 0.304598
O O8 0.672664 0.257208 0.185356
O O9 0.679928 0.407143 0.172079
O O10 0.161769 0.212566 0.831121
O O11 0.115492 0.131331 0.029327
O O12 0.101458 0.283574 0.053207
O O13 0.000000 0.204350 0.000000
O O14 0.346504 0.765546 0.359478
O O15 0.288946 0.809943 0.599548
O O16 0.283744 0.127738 0.934449
O O17 0.196162 0.000000 0.990974
#
# Coordination Sequence:
#
# PCOD8083486 Si02
#       8
#     4   8   8   8   8   8   8   8
#     4  10  18  32  62  84 106 140 190 244 272 326
#     4  11  21  33  54  84 118 146 176 231 290 342
#     4  10  18  36  58  84 107 142 193 234 273 327
#     4  11  22  36  61  85 114 145 194 244 282 328
#     4  10  19  33  55  83 112 141 184 234 281 335
#     4  10  19  34  57  82 108 141 189 238 278 323
#     4  11  23  38  57  83 118 155 188 231 287 343
#     4  11  19  38  58  84 113 148 194 231 276 344
#
# _framework density 18.034748
#
# number of rings (size 3 to 8) (size 9 to 14) (size 15 to 20)
#    0.000    1.467    4.667    2.800    1.867    0.267 
#    0.000    1.000    0.000    1.600    0.000    0.000 
#    0.000    0.000    0.000    0.000    0.000    0.000 
#
# Total GULP energy -371879.161126 kJ/mol
# GULP energy per Si atom -12395.972038 kJ/mol
# Density = 1.799370 g / cm^3
# Si number density = 18.034748 Si / 1000 Ang^3
#
#
#
# Elastic Constant Matrix: (Units=GPa)
#
#
# Indices 1 2 3 4 5 6 
#
# 1 122.7383 32.6888 29.2476 0.0000 -0.1082 0.0000
# 2 32.6888 83.7995 25.3600 0.0000 -5.5221 0.0000
# 3 29.2476 25.3600 99.3748 0.0000 -6.6711 0.0000
# 4 0.0000 0.0000 0.0000 134.5092 0.0000 92.5428
# 5 -0.1082 -5.5221 -6.6711 0.0000 27.4991 0.0000
# 6 0.0000 0.0000 0.0000 92.5428 0.0000 71.5201
#
#
#
# Elastic Compliance Matrix: (Units=1/GPa)
#
#
# Indices 1 2 3 4 5 6 
#
# 1 0.009475 -0.003145 -0.002059 0.000000 -0.001094 0.000000
# 2 -0.003145 0.014067 -0.002516 0.000000 0.002202 0.000000
# 3 -0.002059 -0.002516 0.011463 0.000000 0.002268 0.000000
# 4 0.000000 0.000000 0.000000 0.067731 0.000000 -0.087639
# 5 -0.001094 0.002202 0.002268 0.000000 0.037353 0.000000
# 6 0.000000 0.000000 0.000000 -0.087639 0.000000 0.127382
#
#
# Mechanical properties :
#
#
# Convention : Reuss Voigt Hill
#
# Bulk Modulus (GPa) = 51.11541 53.38947 52.25244
# Shear Modulus (GPa) = 17.27516 61.28009 39.27762
#
# Velocity S-wave (km/s) = 3.09832 5.83547 4.67185
# Velocity P-wave (km/s) = 6.41901 8.66438 7.62480
#
# Compressibility (1/GPa) = 0.01956357
#
# Stress axis : x y z
#
# Youngs Moduli (GPa) = 105.54368 71.09053 87.23391
#
# Poissons Ratio (x) = 0.22356 0.17966
# Poissons Ratio (y) = 0.33191 0.21951
# Poissons Ratio (z) = 0.21736 0.17889
#
# Static dielectric constant tensor:
#      x y z
#    x 3.601860 0.000000 -0.037270 
#    y 0.000000 3.145580 0.000000 
#    z -0.037270 0.000000 3.649130 
# 
# 
# High freq. dielectric constant tensor:
#      x y z
#    x 1.705000 0.000000 -0.005870 
#    y 0.000000 1.654630 0.000000 
#    z -0.005870 0.000000 1.721190 
# 
# From -- ./inp_files/158271.got.cif
#   From: 2010.06.25/outbox.cif.g09.slc.cpg/sg12_80_cif.got.tgz:158271.got - 2010.06.28 00:19:55.
