data_PCOD8083012
_publ_section_title
;
Structure prediction by ZEFSAII (Michael W. Deem and Ramdas Pophale) SiO2 
 PCOD8083012
Probable space group: C 2/M
;
_chemical_formula_sum "Si O2"
_cell_formula_units_Z 56
_cell_length_a 21.548503
_cell_length_b 8.563762
_cell_length_c 19.539218
_cell_angle_alpha 90.000000
_cell_angle_beta 132.996491
_cell_angle_gamma 90.000000
_cell_volume 2637.188281
_symmetry_space_group_name_H-M "C 2/M"
_symmetry_group_IT_number 12
_symmetry_cell_setting 'monoclinic'
loop_
_space_group_symop_operation_xyz
x,y,z
-x,y,-z
-x,-y,-z
x,-y,z
1/2+x,1/2+y,z
1/2-x,1/2+y,-z
1/2-x,1/2-y,-z
1/2+x,1/2-y,z
loop_
_atom_site_type_symbol
_atom_site_label
_atom_site_fract_x
_atom_site_fract_y
_atom_site_fract_z
Si Si1 0.467643 0.820133 0.052003
Si Si2 0.471278 0.816076 0.272646
Si Si3 0.809059 0.184346 0.103083
Si Si4 0.599274 0.816678 0.260769
Si Si5 0.247166 0.181102 0.704135
Si Si6 0.066951 0.684201 0.604659
Si Si7 0.193628 0.181520 0.120305
O O1 0.533804 0.745546 0.155533
O O2 0.447139 0.000000 0.053507
O O3 0.500000 0.796400 0.000000
O O4 0.379791 0.723330 0.989453
O O5 0.407299 0.734000 0.170377
O O6 0.565578 0.777840 0.312400
O O7 0.458942 0.746974 0.339997
O O8 0.454756 0.000000 0.258865
O O9 0.782813 0.269398 0.153918
O O10 0.798449 0.000000 0.099747
O O11 0.750000 0.250000 0.000000
O O12 0.697312 0.762560 0.320947
O O13 0.599286 0.000000 0.246541
O O14 0.161033 0.276818 0.648996
O O15 0.312447 0.215850 0.815354
O O16 0.222836 0.000000 0.682574
O O17 0.058399 0.500000 0.602018
O O18 0.000000 0.754133 0.500000
O O19 0.193578 0.000000 0.138821
#
# Coordination Sequence:
#
# PCOD8083012 Si02
#       7
#     8   8   8   8   8   8   8
#     4  10  18  32  52  77 114 160 207 251 297 351
#     4  10  20  38  62  87 119 160 204 250 304 370
#     4  12  24  38  57  84 120 162 206 253 303 357
#     4   9  19  35  57  84 116 158 202 247 301 358
#     4  11  21  38  62  87 115 152 200 252 304 364
#     4  10  22  41  65  92 121 155 199 255 318 377
#     4  12  23  35  53  82 118 159 206 253 300 354
#
# _framework density 21.234736999999999
#
# number of rings (size 3 to 8) (size 9 to 14) (size 15 to 20)
#    0.000    1.429    2.857    3.857    0.000    1.714 
#    0.000    2.143    0.000    0.000    0.000    0.000 
#    0.000    0.000    0.000    0.000    0.000    0.000 
#
# Total GULP energy -347023.362733 kJ/mol
# GULP energy per Si atom -12393.691526 kJ/mol
# Density = 2.118641 g / cm^3
# Si number density = 21.234737 Si / 1000 Ang^3
#
#
#
# Elastic Constant Matrix: (Units=GPa)
#
#
# Indices 1 2 3 4 5 6 
#
# 1 160.4433 12.6007 51.1136 0.0000 4.8543 0.0000
# 2 12.6007 43.2049 6.7479 0.0000 -3.7299 0.0000
# 3 51.1136 6.7479 94.3643 0.0000 -0.0729 0.0000
# 4 0.0000 0.0000 0.0000 18.8628 0.0000 4.9707
# 5 4.8543 -3.7299 -0.0729 0.0000 22.2793 0.0000
# 6 0.0000 0.0000 0.0000 4.9707 0.0000 25.4561
#
#
#
# Elastic Compliance Matrix: (Units=1/GPa)
#
#
# Indices 1 2 3 4 5 6 
#
# 1 0.007727 -0.001792 -0.004059 0.000000 -0.001997 0.000000
# 2 -0.001792 0.024169 -0.000754 0.000000 0.004434 0.000000
# 3 -0.004059 -0.000754 0.012850 0.000000 0.000800 0.000000
# 4 0.000000 0.000000 0.000000 0.055890 0.000000 -0.010914
# 5 -0.001997 0.004434 0.000800 0.000000 0.046065 0.000000
# 6 0.000000 0.000000 0.000000 -0.010914 0.000000 0.041414
#
#
# Mechanical properties :
#
#
# Convention : Reuss Voigt Hill
#
# Bulk Modulus (GPa) = 31.70979 48.77074 40.24026
# Shear Modulus (GPa) = 23.60298 28.48964 26.04631
#
# Velocity S-wave (km/s) = 3.33757 3.66683 3.50607
# Velocity P-wave (km/s) = 5.46058 6.39881 5.94822
#
# Compressibility (1/GPa) = 0.03153600
#
# Stress axis : x y z
#
# Youngs Moduli (GPa) = 129.41766 41.37569 77.81941
#
# Poissons Ratio (x) = 0.07415 0.31585
# Poissons Ratio (y) = 0.23192 0.05869
# Poissons Ratio (z) = 0.52528 0.03120
#
# Static dielectric constant tensor:
#      x y z
#    x 4.319220 0.000000 -0.012560 
#    y 0.000000 3.446660 0.000000 
#    z -0.012560 0.000000 3.702790 
# 
# 
# High freq. dielectric constant tensor:
#      x y z
#    x 1.857830 0.000000 0.005310 
#    y 0.000000 1.802480 0.000000 
#    z 0.005310 0.000000 1.800230 
# 
# From -- ./inp_files/320208.got.cif
#   From: 2010.06.25/outbox.cif.g09.slc.cpg/sg12_161_cif.got.tgz:320208.got - 2010.06.28 00:19:55.
