data_PCOD8083283
_publ_section_title
;
Structure prediction by ZEFSAII (Michael W. Deem and Ramdas Pophale) SiO2 
 PCOD8083283
Probable space group: C 2/M
;
_chemical_formula_sum "Si O2"
_cell_formula_units_Z 48
_cell_length_a 30.489178
_cell_length_b 8.650005
_cell_length_c 17.148290
_cell_angle_alpha 90.000000
_cell_angle_beta 31.204756
_cell_angle_gamma 90.000000
_cell_volume 2343.121545
_symmetry_space_group_name_H-M "C 2/M"
_symmetry_group_IT_number 12
_symmetry_cell_setting 'monoclinic'
loop_
_space_group_symop_operation_xyz
x,y,z
-x,y,-z
-x,-y,-z
x,-y,z
1/2+x,1/2+y,z
1/2-x,1/2+y,-z
1/2-x,1/2-y,-z
1/2+x,1/2-y,z
loop_
_atom_site_type_symbol
_atom_site_label
_atom_site_fract_x
_atom_site_fract_y
_atom_site_fract_z
Si Si1 0.919312 0.820750 0.348503
Si Si2 0.071633 0.679190 0.830177
Si Si3 0.716980 0.319049 0.874549
Si Si4 0.823849 0.816827 0.834155
Si Si5 0.928922 0.318480 0.798484
Si Si6 0.233032 0.678679 0.685165
O O1 0.942367 0.780180 0.225071
O O2 0.822486 0.776546 0.511872
O O3 0.975935 0.723458 0.322399
O O4 0.937780 0.000000 0.334658
O O5 0.061811 0.500000 0.822321
O O6 0.163410 0.715138 0.725884
O O7 0.000000 0.729434 0.000000
O O8 0.714500 0.500000 0.894472
O O9 0.804589 0.248431 0.776910
O O10 0.714592 0.285507 0.786952
O O11 0.634776 0.244427 0.039079
O O12 0.911021 0.756182 0.740114
O O13 0.823496 0.000000 0.832680
O O14 0.750000 0.750000 0.000000
O O15 0.917185 0.500000 0.809771
O O16 0.229144 0.500000 0.717286
#
# Coordination Sequence:
#
# PCOD8083283 Si02
#       6
#     8   8   8   8   8   8
#     4  11  23  38  57  83 116 152 191 234 282 337
#     4  10  21  38  61  86 112 147 190 234 282 337
#     4  11  21  35  58  87 116 148 191 236 281 336
#     4  10  18  32  55  83 115 148 187 234 284 334
#     4  11  21  36  58  83 114 150 192 239 286 335
#     4  10  22  39  57  82 118 155 188 229 284 339
#
# _framework density 20.485493000000002
#
# number of rings (size 3 to 8) (size 9 to 14) (size 15 to 20)
#    0.000    1.500    0.000    8.500    0.000    3.667 
#    0.000    0.833    0.000    5.000    0.000    0.000 
#    0.000    0.000    0.000    0.000    0.000    0.000 
#
# Total GULP energy -297683.630729 kJ/mol
# GULP energy per Si atom -12403.484614 kJ/mol
# Density = 2.043887 g / cm^3
# Si number density = 20.485493 Si / 1000 Ang^3
#
#
#
# Elastic Constant Matrix: (Units=GPa)
#
#
# Indices 1 2 3 4 5 6 
#
# 1 75.3497 23.6249 11.1596 0.0011 -30.3370 -0.0006
# 2 23.6249 127.4272 16.0915 -0.0037 -11.2346 0.0037
# 3 11.1596 16.0915 65.7399 -0.0049 -24.0564 0.0022
# 4 0.0011 -0.0037 -0.0049 23.8546 0.0024 -0.8032
# 5 -30.3370 -11.2346 -24.0564 0.0024 30.9219 -0.0005
# 6 -0.0006 0.0037 0.0022 -0.8032 -0.0005 41.2490
#
#
#
# Elastic Compliance Matrix: (Units=1/GPa)
#
#
# Indices 1 2 3 4 5 6 
#
# 1 0.024653 -0.002935 0.006982 -0.000003 0.028552 0.000001
# 2 -0.002935 0.008533 -0.002110 0.000001 -0.001421 -0.000001
# 3 0.006982 -0.002110 0.023442 0.000002 0.024320 -0.000001
# 4 -0.000003 0.000001 0.000002 0.041948 -0.000005 0.000817
# 5 0.028552 -0.001421 0.024320 -0.000005 0.078755 0.000000
# 6 0.000001 -0.000001 -0.000001 0.000817 0.000000 0.024259
#
#
# Mechanical properties :
#
#
# Convention : Reuss Voigt Hill
#
# Bulk Modulus (GPa) = 16.52876 41.14096 28.83486
# Shear Modulus (GPa) = 22.94779 33.71449 28.33114
#
# Velocity S-wave (km/s) = 3.35057 4.06122 3.72289
# Velocity P-wave (km/s) = 4.80150 6.48983 5.70843
#
# Compressibility (1/GPa) = 0.06050059
#
# Stress axis : x y z
#
# Youngs Moduli (GPa) = 40.56282 117.19233 42.65758
#
# Poissons Ratio (x) = 0.34396 -0.29781
# Poissons Ratio (y) = 0.11905 0.09003
# Poissons Ratio (z) = -0.28319 0.24733
#
# Static dielectric constant tensor:
#      x y z
#    x 4.249250 0.000000 -0.251150 
#    y 0.000000 3.687960 0.000010 
#    z -0.251150 0.000010 3.513640 
# 
# 
# High freq. dielectric constant tensor:
#      x y z
#    x 1.820780 0.000000 -0.014240 
#    y 0.000000 1.807570 0.000000 
#    z -0.014240 0.000000 1.775780 
# 
# From -- ./inp_files/274015.got.cif
#   From: 2010.06.25/outbox.cif.g09.slc.cpg/sg12_138_cif.got.tgz:274015.got - 2010.06.28 00:19:55.
