data_PCOD8083261
_publ_section_title
;
Structure prediction by ZEFSAII (Michael W. Deem and Ramdas Pophale) SiO2 
 PCOD8083261
Probable space group: C 2/M
;
_chemical_formula_sum "Si O2"
_cell_formula_units_Z 56
_cell_length_a 20.572483
_cell_length_b 13.198123
_cell_length_c 15.711978
_cell_angle_alpha 90.000000
_cell_angle_beta 134.834893
_cell_angle_gamma 90.000000
_cell_volume 3025.259532
_symmetry_space_group_name_H-M "C 2/M"
_symmetry_group_IT_number 12
_symmetry_cell_setting 'monoclinic'
loop_
_space_group_symop_operation_xyz
x,y,z
-x,y,-z
-x,-y,-z
x,-y,z
1/2+x,1/2+y,z
1/2-x,1/2+y,-z
1/2-x,1/2-y,-z
1/2+x,1/2-y,z
loop_
_atom_site_type_symbol
_atom_site_label
_atom_site_fract_x
_atom_site_fract_y
_atom_site_fract_z
Si Si1 0.819742 0.206737 0.688510
Si Si2 0.208965 0.883243 0.517820
Si Si3 0.293173 0.883843 0.071390
Si Si4 0.383245 0.314101 0.160304
Si Si5 0.015744 0.118596 0.417795
Si Si6 0.507222 0.614830 0.894505
Si Si7 0.307883 0.383041 0.848705
O O1 0.793523 0.132980 0.586119
O O2 0.792064 0.320650 0.637363
O O3 0.769092 0.175075 0.729789
O O4 0.927298 0.197644 0.810245
O O5 0.114137 0.845268 0.472816
O O6 0.228124 0.000000 0.555730
O O7 0.377445 0.806817 0.133475
O O8 0.246785 0.849456 0.118058
O O9 0.327515 0.000000 0.102169
O O10 0.218455 0.863581 0.928311
O O11 0.434219 0.323106 0.296251
O O12 0.435874 0.379765 0.139490
O O13 0.000000 0.149340 0.500000
O O14 0.005154 0.000000 0.392417
O O15 0.467233 0.500000 0.865077
O O16 0.580630 0.636239 0.038951
O O17 0.289861 0.500000 0.816619
#
# Coordination Sequence:
#
# PCOD8083261 Si02
#       7
#     8   8   8   8   8   8   8
#     4  11  20  32  56  76 102 137 167 210 261 304
#     4  10  22  37  51  75 105 136 174 214 250 298
#     4   9  19  33  51  80 110 132 163 211 264 314
#     4  10  18  32  56  74 102 138 168 210 259 299
#     4  10  20  34  55  77  99 131 174 216 251 292
#     4  10  18  32  55  82 104 126 170 222 258 299
#     4   9  18  31  53  82 104 127 163 214 264 303
#
# _framework density 18.510807
#
# number of rings (size 3 to 8) (size 9 to 14) (size 15 to 20)
#    0.000    2.143    1.429    3.857    2.000    1.143 
#    0.000    0.714    0.000    2.143    0.000    0.000 
#    0.000    0.000    0.000    0.000    0.000    0.000 
#
# Total GULP energy -347064.022330 kJ/mol
# GULP energy per Si atom -12395.143655 kJ/mol
# Density = 1.846868 g / cm^3
# Si number density = 18.510807 Si / 1000 Ang^3
#
#
#
# Elastic Constant Matrix: (Units=GPa)
#
#
# Indices 1 2 3 4 5 6 
#
# 1 41.3180 26.6804 34.6754 0.0000 -3.2427 0.0000
# 2 26.6804 81.2694 54.5319 0.0000 -6.6040 0.0000
# 3 34.6754 54.5319 117.6210 0.0000 -11.7738 0.0000
# 4 0.0000 0.0000 0.0000 27.5888 0.0000 1.2077
# 5 -3.2427 -6.6040 -11.7738 0.0000 18.7681 0.0000
# 6 0.0000 0.0000 0.0000 1.2077 0.0000 22.7095
#
#
#
# Elastic Compliance Matrix: (Units=1/GPa)
#
#
# Indices 1 2 3 4 5 6 
#
# 1 0.034393 -0.006532 -0.007198 0.000000 -0.000872 0.000000
# 2 -0.006532 0.019126 -0.006808 0.000000 0.001330 0.000000
# 3 -0.007198 -0.006808 0.014315 0.000000 0.005341 0.000000
# 4 0.000000 0.000000 0.000000 0.036331 0.000000 -0.001932
# 5 -0.000872 0.001330 0.005341 0.000000 0.056950 0.000000
# 6 0.000000 0.000000 0.000000 -0.001932 0.000000 0.044137
#
#
# Mechanical properties :
#
#
# Convention : Reuss Voigt Hill
#
# Bulk Modulus (GPa) = 37.37357 52.44264 44.90811
# Shear Modulus (GPa) = 19.58883 22.10132 20.84508
#
# Velocity S-wave (km/s) = 3.25659 3.45913 3.35939
# Velocity P-wave (km/s) = 5.86297 6.65931 6.27379
#
# Compressibility (1/GPa) = 0.02675687
#
# Stress axis : x y z
#
# Youngs Moduli (GPa) = 29.07575 52.28579 69.85649
#
# Poissons Ratio (x) = 0.34153 0.50284
# Poissons Ratio (y) = 0.18992 0.47560
# Poissons Ratio (z) = 0.20929 0.35598
#
# Static dielectric constant tensor:
#      x y z
#    x 3.494330 0.000000 -0.165050 
#    y 0.000000 3.221490 0.000000 
#    z -0.165050 0.000000 3.458620 
# 
# 
# High freq. dielectric constant tensor:
#      x y z
#    x 1.712570 0.000000 -0.018490 
#    y 0.000000 1.698480 0.000000 
#    z -0.018490 0.000000 1.717010 
# 
# From -- ./inp_files/289171.got.cif
#   From: 2010.06.25/outbox.cif.g09.slc.cpg/sg12_145_cif.got.tgz:289171.got - 2010.06.28 00:19:55.
