data_PCOD8083923
_publ_section_title
;
Structure prediction by ZEFSAII (Michael W. Deem and Ramdas Pophale) SiO2 
 PCOD8083923
Probable space group: C 2/M
;
_chemical_formula_sum "Si O2"
_cell_formula_units_Z 44
_cell_length_a 13.172545
_cell_length_b 17.824209
_cell_length_c 14.156128
_cell_angle_alpha 90.000000
_cell_angle_beta 37.057591
_cell_angle_gamma 90.000000
_cell_volume 2002.931769
_symmetry_space_group_name_H-M "C 2/M"
_symmetry_group_IT_number 12
_symmetry_cell_setting 'monoclinic'
loop_
_space_group_symop_operation_xyz
x,y,z
-x,y,-z
-x,-y,-z
x,-y,z
1/2+x,1/2+y,z
1/2-x,1/2+y,-z
1/2-x,1/2-y,-z
1/2+x,1/2-y,z
loop_
_atom_site_type_symbol
_atom_site_label
_atom_site_fract_x
_atom_site_fract_y
_atom_site_fract_z
Si Si1 0.308259 0.000000 0.677269
Si Si2 0.398481 0.584630 0.307719
Si Si3 0.607848 0.277358 0.175953
Si Si4 0.807892 0.348568 0.175773
Si Si5 0.360401 0.856909 0.351963
Si Si6 0.812913 0.500000 0.092980
Si Si7 0.404719 0.000000 0.814275
O O1 0.500000 0.000000 0.500000
O O2 0.216146 0.073701 0.701581
O O3 0.289639 0.000000 0.804974
O O4 0.459748 0.500000 0.295396
O O5 0.549510 0.642315 0.174871
O O6 0.294727 0.628268 0.464875
O O7 0.693436 0.284014 0.215440
O O8 0.456136 0.219785 0.304365
O O9 0.750000 0.250000 0.000000
O O10 0.786905 0.348142 0.302370
O O11 0.725134 0.425295 0.196636
O O12 0.000000 0.338411 0.000000
O O13 0.483795 0.926417 0.269602
O O14 0.799671 0.500000 0.988733
O O15 0.000000 0.500000 0.000000
#
# Coordination Sequence:
#
# PCOD8083923 Si02
#       7
#     4   8   8   8   8   4   4
#     4  10  20  41  72 101 143 189 237 292 365 422
#     4  10  25  47  70 107 143 184 244 298 359 438
#     4  12  26  45  68 102 152 188 235 307 357 429
#     4  11  22  41  66 104 136 189 234 294 361 427
#     4  12  22  43  73 100 143 185 239 299 367 424
#     4  10  18  33  64  97 132 177 235 277 342 420
#     4  12  18  38  68 104 131 192 231 291 352 421
#
# _framework density 21.967797999999998
#
# number of rings (size 3 to 8) (size 9 to 14) (size 15 to 20)
#    0.545    0.364    8.182    0.545    1.273    2.182 
#    1.636    0.909    0.000    4.364    0.000    0.000 
#    0.000    0.000    0.000    0.000    0.000    0.000 
#
# Total GULP energy -272698.428488 kJ/mol
# GULP energy per Si atom -12395.383113 kJ/mol
# Density = 2.191780 g / cm^3
# Si number density = 21.967798 Si / 1000 Ang^3
#
#
#
# Elastic Constant Matrix: (Units=GPa)
#
#
# Indices 1 2 3 4 5 6 
#
# 1 161.7579 67.2671 57.1233 -0.0030 42.4827 -0.0026
# 2 67.2671 155.9691 48.9392 0.0006 -4.6474 -0.0047
# 3 57.1233 48.9392 91.6962 -0.0159 15.6166 0.0002
# 4 -0.0030 0.0006 -0.0159 43.7452 0.0047 -11.8865
# 5 42.4827 -4.6474 15.6166 0.0047 40.8057 0.0024
# 6 -0.0026 -0.0047 0.0002 -11.8865 0.0024 39.7561
#
#
#
# Elastic Compliance Matrix: (Units=1/GPa)
#
#
# Indices 1 2 3 4 5 6 
#
# 1 0.012542 -0.004792 -0.003144 0.000001 -0.012400 0.000001
# 2 -0.004792 0.009804 -0.003516 -0.000003 0.007451 0.000000
# 3 -0.003144 -0.003516 0.015245 0.000006 -0.002962 0.000001
# 4 0.000001 -0.000003 0.000006 0.024881 -0.000007 0.007439
# 5 -0.012400 0.007451 -0.002962 -0.000007 0.039398 -0.000004
# 6 0.000001 0.000000 0.000001 0.007439 -0.000004 0.027378
#
#
# Mechanical properties :
#
#
# Convention : Reuss Voigt Hill
#
# Bulk Modulus (GPa) = 68.08865 84.00913 76.04889
# Shear Modulus (GPa) = 31.83802 40.60097 36.21950
#
# Velocity S-wave (km/s) = 3.81110 4.30374 4.06489
# Velocity P-wave (km/s) = 7.10127 7.93859 7.53157
#
# Compressibility (1/GPa) = 0.01468674
#
# Stress axis : x y z
#
# Youngs Moduli (GPa) = 79.73516 102.00436 65.59598
#
# Poissons Ratio (x) = 0.48881 0.20621
# Poissons Ratio (y) = 0.38210 0.23063
# Poissons Ratio (z) = 0.25065 0.35864
#
# Static dielectric constant tensor:
#      x y z
#    x 4.171710 -0.000010 0.175510 
#    y -0.000010 4.304610 0.000020 
#    z 0.175510 0.000020 4.112890 
# 
# 
# High freq. dielectric constant tensor:
#      x y z
#    x 1.876810 0.000000 -0.002200 
#    y 0.000000 1.873770 0.000000 
#    z -0.002200 0.000000 1.845410 
# 
# From -- ./inp_files/215790.got.cif
#   From: 2010.06.25/outbox.cif.g09.slc.cpg/sg12_108_cif.got.tgz:215790.got - 2010.06.28 00:19:55.
