data_PCOD8083309
_publ_section_title
;
Structure prediction by ZEFSAII (Michael W. Deem and Ramdas Pophale) SiO2 
 PCOD8083309
Probable space group: C 2/M
;
_chemical_formula_sum "Si O2"
_cell_formula_units_Z 64
_cell_length_a 20.549562
_cell_length_b 8.679360
_cell_length_c 21.805285
_cell_angle_alpha 90.000000
_cell_angle_beta 61.394516
_cell_angle_gamma 90.000000
_cell_volume 3414.408413
_symmetry_space_group_name_H-M "C 2/M"
_symmetry_group_IT_number 12
_symmetry_cell_setting 'monoclinic'
loop_
_space_group_symop_operation_xyz
x,y,z
-x,y,-z
-x,-y,-z
x,-y,z
1/2+x,1/2+y,z
1/2-x,1/2+y,-z
1/2-x,1/2-y,-z
1/2+x,1/2-y,z
loop_
_atom_site_type_symbol
_atom_site_label
_atom_site_fract_x
_atom_site_fract_y
_atom_site_fract_z
Si Si1 0.221771 0.683363 0.949303
Si Si2 0.699584 0.677316 0.205178
Si Si3 0.583522 0.680727 0.948487
Si Si4 0.334863 0.318136 0.576639
Si Si5 0.352318 0.177189 0.198631
Si Si6 0.408630 0.683042 0.418102
Si Si7 0.073936 0.182967 0.346639
Si Si8 0.324641 0.318385 0.335767
O O1 0.223001 0.500000 0.950658
O O2 0.276340 0.749822 0.871130
O O3 0.138147 0.735110 0.971800
O O4 0.250000 0.750000 0.000000
O O5 0.683260 0.500000 0.200111
O O6 0.765286 0.697392 0.224513
O O7 0.626187 0.753301 0.268665
O O8 0.594280 0.500000 0.952595
O O9 0.599930 0.726150 0.871147
O O10 0.500000 0.733141 0.000000
O O11 0.317836 0.500000 0.584247
O O12 0.367173 0.258537 0.497574
O O13 0.394465 0.272619 0.601207
O O14 0.260491 0.227244 0.623897
O O15 0.367352 0.240386 0.259734
O O16 0.376696 0.000000 0.182801
O O17 0.413120 0.500000 0.417957
O O18 0.491684 0.752403 0.377706
O O19 0.363886 0.743043 0.379580
O O20 0.073071 0.000000 0.340415
O O21 0.332541 0.500000 0.325430
#
# Coordination Sequence:
#
# PCOD8083309 Si02
#       8
#     8   8   8   8   8   8   8   8
#     4  10  20  35  56  83 116 151 190 231 275 328
#     4   8  15  29  52  79 100 130 176 221 263 313
#     4  10  21  38  60  87 116 146 183 227 279 336
#     4  10  18  32  56  78  97 133 184 225 266 321
#     4  10  19  35  58  82 106 140 186 226 264 317
#     4   9  19  31  47  77 109 135 170 224 277 322
#     4   9  15  29  53  78 101 128 174 228 269 311
#     4  11  21  33  49  76 111 142 175 216 272 328
#
# _framework density 18.744095999999999
#
# number of rings (size 3 to 8) (size 9 to 14) (size 15 to 20)
#    0.000    2.375    1.250    3.000    0.000    2.500 
#    2.250    0.625    0.000    3.000    0.000    0.000 
#    0.000    0.000    0.000    0.000    0.000    0.000 
#
# Total GULP energy -396743.392081 kJ/mol
# GULP energy per Si atom -12398.231003 kJ/mol
# Density = 1.870143 g / cm^3
# Si number density = 18.744096 Si / 1000 Ang^3
#
#
#
# Elastic Constant Matrix: (Units=GPa)
#
#
# Indices 1 2 3 4 5 6 
#
# 1 92.9378 21.4453 59.8066 -0.0001 7.4071 -0.0022
# 2 21.4453 37.1454 21.6852 -0.0001 2.7003 -0.0040
# 3 59.8066 21.6852 131.7809 -0.0001 11.0191 -0.0001
# 4 -0.0001 -0.0001 -0.0001 25.3745 0.0002 1.7283
# 5 7.4071 2.7003 11.0191 0.0002 35.2545 -0.0001
# 6 -0.0022 -0.0040 -0.0001 1.7283 -0.0001 20.8043
#
#
#
# Elastic Compliance Matrix: (Units=1/GPa)
#
#
# Indices 1 2 3 4 5 6 
#
# 1 0.016219 -0.005579 -0.006360 0.000000 -0.000993 0.000001
# 2 -0.005579 0.031722 -0.002652 0.000000 -0.000429 0.000006
# 3 -0.006360 -0.002652 0.011072 0.000000 -0.001921 -0.000001
# 4 0.000000 0.000000 0.000000 0.039634 0.000000 -0.003293
# 5 -0.000993 -0.000429 -0.001921 0.000000 0.029207 0.000000
# 6 0.000001 0.000006 -0.000001 -0.003293 0.000000 0.048341
#
#
# Mechanical properties :
#
#
# Convention : Reuss Voigt Hill
#
# Bulk Modulus (GPa) = 33.52255 51.97091 42.74673
# Shear Modulus (GPa) = 23.22141 26.88177 25.05159
#
# Velocity S-wave (km/s) = 3.52357 3.79112 3.65979
# Velocity P-wave (km/s) = 5.87173 6.85202 6.38073
#
# Compressibility (1/GPa) = 0.02983066
#
# Stress axis : x y z
#
# Youngs Moduli (GPa) = 61.65690 31.52428 90.32073
#
# Poissons Ratio (x) = 0.17587 0.57441
# Poissons Ratio (y) = 0.34397 0.23956
# Poissons Ratio (z) = 0.39211 0.08361
#
# Static dielectric constant tensor:
#      x y z
#    x 3.478510 0.000000 -0.014000 
#    y 0.000000 3.118890 0.000000 
#    z -0.014000 0.000000 3.816580 
# 
# 
# High freq. dielectric constant tensor:
#      x y z
#    x 1.719760 0.000000 0.001290 
#    y 0.000000 1.695420 0.000000 
#    z 0.001290 0.000000 1.744930 
# 
# From -- ./inp_files/319978.got.cif
#   From: 2010.06.25/outbox.cif.g09.slc.cpg/sg12_160_cif.got.tgz:319978.got - 2010.06.28 00:19:55.
