data_PCOD8083537
_publ_section_title
;
Structure prediction by ZEFSAII (Michael W. Deem and Ramdas Pophale) SiO2 
 PCOD8083537
Probable space group: C 2/M
;
_chemical_formula_sum "Si O2"
_cell_formula_units_Z 48
_cell_length_a 24.098761
_cell_length_b 21.362367
_cell_length_c 8.796468
_cell_angle_alpha 90.000000
_cell_angle_beta 149.178108
_cell_angle_gamma 90.000000
_cell_volume 2320.261725
_symmetry_space_group_name_H-M "C 2/M"
_symmetry_group_IT_number 12
_symmetry_cell_setting 'monoclinic'
loop_
_space_group_symop_operation_xyz
x,y,z
-x,y,-z
-x,-y,-z
x,-y,z
1/2+x,1/2+y,z
1/2-x,1/2+y,-z
1/2-x,1/2-y,-z
1/2+x,1/2-y,z
loop_
_atom_site_type_symbol
_atom_site_label
_atom_site_fract_x
_atom_site_fract_y
_atom_site_fract_z
Si Si1 0.895351 0.069549 0.052574
Si Si2 0.630678 0.608680 0.681895
Si Si3 0.392293 0.244918 0.333764
Si Si4 0.389577 0.676589 0.816910
Si Si5 0.716699 0.834626 0.161678
Si Si6 0.477729 0.193908 0.117377
O O1 0.839666 0.079159 0.086175
O O2 0.025371 0.074627 0.367927
O O3 0.865773 0.000000 0.924249
O O4 0.846317 0.121477 0.824477
O O5 0.603283 0.681534 0.632491
O O6 0.732020 0.603801 0.801609
O O7 0.500000 0.224189 0.500000
O O8 0.406869 0.206473 0.528039
O O9 0.292388 0.218982 0.994811
O O10 0.300618 0.692078 0.481350
O O11 0.500000 0.652464 0.000000
O O12 0.412267 0.740130 0.962152
O O13 0.603079 0.851836 0.977263
O O14 0.500000 0.168028 0.000000
#
# Coordination Sequence:
#
# PCOD8083537 Si02
#       6
#     8   8   8   8   8   8
#     4  11  22  36  56  76 110 157 192 229 277 321
#     4  11  18  35  51  77 111 144 188 234 268 328
#     4  10  18  33  52  77 113 151 186 224 271 328
#     4  11  20  37  51  79 119 152 186 230 270 328
#     4  11  22  31  53  80 107 157 191 215 277 338
#     4  10  20  35  53  78 117 149 185 228 273 331
#
# _framework density 20.687321000000001
#
# number of rings (size 3 to 8) (size 9 to 14) (size 15 to 20)
#    0.000    1.333    5.000    4.000    0.000    1.667 
#    0.000    0.000    0.000    0.000    0.000    0.000 
#    0.000   97.333    0.000    0.500    0.000    0.167 
#
# Total GULP energy -297437.134704 kJ/mol
# GULP energy per Si atom -12393.213946 kJ/mol
# Density = 2.064024 g / cm^3
# Si number density = 20.687321 Si / 1000 Ang^3
#
#
#
# Elastic Constant Matrix: (Units=GPa)
#
#
# Indices 1 2 3 4 5 6 
#
# 1 113.9428 34.2404 17.8492 0.0000 -7.8988 0.0000
# 2 34.2404 38.2424 15.7981 0.0000 3.3960 0.0000
# 3 17.8492 15.7981 119.7268 0.0000 -20.8928 0.0000
# 4 0.0000 0.0000 0.0000 16.0144 0.0000 -1.2572
# 5 -7.8988 3.3960 -20.8928 0.0000 25.5807 0.0000
# 6 0.0000 0.0000 0.0000 -1.2572 0.0000 6.8611
#
#
#
# Elastic Compliance Matrix: (Units=1/GPa)
#
#
# Indices 1 2 3 4 5 6 
#
# 1 0.012792 -0.012344 0.000813 0.000000 0.006253 0.000000
# 2 -0.012344 0.040955 -0.006038 0.000000 -0.014181 0.000000
# 3 0.000813 -0.006038 0.010743 0.000000 0.009827 0.000000
# 4 0.000000 0.000000 0.000000 0.063355 0.000000 0.011608
# 5 0.006253 -0.014181 0.009827 0.000000 0.050931 0.000000
# 6 0.000000 0.000000 0.000000 0.011608 0.000000 0.147875
#
#
# Mechanical properties :
#
#
# Convention : Reuss Voigt Hill
#
# Bulk Modulus (GPa) = 34.07114 45.29861 39.68487
# Shear Modulus (GPa) = 13.45624 23.29286 18.37455
#
# Velocity S-wave (km/s) = 2.55318 3.35916 2.98351
# Velocity P-wave (km/s) = 5.01965 6.08191 5.57613
#
# Compressibility (1/GPa) = 0.02935036
#
# Stress axis : x y z
#
# Youngs Moduli (GPa) = 78.17380 24.41683 93.08626
#
# Poissons Ratio (x) = 0.30141 -0.07567
# Poissons Ratio (y) = 0.96501 0.56209
# Poissons Ratio (z) = -0.06355 0.14744
#
# Static dielectric constant tensor:
#      x y z
#    x 4.525420 0.000000 -0.021470 
#    y 0.000000 3.204070 0.000000 
#    z -0.021470 0.000000 4.059880 
# 
# 
# High freq. dielectric constant tensor:
#      x y z
#    x 1.830730 0.000000 -0.017980 
#    y 0.000000 1.735720 0.000000 
#    z -0.017980 0.000000 1.805770 
# 
# From -- ./inp_files/106587.got.cif
#   From: 2010.06.25/outbox.cif.g09.slc.cpg/sg12_54_cif.got.tgz:106587.got - 2010.06.28 00:19:55.
