data_PCOD8083693
_publ_section_title
;
Structure prediction by ZEFSAII (Michael W. Deem and Ramdas Pophale) SiO2 
 PCOD8083693
Probable space group: C 2/M
;
_chemical_formula_sum "Si O2"
_cell_formula_units_Z 56
_cell_length_a 23.788085
_cell_length_b 8.941776
_cell_length_c 15.295174
_cell_angle_alpha 90.000000
_cell_angle_beta 117.461714
_cell_angle_gamma 90.000000
_cell_volume 2886.805743
_symmetry_space_group_name_H-M "C 2/M"
_symmetry_group_IT_number 12
_symmetry_cell_setting 'monoclinic'
loop_
_space_group_symop_operation_xyz
x,y,z
-x,y,-z
-x,-y,-z
x,-y,z
1/2+x,1/2+y,z
1/2-x,1/2+y,-z
1/2-x,1/2-y,-z
1/2+x,1/2-y,z
loop_
_atom_site_type_symbol
_atom_site_label
_atom_site_fract_x
_atom_site_fract_y
_atom_site_fract_z
Si Si1 0.983391 0.821667 0.583679
Si Si2 0.057563 0.177323 0.803630
Si Si3 0.315144 0.323290 0.018726
Si Si4 0.157695 0.671407 0.141275
Si Si5 0.962642 0.169066 0.883464
Si Si6 0.776140 0.328813 0.639817
Si Si7 0.347641 0.676268 0.544871
O O1 0.914974 0.757235 0.562734
O O2 0.000000 0.756450 0.500000
O O3 0.036215 0.767685 0.691984
O O4 0.981900 0.000000 0.579490
O O5 0.128346 0.235245 0.877237
O O6 0.007529 0.235628 0.839682
O O7 0.058036 0.000000 0.809958
O O8 0.307735 0.500000 0.019495
O O9 0.250000 0.250000 0.000000
O O10 0.331602 0.280343 0.931777
O O11 0.151759 0.500000 0.104996
O O12 0.095703 0.718573 0.150286
O O13 0.216327 0.689686 0.250555
O O14 0.939692 0.000000 0.844304
O O15 0.000000 0.166987 0.000000
O O16 0.784865 0.500000 0.617255
O O17 0.705948 0.272635 0.563204
O O18 0.830018 0.235783 0.628061
O O19 0.353313 0.500000 0.555117
#
# Coordination Sequence:
#
# PCOD8083693 Si02
#       7
#     8   8   8   8   8   8   8
#     4   9  17  29  50  79 104 131 173 220 263 313
#     4   9  18  33  53  77 106 139 175 221 275 320
#     4  11  23  40  57  76 106 145 185 225 269 323
#     4  11  22  35  53  82 115 146 179 219 273 333
#     4  10  18  33  56  80 107 142 182 226 272 320
#     4   9  19  33  51  78 111 141 171 217 274 323
#     4   9  17  32  54  78 104 137 180 224 266 318
#
# _framework density 19.398603999999999
#
# number of rings (size 3 to 8) (size 9 to 14) (size 15 to 20)
#    0.000    2.286    1.429    1.714    0.000    3.714 
#    0.000    4.286    0.000    1.286    0.000    0.000 
#    0.000    0.000    0.000    0.000    0.000    0.000 
#
# Total GULP energy -347160.167442 kJ/mol
# GULP energy per Si atom -12398.577409 kJ/mol
# Density = 1.935445 g / cm^3
# Si number density = 19.398604 Si / 1000 Ang^3
#
#
#
# Elastic Constant Matrix: (Units=GPa)
#
#
# Indices 1 2 3 4 5 6 
#
# 1 136.7438 24.2328 72.7035 0.0000 8.6387 0.0000
# 2 24.2328 36.3185 22.9450 0.0000 4.5799 0.0000
# 3 72.7035 22.9450 144.2115 0.0000 -1.2087 0.0000
# 4 0.0000 0.0000 0.0000 16.4058 0.0000 2.9407
# 5 8.6387 4.5799 -1.2087 0.0000 27.3431 0.0000
# 6 0.0000 0.0000 0.0000 2.9407 0.0000 26.1488
#
#
#
# Elastic Compliance Matrix: (Units=1/GPa)
#
#
# Indices 1 2 3 4 5 6 
#
# 1 0.010738 -0.003727 -0.004846 0.000000 -0.002982 0.000000
# 2 -0.003727 0.032706 -0.003362 0.000000 -0.004449 0.000000
# 3 -0.004846 -0.003362 0.009933 0.000000 0.002533 0.000000
# 4 0.000000 0.000000 0.000000 0.062208 0.000000 -0.006996
# 5 -0.002982 -0.004449 0.002533 0.000000 0.038372 0.000000
# 6 0.000000 0.000000 0.000000 -0.006996 0.000000 0.039030
#
#
# Mechanical properties :
#
#
# Convention : Reuss Voigt Hill
#
# Bulk Modulus (GPa) = 33.88922 61.89291 47.89106
# Shear Modulus (GPa) = 22.05631 27.13905 24.59768
#
# Velocity S-wave (km/s) = 3.37561 3.74441 3.56478
# Velocity P-wave (km/s) = 5.71846 7.11823 6.45639
#
# Compressibility (1/GPa) = 0.02950791
#
# Stress axis : x y z
#
# Youngs Moduli (GPa) = 93.12583 30.57519 100.67217
#
# Poissons Ratio (x) = 0.11397 0.48781
# Poissons Ratio (y) = 0.34712 0.33845
# Poissons Ratio (z) = 0.45124 0.10279
#
# Static dielectric constant tensor:
#      x y z
#    x 3.734740 0.000000 0.154770 
#    y 0.000000 3.218040 0.000000 
#    z 0.154770 0.000000 3.834190 
# 
# 
# High freq. dielectric constant tensor:
#      x y z
#    x 1.749910 0.000000 0.007970 
#    y 0.000000 1.717790 0.000000 
#    z 0.007970 0.000000 1.770650 
# 
# From -- ./inp_files/238956.got.cif
#   From: 2010.06.25/outbox.cif.g09.slc.cpg/sg12_120_cif.got.tgz:238956.got - 2010.06.28 00:19:55.
