data_PCOD8083586
_publ_section_title
;
Structure prediction by ZEFSAII (Michael W. Deem and Ramdas Pophale) SiO2 
 PCOD8083586
Probable space group: C 2/M
;
_chemical_formula_sum "Si O2"
_cell_formula_units_Z 56
_cell_length_a 20.667400
_cell_length_b 9.254290
_cell_length_c 17.186256
_cell_angle_alpha 90.000000
_cell_angle_beta 74.665530
_cell_angle_gamma 90.000000
_cell_volume 3170.054654
_symmetry_space_group_name_H-M "C 2/M"
_symmetry_group_IT_number 12
_symmetry_cell_setting 'monoclinic'
loop_
_space_group_symop_operation_xyz
x,y,z
-x,y,-z
-x,-y,-z
x,-y,z
1/2+x,1/2+y,z
1/2-x,1/2+y,-z
1/2-x,1/2-y,-z
1/2+x,1/2-y,z
loop_
_atom_site_type_symbol
_atom_site_label
_atom_site_fract_x
_atom_site_fract_y
_atom_site_fract_z
Si Si1 0.931883 0.829528 0.774809
Si Si2 0.214466 0.664626 0.906401
Si Si3 0.919795 0.170513 0.322229
Si Si4 0.840094 0.171484 0.662425
Si Si5 0.809548 0.667276 0.259346
Si Si6 0.656815 0.167623 0.086829
Si Si7 0.928492 0.827935 0.494266
O O1 0.885507 0.771741 0.719086
O O2 0.908783 0.750276 0.861157
O O3 0.007915 0.784417 0.733551
O O4 0.924664 0.000000 0.788570
O O5 0.242171 0.500000 0.901683
O O6 0.177290 0.691084 0.836618
O O7 0.277236 0.770720 0.892366
O O8 0.161527 0.693488 0.992417
O O9 0.863470 0.242342 0.288359
O O10 0.912567 0.228443 0.412808
O O11 0.909930 0.000000 0.322096
O O12 0.764206 0.227288 0.694989
O O13 0.870760 0.228318 0.571187
O O14 0.841842 0.000000 0.664352
O O15 0.816490 0.500000 0.280169
O O16 0.650907 0.000000 0.109529
O O17 0.000000 0.766121 0.500000
O O18 0.932094 0.000000 0.493041
#
# Coordination Sequence:
#
# PCOD8083586 Si02
#       7
#     8   8   8   8   8   8   8
#     4  10  18  33  54  76 103 138 176 212 255 310
#     4   9  18  34  53  75 105 141 174 206 254 314
#     4  10  21  34  53  79 106 135 173 221 262 300
#     4   9  16  29  53  77  98 134 178 210 247 307
#     4  10  20  35  53  73 105 144 172 202 257 324
#     4  10  19  30  52  83 106 128 170 224 262 294
#     4   9  15  28  52  80 102 127 173 222 256 297
#
# _framework density 17.665310999999999
#
# number of rings (size 3 to 8) (size 9 to 14) (size 15 to 20)
#    0.000    2.429    2.857    0.429    0.000    2.286 
#    0.000    0.714    0.000    5.571    0.000    0.000 
#    0.000    0.000    0.000    0.000    0.000    0.000 
#
# Total GULP energy -347175.905449 kJ/mol
# GULP energy per Si atom -12399.139480 kJ/mol
# Density = 1.762510 g / cm^3
# Si number density = 17.665311 Si / 1000 Ang^3
#
#
#
# Elastic Constant Matrix: (Units=GPa)
#
#
# Indices 1 2 3 4 5 6 
#
# 1 137.6711 37.5681 79.0506 0.0000 -2.0072 0.0000
# 2 37.5681 35.3232 38.5909 0.0000 -4.8938 0.0000
# 3 79.0506 38.5909 152.0589 0.0000 -11.3000 0.0000
# 4 0.0000 0.0000 0.0000 22.0350 0.0000 1.9657
# 5 -2.0072 -4.8938 -11.3000 0.0000 30.4625 0.0000
# 6 0.0000 0.0000 0.0000 1.9657 0.0000 28.8182
#
#
#
# Elastic Compliance Matrix: (Units=1/GPa)
#
#
# Indices 1 2 3 4 5 6 
#
# 1 0.011957 -0.008368 -0.004251 0.000000 -0.002133 0.000000
# 2 -0.008368 0.045241 -0.006820 0.000000 0.004187 0.000000
# 3 -0.004251 -0.006820 0.010710 0.000000 0.002597 0.000000
# 4 0.000000 0.000000 0.000000 0.045660 0.000000 -0.003115
# 5 -0.002133 0.004187 0.002597 0.000000 0.034323 0.000000
# 6 0.000000 0.000000 0.000000 -0.003115 0.000000 0.034913
#
#
# Mechanical properties :
#
#
# Convention : Reuss Voigt Hill
#
# Bulk Modulus (GPa) = 34.44739 70.60804 52.52771
# Shear Modulus (GPa) = 21.61140 27.58607 24.59873
#
# Velocity S-wave (km/s) = 3.50148 3.95599 3.73565
# Velocity P-wave (km/s) = 5.99078 7.80533 6.95746
#
# Compressibility (1/GPa) = 0.02902978
#
# Stress axis : x y z
#
# Youngs Moduli (GPa) = 83.63321 22.10363 93.36951
#
# Poissons Ratio (x) = 0.18497 0.39689
# Poissons Ratio (y) = 0.69988 0.63680
# Poissons Ratio (z) = 0.35551 0.15075
#
# Static dielectric constant tensor:
#      x y z
#    x 3.156570 0.000000 -0.194490 
#    y 0.000000 2.961330 0.000000 
#    z -0.194490 0.000000 3.646700 
# 
# 
# High freq. dielectric constant tensor:
#      x y z
#    x 1.667110 0.000000 -0.010930 
#    y 0.000000 1.649520 0.000000 
#    z -0.010930 0.000000 1.700910 
# 
# From -- ./inp_files/280221.got.cif
#   From: 2010.06.25/outbox.cif.g09.slc.cpg/sg12_141_cif.got.tgz:280221.got - 2010.06.28 00:19:55.
