data_PCOD8083674
_publ_section_title
;
Structure prediction by ZEFSAII (Michael W. Deem and Ramdas Pophale) SiO2 
 PCOD8083674
Probable space group: C 2/M
;
_chemical_formula_sum "Si O2"
_cell_formula_units_Z 64
_cell_length_a 20.100478
_cell_length_b 9.005000
_cell_length_c 19.113724
_cell_angle_alpha 90.000000
_cell_angle_beta 92.157665
_cell_angle_gamma 90.000000
_cell_volume 3457.222991
_symmetry_space_group_name_H-M "C 2/M"
_symmetry_group_IT_number 12
_symmetry_cell_setting 'monoclinic'
loop_
_space_group_symop_operation_xyz
x,y,z
-x,y,-z
-x,-y,-z
x,-y,z
1/2+x,1/2+y,z
1/2-x,1/2+y,-z
1/2-x,1/2-y,-z
1/2+x,1/2-y,z
loop_
_atom_site_type_symbol
_atom_site_label
_atom_site_fract_x
_atom_site_fract_y
_atom_site_fract_z
Si Si1 0.428216 0.824402 0.911238
Si Si2 0.979822 0.175680 0.292389
Si Si3 0.386795 0.675398 0.773923
Si Si4 0.295074 0.676160 0.442936
Si Si5 0.367331 0.170466 0.203924
Si Si6 0.250450 0.672042 0.699744
Si Si7 0.946507 0.823520 0.443178
Si Si8 0.923027 0.673013 0.064277
O O1 0.383483 0.746908 0.850526
O O2 0.504800 0.768100 0.907062
O O3 0.420836 0.000000 0.900915
O O4 0.402230 0.766918 0.986657
O O5 0.920063 0.222742 0.241052
O O6 0.966880 0.242663 0.368777
O O7 0.049325 0.237071 0.265422
O O8 0.981795 0.000000 0.296066
O O9 0.388590 0.500000 0.783923
O O10 0.323529 0.723538 0.725489
O O11 0.287168 0.500000 0.446832
O O12 0.250000 0.750000 0.500000
O O13 0.273258 0.728589 0.365463
O O14 0.371458 0.725647 0.459679
O O15 0.295469 0.199719 0.234145
O O16 0.367079 0.209348 0.120685
O O17 0.389777 0.000000 0.215802
O O18 0.248931 0.500000 0.676358
O O19 0.000000 0.757798 0.500000
O O20 0.950456 0.000000 0.442158
O O21 0.933461 0.500000 0.053431
#
# Coordination Sequence:
#
# PCOD8083674 Si02
#       8
#     8   8   8   8   8   8   8   8
#     4   9  16  30  51  75 104 137 180 224 262 314
#     4  10  19  33  54  78 104 134 176 220 260 311
#     4  10  21  34  51  78 111 143 175 218 268 317
#     4  11  23  39  60  82 109 142 178 216 258 316
#     4  10  18  33  56  78 103 137 178 221 265 313
#     4  10  22  38  56  78 109 145 177 214 264 320
#     4   9  19  35  57  81 104 136 174 213 258 311
#     4   8  15  28  50  77 103 136 176 220 269 316
#
# _framework density 18.511966999999999
#
# number of rings (size 3 to 8) (size 9 to 14) (size 15 to 20)
#    0.000    2.375    2.500    1.125    1.750    0.500 
#    0.000    2.500    0.000    1.875    0.000    0.000 
#    0.000    0.000    0.000    0.000    0.000    0.000 
#
# Total GULP energy -396684.747293 kJ/mol
# GULP energy per Si atom -12396.398353 kJ/mol
# Density = 1.846983 g / cm^3
# Si number density = 18.511967 Si / 1000 Ang^3
#
#
#
# Elastic Constant Matrix: (Units=GPa)
#
#
# Indices 1 2 3 4 5 6 
#
# 1 107.9728 23.2426 57.0620 0.0000 3.1319 0.0000
# 2 23.2426 26.5540 29.9586 0.0000 3.2375 0.0000
# 3 57.0620 29.9586 135.9341 0.0000 -10.6075 0.0000
# 4 0.0000 0.0000 0.0000 29.8176 0.0000 2.0118
# 5 3.1319 3.2375 -10.6075 0.0000 32.3195 0.0000
# 6 0.0000 0.0000 0.0000 2.0118 0.0000 19.5461
#
#
#
# Elastic Compliance Matrix: (Units=1/GPa)
#
#
# Indices 1 2 3 4 5 6 
#
# 1 0.012885 -0.006335 -0.004167 0.000000 -0.001982 0.000000
# 2 -0.006335 0.055845 -0.010301 0.000000 -0.008361 0.000000
# 3 -0.004167 -0.010301 0.011790 0.000000 0.005305 0.000000
# 4 0.000000 0.000000 0.000000 0.033772 0.000000 -0.003476
# 5 -0.001982 -0.008361 0.005305 0.000000 0.033712 0.000000
# 6 0.000000 0.000000 0.000000 -0.003476 0.000000 0.051519
#
#
# Mechanical properties :
#
#
# Convention : Reuss Voigt Hill
#
# Bulk Modulus (GPa) = 25.69777 54.55414 40.12596
# Shear Modulus (GPa) = 19.67722 27.01650 23.34686
#
# Velocity S-wave (km/s) = 3.26382 3.82436 3.55516
# Velocity P-wave (km/s) = 5.30238 7.00247 6.21087
#
# Compressibility (1/GPa) = 0.03891388
#
# Stress axis : x y z
#
# Youngs Moduli (GPa) = 77.60865 17.90660 84.81698
#
# Poissons Ratio (x) = 0.11344 0.35346
# Poissons Ratio (y) = 0.49166 0.87369
# Poissons Ratio (z) = 0.32342 0.18445
#
# Static dielectric constant tensor:
#      x y z
#    x 3.478460 0.000000 -0.183620 
#    y 0.000000 3.087190 0.000000 
#    z -0.183620 0.000000 3.718170 
# 
# 
# High freq. dielectric constant tensor:
#      x y z
#    x 1.709540 0.000000 -0.010480 
#    y 0.000000 1.685850 0.000000 
#    z -0.010480 0.000000 1.734180 
# 
# From -- ./inp_files/314152.got.cif
#   From: 2010.06.25/outbox.cif.g09.slc.cpg/sg12_158_cif.got.tgz:314152.got - 2010.06.28 00:19:55.
