data_PCOD8083425
_publ_section_title
;
Structure prediction by ZEFSAII (Michael W. Deem and Ramdas Pophale) SiO2 
 PCOD8083425
Probable space group: C 2/M
;
_chemical_formula_sum "Si O2"
_cell_formula_units_Z 60
_cell_length_a 26.083129
_cell_length_b 16.539643
_cell_length_c 14.413946
_cell_angle_alpha 90.000000
_cell_angle_beta 149.410852
_cell_angle_gamma 90.000000
_cell_volume 3164.336864
_symmetry_space_group_name_H-M "C 2/M"
_symmetry_group_IT_number 12
_symmetry_cell_setting 'monoclinic'
loop_
_space_group_symop_operation_xyz
x,y,z
-x,y,-z
-x,-y,-z
x,-y,z
1/2+x,1/2+y,z
1/2-x,1/2+y,-z
1/2-x,1/2-y,-z
1/2+x,1/2-y,z
loop_
_atom_site_type_symbol
_atom_site_label
_atom_site_fract_x
_atom_site_fract_y
_atom_site_fract_z
Si Si1 0.633965 0.831632 0.043570
Si Si2 0.000000 0.273158 0.000000
Si Si3 0.551793 0.907349 0.324411
Si Si4 0.641784 0.753005 0.371267
Si Si5 0.595746 0.170892 0.582961
Si Si6 0.855068 0.163708 0.437850
Si Si7 0.704969 0.301674 0.013157
Si Si8 0.462943 0.409657 0.344054
O O1 0.745096 0.867337 0.235217
O O2 0.647698 0.748984 0.005016
O O3 0.578896 0.822783 0.057906
O O4 0.567896 0.892732 0.878242
O O5 0.934563 0.220156 0.826705
O O6 0.613306 0.845018 0.355123
O O7 0.579772 0.891675 0.474469
O O8 0.579077 0.000000 0.341425
O O9 0.750000 0.750000 0.500000
O O10 0.641130 0.689963 0.451279
O O11 0.500000 0.162710 0.500000
O O12 0.605334 0.262577 0.563381
O O13 0.701390 0.148037 0.797686
O O14 0.934712 0.090961 0.556981
O O15 0.750000 0.250000 0.000000
O O16 0.624323 0.359837 0.840828
O O17 0.500000 0.372953 0.500000
O O18 0.421742 0.500000 0.291694
#
# Coordination Sequence:
#
# PCOD8083425 Si02
#       8
#     8   4   8   8   8   8   8   8
#     4  10  20  34  59  85 109 149 190 238 285 336
#     4  10  18  32  57  88 109 136 194 238 288 328
#     4  10  22  37  53  82 119 149 182 232 291 343
#     4  10  19  36  60  82 110 145 191 239 279 340
#     4  10  20  35  59  84 110 149 194 237 275 332
#     4  10  19  36  58  84 111 145 193 234 278 337
#     4  11  21  37  61  85 111 151 199 239 280 337
#     4  11  23  37  54  81 118 151 182 231 286 338
#
# _framework density 18.961320000000001
#
# number of rings (size 3 to 8) (size 9 to 14) (size 15 to 20)
#    0.000    1.733    1.333    6.000    0.000    1.333 
#    0.000    9.333    0.000    0.000    0.000    2.333 
#    0.000    0.000    0.000    0.000    0.000    0.000 
#
# Total GULP energy -371701.187955 kJ/mol
# GULP energy per Si atom -12390.039598 kJ/mol
# Density = 1.891816 g / cm^3
# Si number density = 18.961320 Si / 1000 Ang^3
#
#
#
# Elastic Constant Matrix: (Units=GPa)
#
#
# Indices 1 2 3 4 5 6 
#
# 1 120.1215 29.8704 58.8982 0.0000 1.6299 0.0000
# 2 29.8704 49.1498 37.7280 0.0000 -2.9735 0.0000
# 3 58.8982 37.7280 188.1141 0.0000 -8.9803 0.0000
# 4 0.0000 0.0000 0.0000 11.1530 0.0000 0.9831
# 5 1.6299 -2.9735 -8.9803 0.0000 36.7604 0.0000
# 6 0.0000 0.0000 0.0000 0.9831 0.0000 7.2001
#
#
#
# Elastic Compliance Matrix: (Units=1/GPa)
#
#
# Indices 1 2 3 4 5 6 
#
# 1 0.010734 -0.004703 -0.002487 0.000000 -0.001464 0.000000
# 2 -0.004703 0.026130 -0.003701 0.000000 0.001418 0.000000
# 3 -0.002487 -0.003701 0.006908 0.000000 0.001499 0.000000
# 4 0.000000 0.000000 0.000000 0.090754 0.000000 -0.012391
# 5 -0.001464 0.001418 0.001499 0.000000 0.027749 0.000000
# 6 0.000000 0.000000 0.000000 -0.012391 0.000000 0.140578
#
#
# Mechanical properties :
#
#
# Convention : Reuss Voigt Hill
#
# Bulk Modulus (GPa) = 45.47247 67.81986 56.64617
# Shear Modulus (GPa) = 15.06178 26.41528 20.73853
#
# Velocity S-wave (km/s) = 2.82147 3.73649 3.31074
# Velocity P-wave (km/s) = 5.88625 7.37972 6.67489
#
# Compressibility (1/GPa) = 0.02199133
#
# Stress axis : x y z
#
# Youngs Moduli (GPa) = 93.16347 38.26971 144.74943
#
# Poissons Ratio (x) = 0.17996 0.36006
# Poissons Ratio (y) = 0.43811 0.53566
# Poissons Ratio (z) = 0.23174 0.14162
#
# Static dielectric constant tensor:
#      x y z
#    x 4.050680 0.000000 -0.310030 
#    y 0.000000 3.031780 0.000000 
#    z -0.310030 0.000000 4.190640 
# 
# 
# High freq. dielectric constant tensor:
#      x y z
#    x 1.750540 0.000000 -0.002150 
#    y 0.000000 1.683900 0.000000 
#    z -0.002150 0.000000 1.768640 
# 
# From -- ./inp_files/246753.got.cif
#   From: 2010.06.25/outbox.cif.g09.slc.cpg/sg12_124_cif.got.tgz:246753.got - 2010.06.28 00:19:55.
