data_PCOD8083465
_publ_section_title
;
Structure prediction by ZEFSAII (Michael W. Deem and Ramdas Pophale) SiO2 
 PCOD8083465
Probable space group: C 2/M
;
_chemical_formula_sum "Si O2"
_cell_formula_units_Z 56
_cell_length_a 19.539824
_cell_length_b 19.008425
_cell_length_c 9.073875
_cell_angle_alpha 90.000000
_cell_angle_beta 62.704742
_cell_angle_gamma 90.000000
_cell_volume 2994.972607
_symmetry_space_group_name_H-M "C 2/M"
_symmetry_group_IT_number 12
_symmetry_cell_setting 'monoclinic'
loop_
_space_group_symop_operation_xyz
x,y,z
-x,y,-z
-x,-y,-z
x,-y,z
1/2+x,1/2+y,z
1/2-x,1/2+y,-z
1/2-x,1/2-y,-z
1/2+x,1/2-y,z
loop_
_atom_site_type_symbol
_atom_site_label
_atom_site_fract_x
_atom_site_fract_y
_atom_site_fract_z
Si Si1 0.589380 0.175742 0.545562
Si Si2 0.806914 0.220291 0.732919
Si Si3 0.210016 0.080134 0.778299
Si Si4 0.343668 0.298165 0.016635
Si Si5 0.739060 0.166417 0.539564
Si Si6 0.955868 0.674389 0.897791
Si Si7 0.379193 0.919824 0.742022
O O1 0.625320 0.242343 0.425799
O O2 0.649064 0.147594 0.611165
O O3 0.512791 0.196542 0.708592
O O4 0.573528 0.115311 0.439794
O O5 0.740274 0.275909 0.839100
O O6 0.770205 0.155526 0.675286
O O7 0.845038 0.190371 0.840994
O O8 0.142925 0.124446 0.927722
O O9 0.214820 0.114842 0.612640
O O10 0.288793 0.085866 0.794751
O O11 0.183224 0.000000 0.787742
O O12 0.408832 0.242676 0.999365
O O13 0.750000 0.250000 0.500000
O O14 0.897249 0.617943 0.881839
O O15 0.000000 0.644610 0.000000
O O16 0.406524 0.000000 0.729008
#
# Coordination Sequence:
#
# PCOD8083465 Si02
#       7
#     8   8   8   8   8   8   8
#     4  10  19  35  50  81 110 146 189 227 275 343
#     4  10  18  32  59  81 105 142 191 241 277 318
#     4  10  20  36  60  87 113 147 189 234 287 341
#     4  11  19  35  55  85 109 147 185 241 282 326
#     4   9  16  32  56  82 102 143 186 235 278 325
#     4  12  25  33  52  85 120 148 198 234 278 330
#     4  10  20  38  58  78 115 160 192 224 278 344
#
# _framework density 18.698001000000001
#
# number of rings (size 3 to 8) (size 9 to 14) (size 15 to 20)
#    0.000    1.714    5.714    2.143    2.000    1.429 
#    0.000    0.714    0.000    6.429    0.000    1.000 
#    0.000    0.000    0.000    0.000    0.000    0.000 
#
# Total GULP energy -346923.644995 kJ/mol
# GULP energy per Si atom -12390.130178 kJ/mol
# Density = 1.865544 g / cm^3
# Si number density = 18.698001 Si / 1000 Ang^3
#
#
#
# Elastic Constant Matrix: (Units=GPa)
#
#
# Indices 1 2 3 4 5 6 
#
# 1 59.0728 30.7380 20.2695 0.0000 26.7114 0.0000
# 2 30.7380 121.1347 41.3541 0.0000 8.9540 0.0000
# 3 20.2695 41.3541 69.9638 0.0000 8.4151 0.0000
# 4 0.0000 0.0000 0.0000 25.5802 0.0000 3.6087
# 5 26.7114 8.9540 8.4151 0.0000 39.9247 0.0000
# 6 0.0000 0.0000 0.0000 3.6087 0.0000 18.8176
#
#
#
# Elastic Compliance Matrix: (Units=1/GPa)
#
#
# Indices 1 2 3 4 5 6 
#
# 1 0.028322 -0.004787 -0.003310 0.000000 -0.017178 0.000000
# 2 -0.004787 0.011195 -0.005452 0.000000 0.001841 0.000000
# 3 -0.003310 -0.005452 0.018531 0.000000 -0.000469 0.000000
# 4 0.000000 0.000000 0.000000 0.040180 0.000000 -0.007705
# 5 -0.017178 0.001841 -0.000469 0.000000 0.036226 0.000000
# 6 0.000000 0.000000 0.000000 -0.007705 0.000000 0.054619
#
#
# Mechanical properties :
#
#
# Convention : Reuss Voigt Hill
#
# Bulk Modulus (GPa) = 32.30924 48.32161 40.31542
# Shear Modulus (GPa) = 22.07634 27.38516 24.73075
#
# Velocity S-wave (km/s) = 3.43983 3.83117 3.64076
# Velocity P-wave (km/s) = 5.75270 6.74313 6.26751
#
# Compressibility (1/GPa) = 0.03095090
#
# Stress axis : x y z
#
# Youngs Moduli (GPa) = 35.30804 89.32501 53.96437
#
# Poissons Ratio (x) = 0.42761 0.17860
# Poissons Ratio (y) = 0.16902 0.29420
# Poissons Ratio (z) = 0.11686 0.48697
#
# Static dielectric constant tensor:
#      x y z
#    x 3.686220 0.000000 0.418260 
#    y 0.000000 3.320890 0.000000 
#    z 0.418260 0.000000 3.600560 
# 
# 
# High freq. dielectric constant tensor:
#      x y z
#    x 1.718240 0.000000 0.019120 
#    y 0.000000 1.688000 0.000000 
#    z 0.019120 0.000000 1.726660 
# 
# From -- ./inp_files/87851.got.cif
#   From: 2010.06.25/outbox.cif.g09.slc.cpg/sg12_44_cif.got.tgz:87851.got - 2010.06.28 00:19:55.
