data_PCOD8083965
_publ_section_title
;
Structure prediction by ZEFSAII (Michael W. Deem and Ramdas Pophale) SiO2 
 PCOD8083965
Probable space group: C 2/M
;
_chemical_formula_sum "Si O2"
_cell_formula_units_Z 56
_cell_length_a 9.085559
_cell_length_b 27.472049
_cell_length_c 13.943903
_cell_angle_alpha 90.000000
_cell_angle_beta 121.796442
_cell_angle_gamma 90.000000
_cell_volume 2958.066099
_symmetry_space_group_name_H-M "C 2/M"
_symmetry_group_IT_number 12
_symmetry_cell_setting 'monoclinic'
loop_
_space_group_symop_operation_xyz
x,y,z
-x,y,-z
-x,-y,-z
x,-y,z
1/2+x,1/2+y,z
1/2-x,1/2+y,-z
1/2-x,1/2-y,-z
1/2+x,1/2-y,z
loop_
_atom_site_type_symbol
_atom_site_label
_atom_site_fract_x
_atom_site_fract_y
_atom_site_fract_z
Si Si1 0.198612 0.220356 0.097164
Si Si2 0.190893 0.365016 0.392806
Si Si3 0.907018 0.703521 0.349255
Si Si4 0.303593 0.173211 0.958269
Si Si5 0.376723 0.376160 0.263359
Si Si6 0.868422 0.201796 0.587307
Si Si7 0.384533 0.445922 0.554614
O O1 0.242653 0.212989 0.223546
O O2 0.273289 0.274095 0.099954
O O3 0.287075 0.175605 0.068109
O O4 0.000000 0.218675 0.000000
O O5 0.225301 0.375851 0.292340
O O6 0.332489 0.323816 0.472149
O O7 0.220062 0.412356 0.471233
O O8 0.995588 0.346864 0.344603
O O9 0.820890 0.700413 0.424434
O O10 0.061073 0.743695 0.399197
O O11 0.205388 0.128132 0.871636
O O12 0.500000 0.166466 0.000000
O O13 0.490878 0.327991 0.306682
O O14 0.499732 0.423358 0.318858
O O15 0.500000 0.447822 0.500000
O O16 0.323426 0.500000 0.564159
#
# Coordination Sequence:
#
# PCOD8083965 Si02
#       7
#     8   8   8   8   8   8   8
#     4  10  21  32  47  66  94 134 175 213 242 279
#     4  10  21  33  50  75 103 131 166 204 251 305
#     4  12  22  33  49  70 102 138 174 211 247 291
#     4  10  19  31  48  67  95 130 175 212 244 283
#     4  10  18  34  54  73 100 134 170 208 252 304
#     4  11  22  33  47  70 102 139 173 204 243 299
#     4   8  16  32  55  80 103 128 161 205 259 317
#
# _framework density 18.931287999999999
#
# number of rings (size 3 to 8) (size 9 to 14) (size 15 to 20)
#    0.000    1.857    1.429    4.714    4.000    1.143 
#    0.000    0.000    0.000    7.286    0.000    1.000 
#    0.000    5.714    0.000    0.000    0.000    0.000 
#
# Total GULP energy -346934.471663 kJ/mol
# GULP energy per Si atom -12390.516845 kJ/mol
# Density = 1.888820 g / cm^3
# Si number density = 18.931288 Si / 1000 Ang^3
#
#
#
# Elastic Constant Matrix: (Units=GPa)
#
#
# Indices 1 2 3 4 5 6 
#
# 1 54.8599 10.5441 -7.2709 0.0000 3.8547 0.0000
# 2 10.5441 97.7288 27.9270 0.0000 5.0723 0.0000
# 3 -7.2709 27.9270 56.8852 0.0000 -3.9466 0.0000
# 4 0.0000 0.0000 0.0000 17.6545 0.0000 3.0542
# 5 3.8547 5.0723 -3.9466 0.0000 20.6250 0.0000
# 6 0.0000 0.0000 0.0000 3.0542 0.0000 15.2540
#
#
#
# Elastic Compliance Matrix: (Units=1/GPa)
#
#
# Indices 1 2 3 4 5 6 
#
# 1 0.019485 -0.003094 0.003861 0.000000 -0.002142 0.000000
# 2 -0.003094 0.012746 -0.006922 0.000000 -0.003881 0.000000
# 3 0.003861 -0.006922 0.021829 0.000000 0.005158 0.000000
# 4 0.000000 0.000000 0.000000 0.058675 0.000000 -0.011748
# 5 -0.002142 -0.003881 0.005158 0.000000 0.050826 0.000000
# 6 0.000000 0.000000 0.000000 -0.011748 0.000000 0.067909
#
#
# Mechanical properties :
#
#
# Convention : Reuss Voigt Hill
#
# Bulk Modulus (GPa) = 23.95263 30.20825 27.08044
# Shear Modulus (GPa) = 19.40260 22.59162 20.99711
#
# Velocity S-wave (km/s) = 3.20487 3.45824 3.33396
# Velocity P-wave (km/s) = 5.13564 5.65131 5.39963
#
# Compressibility (1/GPa) = 0.04174907
#
# Stress axis : x y z
#
# Youngs Moduli (GPa) = 51.32083 78.45752 45.81070
#
# Poissons Ratio (x) = 0.24279 -0.17688
# Poissons Ratio (y) = 0.15881 0.31711
# Poissons Ratio (z) = -0.19816 0.54309
#
# Static dielectric constant tensor:
#      x y z
#    x 3.407530 0.000000 -0.079590 
#    y 0.000000 3.464350 0.000000 
#    z -0.079590 0.000000 3.554000 
# 
# 
# High freq. dielectric constant tensor:
#      x y z
#    x 1.727400 0.000000 0.007040 
#    y 0.000000 1.683510 0.000000 
#    z 0.007040 0.000000 1.740430 
# 
# From -- ./inp_files/185127.got.cif
#   From: 2010.06.25/outbox.cif.g09.slc.cpg/sg12_93_cif.got.tgz:185127.got - 2010.06.28 00:19:55.
