data_PCOD8083423
_publ_section_title
;
Structure prediction by ZEFSAII (Michael W. Deem and Ramdas Pophale) SiO2 
 PCOD8083423
Probable space group: C 2/M
;
_chemical_formula_sum "Si O2"
_cell_formula_units_Z 56
_cell_length_a 15.246821
_cell_length_b 8.430823
_cell_length_c 24.427405
_cell_angle_alpha 90.000000
_cell_angle_beta 119.113015
_cell_angle_gamma 90.000000
_cell_volume 2743.278609
_symmetry_space_group_name_H-M "C 2/M"
_symmetry_group_IT_number 12
_symmetry_cell_setting 'monoclinic'
loop_
_space_group_symop_operation_xyz
x,y,z
-x,y,-z
-x,-y,-z
x,-y,z
1/2+x,1/2+y,z
1/2-x,1/2+y,-z
1/2-x,1/2-y,-z
1/2+x,1/2-y,z
loop_
_atom_site_type_symbol
_atom_site_label
_atom_site_fract_x
_atom_site_fract_y
_atom_site_fract_z
Si Si1 0.079766 0.315282 0.781713
Si Si2 0.733820 0.815090 0.434693
Si Si3 0.010762 0.686338 0.133634
Si Si4 0.518767 0.682596 0.353722
Si Si5 0.420272 0.185716 0.429945
Si Si6 0.294144 0.814375 0.865777
Si Si7 0.651634 0.813079 0.997990
O O1 0.056845 0.500000 0.764394
O O2 0.197877 0.292795 0.826299
O O3 0.021819 0.246260 0.817262
O O4 0.044362 0.213077 0.719800
O O5 0.750000 0.750000 0.500000
O O6 0.619314 0.787160 0.382472
O O7 0.808258 0.729543 0.414900
O O8 0.758051 0.000000 0.441317
O O9 0.991620 0.500000 0.128647
O O10 0.127366 0.724927 0.158768
O O11 0.943171 0.759469 0.063909
O O12 0.550443 0.500000 0.367112
O O13 0.447168 0.723825 0.382719
O O14 0.500000 0.238497 0.500000
O O15 0.427020 0.000000 0.420365
O O16 0.264400 0.000000 0.857613
O O17 0.348766 0.762703 0.938678
O O18 0.648737 0.000000 0.992919
O O19 0.750000 0.750000 0.000000
#
# Coordination Sequence:
#
# PCOD8083423 Si02
#       7
#     8   8   8   8   8   8   8
#     4  11  23  41  61  84 121 162 204 255 312 374
#     4  12  24  41  67  99 132 167 207 253 310 370
#     4   9  19  36  59  85 117 159 203 247 306 369
#     4  12  26  44  66  93 128 168 214 262 313 375
#     4  11  23  41  68  99 130 163 204 255 312 373
#     4  10  20  36  60  87 117 156 206 255 305 371
#     4  10  18  32  57  87 117 153 198 253 309 367
#
# _framework density 20.413530000000002
#
# number of rings (size 3 to 8) (size 9 to 14) (size 15 to 20)
#    0.000    1.286    2.857    3.857    0.000    3.429 
#    0.000    6.429    0.000    1.714    0.000    0.000 
#    0.000    0.000    0.000    0.000    0.000    0.000 
#
# Total GULP energy -347282.108825 kJ/mol
# GULP energy per Si atom -12402.932458 kJ/mol
# Density = 2.036707 g / cm^3
# Si number density = 20.413530 Si / 1000 Ang^3
#
#
#
# Elastic Constant Matrix: (Units=GPa)
#
#
# Indices 1 2 3 4 5 6 
#
# 1 140.9168 8.2151 49.5673 0.0000 -14.4519 0.0000
# 2 8.2151 48.5151 26.9480 0.0000 -0.7808 0.0000
# 3 49.5673 26.9480 111.9840 0.0000 -26.2367 0.0000
# 4 0.0000 0.0000 0.0000 21.8384 0.0000 4.9612
# 5 -14.4519 -0.7808 -26.2367 0.0000 14.6936 0.0000
# 6 0.0000 0.0000 0.0000 4.9612 0.0000 31.9590
#
#
#
# Elastic Compliance Matrix: (Units=1/GPa)
#
#
# Indices 1 2 3 4 5 6 
#
# 1 0.008479 0.000413 -0.003255 0.000000 0.002549 0.000000
# 2 0.000413 0.026029 -0.010362 0.000000 -0.016713 0.000000
# 3 -0.003255 -0.010362 0.020605 0.000000 0.033040 0.000000
# 4 0.000000 0.000000 0.000000 0.047465 0.000000 -0.007368
# 5 0.002549 -0.016713 0.033040 0.000000 0.128672 0.000000
# 6 0.000000 0.000000 0.000000 -0.007368 0.000000 0.032434
#
#
# Mechanical properties :
#
#
# Convention : Reuss Voigt Hill
#
# Bulk Modulus (GPa) = 34.83760 52.31963 43.57862
# Shear Modulus (GPa) = 16.68555 28.14389 22.41472
#
# Velocity S-wave (km/s) = 2.86208 3.71710 3.31725
# Velocity P-wave (km/s) = 5.29386 6.64138 6.00554
#
# Compressibility (1/GPa) = 0.02870462
#
# Stress axis : x y z
#
# Youngs Moduli (GPa) = 117.94256 38.41864 48.53102
#
# Poissons Ratio (x) = -0.01589 0.15798
# Poissons Ratio (y) = -0.04877 0.50290
# Poissons Ratio (z) = 0.38394 0.39811
#
# Static dielectric constant tensor:
#      x y z
#    x 3.934830 0.000000 -0.091480 
#    y 0.000000 3.580270 0.000000 
#    z -0.091480 0.000000 3.817340 
# 
# 
# High freq. dielectric constant tensor:
#      x y z
#    x 1.811920 0.000000 -0.003890 
#    y 0.000000 1.783760 0.000000 
#    z -0.003890 0.000000 1.798410 
# 
# From -- ./inp_files/339015.got.cif
#   From: 2010.06.25/outbox.cif.g09.slc.cpg/sg12_170_cif.got.tgz:339015.got - 2010.06.28 00:19:55.
