data_PCOD8083454
_publ_section_title
;
Structure prediction by ZEFSAII (Michael W. Deem and Ramdas Pophale) SiO2 
 PCOD8083454
Probable space group: C 2/M
;
_chemical_formula_sum "Si O2"
_cell_formula_units_Z 48
_cell_length_a 20.535094
_cell_length_b 12.062646
_cell_length_c 23.194090
_cell_angle_alpha 90.000000
_cell_angle_beta 27.839373
_cell_angle_gamma 90.000000
_cell_volume 2683.047075
_symmetry_space_group_name_H-M "C 2/M"
_symmetry_group_IT_number 12
_symmetry_cell_setting 'monoclinic'
loop_
_space_group_symop_operation_xyz
x,y,z
-x,y,-z
-x,-y,-z
x,-y,z
1/2+x,1/2+y,z
1/2-x,1/2+y,-z
1/2-x,1/2-y,-z
1/2+x,1/2-y,z
loop_
_atom_site_type_symbol
_atom_site_label
_atom_site_fract_x
_atom_site_fract_y
_atom_site_fract_z
Si Si1 0.721620 0.627217 0.261239
Si Si2 0.696017 0.000000 0.168856
Si Si3 0.939045 0.695712 0.185468
Si Si4 0.626344 0.285897 0.942432
Si Si5 0.889452 0.500000 0.425694
Si Si6 0.000000 0.251929 0.500000
Si Si7 0.738261 0.877190 0.379808
Si Si8 0.994464 0.500000 0.782966
O O1 0.706589 0.500000 0.254771
O O2 0.825037 0.637154 0.234528
O O3 0.780439 0.691848 0.160208
O O4 0.569736 0.673960 0.396823
O O5 0.782142 0.892345 0.117206
O O6 0.552284 0.000000 0.318046
O O7 0.654740 0.000000 0.133102
O O8 0.873271 0.799353 0.271447
O O9 0.995954 0.609625 0.186992
O O10 0.070063 0.737486 0.046285
O O11 0.500000 0.321946 0.000000
O O12 0.879810 0.500000 0.363566
O O13 0.815921 0.390767 0.511442
O O14 0.883081 0.329258 0.564655
O O15 0.777394 0.000000 0.324726
#
# Coordination Sequence:
#
# PCOD8083454 Si02
#       8
#     8   4   8   8   4   4   8   4
#     4  10  20  35  58  88 118 148 186 237 284 342
#     4  10  21  39  56  83 115 150 187 233 292 330
#     4  10  21  36  60  83 110 157 197 227 282 334
#     4  10  22  36  61  88 115 147 183 245 286 343
#     4   8  20  35  55  79 106 152 181 237 277 323
#     4  10  18  32  58  88 120 148 180 232 294 348
#     4   9  19  35  56  84 114 146 187 235 289 335
#     4  10  22  39  58  79 114 158 196 233 267 347
#
# _framework density 17.890108000000001
#
# number of rings (size 3 to 8) (size 9 to 14) (size 15 to 20)
#    1.000    1.333    0.833    1.750    2.333    2.333 
#    9.000    0.000    0.000    0.000    0.000    0.000 
#    0.000    0.000    0.000    0.000    0.000    0.000 
#
# Total GULP energy -297487.101498 kJ/mol
# GULP energy per Si atom -12395.295896 kJ/mol
# Density = 1.784939 g / cm^3
# Si number density = 17.890108 Si / 1000 Ang^3
#
#
#
# Elastic Constant Matrix: (Units=GPa)
#
#
# Indices 1 2 3 4 5 6 
#
# 1 72.4308 60.2116 41.1662 -0.0002 16.3211 0.0001
# 2 60.2116 164.6821 71.4970 0.0007 6.3774 -0.0002
# 3 41.1662 71.4970 133.8082 0.0029 21.6549 -0.0013
# 4 -0.0002 0.0007 0.0029 18.0720 -0.0005 15.3457
# 5 16.3211 6.3774 21.6549 -0.0005 27.4966 0.0002
# 6 0.0001 -0.0002 -0.0013 15.3457 0.0002 20.3181
#
#
#
# Elastic Compliance Matrix: (Units=1/GPa)
#
#
# Indices 1 2 3 4 5 6 
#
# 1 0.023301 -0.007492 -0.001385 0.000002 -0.011002 -0.000001
# 2 -0.007492 0.010386 -0.004097 0.000001 0.005264 -0.000001
# 3 -0.001385 -0.004097 0.011233 -0.000007 -0.007075 0.000006
# 4 0.000002 0.000001 -0.000007 0.154278 0.000008 -0.116522
# 5 -0.011002 0.005264 -0.007075 0.000008 0.047249 -0.000007
# 6 -0.000001 -0.000001 0.000006 -0.116522 -0.000007 0.137223
#
#
# Mechanical properties :
#
#
# Convention : Reuss Voigt Hill
#
# Bulk Modulus (GPa) = 52.70559 79.63005 66.16782
# Shear Modulus (GPa) = 12.02091 26.38041 19.20066
#
# Velocity S-wave (km/s) = 2.59497 3.84419 3.27961
# Velocity P-wave (km/s) = 6.20510 8.01942 7.16988
#
# Compressibility (1/GPa) = 0.01897332
#
# Stress axis : x y z
#
# Youngs Moduli (GPa) = 42.91747 96.28102 89.02108
#
# Poissons Ratio (x) = 0.72133 0.12327
# Poissons Ratio (y) = 0.32154 0.36469
# Poissons Ratio (z) = 0.05943 0.39443
#
# Static dielectric constant tensor:
#      x y z
#    x 2.998590 0.000000 0.105820 
#    y 0.000000 3.315450 0.000000 
#    z 0.105820 0.000000 3.486600 
# 
# 
# High freq. dielectric constant tensor:
#      x y z
#    x 1.662770 0.000000 0.010120 
#    y 0.000000 1.700090 0.000000 
#    z 0.010120 0.000000 1.700900 
# 
# From -- ./inp_files/346786.got.cif
#   From: 2010.06.25/outbox.cif.g09.slc.cpg/sg12_174_cif.got.tgz:346786.got - 2010.06.28 00:19:55.
