data_PCOD8083502
_publ_section_title
;
Structure prediction by ZEFSAII (Michael W. Deem and Ramdas Pophale) SiO2 
 PCOD8083502
Probable space group: C 2/M
;
_chemical_formula_sum "Si O2"
_cell_formula_units_Z 56
_cell_length_a 8.883480
_cell_length_b 27.238543
_cell_length_c 13.434704
_cell_angle_alpha 90.000000
_cell_angle_beta 71.752180
_cell_angle_gamma 90.000000
_cell_volume 3087.355154
_symmetry_space_group_name_H-M "C 2/M"
_symmetry_group_IT_number 12
_symmetry_cell_setting 'monoclinic'
loop_
_space_group_symop_operation_xyz
x,y,z
-x,y,-z
-x,-y,-z
x,-y,z
1/2+x,1/2+y,z
1/2-x,1/2+y,-z
1/2-x,1/2-y,-z
1/2+x,1/2-y,z
loop_
_atom_site_type_symbol
_atom_site_label
_atom_site_fract_x
_atom_site_fract_y
_atom_site_fract_z
Si Si1 0.415476 0.799467 0.647610
Si Si2 0.604694 0.626563 0.276421
Si Si3 0.786457 0.797114 0.595784
Si Si4 0.179555 0.055104 0.424901
Si Si5 0.775137 0.869278 0.429897
Si Si6 0.315165 0.282947 0.128532
Si Si7 0.158910 0.188546 0.091065
O O1 0.597179 0.795338 0.636113
O O2 0.356286 0.757743 0.582021
O O3 0.379007 0.850580 0.597598
O O4 0.318862 0.800309 0.769069
O O5 0.653602 0.677797 0.316180
O O6 0.693801 0.581332 0.313480
O O7 0.415473 0.617338 0.323463
O O8 0.658959 0.635795 0.150090
O O9 0.848583 0.826828 0.486876
O O10 0.277218 0.084914 0.489010
O O11 0.000000 0.055777 0.500000
O O12 0.246502 0.000000 0.401330
O O13 0.291837 0.226042 0.103809
O O14 0.486629 0.286604 0.144546
O O15 0.309171 0.318960 0.033090
#
# Coordination Sequence:
#
# PCOD8083502 Si02
#       7
#     8   8   8   8   8   8   8
#     4  12  20  32  44  66  97 134 164 196 230 270
#     4  10  18  33  50  69  95 122 160 199 239 282
#     4  11  22  30  44  66  98 132 166 193 225 279
#     4   8  16  31  52  75  94 117 153 199 243 292
#     4  10  20  32  47  68  96 124 158 193 236 284
#     4  10  20  31  47  63  94 131 166 197 225 272
#     4  10  19  33  46  67  91 131 166 196 233 265
#
# _framework density 18.138504000000001
#
# number of rings (size 3 to 8) (size 9 to 14) (size 15 to 20)
#    0.000    1.857    2.857    3.857    0.000    1.143 
#    0.000    0.000    0.000    6.857    0.000    3.000 
#    0.000    4.571    0.000    0.000    0.000    0.000 
#
# Total GULP energy -347039.829242 kJ/mol
# GULP energy per Si atom -12394.279616 kJ/mol
# Density = 1.809722 g / cm^3
# Si number density = 18.138504 Si / 1000 Ang^3
#
#
#
# Elastic Constant Matrix: (Units=GPa)
#
#
# Indices 1 2 3 4 5 6 
#
# 1 67.2051 16.8032 -4.4555 0.0000 -2.6012 0.0000
# 2 16.8032 97.8479 28.5859 0.0000 8.3965 0.0000
# 3 -4.4555 28.5859 94.4614 0.0000 -1.0577 0.0000
# 4 0.0000 0.0000 0.0000 20.4559 0.0000 3.3643
# 5 -2.6012 8.3965 -1.0577 0.0000 19.5938 0.0000
# 6 0.0000 0.0000 0.0000 3.3643 0.0000 15.3026
#
#
#
# Elastic Compliance Matrix: (Units=1/GPa)
#
#
# Indices 1 2 3 4 5 6 
#
# 1 0.016063 -0.003640 0.001902 0.000000 0.003795 0.000000
# 2 -0.003640 0.012546 -0.004036 0.000000 -0.006077 0.000000
# 3 0.001902 -0.004036 0.011927 0.000000 0.002626 0.000000
# 4 0.000000 0.000000 0.000000 0.050720 0.000000 -0.011151
# 5 0.003795 -0.006077 0.002626 0.000000 0.054286 0.000000
# 6 0.000000 0.000000 0.000000 -0.011151 0.000000 0.067800
#
#
# Mechanical properties :
#
#
# Convention : Reuss Voigt Hill
#
# Bulk Modulus (GPa) = 34.49862 37.93127 36.21495
# Shear Modulus (GPa) = 21.31727 25.64252 23.47989
#
# Velocity S-wave (km/s) = 3.43191 3.76401 3.60179
# Velocity P-wave (km/s) = 5.89617 6.31251 6.10789
#
# Compressibility (1/GPa) = 0.02898666
#
# Stress axis : x y z
#
# Youngs Moduli (GPa) = 62.25577 79.70902 83.84424
#
# Poissons Ratio (x) = 0.29011 -0.15943
# Poissons Ratio (y) = 0.22658 0.33842
# Poissons Ratio (z) = -0.11838 0.32173
#
# Static dielectric constant tensor:
#      x y z
#    x 3.324470 0.000000 0.111860 
#    y 0.000000 3.199800 0.000000 
#    z 0.111860 0.000000 3.489530 
# 
# 
# High freq. dielectric constant tensor:
#      x y z
#    x 1.702650 0.000000 0.008760 
#    y 0.000000 1.648850 0.000000 
#    z 0.008760 0.000000 1.700260 
# 
# From -- ./inp_files/199303.got.cif
#   From: 2010.06.25/outbox.cif.g09.slc.cpg/sg12_100_cif.got.tgz:199303.got - 2010.06.28 00:19:55.
