data_PCOD8083275
_publ_section_title
;
Structure prediction by ZEFSAII (Michael W. Deem and Ramdas Pophale) SiO2 
 PCOD8083275
Probable space group: C 2/M
;
_chemical_formula_sum "Si O2"
_cell_formula_units_Z 44
_cell_length_a 24.659478
_cell_length_b 7.640079
_cell_length_c 12.738790
_cell_angle_alpha 90.000000
_cell_angle_beta 65.966611
_cell_angle_gamma 90.000000
_cell_volume 2191.933128
_symmetry_space_group_name_H-M "C 2/M"
_symmetry_group_IT_number 12
_symmetry_cell_setting 'monoclinic'
loop_
_space_group_symop_operation_xyz
x,y,z
-x,y,-z
-x,-y,-z
x,-y,z
1/2+x,1/2+y,z
1/2-x,1/2+y,-z
1/2-x,1/2-y,-z
1/2+x,1/2-y,z
loop_
_atom_site_type_symbol
_atom_site_label
_atom_site_fract_x
_atom_site_fract_y
_atom_site_fract_z
Si Si1 0.576088 0.000000 0.533588
Si Si2 0.469268 0.703322 0.135471
Si Si3 0.155827 0.197143 0.531186
Si Si4 0.334752 0.699682 0.243205
Si Si5 0.784933 0.194591 0.730099
Si Si6 0.863645 0.500000 0.735649
Si Si7 0.522042 0.000000 0.237503
O O1 0.600518 0.174044 0.569291
O O2 0.592246 0.000000 0.398757
O O3 0.507002 0.000000 0.621769
O O4 0.470357 0.500000 0.173006
O O5 0.401470 0.772792 0.177075
O O6 0.504087 0.824307 0.190082
O O7 0.500000 0.724012 0.000000
O O8 0.186873 0.224731 0.619264
O O9 0.201397 0.239703 0.402131
O O10 0.130741 0.000000 0.541577
O O11 0.334052 0.500000 0.208671
O O12 0.286785 0.793429 0.204861
O O13 0.820893 0.330244 0.774038
O O14 0.805443 0.000000 0.746556
O O15 0.906554 0.500000 0.802904
#
# Coordination Sequence:
#
# PCOD8083275 Si02
#       7
#     4   8   8   8   8   4   4
#     4  10  19  33  55  80 117 156 190 228 273 329
#     4  10  23  41  61  91 114 140 185 246 304 336
#     4   9  18  30  47  79 117 145 187 225 281 338
#     4  10  18  32  55  82 114 142 179 239 291 340
#     4  10  20  33  52  79 115 157 188 225 275 334
#     4  10  23  39  51  84 122 159 194 226 262 338
#     4  12  22  38  64  82 116 153 198 228 278 348
#
# _framework density 20.073606999999999
#
# number of rings (size 3 to 8) (size 9 to 14) (size 15 to 20)
#    0.000    2.000    2.727    1.091    2.545    0.727 
#    0.000    0.000    0.000    6.545    0.000    0.000 
#    0.000    0.000    0.000    0.000    0.000    0.000 
#
# Total GULP energy -272644.839175 kJ/mol
# GULP energy per Si atom -12392.947235 kJ/mol
# Density = 2.002792 g / cm^3
# Si number density = 20.073607 Si / 1000 Ang^3
#
#
#
# Elastic Constant Matrix: (Units=GPa)
#
#
# Indices 1 2 3 4 5 6 
#
# 1 166.9897 69.6401 26.0080 0.0000 4.4080 0.0000
# 2 69.6401 111.1643 12.8317 0.0000 7.4489 0.0000
# 3 26.0080 12.8317 33.9719 0.0000 -5.8281 0.0000
# 4 0.0000 0.0000 0.0000 27.3735 0.0000 11.4534
# 5 4.4080 7.4489 -5.8281 0.0000 14.5192 0.0000
# 6 0.0000 0.0000 0.0000 11.4534 0.0000 27.5065
#
#
#
# Elastic Compliance Matrix: (Units=1/GPa)
#
#
# Indices 1 2 3 4 5 6 
#
# 1 0.008890 -0.004782 -0.005415 0.000000 -0.002419 0.000000
# 2 -0.004782 0.012630 -0.002118 0.000000 -0.005878 0.000000
# 3 -0.005415 -0.002118 0.037427 0.000000 0.017754 0.000000
# 4 0.000000 0.000000 0.000000 0.044239 0.000000 -0.018421
# 5 -0.002419 -0.005878 0.017754 0.000000 0.079751 0.000000
# 6 0.000000 0.000000 0.000000 -0.018421 0.000000 0.044025
#
#
# Mechanical properties :
#
#
# Convention : Reuss Voigt Hill
#
# Bulk Modulus (GPa) = 29.13939 58.78728 43.96334
# Shear Modulus (GPa) = 19.00924 27.45623 23.23274
#
# Velocity S-wave (km/s) = 3.08064 3.70236 3.40572
# Velocity P-wave (km/s) = 5.21551 6.90116 6.11668
#
# Compressibility (1/GPa) = 0.03431781
#
# Stress axis : x y z
#
# Youngs Moduli (GPa) = 112.48846 79.17807 26.71861
#
# Poissons Ratio (x) = 0.37863 0.14467
# Poissons Ratio (y) = 0.53792 0.05659
# Poissons Ratio (z) = 0.60908 0.16769
#
# Static dielectric constant tensor:
#      x y z
#    x 3.521150 0.000000 -0.208000 
#    y 0.000000 3.786290 0.000000 
#    z -0.208000 0.000000 3.313030 
# 
# 
# High freq. dielectric constant tensor:
#      x y z
#    x 1.775260 0.000000 -0.017330 
#    y 0.000000 1.792730 0.000000 
#    z -0.017330 0.000000 1.743050 
# 
# From -- ./inp_files/163168.got.cif
#   From: 2010.06.25/outbox.cif.g09.slc.cpg/sg12_82_cif.got.tgz:163168.got - 2010.06.28 00:19:55.
