data_PCOD8083584
_publ_section_title
;
Structure prediction by ZEFSAII (Michael W. Deem and Ramdas Pophale) SiO2 
 PCOD8083584
Probable space group: C 2/M
;
_chemical_formula_sum "Si O2"
_cell_formula_units_Z 64
_cell_length_a 9.853739
_cell_length_b 19.386681
_cell_length_c 26.800284
_cell_angle_alpha 90.000000
_cell_angle_beta 44.575016
_cell_angle_gamma 90.000000
_cell_volume 3593.218125
_symmetry_space_group_name_H-M "C 2/M"
_symmetry_group_IT_number 12
_symmetry_cell_setting 'monoclinic'
loop_
_space_group_symop_operation_xyz
x,y,z
-x,y,-z
-x,-y,-z
x,-y,z
1/2+x,1/2+y,z
1/2-x,1/2+y,-z
1/2-x,1/2-y,-z
1/2+x,1/2-y,z
loop_
_atom_site_type_symbol
_atom_site_label
_atom_site_fract_x
_atom_site_fract_y
_atom_site_fract_z
Si Si1 0.599773 0.423261 0.707746
Si Si2 0.317514 0.081687 0.203392
Si Si3 0.519237 0.917528 0.438924
Si Si4 0.683323 0.313865 0.081000
Si Si5 0.491856 0.814730 0.084374
Si Si6 0.782212 0.082225 0.563970
Si Si7 0.444086 0.918613 0.279984
Si Si8 0.365489 0.576967 0.185320
O O1 0.577930 0.500000 0.690846
O O2 0.394607 0.386764 0.752448
O O3 0.777805 0.385741 0.633596
O O4 0.650974 0.426360 0.751563
O O5 0.464470 0.119590 0.127548
O O6 0.350991 0.101294 0.251891
O O7 0.337163 0.000000 0.187830
O O8 0.500000 0.889915 0.500000
O O9 0.343547 0.891272 0.450254
O O10 0.525246 0.000000 0.434863
O O11 0.543319 0.250009 0.105734
O O12 0.549853 0.380469 0.119976
O O13 0.801291 0.299259 0.101064
O O14 0.827720 0.331006 0.998256
O O15 0.686917 0.111200 0.640351
O O16 0.000000 0.111236 0.500000
O O17 0.787380 0.000000 0.564412
O O18 0.662698 0.888770 0.221275
O O19 0.461064 0.000000 0.283363
O O20 0.392270 0.500000 0.156022
#
# Coordination Sequence:
#
# PCOD8083584 Si02
#       8
#     8   8   8   8   8   8   8   8
#     4   9  16  28  45  67  99 131 168 214 255 295
#     4  10  20  33  52  77 104 134 171 217 258 299
#     4   9  16  24  37  60  93 134 173 206 245 298
#     4  10  22  38  57  76 103 136 166 209 257 306
#     4  10  22  39  55  77 104 134 169 207 257 308
#     4   9  16  25  37  58  94 137 172 201 245 304
#     4   9  18  30  45  69 103 137 169 209 258 303
#     4  10  18  33  54  76 100 136 175 210 255 304
#
# _framework density 17.811332
#
# number of rings (size 3 to 8) (size 9 to 14) (size 15 to 20)
#    0.000    2.500    2.500    0.000    3.500    0.500 
#    0.000    1.250    0.000    2.250    0.000    0.000 
#    0.000    6.000    0.000    0.000    0.000    0.000 
#
# Total GULP energy -396633.599297 kJ/mol
# GULP energy per Si atom -12394.799978 kJ/mol
# Density = 1.777079 g / cm^3
# Si number density = 17.811332 Si / 1000 Ang^3
#
#
#
# Elastic Constant Matrix: (Units=GPa)
#
#
# Indices 1 2 3 4 5 6 
#
# 1 98.4495 31.6330 49.3732 -0.0159 -1.5006 0.0106
# 2 31.6330 45.1056 43.1690 -0.0094 -3.7693 0.0074
# 3 49.3732 43.1690 105.3749 0.0042 -3.9062 0.0025
# 4 -0.0159 -0.0094 0.0042 3.9269 0.0047 0.7811
# 5 -1.5006 -3.7693 -3.9062 0.0047 35.4626 -0.0024
# 6 0.0106 0.0074 0.0025 0.7811 -0.0024 12.2418
#
#
#
# Elastic Compliance Matrix: (Units=1/GPa)
#
#
# Indices 1 2 3 4 5 6 
#
# 1 0.014179 -0.005937 -0.004230 0.000050 -0.000497 -0.000011
# 2 -0.005937 0.039133 -0.013159 0.000085 0.002459 -0.000021
# 3 -0.004230 -0.013159 0.016873 -0.000069 0.000281 0.000013
# 4 0.000050 0.000085 -0.000069 0.257926 -0.000032 -0.016458
# 5 -0.000497 0.002459 0.000281 -0.000032 0.028470 0.000007
# 6 -0.000011 -0.000021 0.000013 -0.016458 0.000007 0.082737
#
#
# Mechanical properties :
#
#
# Convention : Reuss Voigt Hill
#
# Bulk Modulus (GPa) = 42.49205 55.25338 48.87272
# Shear Modulus (GPa) = 10.12527 18.64325 14.38426
#
# Velocity S-wave (km/s) = 2.38685 3.23880 2.84490
# Velocity P-wave (km/s) = 5.61290 6.71381 6.18789
#
# Compressibility (1/GPa) = 0.02353381
#
# Stress axis : x y z
#
# Youngs Moduli (GPa) = 70.52776 25.55370 59.26697
#
# Poissons Ratio (x) = 0.15172 0.25067
# Poissons Ratio (y) = 0.41875 0.77987
# Poissons Ratio (z) = 0.29830 0.33625
#
# Static dielectric constant tensor:
#      x y z
#    x 3.544500 0.000000 -0.095640 
#    y 0.000000 2.772590 -0.000010 
#    z -0.095640 -0.000010 3.411360 
# 
# 
# High freq. dielectric constant tensor:
#      x y z
#    x 1.709280 0.000000 -0.005330 
#    y 0.000000 1.619020 0.000000 
#    z -0.005330 0.000000 1.697870 
# 
# From -- ./inp_files/333728.got.cif
#   From: 2010.06.25/outbox.cif.g09.slc.cpg/sg12_167_cif.got.tgz:333728.got - 2010.06.28 00:19:55.
