data_PCOD8083023
_publ_section_title
;
Structure prediction by ZEFSAII (Michael W. Deem and Ramdas Pophale) SiO2 
 PCOD8083023
Probable space group: C 2/M
;
_chemical_formula_sum "Si O2"
_cell_formula_units_Z 44
_cell_length_a 18.542235
_cell_length_b 26.518679
_cell_length_c 5.137523
_cell_angle_alpha 90.000000
_cell_angle_beta 114.556379
_cell_angle_gamma 90.000000
_cell_volume 2297.712297
_symmetry_space_group_name_H-M "C 2/M"
_symmetry_group_IT_number 12
_symmetry_cell_setting 'monoclinic'
loop_
_space_group_symop_operation_xyz
x,y,z
-x,y,-z
-x,-y,-z
x,-y,z
1/2+x,1/2+y,z
1/2-x,1/2+y,-z
1/2-x,1/2-y,-z
1/2+x,1/2-y,z
loop_
_atom_site_type_symbol
_atom_site_label
_atom_site_fract_x
_atom_site_fract_y
_atom_site_fract_z
Si Si1 0.881325 0.844161 0.795846
Si Si2 0.414151 0.594892 0.346425
Si Si3 0.746910 0.056935 0.144992
Si Si4 0.459021 0.839003 0.689951
Si Si5 0.500000 0.742041 0.000000
Si Si6 0.212754 0.619734 0.588394
O O1 0.909575 0.859214 0.548060
O O2 0.785644 0.841048 0.663066
O O3 0.908343 0.885947 0.042779
O O4 0.922018 0.791616 0.937844
O O5 0.500000 0.567877 0.500000
O O6 0.342979 0.556231 0.296120
O O7 0.714471 0.092428 0.868834
O O8 0.716768 0.000000 0.059788
O O9 0.714013 0.077146 0.368682
O O10 0.500000 0.863452 0.500000
O O11 0.478847 0.778874 0.726011
O O12 0.365324 0.846775 0.549051
O O13 0.500000 0.866168 0.000000
#
# Coordination Sequence:
#
# PCOD8083023 Si02
#       6
#     8   8   8   8   4   8
#     4  10  20  32  56  80 116 152 187 217 267 324
#     4  10  18  32  52  81 116 153 178 222 271 318
#     4  10  21  36  60  85 108 146 189 227 276 338
#     4  10  23  38  58  83 110 150 181 238 285 321
#     4  10  22  34  58  84 114 148 194 224 258 328
#     4  10  21  40  58  82 115 150 178 229 289 329
#
# _framework density 19.149480000000001
#
# number of rings (size 3 to 8) (size 9 to 14) (size 15 to 20)
#    0.545    1.455    1.818    1.636    2.545    1.091 
#    0.000    0.909    0.000   17.455    0.000    0.000 
#    0.000    0.000    0.000    0.000    0.000    0.000 
#
# Total GULP energy -272672.471847 kJ/mol
# GULP energy per Si atom -12394.203266 kJ/mol
# Density = 1.910590 g / cm^3
# Si number density = 19.149480 Si / 1000 Ang^3
#
#
#
# Elastic Constant Matrix: (Units=GPa)
#
#
# Indices 1 2 3 4 5 6 
#
# 1 96.2668 23.0850 55.8936 0.0000 15.8501 0.0000
# 2 23.0850 64.5196 28.0415 0.0000 14.0853 0.0000
# 3 55.8936 28.0415 107.9259 0.0000 8.3904 0.0000
# 4 0.0000 0.0000 0.0000 15.8229 0.0000 1.4198
# 5 15.8501 14.0853 8.3904 0.0000 45.1530 0.0000
# 6 0.0000 0.0000 0.0000 1.4198 0.0000 6.4797
#
#
#
# Elastic Compliance Matrix: (Units=1/GPa)
#
#
# Indices 1 2 3 4 5 6 
#
# 1 0.015677 -0.001591 -0.007423 0.000000 -0.003627 0.000000
# 2 -0.001591 0.018663 -0.003669 0.000000 -0.004582 0.000000
# 3 -0.007423 -0.003669 0.013974 0.000000 0.001154 0.000000
# 4 0.000000 0.000000 0.000000 0.064467 0.000000 -0.014126
# 5 -0.003627 -0.004582 0.001154 0.000000 0.024635 0.000000
# 6 0.000000 0.000000 0.000000 -0.014126 0.000000 0.157424
#
#
# Mechanical properties :
#
#
# Convention : Reuss Voigt Hill
#
# Bulk Modulus (GPa) = 43.57870 53.63916 48.60893
# Shear Modulus (GPa) = 15.25064 24.27060 19.76062
#
# Velocity S-wave (km/s) = 2.82512 3.56396 3.21583
# Velocity P-wave (km/s) = 5.78345 6.70875 6.26321
#
# Compressibility (1/GPa) = 0.02294699
#
# Stress axis : x y z
#
# Youngs Moduli (GPa) = 63.78914 53.58127 71.56284
#
# Poissons Ratio (x) = 0.08524 0.53124
# Poissons Ratio (y) = 0.10148 0.26257
# Poissons Ratio (z) = 0.47353 0.19659
#
# Static dielectric constant tensor:
#      x y z
#    x 3.526910 0.000000 -0.003290 
#    y 0.000000 3.006100 0.000000 
#    z -0.003290 0.000000 3.711080 
# 
# 
# High freq. dielectric constant tensor:
#      x y z
#    x 1.747390 0.000000 -0.005210 
#    y 0.000000 1.699950 0.000000 
#    z -0.005210 0.000000 1.763240 
# 
# From -- ./inp_files/18217.got.cif
#   From: 2010.06.25/outbox.cif.g09.slc.cpg/sg12_10_cif.got.tgz:18217.got - 2010.06.28 00:19:55.
