data_PCOD8083647
_publ_section_title
;
Structure prediction by ZEFSAII (Michael W. Deem and Ramdas Pophale) SiO2 
 PCOD8083647
Probable space group: C 2/M
;
_chemical_formula_sum "Si O2"
_cell_formula_units_Z 56
_cell_length_a 28.212418
_cell_length_b 8.506178
_cell_length_c 17.601643
_cell_angle_alpha 90.000000
_cell_angle_beta 43.775670
_cell_angle_gamma 90.000000
_cell_volume 2922.345322
_symmetry_space_group_name_H-M "C 2/M"
_symmetry_group_IT_number 12
_symmetry_cell_setting 'monoclinic'
loop_
_space_group_symop_operation_xyz
x,y,z
-x,y,-z
-x,-y,-z
x,-y,z
1/2+x,1/2+y,z
1/2-x,1/2+y,-z
1/2-x,1/2-y,-z
1/2+x,1/2-y,z
loop_
_atom_site_type_symbol
_atom_site_label
_atom_site_fract_x
_atom_site_fract_y
_atom_site_fract_z
Si Si1 0.813860 0.814589 0.634409
Si Si2 0.548314 0.183243 0.249996
Si Si3 0.927911 0.186616 0.618423
Si Si4 0.838294 0.686774 0.163356
Si Si5 0.597568 0.316144 0.606184
Si Si6 0.432328 0.316719 0.930368
Si Si7 0.921308 0.315867 0.214503
O O1 0.867258 0.749320 0.634762
O O2 0.738249 0.746021 0.735767
O O3 0.838653 0.768217 0.520924
O O4 0.810782 0.000000 0.645723
O O5 0.584802 0.237189 0.284862
O O6 0.467946 0.221126 0.347404
O O7 0.582759 0.274631 0.139692
O O8 0.559534 0.000000 0.223888
O O9 0.000000 0.243374 0.500000
O O10 0.926985 0.000000 0.627652
O O11 0.839798 0.500000 0.151911
O O12 0.884196 0.741085 0.181297
O O13 0.866683 0.767167 0.054829
O O14 0.580332 0.500000 0.618552
O O15 0.614468 0.272943 0.673475
O O16 0.447486 0.500000 0.920845
O O17 0.498514 0.223299 0.884332
O O18 0.911652 0.500000 0.238587
#
# Coordination Sequence:
#
# PCOD8083647 Si02
#       7
#     8   8   8   8   8   8   8
#     4   9  19  35  56  80 110 148 182 217 267 326
#     4  11  21  34  55  84 113 140 177 226 277 318
#     4  10  18  34  59  84 110 142 182 220 264 321
#     4  10  21  38  56  77 110 148 183 221 271 324
#     4  10  18  33  55  81 110 144 184 222 266 320
#     4  11  22  37  58  81 106 140 186 230 270 318
#     4  10  20  34  55  82 110 143 181 225 274 319
#
# _framework density 19.162690000000001
#
# number of rings (size 3 to 8) (size 9 to 14) (size 15 to 20)
#    0.000    1.857    1.429    5.571    0.000    3.714 
#    0.000    2.857    0.000    0.000    0.000    0.000 
#    0.000    0.000    0.000    0.000    0.000    0.000 
#
# Total GULP energy -347267.252690 kJ/mol
# GULP energy per Si atom -12402.401882 kJ/mol
# Density = 1.911907 g / cm^3
# Si number density = 19.162690 Si / 1000 Ang^3
#
#
#
# Elastic Constant Matrix: (Units=GPa)
#
#
# Indices 1 2 3 4 5 6 
#
# 1 78.2581 16.0095 60.3815 0.0726 12.1325 -0.0420
# 2 16.0095 43.1651 17.8587 0.0300 4.6744 -0.0242
# 3 60.3815 17.8587 159.5871 0.0440 8.1846 -0.0447
# 4 0.0726 0.0300 0.0440 27.7720 -0.0329 9.3091
# 5 12.1325 4.6744 8.1846 -0.0329 26.2825 0.0232
# 6 -0.0420 -0.0242 -0.0447 9.3091 0.0232 21.2519
#
#
#
# Elastic Compliance Matrix: (Units=1/GPa)
#
#
# Indices 1 2 3 4 5 6 
#
# 1 0.019723 -0.003855 -0.006706 -0.000063 -0.006331 0.000055
# 2 -0.003855 0.025372 -0.001261 -0.000030 -0.002340 0.000034
# 3 -0.006706 -0.001261 0.008917 0.000005 0.000543 0.000001
# 4 -0.000063 -0.000030 0.000005 0.042205 0.000102 -0.018487
# 5 -0.006331 -0.002340 0.000543 0.000102 0.041218 -0.000104
# 6 0.000055 0.000034 0.000001 -0.018487 -0.000104 0.055153
#
#
# Mechanical properties :
#
#
# Convention : Reuss Voigt Hill
#
# Bulk Modulus (GPa) = 32.92970 52.16776 42.54873
# Shear Modulus (GPa) = 22.08946 27.51199 24.80072
#
# Velocity S-wave (km/s) = 3.39887 3.79318 3.60143
# Velocity P-wave (km/s) = 5.71181 6.81667 6.28855
#
# Compressibility (1/GPa) = 0.03036772
#
# Stress axis : x y z
#
# Youngs Moduli (GPa) = 50.70315 39.41410 112.14841
#
# Poissons Ratio (x) = 0.15193 0.75209
# Poissons Ratio (y) = 0.19545 0.14138
# Poissons Ratio (z) = 0.34003 0.04969
#
# Static dielectric constant tensor:
#      x y z
#    x 3.595990 0.000000 0.117730 
#    y 0.000000 3.357510 -0.000010 
#    z 0.117730 -0.000010 3.632770 
# 
# 
# High freq. dielectric constant tensor:
#      x y z
#    x 1.736550 0.000000 0.019160 
#    y 0.000000 1.734080 0.000000 
#    z 0.019160 0.000000 1.747060 
# 
# From -- ./inp_files/295108.got.cif
#   From: 2010.06.25/outbox.cif.g09.slc.cpg/sg12_148_cif.got.tgz:295108.got - 2010.06.28 00:19:55.
