data_PCOD8083828
_publ_section_title
;
Structure prediction by ZEFSAII (Michael W. Deem and Ramdas Pophale) SiO2 
 PCOD8083828
Probable space group: C 2/M
;
_chemical_formula_sum "Si O2"
_cell_formula_units_Z 40
_cell_length_a 20.915231
_cell_length_b 18.180051
_cell_length_c 12.996559
_cell_angle_alpha 90.000000
_cell_angle_beta 24.540511
_cell_angle_gamma 90.000000
_cell_volume 2052.514684
_symmetry_space_group_name_H-M "C 2/M"
_symmetry_group_IT_number 12
_symmetry_cell_setting 'monoclinic'
loop_
_space_group_symop_operation_xyz
x,y,z
-x,y,-z
-x,-y,-z
x,-y,z
1/2+x,1/2+y,z
1/2-x,1/2+y,-z
1/2-x,1/2-y,-z
1/2+x,1/2-y,z
loop_
_atom_site_type_symbol
_atom_site_label
_atom_site_fract_x
_atom_site_fract_y
_atom_site_fract_z
Si Si1 0.880188 0.417583 0.089067
Si Si2 0.463184 0.917051 0.358611
Si Si3 0.165040 0.156436 0.720456
Si Si4 0.573284 0.228812 0.282253
Si Si5 0.179667 0.805167 0.469905
O O1 0.824587 0.500000 0.194973
O O2 0.733807 0.363669 0.305209
O O3 0.954014 0.411452 0.870810
O O4 0.000000 0.390389 0.000000
O O5 0.285350 0.897207 0.600387
O O6 0.547221 0.859346 0.311460
O O7 0.475534 0.000000 0.385952
O O8 0.168456 0.150049 0.592414
O O9 0.194636 0.240654 0.708362
O O10 0.000000 0.130210 0.000000
O O11 0.500000 0.252949 0.500000
O O12 0.483569 0.271193 0.323076
O O13 0.750000 0.250000 0.000000
#
# Coordination Sequence:
#
# PCOD8083828 Si02
#       5
#     8   8   8   8   8
#     4  10  18  33  58  87 118 146 180 231 299 360
#     4  10  22  39  61  88 119 154 190 239 299 361
#     4  10  21  32  57  89 119 150 184 239 304 353
#     4  11  25  42  63  85 115 162 211 247 283 337
#     4  10  21  35  58  85 117 148 197 243 291 347
#
# _framework density 19.488289999999999
#
# number of rings (size 3 to 8) (size 9 to 14) (size 15 to 20)
#    0.000    1.800    2.000    1.800   11.200    0.800 
#    0.000    1.000    0.000    3.600    0.000    0.000 
#    0.000    0.000    0.000    0.000    0.000    0.000 
#
# Total GULP energy -247976.740470 kJ/mol
# GULP energy per Si atom -12398.837024 kJ/mol
# Density = 1.944393 g / cm^3
# Si number density = 19.488290 Si / 1000 Ang^3
#
#
#
# Elastic Constant Matrix: (Units=GPa)
#
#
# Indices 1 2 3 4 5 6 
#
# 1 50.3304 18.9711 21.9622 0.0000 -7.7208 0.0011
# 2 18.9711 99.3400 57.1667 -0.0016 -6.8935 0.0006
# 3 21.9622 57.1667 134.4049 -0.0006 -10.3462 0.0010
# 4 0.0000 -0.0016 -0.0006 28.7294 0.0004 9.4079
# 5 -7.7208 -6.8935 -10.3462 0.0004 26.8843 -0.0009
# 6 0.0011 0.0006 0.0010 9.4079 -0.0009 37.4781
#
#
#
# Elastic Compliance Matrix: (Units=1/GPa)
#
#
# Indices 1 2 3 4 5 6 
#
# 1 0.022598 -0.002736 -0.002147 0.000000 0.004962 0.000000
# 2 -0.002736 0.013702 -0.005329 0.000001 0.000677 0.000000
# 3 -0.002147 -0.005329 0.010207 0.000000 0.001945 0.000000
# 4 0.000000 0.000001 0.000000 0.037925 -0.000001 -0.009520
# 5 0.004962 0.000677 0.001945 -0.000001 0.039544 0.000001
# 6 0.000000 0.000000 0.000000 -0.009520 0.000001 0.029072
#
#
# Mechanical properties :
#
#
# Convention : Reuss Voigt Hill
#
# Bulk Modulus (GPa) = 38.33709 53.36393 45.85051
# Shear Modulus (GPa) = 27.44739 31.01672 29.23205
#
# Velocity S-wave (km/s) = 3.75694 3.99376 3.87716
# Velocity P-wave (km/s) = 6.20758 6.97917 6.60465
#
# Compressibility (1/GPa) = 0.02608440
#
# Stress axis : x y z
#
# Youngs Moduli (GPa) = 44.25184 72.97940 97.96862
#
# Poissons Ratio (x) = 0.19965 0.21034
# Poissons Ratio (y) = 0.12106 0.52207
# Poissons Ratio (z) = 0.09501 0.38890
#
# Static dielectric constant tensor:
#      x y z
#    x 3.870720 -0.000010 -0.042080 
#    y -0.000010 3.739990 0.000010 
#    z -0.042080 0.000010 3.479040 
# 
# 
# High freq. dielectric constant tensor:
#      x y z
#    x 1.745810 0.000000 0.008870 
#    y 0.000000 1.758040 0.000000 
#    z 0.008870 0.000000 1.756810 
# 
# From -- ./inp_files/46955.got.cif
#   From: 2010.06.25/outbox.cif.g09.slc.cpg/sg12_24_cif.got.tgz:46955.got - 2010.06.28 00:19:55.
