data_PCOD8083406
_publ_section_title
;
Structure prediction by ZEFSAII (Michael W. Deem and Ramdas Pophale) SiO2 
 PCOD8083406
Probable space group: C 2/M
;
_chemical_formula_sum "Si O2"
_cell_formula_units_Z 56
_cell_length_a 15.257540
_cell_length_b 9.009654
_cell_length_c 23.969228
_cell_angle_alpha 90.000000
_cell_angle_beta 117.383132
_cell_angle_gamma 90.000000
_cell_volume 2925.739091
_symmetry_space_group_name_H-M "C 2/M"
_symmetry_group_IT_number 12
_symmetry_cell_setting 'monoclinic'
loop_
_space_group_symop_operation_xyz
x,y,z
-x,y,-z
-x,-y,-z
x,-y,z
1/2+x,1/2+y,z
1/2-x,1/2+y,-z
1/2-x,1/2-y,-z
1/2+x,1/2-y,z
loop_
_atom_site_type_symbol
_atom_site_label
_atom_site_fract_x
_atom_site_fract_y
_atom_site_fract_z
Si Si1 0.901920 0.824061 0.713147
Si Si2 0.737434 0.173821 0.937069
Si Si3 0.697839 0.674934 0.641767
Si Si4 0.994774 0.824675 0.626709
Si Si5 0.987378 0.671454 0.156451
Si Si6 0.084531 0.326384 0.067405
Si Si7 0.661973 0.325149 0.505854
O O1 0.793477 0.759665 0.691231
O O2 0.944750 0.757849 0.667622
O O3 0.973361 0.775030 0.783293
O O4 0.895497 0.000000 0.710141
O O5 0.627792 0.207152 0.883545
O O6 0.814807 0.238095 0.914986
O O7 0.755742 0.000000 0.949936
O O8 0.750000 0.250000 0.000000
O O9 0.718638 0.500000 0.650061
O O10 0.608992 0.723623 0.656741
O O11 0.663924 0.726040 0.570352
O O12 0.938433 0.772089 0.554057
O O13 0.988504 0.000000 0.628435
O O14 0.004313 0.500000 0.176915
O O15 0.047103 0.711839 0.118092
O O16 0.106328 0.500000 0.065808
O O17 0.000000 0.273996 0.000000
O O18 0.674599 0.500000 0.504952
O O19 0.750000 0.250000 0.500000
#
# Coordination Sequence:
#
# PCOD8083406 Si02
#       7
#     8   8   8   8   8   8   8
#     4  11  23  39  58  82 116 152 192 242 285 336
#     4  11  22  38  62  92 122 153 191 238 289 345
#     4  10  20  36  60  84 110 152 197 235 288 349
#     4   9  19  36  57  82 114 151 192 235 284 342
#     4  10  23  42  61  83 119 157 191 233 287 353
#     4  10  20  39  63  88 118 152 189 235 292 347
#     4  10  18  32  57  85 113 145 188 241 290 340
#
# _framework density 19.140461999999999
#
# number of rings (size 3 to 8) (size 9 to 14) (size 15 to 20)
#    0.000    1.857    2.857    1.286    0.000    4.857 
#    0.000    6.429    0.000    1.714    0.000    0.000 
#    0.000    0.000    0.000    0.000    0.000    0.000 
#
# Total GULP energy -347228.617440 kJ/mol
# GULP energy per Si atom -12401.022051 kJ/mol
# Density = 1.909690 g / cm^3
# Si number density = 19.140462 Si / 1000 Ang^3
#
#
#
# Elastic Constant Matrix: (Units=GPa)
#
#
# Indices 1 2 3 4 5 6 
#
# 1 141.6855 39.7114 41.1172 0.0000 20.0303 0.0000
# 2 39.7114 51.1270 34.4249 0.0000 11.0042 0.0000
# 3 41.1172 34.4249 97.4954 0.0000 15.9180 0.0000
# 4 0.0000 0.0000 0.0000 29.5863 0.0000 0.6979
# 5 20.0303 11.0042 15.9180 0.0000 24.5160 0.0000
# 6 0.0000 0.0000 0.0000 0.6979 0.0000 31.9753
#
#
#
# Elastic Compliance Matrix: (Units=1/GPa)
#
#
# Indices 1 2 3 4 5 6 
#
# 1 0.009663 -0.005626 -0.001356 0.000000 -0.004489 0.000000
# 2 -0.005626 0.029837 -0.007524 0.000000 -0.003910 0.000000
# 3 -0.001356 -0.007524 0.014265 0.000000 -0.004778 0.000000
# 4 0.000000 0.000000 0.000000 0.033817 0.000000 -0.000738
# 5 -0.004489 -0.003910 -0.004778 0.000000 0.049315 0.000000
# 6 0.000000 0.000000 0.000000 -0.000738 0.000000 0.031290
#
#
# Mechanical properties :
#
#
# Convention : Reuss Voigt Hill
#
# Bulk Modulus (GPa) = 40.39860 57.86831 49.13346
# Shear Modulus (GPa) = 24.33685 28.88582 26.61133
#
# Velocity S-wave (km/s) = 3.56966 3.88899 3.73274
# Velocity P-wave (km/s) = 6.17593 7.10386 6.65609
#
# Compressibility (1/GPa) = 0.02475333
#
# Stress axis : x y z
#
# Youngs Moduli (GPa) = 103.48876 33.51548 70.10043
#
# Poissons Ratio (x) = 0.18857 0.09503
# Poissons Ratio (y) = 0.58227 0.52743
# Poissons Ratio (z) = 0.14029 0.25217
#
# Static dielectric constant tensor:
#      x y z
#    x 4.273880 0.000000 0.104090 
#    y 0.000000 3.319290 0.000000 
#    z 0.104090 0.000000 3.746560 
# 
# 
# High freq. dielectric constant tensor:
#      x y z
#    x 1.760640 0.000000 0.002580 
#    y 0.000000 1.725190 0.000000 
#    z 0.002580 0.000000 1.745720 
# 
# From -- ./inp_files/309036.got.cif
#   From: 2010.06.25/outbox.cif.g09.slc.cpg/sg12_155_cif.got.tgz:309036.got - 2010.06.28 00:19:55.
