data_PCOD8083387
_publ_section_title
;
Structure prediction by ZEFSAII (Michael W. Deem and Ramdas Pophale) SiO2 
 PCOD8083387
Probable space group: C 2/M
;
_chemical_formula_sum "Si O2"
_cell_formula_units_Z 64
_cell_length_a 17.236981
_cell_length_b 20.449199
_cell_length_c 9.678821
_cell_angle_alpha 90.000000
_cell_angle_beta 98.400934
_cell_angle_gamma 90.000000
_cell_volume 3375.007794
_symmetry_space_group_name_H-M "C 2/M"
_symmetry_group_IT_number 12
_symmetry_cell_setting 'monoclinic'
loop_
_space_group_symop_operation_xyz
x,y,z
-x,y,-z
-x,-y,-z
x,-y,z
1/2+x,1/2+y,z
1/2-x,1/2+y,-z
1/2-x,1/2-y,-z
1/2+x,1/2-y,z
loop_
_atom_site_type_symbol
_atom_site_label
_atom_site_fract_x
_atom_site_fract_y
_atom_site_fract_z
Si Si1 0.913718 0.886706 0.498147
Si Si2 0.080159 0.072580 0.964282
Si Si3 0.691496 0.574092 0.754417
Si Si4 0.553692 0.749766 0.145416
Si Si5 0.205649 0.312264 0.632843
Si Si6 0.848255 0.872168 0.779804
Si Si7 0.193075 0.681188 0.314888
Si Si8 0.445720 0.250713 0.370001
O O1 0.850338 0.931292 0.405077
O O2 0.896035 0.885817 0.654232
O O3 0.906997 0.813590 0.434781
O O4 0.000000 0.916421 0.500000
O O5 0.126670 0.103634 0.845911
O O6 0.055399 0.000000 0.911735
O O7 0.140625 0.069319 0.108747
O O8 0.000000 0.109304 0.000000
O O9 0.718977 0.500000 0.802930
O O10 0.763879 0.624497 0.762683
O O11 0.613377 0.690395 0.130039
O O12 0.608524 0.809044 0.217886
O O13 0.493441 0.727849 0.248778
O O14 0.500000 0.770433 0.000000
O O15 0.255444 0.367225 0.725880
O O16 0.185577 0.338673 0.473962
O O17 0.259740 0.248493 0.660702
O O18 0.123786 0.298915 0.689522
O O19 0.500000 0.216304 0.500000
#
# Coordination Sequence:
#
# PCOD8083387 Si02
#       8
#     8   8   8   8   8   8   8   8
#     4  11  19  31  54  80 108 146 181 223 260 326
#     4  10  23  39  52  73 114 157 187 227 276 325
#     4  11  23  38  57  78 108 155 196 229 271 323
#     4  11  23  33  54  88 115 144 183 226 285 344
#     4  10  18  32  57  82 108 147 177 228 295 329
#     4  11  20  33  53  80 110 143 181 226 276 331
#     4  10  19  37  55  79 116 142 185 234 277 334
#     4  11  18  33  54  79 112 149 176 213 279 343
#
# _framework density 18.962918999999999
#
# number of rings (size 3 to 8) (size 9 to 14) (size 15 to 20)
#    0.000    1.375    6.250    1.875    1.750    1.750 
#    0.000    2.500    0.000    0.375    0.000    2.625 
#    0.000    0.000    0.000    0.000    0.000    0.000 
#
# Total GULP energy -396458.418919 kJ/mol
# GULP energy per Si atom -12389.325591 kJ/mol
# Density = 1.891976 g / cm^3
# Si number density = 18.962919 Si / 1000 Ang^3
#
#
#
# Elastic Constant Matrix: (Units=GPa)
#
#
# Indices 1 2 3 4 5 6 
#
# 1 71.6219 14.6273 26.5253 0.0000 10.8898 0.0000
# 2 14.6273 30.3904 14.0848 0.0000 -2.6572 0.0000
# 3 26.5253 14.0848 97.3789 0.0000 15.3242 0.0000
# 4 0.0000 0.0000 0.0000 19.6686 0.0000 2.2066
# 5 10.8898 -2.6572 15.3242 0.0000 37.9325 0.0000
# 6 0.0000 0.0000 0.0000 2.2066 0.0000 18.0651
#
#
#
# Elastic Compliance Matrix: (Units=1/GPa)
#
#
# Indices 1 2 3 4 5 6 
#
# 1 0.017190 -0.007273 -0.002962 0.000000 -0.004248 0.000000
# 2 -0.007273 0.039198 -0.004751 0.000000 0.006753 0.000000
# 3 -0.002962 -0.004751 0.012475 0.000000 -0.004522 0.000000
# 4 0.000000 0.000000 0.000000 0.051549 0.000000 -0.006297
# 5 -0.004248 0.006753 -0.004522 0.000000 0.029882 0.000000
# 6 0.000000 0.000000 0.000000 -0.006297 0.000000 0.056124
#
#
# Mechanical properties :
#
#
# Convention : Reuss Voigt Hill
#
# Bulk Modulus (GPa) = 25.71271 34.42955 30.07113
# Shear Modulus (GPa) = 20.05180 24.74350 22.39765
#
# Velocity S-wave (km/s) = 3.25533 3.61617 3.44048
# Velocity P-wave (km/s) = 5.26483 5.96919 5.62804
#
# Compressibility (1/GPa) = 0.03889127
#
# Stress axis : x y z
#
# Youngs Moduli (GPa) = 58.17203 25.51156 80.16105
#
# Poissons Ratio (x) = 0.18553 0.23745
# Poissons Ratio (y) = 0.42306 0.38087
# Poissons Ratio (z) = 0.17232 0.12121
#
# Static dielectric constant tensor:
#      x y z
#    x 3.642380 0.000000 0.152760 
#    y 0.000000 3.129740 0.000000 
#    z 0.152760 0.000000 3.589510 
# 
# 
# High freq. dielectric constant tensor:
#      x y z
#    x 1.731010 0.000000 0.005990 
#    y 0.000000 1.682330 0.000000 
#    z 0.005990 0.000000 1.743660 
# 
# From -- ./inp_files/78827.got.cif
#   From: 2010.06.25/outbox.cif.g09.slc.cpg/sg12_40_cif.got.tgz:78827.got - 2010.06.28 00:19:55.
