data_PCOD8083872
_publ_section_title
;
Structure prediction by ZEFSAII (Michael W. Deem and Ramdas Pophale) SiO2 
 PCOD8083872
Probable space group: C 2/M
;
_chemical_formula_sum "Si O2"
_cell_formula_units_Z 56
_cell_length_a 29.395330
_cell_length_b 8.570015
_cell_length_c 12.737128
_cell_angle_alpha 90.000000
_cell_angle_beta 59.679903
_cell_angle_gamma 90.000000
_cell_volume 2769.824100
_symmetry_space_group_name_H-M "C 2/M"
_symmetry_group_IT_number 12
_symmetry_cell_setting 'monoclinic'
loop_
_space_group_symop_operation_xyz
x,y,z
-x,y,-z
-x,-y,-z
x,-y,z
1/2+x,1/2+y,z
1/2-x,1/2+y,-z
1/2-x,1/2-y,-z
1/2+x,1/2-y,z
loop_
_atom_site_type_symbol
_atom_site_label
_atom_site_fract_x
_atom_site_fract_y
_atom_site_fract_z
Si Si1 0.389749 0.314265 0.988131
Si Si2 0.040779 0.683297 0.534644
Si Si3 0.110888 0.182615 0.779492
Si Si4 0.005623 0.182429 0.791351
Si Si5 0.196644 0.814080 0.515721
Si Si6 0.343502 0.814576 0.647504
Si Si7 0.692732 0.684919 0.089208
O O1 0.389715 0.500000 0.989211
O O2 0.448659 0.255460 0.893189
O O3 0.348056 0.250252 0.951417
O O4 0.374912 0.249192 0.121572
O O5 0.043199 0.500000 0.516229
O O6 0.022319 0.721715 0.671389
O O7 0.098341 0.752050 0.443995
O O8 0.000000 0.759297 0.500000
O O9 0.049339 0.218184 0.829188
O O10 0.148858 0.251763 0.644586
O O11 0.121196 0.000000 0.769384
O O12 0.004367 0.000000 0.764960
O O13 0.250000 0.750000 0.500000
O O14 0.193409 0.743497 0.403279
O O15 0.196692 0.000000 0.509482
O O16 0.324980 0.741217 0.777114
O O17 0.340622 0.000000 0.659266
O O18 0.694197 0.500000 0.083773
O O19 0.750000 0.750000 0.000000
#
# Coordination Sequence:
#
# PCOD8083872 Si02
#       7
#     8   8   8   8   8   8   8
#     4   9  19  35  58  88 120 155 196 244 298 357
#     4  10  21  36  56  83 119 160 197 241 300 358
#     4   9  18  34  58  89 121 151 189 240 298 355
#     4  10  18  33  59  89 117 149 193 244 295 356
#     4  11  23  39  62  92 123 157 201 251 304 365
#     4  11  23  41  63  86 120 161 202 251 304 358
#     4  11  24  41  62  88 119 157 204 252 300 361
#
# _framework density 20.217890000000001
#
# number of rings (size 3 to 8) (size 9 to 14) (size 15 to 20)
#    0.000    1.857    1.429    2.571    2.000    2.571 
#    0.000    0.714    0.000    5.143    0.000    0.000 
#    0.000    0.000    0.000    0.000    0.000    0.000 
#
# Total GULP energy -347196.203785 kJ/mol
# GULP energy per Si atom -12399.864421 kJ/mol
# Density = 2.017187 g / cm^3
# Si number density = 20.217890 Si / 1000 Ang^3
#
#
#
# Elastic Constant Matrix: (Units=GPa)
#
#
# Indices 1 2 3 4 5 6 
#
# 1 160.5937 22.0605 65.4895 0.0000 11.7801 0.0000
# 2 22.0605 33.0847 14.8516 0.0000 0.5855 0.0000
# 3 65.4895 14.8516 141.1629 0.0000 19.2506 0.0000
# 4 0.0000 0.0000 0.0000 26.5809 0.0000 -1.5098
# 5 11.7801 0.5855 19.2506 0.0000 39.0977 0.0000
# 6 0.0000 0.0000 0.0000 -1.5098 0.0000 20.3335
#
#
#
# Elastic Compliance Matrix: (Units=1/GPa)
#
#
# Indices 1 2 3 4 5 6 
#
# 1 0.008159 -0.003963 -0.003260 0.000000 -0.000794 0.000000
# 2 -0.003963 0.033706 -0.001931 0.000000 0.001640 0.000000
# 3 -0.003260 -0.001931 0.009285 0.000000 -0.003561 0.000000
# 4 0.000000 0.000000 0.000000 0.037780 0.000000 0.002805
# 5 -0.000794 0.001640 -0.003561 0.000000 0.027545 0.000000
# 6 0.000000 0.000000 0.000000 0.002805 0.000000 0.049388
#
#
# Mechanical properties :
#
#
# Convention : Reuss Voigt Hill
#
# Bulk Modulus (GPa) = 30.44925 59.96050 45.20488
# Shear Modulus (GPa) = 25.62546 32.69841 29.16193
#
# Velocity S-wave (km/s) = 3.56401 4.02593 3.80199
# Velocity P-wave (km/s) = 5.65946 7.16466 6.45608
#
# Compressibility (1/GPa) = 0.03284153
#
# Stress axis : x y z
#
# Youngs Moduli (GPa) = 122.56569 29.66855 107.69868
#
# Poissons Ratio (x) = 0.11757 0.35109
# Poissons Ratio (y) = 0.48570 0.20800
# Poissons Ratio (z) = 0.39956 0.05730
#
# Static dielectric constant tensor:
#      x y z
#    x 3.996040 0.000000 0.107780 
#    y 0.000000 3.340500 0.000000 
#    z 0.107780 0.000000 3.814500 
# 
# 
# High freq. dielectric constant tensor:
#      x y z
#    x 1.807760 0.000000 0.003400 
#    y 0.000000 1.756560 0.000000 
#    z 0.003400 0.000000 1.803620 
# 
# From -- ./inp_files/180693.got.cif
#   From: 2010.06.25/outbox.cif.g09.slc.cpg/sg12_91_cif.got.tgz:180693.got - 2010.06.28 00:19:55.
