data_PCOD8083946
_publ_section_title
;
Structure prediction by ZEFSAII (Michael W. Deem and Ramdas Pophale) SiO2 
 PCOD8083946
Probable space group: C 2/M
;
_chemical_formula_sum "Si O2"
_cell_formula_units_Z 52
_cell_length_a 10.053750
_cell_length_b 26.109414
_cell_length_c 11.170025
_cell_angle_alpha 90.000000
_cell_angle_beta 101.376343
_cell_angle_gamma 90.000000
_cell_volume 2874.495954
_symmetry_space_group_name_H-M "C 2/M"
_symmetry_group_IT_number 12
_symmetry_cell_setting 'monoclinic'
loop_
_space_group_symop_operation_xyz
x,y,z
-x,y,-z
-x,-y,-z
x,-y,z
1/2+x,1/2+y,z
1/2-x,1/2+y,-z
1/2-x,1/2-y,-z
1/2+x,1/2-y,z
loop_
_atom_site_type_symbol
_atom_site_label
_atom_site_fract_x
_atom_site_fract_y
_atom_site_fract_z
Si Si1 0.951950 0.057363 0.627951
Si Si2 0.656993 0.173104 0.038767
Si Si3 0.740650 0.363474 0.481065
Si Si4 0.136611 0.788648 0.098061
Si Si5 0.500000 0.197902 0.500000
Si Si6 0.037040 0.790634 0.342262
Si Si7 0.179389 0.869378 0.729489
O O1 0.807570 0.087339 0.606113
O O2 0.000000 0.057169 0.500000
O O3 0.064434 0.086875 0.727386
O O4 0.932872 0.000000 0.674939
O O5 0.674173 0.229375 0.095331
O O6 0.721898 0.130857 0.138850
O O7 0.500000 0.157593 0.000000
O O8 0.740478 0.174980 0.928021
O O9 0.874526 0.339022 0.448818
O O10 0.617360 0.322273 0.458343
O O11 0.765384 0.379544 0.623725
O O12 0.121361 0.797744 0.235693
O O13 0.000000 0.801709 0.000000
O O14 0.526510 0.232171 0.386255
O O15 0.888347 0.813225 0.292793
#
# Coordination Sequence:
#
# PCOD8083946 Si02
#       7
#     8   8   8   8   4   8   8
#     4   8  16  34  58  79  99 125 171 229 272 318
#     4  10  21  33  47  71 104 143 182 229 259 300
#     4  10  21  32  48  79 105 136 177 211 273 325
#     4  10  20  32  46  66  99 148 193 210 245 303
#     4  12  22  30  45  74 115 150 166 212 274 314
#     4  11  20  31  49  69 103 146 180 215 247 311
#     4  10  18  34  52  75 102 134 182 222 261 318
#
# _framework density 18.090126999999999
#
# number of rings (size 3 to 8) (size 9 to 14) (size 15 to 20)
#    0.000    2.000    3.077    2.308    2.154    1.231 
#    0.000    0.385    0.000    0.462    0.000    8.615 
#    0.000    0.000    0.000    0.000    0.000    6.923 
#
# Total GULP energy -322295.847094 kJ/mol
# GULP energy per Si atom -12395.994119 kJ/mol
# Density = 1.804895 g / cm^3
# Si number density = 18.090127 Si / 1000 Ang^3
#
#
#
# Elastic Constant Matrix: (Units=GPa)
#
#
# Indices 1 2 3 4 5 6 
#
# 1 110.5127 46.7555 42.9977 0.0000 10.6018 0.0000
# 2 46.7555 99.4595 32.3086 0.0000 15.8240 0.0000
# 3 42.9977 32.3086 94.8895 0.0000 -0.8217 0.0000
# 4 0.0000 0.0000 0.0000 13.0177 0.0000 2.2569
# 5 10.6018 15.8240 -0.8217 0.0000 29.9079 0.0000
# 6 0.0000 0.0000 0.0000 2.2569 0.0000 10.2702
#
#
#
# Elastic Compliance Matrix: (Units=1/GPa)
#
#
# Indices 1 2 3 4 5 6 
#
# 1 0.012756 -0.004190 -0.004375 0.000000 -0.002425 0.000000
# 2 -0.004190 0.013910 -0.002889 0.000000 -0.005954 0.000000
# 3 -0.004375 -0.002889 0.013534 0.000000 0.003451 0.000000
# 4 0.000000 0.000000 0.000000 0.079861 0.000000 -0.017550
# 5 -0.002425 -0.005954 0.003451 0.000000 0.037541 0.000000
# 6 0.000000 0.000000 0.000000 -0.017550 0.000000 0.101226
#
#
# Mechanical properties :
#
#
# Convention : Reuss Voigt Hill
#
# Bulk Modulus (GPa) = 57.82602 60.99836 59.41219
# Shear Modulus (GPa) = 17.39140 22.82583 20.10861
#
# Velocity S-wave (km/s) = 3.10397 3.55601 3.33765
# Velocity P-wave (km/s) = 6.69933 7.11707 6.91136
#
# Compressibility (1/GPa) = 0.01729325
#
# Stress axis : x y z
#
# Youngs Moduli (GPa) = 78.39446 71.89276 73.88531
#
# Poissons Ratio (x) = 0.30120 0.32322
# Poissons Ratio (y) = 0.32844 0.21346
# Poissons Ratio (z) = 0.34295 0.20771
#
# Static dielectric constant tensor:
#      x y z
#    x 3.368230 0.000000 -0.001980 
#    y 0.000000 3.182900 0.000000 
#    z -0.001980 0.000000 3.241600 
# 
# 
# High freq. dielectric constant tensor:
#      x y z
#    x 1.697280 0.000000 0.004480 
#    y 0.000000 1.652390 0.000000 
#    z 0.004480 0.000000 1.691060 
# 
# From -- ./inp_files/123765.got.cif
#   From: 2010.06.25/outbox.cif.g09.slc.cpg/sg12_62_cif.got.tgz:123765.got - 2010.06.28 00:19:55.
