data_PCOD8083815
_publ_section_title
;
Structure prediction by ZEFSAII (Michael W. Deem and Ramdas Pophale) SiO2 
 PCOD8083815
Probable space group: C 2/M
;
_chemical_formula_sum "Si O2"
_cell_formula_units_Z 56
_cell_length_a 15.194935
_cell_length_b 8.863227
_cell_length_c 26.958074
_cell_angle_alpha 90.000000
_cell_angle_beta 56.973830
_cell_angle_gamma 90.000000
_cell_volume 3043.982127
_symmetry_space_group_name_H-M "C 2/M"
_symmetry_group_IT_number 12
_symmetry_cell_setting 'monoclinic'
loop_
_space_group_symop_operation_xyz
x,y,z
-x,y,-z
-x,-y,-z
x,-y,z
1/2+x,1/2+y,z
1/2-x,1/2+y,-z
1/2-x,1/2-y,-z
1/2+x,1/2-y,z
loop_
_atom_site_type_symbol
_atom_site_label
_atom_site_fract_x
_atom_site_fract_y
_atom_site_fract_z
Si Si1 0.904676 0.674974 0.924364
Si Si2 0.336040 0.169775 0.333347
Si Si3 0.985323 0.670487 0.653354
Si Si4 0.818364 0.822295 0.436295
Si Si5 0.250139 0.823083 0.734032
Si Si6 0.121486 0.823256 0.869365
Si Si7 0.288345 0.175077 0.061869
O O1 0.928560 0.500000 0.907188
O O2 0.818476 0.730588 0.911314
O O3 0.008733 0.771989 0.883879
O O4 0.864359 0.704166 0.992223
O O5 0.460809 0.170242 0.308294
O O6 0.276121 0.261706 0.395763
O O7 0.322276 0.245273 0.284538
O O8 0.291310 0.000000 0.345874
O O9 0.981679 0.500000 0.633346
O O10 0.059189 0.771376 0.594436
O O11 0.868981 0.739294 0.693085
O O12 0.750000 0.750000 0.500000
O O13 0.808100 0.000000 0.441914
O O14 0.207070 0.783259 0.801397
O O15 0.246272 0.000000 0.725745
O O16 0.149495 0.729623 0.909335
O O17 0.119406 0.000000 0.882475
O O18 0.259343 0.000000 0.075748
#
# Coordination Sequence:
#
# PCOD8083815 Si02
#       7
#     8   8   8   8   8   8   8
#     4  10  21  38  59  82 111 146 185 233 288 338
#     4   9  19  35  56  81 109 145 183 225 274 322
#     4   8  18  36  55  77 109 145 180 223 274 322
#     4  10  18  33  58  85 112 144 182 225 274 326
#     4  10  21  38  56  79 111 148 187 226 272 328
#     4  11  23  36  55  84 115 148 188 231 278 337
#     4  10  21  38  59  83 110 144 187 235 286 339
#
# _framework density 18.396955999999999
#
# number of rings (size 3 to 8) (size 9 to 14) (size 15 to 20)
#    0.857    1.429    0.000    3.000    0.000    6.286 
#    0.000    2.143    0.000    4.286    0.000    0.000 
#    0.000    0.000    0.000    0.000    0.000    0.000 
#
# Total GULP energy -347099.173801 kJ/mol
# GULP energy per Si atom -12396.399064 kJ/mol
# Density = 1.835508 g / cm^3
# Si number density = 18.396956 Si / 1000 Ang^3
#
#
#
# Elastic Constant Matrix: (Units=GPa)
#
#
# Indices 1 2 3 4 5 6 
#
# 1 68.7610 20.3582 23.7118 0.0000 -8.9356 0.0000
# 2 20.3582 85.2451 45.3077 0.0000 -2.7606 0.0000
# 3 23.7118 45.3077 55.7184 0.0000 -14.1285 0.0000
# 4 0.0000 0.0000 0.0000 29.6740 0.0000 3.1007
# 5 -8.9356 -2.7606 -14.1285 0.0000 27.1073 0.0000
# 6 0.0000 0.0000 0.0000 3.1007 0.0000 33.8309
#
#
#
# Elastic Compliance Matrix: (Units=1/GPa)
#
#
# Indices 1 2 3 4 5 6 
#
# 1 0.017181 -0.000822 -0.006024 0.000000 0.002440 0.000000
# 2 -0.000822 0.022181 -0.019799 0.000000 -0.008332 0.000000
# 3 -0.006024 -0.019799 0.041017 0.000000 0.017376 0.000000
# 4 0.000000 0.000000 0.000000 0.034025 0.000000 -0.003119
# 5 0.002440 -0.008332 0.017376 0.000000 0.045903 0.000000
# 6 0.000000 0.000000 0.000000 -0.003119 0.000000 0.029845
#
#
# Mechanical properties :
#
#
# Convention : Reuss Voigt Hill
#
# Bulk Modulus (GPa) = 36.91758 43.16442 40.04100
# Shear Modulus (GPa) = 19.80421 26.14556 22.97488
#
# Velocity S-wave (km/s) = 3.28456 3.77396 3.53773
# Velocity P-wave (km/s) = 5.87326 6.51951 6.20481
#
# Compressibility (1/GPa) = 0.02708737
#
# Stress axis : x y z
#
# Youngs Moduli (GPa) = 58.20345 45.08455 24.38022
#
# Poissons Ratio (x) = 0.03707 0.14688
# Poissons Ratio (y) = 0.04785 0.48270
# Poissons Ratio (z) = 0.35064 0.89263
#
# Static dielectric constant tensor:
#      x y z
#    x 3.327530 0.000000 -0.086900 
#    y 0.000000 3.417930 0.000000 
#    z -0.086900 0.000000 3.242740 
# 
# 
# High freq. dielectric constant tensor:
#      x y z
#    x 1.707620 0.000000 -0.002990 
#    y 0.000000 1.723310 0.000000 
#    z -0.002990 0.000000 1.698010 
# 
# From -- ./inp_files/338550.got.cif
#   From: 2010.06.25/outbox.cif.g09.slc.cpg/sg12_170_cif.got.tgz:338550.got - 2010.06.28 00:19:55.
