data_PCOD8083325
_publ_section_title
;
Structure prediction by ZEFSAII (Michael W. Deem and Ramdas Pophale) SiO2 
 PCOD8083325
Probable space group: C 2/M
;
_chemical_formula_sum "Si O2"
_cell_formula_units_Z 56
_cell_length_a 29.451410
_cell_length_b 12.487503
_cell_length_c 14.536987
_cell_angle_alpha 90.000000
_cell_angle_beta 141.873565
_cell_angle_gamma 90.000000
_cell_volume 3300.820739
_symmetry_space_group_name_H-M "C 2/M"
_symmetry_group_IT_number 12
_symmetry_cell_setting 'monoclinic'
loop_
_space_group_symop_operation_xyz
x,y,z
-x,y,-z
-x,-y,-z
x,-y,z
1/2+x,1/2+y,z
1/2-x,1/2+y,-z
1/2-x,1/2-y,-z
1/2+x,1/2-y,z
loop_
_atom_site_type_symbol
_atom_site_label
_atom_site_fract_x
_atom_site_fract_y
_atom_site_fract_z
Si Si1 0.072800 0.375733 0.357596
Si Si2 0.332458 0.278896 0.157713
Si Si3 0.564240 0.500000 0.477984
Si Si4 0.594028 0.876763 0.857520
Si Si5 0.577409 0.127182 0.158005
Si Si6 0.099555 0.000000 0.748432
Si Si7 0.309571 0.126125 0.813376
Si Si8 0.652642 0.294320 0.601851
O O1 0.091331 0.500000 0.400329
O O2 0.093004 0.336472 0.287050
O O3 0.121441 0.312819 0.507829
O O4 0.987370 0.352682 0.237576
O O5 0.388702 0.193590 0.204319
O O6 0.352011 0.396272 0.149006
O O7 0.343639 0.276082 0.283895
O O8 0.250000 0.250000 0.000000
O O9 0.580259 0.500000 0.611057
O O10 0.477130 0.500000 0.317403
O O11 0.600393 0.394048 0.491889
O O12 0.603758 0.000000 0.844668
O O13 0.649554 0.845115 0.027061
O O14 0.642750 0.168559 0.196669
O O15 0.572140 0.000000 0.143048
O O16 0.500000 0.176171 0.000000
O O17 0.232895 0.187188 0.688054
O O18 0.295157 0.000000 0.784572
#
# Coordination Sequence:
#
# PCOD8083325 Si02
#       8
#     8   8   4   8   8   4   8   8
#     4  10  21  36  53  82 112 140 167 215 274 330
#     4  11  22  34  52  78 106 144 183 218 258 310
#     4   9  18  36  54  72  97 136 184 226 259 289
#     4  10  20  34  56  78 106 138 179 218 265 315
#     4   9  16  31  56  82 105 133 175 221 266 315
#     4   9  20  34  52  72  99 136 186 228 250 298
#     4  10  18  32  56  82 101 133 183 230 262 298
#     4  11  21  34  54  77 111 138 177 222 263 311
#
# _framework density 16.965477
#
# number of rings (size 3 to 8) (size 9 to 14) (size 15 to 20)
#    0.000    2.000    3.571    0.857    1.000    2.857 
#    0.000    1.429    0.000    0.000    0.000    0.500 
#    0.000    0.000    0.000    0.000    0.000    0.000 
#
# Total GULP energy -347242.058682 kJ/mol
# GULP energy per Si atom -12401.502096 kJ/mol
# Density = 1.692686 g / cm^3
# Si number density = 16.965477 Si / 1000 Ang^3
#
#
#
# Elastic Constant Matrix: (Units=GPa)
#
#
# Indices 1 2 3 4 5 6 
#
# 1 120.3328 55.5139 39.3830 0.0000 10.8394 0.0000
# 2 55.5139 82.4936 54.7085 0.0000 8.0683 0.0000
# 3 39.3830 54.7085 85.4335 0.0000 16.4549 0.0000
# 4 0.0000 0.0000 0.0000 25.9121 0.0000 4.7400
# 5 10.8394 8.0683 16.4549 0.0000 27.8573 0.0000
# 6 0.0000 0.0000 0.0000 4.7400 0.0000 24.2150
#
#
#
# Elastic Compliance Matrix: (Units=1/GPa)
#
#
# Indices 1 2 3 4 5 6 
#
# 1 0.012211 -0.007920 -0.000095 0.000000 -0.002402 0.000000
# 2 -0.007920 0.026317 -0.013909 0.000000 0.003676 0.000000
# 3 -0.000095 -0.013909 0.022424 0.000000 -0.009180 0.000000
# 4 0.000000 0.000000 0.000000 0.040025 0.000000 -0.007835
# 5 -0.002402 0.003676 -0.009180 0.000000 0.041190 0.000000
# 6 0.000000 0.000000 0.000000 -0.007835 0.000000 0.042830
#
#
# Mechanical properties :
#
#
# Convention : Reuss Voigt Hill
#
# Bulk Modulus (GPa) = 58.46690 65.27451 61.87071
# Shear Modulus (GPa) = 21.31772 24.84053 23.07913
#
# Velocity S-wave (km/s) = 3.54861 3.83061 3.69230
# Velocity P-wave (km/s) = 7.16431 7.62386 7.39765
#
# Compressibility (1/GPa) = 0.01710369
#
# Stress axis : x y z
#
# Youngs Moduli (GPa) = 81.89087 37.99881 44.59499
#
# Poissons Ratio (x) = 0.30094 0.00425
# Poissons Ratio (y) = 0.64854 0.62029
# Poissons Ratio (z) = 0.00780 0.52854
#
# Static dielectric constant tensor:
#      x y z
#    x 3.416110 0.000000 0.107300 
#    y 0.000000 3.075600 0.000000 
#    z 0.107300 0.000000 3.052940 
# 
# 
# High freq. dielectric constant tensor:
#      x y z
#    x 1.665190 0.000000 0.014570 
#    y 0.000000 1.633690 0.000000 
#    z 0.014570 0.000000 1.645210 
# 
# From -- ./inp_files/250608.got.cif
#   From: 2010.06.25/outbox.cif.g09.slc.cpg/sg12_126_cif.got.tgz:250608.got - 2010.06.28 00:19:55.
