data_PCOD8083317
_publ_section_title
;
Structure prediction by ZEFSAII (Michael W. Deem and Ramdas Pophale) SiO2 
 PCOD8083317
Probable space group: C 2/M
;
_chemical_formula_sum "Si O2"
_cell_formula_units_Z 56
_cell_length_a 18.040355
_cell_length_b 15.717002
_cell_length_c 22.003111
_cell_angle_alpha 90.000000
_cell_angle_beta 28.782752
_cell_angle_gamma 90.000000
_cell_volume 3003.903780
_symmetry_space_group_name_H-M "C 2/M"
_symmetry_group_IT_number 12
_symmetry_cell_setting 'monoclinic'
loop_
_space_group_symop_operation_xyz
x,y,z
-x,y,-z
-x,-y,-z
x,-y,z
1/2+x,1/2+y,z
1/2-x,1/2+y,-z
1/2-x,1/2-y,-z
1/2+x,1/2-y,z
loop_
_atom_site_type_symbol
_atom_site_label
_atom_site_fract_x
_atom_site_fract_y
_atom_site_fract_z
Si Si1 0.480147 0.192242 0.242442
Si Si2 0.800995 0.905514 0.518234
Si Si3 0.719332 0.403795 0.946951
Si Si4 0.094450 0.844827 0.785559
Si Si5 0.489582 0.745733 0.647587
Si Si6 0.165736 0.800490 0.867243
Si Si7 0.670069 0.905830 0.480910
O O1 0.354987 0.116795 0.333574
O O2 0.649927 0.153213 0.115199
O O3 0.445129 0.250521 0.209832
O O4 0.461408 0.248388 0.317117
O O5 0.773418 0.902215 0.466434
O O6 0.931781 0.835982 0.440049
O O7 0.855055 0.000000 0.499444
O O8 0.778243 0.500000 0.903353
O O9 0.690463 0.375470 0.898403
O O10 0.564851 0.397014 0.097784
O O11 0.169267 0.839929 0.798033
O O12 0.216942 0.893224 0.656679
O O13 0.305595 0.733549 0.773247
O O14 0.539584 0.832721 0.576851
O O15 0.000000 0.755671 0.000000
O O16 0.592829 0.000000 0.530848
#
# Coordination Sequence:
#
# PCOD8083317 Si02
#       7
#     8   8   8   8   8   8   8
#     4  10  18  34  55  78 107 140 183 222 266 314
#     4  10  18  32  56  80 105 138 176 223 272 318
#     4  10  21  35  53  79 110 147 185 218 266 328
#     4  11  19  34  52  78 110 147 176 224 263 313
#     4  10  18  36  54  75 108 141 179 220 265 325
#     4   9  22  36  54  74 103 150 180 212 269 325
#     4  10  19  31  52  84 112 137 172 216 272 324
#
# _framework density 18.642408
#
# number of rings (size 3 to 8) (size 9 to 14) (size 15 to 20)
#    0.000    2.000    2.857    2.143    0.000    7.143 
#    0.000    0.714    0.000    3.000    0.000    0.000 
#    0.000    0.000    0.000    0.000    0.000    0.000 
#
# Total GULP energy -347155.890860 kJ/mol
# GULP energy per Si atom -12398.424674 kJ/mol
# Density = 1.859998 g / cm^3
# Si number density = 18.642408 Si / 1000 Ang^3
#
#
#
# Elastic Constant Matrix: (Units=GPa)
#
#
# Indices 1 2 3 4 5 6 
#
# 1 33.5256 31.4336 25.4757 0.0015 -3.2105 0.0002
# 2 31.4336 119.8370 35.0177 -0.0042 -15.8864 0.0016
# 3 25.4757 35.0177 91.9239 -0.0032 -8.8608 0.0018
# 4 0.0015 -0.0042 -0.0032 24.1714 0.0034 0.8562
# 5 -3.2105 -15.8864 -8.8608 0.0034 30.0420 -0.0006
# 6 0.0002 0.0016 0.0018 0.8562 -0.0006 8.2972
#
#
#
# Elastic Compliance Matrix: (Units=1/GPa)
#
#
# Indices 1 2 3 4 5 6 
#
# 1 0.045630 -0.009658 -0.009252 -0.000005 -0.002960 0.000003
# 2 -0.009658 0.011932 -0.001400 0.000002 0.004865 -0.000002
# 3 -0.009252 -0.001400 0.014213 0.000002 0.002463 -0.000003
# 4 -0.000005 0.000002 0.000002 0.041523 -0.000004 -0.004285
# 5 -0.002960 0.004865 0.002463 -0.000004 0.036269 0.000002
# 6 0.000003 -0.000002 -0.000003 -0.004285 0.000002 0.120964
#
#
# Mechanical properties :
#
#
# Convention : Reuss Voigt Hill
#
# Bulk Modulus (GPa) = 32.09657 47.68227 39.88942
# Shear Modulus (GPa) = 15.55031 22.72608 19.13819
#
# Velocity S-wave (km/s) = 2.89127 3.49528 3.20753
# Velocity P-wave (km/s) = 5.32919 6.47473 5.92969
#
# Compressibility (1/GPa) = 0.03115598
#
# Stress axis : x y z
#
# Youngs Moduli (GPa) = 21.91525 83.80918 70.35594
#
# Poissons Ratio (x) = 0.80940 0.65095
# Poissons Ratio (y) = 0.21165 0.09849
# Poissons Ratio (z) = 0.20276 0.11732
#
# Static dielectric constant tensor:
#      x y z
#    x 3.194610 -0.000010 -0.050790 
#    y -0.000010 3.353570 0.000030 
#    z -0.050790 0.000030 3.601570 
# 
# 
# High freq. dielectric constant tensor:
#      x y z
#    x 1.694260 0.000000 -0.003390 
#    y 0.000000 1.705740 0.000000 
#    z -0.003390 0.000000 1.739320 
# 
# From -- ./inp_files/189591.got.cif
#   From: 2010.06.25/outbox.cif.g09.slc.cpg/sg12_95_cif.got.tgz:189591.got - 2010.06.28 00:19:55.
