data_PCOD8083274
_publ_section_title
;
Structure prediction by ZEFSAII (Michael W. Deem and Ramdas Pophale) SiO2 
 PCOD8083274
Probable space group: C 2/M
;
_chemical_formula_sum "Si O2"
_cell_formula_units_Z 64
_cell_length_a 30.346801
_cell_length_b 9.058709
_cell_length_c 16.150880
_cell_angle_alpha 90.000000
_cell_angle_beta 47.733640
_cell_angle_gamma 90.000000
_cell_volume 3285.658787
_symmetry_space_group_name_H-M "C 2/M"
_symmetry_group_IT_number 12
_symmetry_cell_setting 'monoclinic'
loop_
_space_group_symop_operation_xyz
x,y,z
-x,y,-z
-x,-y,-z
x,-y,z
1/2+x,1/2+y,z
1/2-x,1/2+y,-z
1/2-x,1/2-y,-z
1/2+x,1/2-y,z
loop_
_atom_site_type_symbol
_atom_site_label
_atom_site_fract_x
_atom_site_fract_y
_atom_site_fract_z
Si Si1 0.511361 0.674814 0.735834
Si Si2 0.338363 0.176064 0.728569
Si Si3 0.262809 0.332751 0.567587
Si Si4 0.205342 0.828929 0.921153
Si Si5 0.881354 0.831170 0.511059
Si Si6 0.384095 0.323879 0.829281
Si Si7 0.669154 0.328911 0.788201
Si Si8 0.544854 0.676052 0.874077
O O1 0.515330 0.500000 0.737354
O O2 0.557879 0.728836 0.607183
O O3 0.445757 0.726822 0.793143
O O4 0.527575 0.740791 0.805868
O O5 0.271208 0.240271 0.826332
O O6 0.364529 0.227208 0.608250
O O7 0.379969 0.244200 0.746655
O O8 0.340139 0.000000 0.729172
O O9 0.242019 0.500000 0.582847
O O10 0.250000 0.250000 0.500000
O O11 0.332226 0.322114 0.501106
O O12 0.226458 0.260914 0.687897
O O13 0.163756 0.803483 0.893457
O O14 0.214883 0.000000 0.925157
O O15 0.169916 0.763743 0.044654
O O16 0.887892 0.000000 0.534433
O O17 0.382203 0.500000 0.820339
O O18 0.680187 0.500000 0.753457
O O19 0.610718 0.269356 0.815695
O O20 0.542535 0.500000 0.877281
O O21 0.500000 0.738966 0.000000
#
# Coordination Sequence:
#
# PCOD8083274 Si02
#       8
#     8   8   8   8   8   8   8   8
#     4   9  18  33  53  79 109 141 184 231 271 318
#     4  11  22  37  56  81 112 143 181 229 280 332
#     4  11  22  35  54  80 110 144 184 224 270 328
#     4   9  18  33  55  83 112 141 177 225 279 331
#     4  10  21  38  57  79 109 146 186 228 273 325
#     4  10  20  36  58  81 107 143 185 229 279 333
#     4  10  18  32  55  82 113 144 180 225 274 327
#     4   9  16  28  52  85 115 145 182 226 273 322
#
# _framework density 19.478590000000001
#
# number of rings (size 3 to 8) (size 9 to 14) (size 15 to 20)
#    0.000    2.125    1.250    2.625    0.000    6.000 
#    0.000    4.375    0.000    1.125    0.000    0.000 
#    0.000    0.000    0.000    0.000    0.000    0.000 
#
# Total GULP energy -396805.026296 kJ/mol
# GULP energy per Si atom -12400.157072 kJ/mol
# Density = 1.943426 g / cm^3
# Si number density = 19.478590 Si / 1000 Ang^3
#
#
#
# Elastic Constant Matrix: (Units=GPa)
#
#
# Indices 1 2 3 4 5 6 
#
# 1 119.5468 26.2601 48.6128 -0.0001 5.3585 0.0001
# 2 26.2601 48.8840 27.1708 -0.0013 4.7390 0.0011
# 3 48.6128 27.1708 130.7581 -0.0003 -1.6944 0.0002
# 4 -0.0001 -0.0013 -0.0003 21.6244 0.0001 1.3833
# 5 5.3585 4.7390 -1.6944 0.0001 34.9979 -0.0001
# 6 0.0001 0.0011 0.0002 1.3833 -0.0001 21.3631
#
#
#
# Elastic Compliance Matrix: (Units=1/GPa)
#
#
# Indices 1 2 3 4 5 6 
#
# 1 0.010532 -0.003789 -0.003145 0.000000 -0.001252 0.000000
# 2 -0.003789 0.024894 -0.003803 0.000002 -0.002975 -0.000001
# 3 -0.003145 -0.003803 0.009626 0.000000 0.001462 0.000000
# 4 0.000000 0.000002 0.000000 0.046436 0.000000 -0.003007
# 5 -0.001252 -0.002975 0.001462 0.000000 0.029238 0.000000
# 6 0.000000 -0.000001 0.000000 -0.003007 0.000000 0.047004
#
#
# Mechanical properties :
#
#
# Convention : Reuss Voigt Hill
#
# Bulk Modulus (GPa) = 42.40899 55.91959 49.16429
# Shear Modulus (GPa) = 25.37265 28.74011 27.05638
#
# Velocity S-wave (km/s) = 3.61306 3.84535 3.73101
# Velocity P-wave (km/s) = 6.26298 6.96320 6.62236
#
# Compressibility (1/GPa) = 0.02357991
#
# Stress axis : x y z
#
# Youngs Moduli (GPa) = 94.94941 40.17056 103.88610
#
# Poissons Ratio (x) = 0.15219 0.32667
# Poissons Ratio (y) = 0.35972 0.39507
# Poissons Ratio (z) = 0.29857 0.15276
#
# Static dielectric constant tensor:
#      x y z
#    x 3.625120 0.000000 0.046780 
#    y 0.000000 3.213720 0.000000 
#    z 0.046780 0.000000 3.337730 
# 
# 
# High freq. dielectric constant tensor:
#      x y z
#    x 1.769370 0.000000 0.002430 
#    y 0.000000 1.710070 0.000000 
#    z 0.002430 0.000000 1.770610 
# 
# From -- ./inp_files/249856.got.cif
#   From: 2010.06.25/outbox.cif.g09.slc.cpg/sg12_125_cif.got.tgz:249856.got - 2010.06.28 00:19:55.
