data_PCOD8083405
_publ_section_title
;
Structure prediction by ZEFSAII (Michael W. Deem and Ramdas Pophale) SiO2 
 PCOD8083405
Probable space group: C 2/M
;
_chemical_formula_sum "Si O2"
_cell_formula_units_Z 56
_cell_length_a 15.360998
_cell_length_b 8.621012
_cell_length_c 22.300897
_cell_angle_alpha 90.000000
_cell_angle_beta 69.751914
_cell_angle_gamma 90.000000
_cell_volume 2770.746441
_symmetry_space_group_name_H-M "C 2/M"
_symmetry_group_IT_number 12
_symmetry_cell_setting 'monoclinic'
loop_
_space_group_symop_operation_xyz
x,y,z
-x,y,-z
-x,-y,-z
x,-y,z
1/2+x,1/2+y,z
1/2-x,1/2+y,-z
1/2-x,1/2-y,-z
1/2+x,1/2-y,z
loop_
_atom_site_type_symbol
_atom_site_label
_atom_site_fract_x
_atom_site_fract_y
_atom_site_fract_z
Si Si1 0.034081 0.181089 0.136076
Si Si2 0.575168 0.319313 0.356516
Si Si3 0.119738 0.681025 0.565857
Si Si4 0.139790 0.681775 0.219905
Si Si5 0.207873 0.680856 0.418839
Si Si6 0.658821 0.683178 0.863364
Si Si7 0.157376 0.181332 0.996294
O O1 0.083923 0.288729 0.172331
O O2 0.925447 0.227698 0.160801
O O3 0.049022 0.000000 0.148523
O O4 0.072442 0.219644 0.060652
O O5 0.554829 0.500000 0.368127
O O6 0.486627 0.226309 0.401395
O O7 0.591793 0.278576 0.283614
O O8 0.665504 0.272882 0.373047
O O9 0.133091 0.500000 0.574298
O O10 0.149345 0.726241 0.491582
O O11 0.184796 0.771036 0.597809
O O12 0.137171 0.500000 0.236120
O O13 0.244732 0.745103 0.187043
O O14 0.202767 0.500000 0.405343
O O15 0.665127 0.500000 0.868032
O O16 0.640281 0.753231 0.934213
O O17 0.171639 0.000000 0.987073
O O18 0.250000 0.250000 0.000000
#
# Coordination Sequence:
#
# PCOD8083405 Si02
#       7
#     8   8   8   8   8   8   8
#     4  10  20  36  59  84 111 146 190 238 288 353
#     4  12  25  40  60  86 120 161 206 249 297 354
#     4  10  21  39  64  94 125 157 197 244 296 352
#     4  11  23  40  58  79 113 152 194 244 295 352
#     4  10  21  39  64  94 126 158 195 242 296 354
#     4   9  19  36  58  82 110 148 189 230 288 351
#     4  10  18  32  57  85 113 144 183 233 289 348
#
# _framework density 20.21116
#
# number of rings (size 3 to 8) (size 9 to 14) (size 15 to 20)
#    0.000    1.714    1.429    3.429    0.000    6.286 
#    0.000    6.429    0.000    1.714    0.000    0.000 
#    0.000    0.000    0.000    0.000    0.000    0.000 
#
# Total GULP energy -347276.301409 kJ/mol
# GULP energy per Si atom -12402.725050 kJ/mol
# Density = 2.016516 g / cm^3
# Si number density = 20.211160 Si / 1000 Ang^3
#
#
#
# Elastic Constant Matrix: (Units=GPa)
#
#
# Indices 1 2 3 4 5 6 
#
# 1 108.0710 13.9642 17.9907 0.0000 -3.4842 0.0000
# 2 13.9642 37.2896 30.2155 0.0000 -0.8655 0.0000
# 3 17.9907 30.2155 53.0766 0.0000 -1.5298 0.0000
# 4 0.0000 0.0000 0.0000 26.3585 0.0000 4.1019
# 5 -3.4842 -0.8655 -1.5298 0.0000 13.5461 0.0000
# 6 0.0000 0.0000 0.0000 4.1019 0.0000 33.7809
#
#
#
# Elastic Compliance Matrix: (Units=1/GPa)
#
#
# Indices 1 2 3 4 5 6 
#
# 1 0.009937 -0.001842 -0.002257 0.000000 0.002183 0.000000
# 2 -0.001842 0.050121 -0.027921 0.000000 -0.000425 0.000000
# 3 -0.002257 -0.027921 0.035548 0.000000 0.001650 0.000000
# 4 0.000000 0.000000 0.000000 0.038669 0.000000 -0.004695
# 5 0.002183 -0.000425 0.001650 0.000000 0.074543 0.000000
# 6 0.000000 0.000000 0.000000 -0.004695 0.000000 0.030173
#
#
# Mechanical properties :
#
#
# Convention : Reuss Voigt Hill
#
# Bulk Modulus (GPa) = 31.67852 35.86425 33.77139
# Shear Modulus (GPa) = 15.94629 23.82156 19.88392
#
# Velocity S-wave (km/s) = 2.81193 3.43685 3.13998
# Velocity P-wave (km/s) = 5.12352 5.79073 5.46731
#
# Compressibility (1/GPa) = 0.03156713
#
# Stress axis : x y z
#
# Youngs Moduli (GPa) = 100.63132 19.95168 28.13099
#
# Poissons Ratio (x) = 0.03675 0.06349
# Poissons Ratio (y) = 0.18536 0.78544
# Poissons Ratio (z) = 0.22710 0.55707
#
# Static dielectric constant tensor:
#      x y z
#    x 3.852570 0.000000 -0.093380 
#    y 0.000000 3.482820 0.000000 
#    z -0.093380 0.000000 3.736040 
# 
# 
# High freq. dielectric constant tensor:
#      x y z
#    x 1.802430 0.000000 0.000100 
#    y 0.000000 1.774020 0.000000 
#    z 0.000100 0.000000 1.786120 
# 
# From -- ./inp_files/337906.got.cif
#   From: 2010.06.25/outbox.cif.g09.slc.cpg/sg12_169_cif.got.tgz:337906.got - 2010.06.28 00:19:55.
