data_PCOD8083262
_publ_section_title
;
Structure prediction by ZEFSAII (Michael W. Deem and Ramdas Pophale) SiO2 
 PCOD8083262
Probable space group: C 2/M
;
_chemical_formula_sum "Si O2"
_cell_formula_units_Z 56
_cell_length_a 30.802077
_cell_length_b 9.549422
_cell_length_c 19.868839
_cell_angle_alpha 90.000000
_cell_angle_beta 148.409012
_cell_angle_gamma 90.000000
_cell_volume 3061.527245
_symmetry_space_group_name_H-M "C 2/M"
_symmetry_group_IT_number 12
_symmetry_cell_setting 'monoclinic'
loop_
_space_group_symop_operation_xyz
x,y,z
-x,y,-z
-x,-y,-z
x,-y,z
1/2+x,1/2+y,z
1/2-x,1/2+y,-z
1/2-x,1/2-y,-z
1/2+x,1/2-y,z
loop_
_atom_site_type_symbol
_atom_site_label
_atom_site_fract_x
_atom_site_fract_y
_atom_site_fract_z
Si Si1 0.301834 0.661926 0.122339
Si Si2 0.719791 0.839340 0.158110
Si Si3 0.482674 0.333374 0.401667
Si Si4 0.349002 0.664138 0.437130
Si Si5 0.927755 0.153417 0.001657
Si Si6 0.396333 0.654921 0.803728
Si Si7 0.753382 0.663487 0.572048
O O1 0.301895 0.500000 0.099373
O O2 0.259879 0.679645 0.138832
O O3 0.396139 0.720685 0.255121
O O4 0.250000 0.750000 0.000000
O O5 0.781310 0.771905 0.295599
O O6 0.631289 0.763460 0.040088
O O7 0.701908 0.000000 0.151866
O O8 0.500000 0.275866 0.500000
O O9 0.477458 0.500000 0.397851
O O10 0.558586 0.277969 0.455302
O O11 0.349689 0.500000 0.423269
O O12 0.324818 0.696624 0.482503
O O13 0.918359 0.149292 0.909991
O O14 0.907720 0.000000 0.005675
O O15 0.024947 0.189483 0.140591
O O16 0.361051 0.500000 0.735756
O O17 0.334497 0.784110 0.716767
O O18 0.760062 0.500000 0.565051
O O19 0.750000 0.750000 0.500000
#
# Coordination Sequence:
#
# PCOD8083262 Si02
#       7
#     8   8   8   8   8   8   8
#     4  10  21  36  57  82 114 148 178 225 280 335
#     4  10  18  32  55  82 107 136 180 231 273 321
#     4   9  15  30  58  86 107 136 184 232 271 319
#     4   9  17  31  54  82 105 132 182 233 270 318
#     4   9  18  32  53  79 105 135 172 221 271 320
#     4   9  18  34  53  75 104 136 176 221 267 322
#     4  11  22  36  54  76 108 147 183 229 281 329
#
# _framework density 18.291525
#
# number of rings (size 3 to 8) (size 9 to 14) (size 15 to 20)
#    0.000    2.429    2.857    1.286    0.000    1.143 
#    2.571    1.429    0.000    2.143    0.000    0.000 
#    0.000    0.000    0.000    0.000    0.000    0.000 
#
# Total GULP energy -346967.404794 kJ/mol
# GULP energy per Si atom -12391.693028 kJ/mol
# Density = 1.824989 g / cm^3
# Si number density = 18.291525 Si / 1000 Ang^3
#
#
#
# Elastic Constant Matrix: (Units=GPa)
#
#
# Indices 1 2 3 4 5 6 
#
# 1 100.1272 48.8894 49.4617 0.0000 20.0009 0.0000
# 2 48.8894 66.2526 40.0364 0.0000 11.5076 0.0000
# 3 49.4617 40.0364 95.1294 0.0000 17.0732 0.0000
# 4 0.0000 0.0000 0.0000 28.4441 0.0000 -0.5544
# 5 20.0009 11.5076 17.0732 0.0000 36.4553 0.0000
# 6 0.0000 0.0000 0.0000 -0.5544 0.0000 24.0891
#
#
#
# Elastic Compliance Matrix: (Units=1/GPa)
#
#
# Indices 1 2 3 4 5 6 
#
# 1 0.017799 -0.009705 -0.004331 0.000000 -0.004673 0.000000
# 2 -0.009705 0.025766 -0.005779 0.000000 -0.000102 0.000000
# 3 -0.004331 -0.005779 0.015768 0.000000 -0.003184 0.000000
# 4 0.000000 0.000000 0.000000 0.035172 0.000000 0.000810
# 5 -0.004673 -0.000102 -0.003184 0.000000 0.031518 0.000000
# 6 0.000000 0.000000 0.000000 0.000810 0.000000 0.041531
#
#
# Mechanical properties :
#
#
# Convention : Reuss Voigt Hill
#
# Bulk Modulus (GPa) = 50.75922 59.80937 55.28429
# Shear Modulus (GPa) = 23.39145 26.00581 24.69863
#
# Velocity S-wave (km/s) = 3.57993 3.77469 3.67860
# Velocity P-wave (km/s) = 6.70061 7.19490 6.95215
#
# Compressibility (1/GPa) = 0.01970086
#
# Stress axis : x y z
#
# Youngs Moduli (GPa) = 56.18202 38.81117 63.42092
#
# Poissons Ratio (x) = 0.37668 0.27469
# Poissons Ratio (y) = 0.54527 0.36653
# Poissons Ratio (z) = 0.24333 0.22430
#
# Static dielectric constant tensor:
#      x y z
#    x 3.421930 0.000000 0.244890 
#    y 0.000000 -0.891380 0.000000 
#    z 0.244890 0.000000 3.013770 
# 
# 
# High freq. dielectric constant tensor:
#      x y z
#    x 1.711970 0.000000 0.014880 
#    y 0.000000 1.674290 0.000000 
#    z 0.014880 0.000000 1.706070 
# 
# From -- ./inp_files/277083.got.cif
#   From: 2010.06.25/outbox.cif.g09.slc.cpg/sg12_139_cif.got.tgz:277083.got - 2010.06.28 00:19:55.
