data_PCOD8083558
_publ_section_title
;
Structure prediction by ZEFSAII (Michael W. Deem and Ramdas Pophale) SiO2 
 PCOD8083558
Probable space group: C 2/M
;
_chemical_formula_sum "Si O2"
_cell_formula_units_Z 40
_cell_length_a 25.470567
_cell_length_b 8.735998
_cell_length_c 17.854769
_cell_angle_alpha 90.000000
_cell_angle_beta 33.537563
_cell_angle_gamma 90.000000
_cell_volume 2194.950520
_symmetry_space_group_name_H-M "C 2/M"
_symmetry_group_IT_number 12
_symmetry_cell_setting 'monoclinic'
loop_
_space_group_symop_operation_xyz
x,y,z
-x,y,-z
-x,-y,-z
x,-y,z
1/2+x,1/2+y,z
1/2-x,1/2+y,-z
1/2-x,1/2-y,-z
1/2+x,1/2-y,z
loop_
_atom_site_type_symbol
_atom_site_label
_atom_site_fract_x
_atom_site_fract_y
_atom_site_fract_z
Si Si1 0.816420 0.320846 0.589156
Si Si2 0.030730 0.318554 0.712443
Si Si3 0.608396 0.824817 0.346843
Si Si4 0.650511 0.320140 0.140829
Si Si5 0.829382 0.179673 0.353151
O O1 0.837067 0.500000 0.567697
O O2 0.897901 0.254585 0.436839
O O3 0.827818 0.258480 0.660121
O O4 0.709500 0.287276 0.685229
O O5 0.023386 0.500000 0.721621
O O6 0.070632 0.261228 0.746140
O O7 0.927521 0.248756 0.822431
O O8 0.500000 0.814091 0.500000
O O9 0.626825 0.718255 0.254512
O O10 0.635048 0.000000 0.294474
O O11 0.653560 0.500000 0.126187
O O12 0.750000 0.250000 0.000000
O O13 0.750000 0.250000 0.500000
O O14 0.838854 0.000000 0.356397
#
# Coordination Sequence:
#
# PCOD8083558 Si02
#       5
#     8   8   8   8   8
#     4   8  15  28  50  78 109 142 175 212 265 322
#     4  10  18  33  53  76 106 143 181 223 272 324
#     4  10  18  34  58  81 110 147 180 219 271 324
#     4  12  25  39  55  79 109 145 185 227 273 328
#     4   9  16  27  45  75 109 143 179 219 265 318
#
# _framework density 18.223645999999999
#
# number of rings (size 3 to 8) (size 9 to 14) (size 15 to 20)
#    0.000    2.200    2.000    4.200    0.000    0.400 
#    0.000    2.000    0.000    1.200    0.000    8.400 
#    0.000    0.000    0.000    0.000    0.000    0.000 
#
# Total GULP energy -247864.041890 kJ/mol
# GULP energy per Si atom -12393.202094 kJ/mol
# Density = 1.818217 g / cm^3
# Si number density = 18.223646 Si / 1000 Ang^3
#
#
#
# Elastic Constant Matrix: (Units=GPa)
#
#
# Indices 1 2 3 4 5 6 
#
# 1 177.3105 54.1123 41.6932 0.0014 -30.7308 -0.0005
# 2 54.1123 102.3987 30.6920 -0.0012 -14.1333 -0.0008
# 3 41.6932 30.6920 57.6789 -0.0035 -18.9867 -0.0001
# 4 0.0014 -0.0012 -0.0035 21.4464 0.0014 -4.1737
# 5 -30.7308 -14.1333 -18.9867 0.0014 25.1060 0.0002
# 6 -0.0005 -0.0008 -0.0001 -4.1737 0.0002 32.1087
#
#
#
# Elastic Compliance Matrix: (Units=1/GPa)
#
#
# Indices 1 2 3 4 5 6 
#
# 1 0.008167 -0.002712 -0.002227 -0.000002 0.006786 0.000000
# 2 -0.002712 0.012637 -0.004680 0.000000 0.000255 0.000000
# 3 -0.002227 -0.004680 0.026194 0.000003 0.014449 0.000000
# 4 -0.000002 0.000000 0.000003 0.047838 -0.000002 0.006218
# 5 0.006786 0.000255 0.014449 -0.000002 0.059209 0.000000
# 6 0.000000 0.000000 0.000000 0.006218 0.000000 0.031952
#
#
# Mechanical properties :
#
#
# Convention : Reuss Voigt Hill
#
# Bulk Modulus (GPa) = 36.02248 65.59813 50.81031
# Shear Modulus (GPa) = 23.31135 29.79159 26.55147
#
# Velocity S-wave (km/s) = 3.58044 4.04762 3.82118
# Velocity P-wave (km/s) = 6.07475 7.61043 6.88554
#
# Compressibility (1/GPa) = 0.02776044
#
# Stress axis : x y z
#
# Youngs Moduli (GPa) = 122.44052 79.13412 38.17723
#
# Poissons Ratio (x) = 0.21460 0.08501
# Poissons Ratio (y) = 0.33204 0.17867
# Poissons Ratio (z) = 0.27264 0.37035
#
# Static dielectric constant tensor:
#      x y z
#    x 4.131600 0.000000 -0.222650 
#    y 0.000000 3.353080 0.000010 
#    z -0.222650 0.000010 2.885780 
# 
# 
# High freq. dielectric constant tensor:
#      x y z
#    x 1.735680 0.000000 -0.016430 
#    y 0.000000 1.696990 0.000000 
#    z -0.016430 0.000000 1.649450 
# 
# From -- ./inp_files/220597.got.cif
#   From: 2010.06.25/outbox.cif.g09.slc.cpg/sg12_111_cif.got.tgz:220597.got - 2010.06.28 00:19:55.
