data_PCOD8083212
_publ_section_title
;
Structure prediction by ZEFSAII (Michael W. Deem and Ramdas Pophale) SiO2 
 PCOD8083212
Probable space group: C 2/M
;
_chemical_formula_sum "Si O2"
_cell_formula_units_Z 48
_cell_length_a 14.855843
_cell_length_b 9.098951
_cell_length_c 20.026416
_cell_angle_alpha 90.000000
_cell_angle_beta 109.702277
_cell_angle_gamma 90.000000
_cell_volume 2548.545652
_symmetry_space_group_name_H-M "C 2/M"
_symmetry_group_IT_number 12
_symmetry_cell_setting 'monoclinic'
loop_
_space_group_symop_operation_xyz
x,y,z
-x,y,-z
-x,-y,-z
x,-y,z
1/2+x,1/2+y,z
1/2-x,1/2+y,-z
1/2-x,1/2-y,-z
1/2+x,1/2-y,z
loop_
_atom_site_type_symbol
_atom_site_label
_atom_site_fract_x
_atom_site_fract_y
_atom_site_fract_z
Si Si1 0.549928 0.672437 0.610163
Si Si2 0.153053 0.171560 0.500577
Si Si3 0.464324 0.827580 0.140206
Si Si4 0.641037 0.174777 0.756744
Si Si5 0.671085 0.172291 0.163811
Si Si6 0.160891 0.673385 0.009563
O O1 0.559450 0.500000 0.627718
O O2 0.622773 0.715133 0.568451
O O3 0.439370 0.712432 0.567271
O O4 0.577717 0.767659 0.680536
O O5 0.250000 0.250000 0.500000
O O6 0.174535 0.000000 0.501466
O O7 0.402863 0.759916 0.185375
O O8 0.574670 0.787591 0.179325
O O9 0.449903 0.000000 0.139589
O O10 0.429583 0.775035 0.058026
O O11 0.747913 0.236187 0.778610
O O12 0.642791 0.000000 0.754797
O O13 0.651894 0.225346 0.083370
O O14 0.695920 0.000000 0.173298
O O15 0.174431 0.500000 0.009961
O O16 0.250000 0.750000 0.000000
#
# Coordination Sequence:
#
# PCOD8083212 Si02
#       6
#     8   8   8   8   8   8
#     4   9  20  39  58  80 113 149 180 211 259 324
#     4   9  19  37  62  87 112 143 178 219 261 309
#     4   9  19  35  53  75 105 140 181 224 270 325
#     4  11  22  36  54  79 112 143 176 227 274 310
#     4  10  20  35  56  77 101 143 187 222 272 333
#     4  10  18  32  55  77 101 136 180 229 276 323
#
# _framework density 18.834271000000001
#
# number of rings (size 3 to 8) (size 9 to 14) (size 15 to 20)
#    0.000    2.333    1.667    2.000    0.000    4.667 
#    0.000    9.167    0.000    2.000    0.000    0.000 
#    0.000    0.000    0.000    0.000    0.000    0.000 
#
# Total GULP energy -297474.884788 kJ/mol
# GULP energy per Si atom -12394.786866 kJ/mol
# Density = 1.879140 g / cm^3
# Si number density = 18.834271 Si / 1000 Ang^3
#
#
#
# Elastic Constant Matrix: (Units=GPa)
#
#
# Indices 1 2 3 4 5 6 
#
# 1 117.1296 30.4554 36.2118 0.0000 15.6489 0.0000
# 2 30.4554 43.3079 33.3563 0.0000 8.5209 0.0000
# 3 36.2118 33.3563 95.1312 0.0000 21.1324 0.0000
# 4 0.0000 0.0000 0.0000 29.7148 0.0000 2.0865
# 5 15.6489 8.5209 21.1324 0.0000 21.7800 0.0000
# 6 0.0000 0.0000 0.0000 2.0865 0.0000 32.2019
#
#
#
# Elastic Compliance Matrix: (Units=1/GPa)
#
#
# Indices 1 2 3 4 5 6 
#
# 1 0.011048 -0.006048 -0.001080 0.000000 -0.004524 0.000000
# 2 -0.006048 0.035016 -0.010068 0.000000 0.000415 0.000000
# 3 -0.001080 -0.010068 0.017089 0.000000 -0.011866 0.000000
# 4 0.000000 0.000000 0.000000 0.033807 0.000000 -0.002190
# 5 -0.004524 0.000415 -0.011866 0.000000 0.060515 0.000000
# 6 0.000000 0.000000 0.000000 -0.002190 0.000000 0.031196
#
#
# Mechanical properties :
#
#
# Convention : Reuss Voigt Hill
#
# Bulk Modulus (GPa) = 34.76756 50.62398 42.69577
# Shear Modulus (GPa) = 21.49144 27.10903 24.30023
#
# Velocity S-wave (km/s) = 3.38165 3.79799 3.59585
# Velocity P-wave (km/s) = 5.80924 6.79485 6.32128
#
# Compressibility (1/GPa) = 0.02876245
#
# Stress axis : x y z
#
# Youngs Moduli (GPa) = 90.51106 28.55817 58.51701
#
# Poissons Ratio (x) = 0.17271 0.06320
# Poissons Ratio (y) = 0.54737 0.58915
# Poissons Ratio (z) = 0.09776 0.28753
#
# Static dielectric constant tensor:
#      x y z
#    x 3.621200 0.000000 -0.192700 
#    y 0.000000 3.201330 0.000000 
#    z -0.192700 0.000000 3.916860 
# 
# 
# High freq. dielectric constant tensor:
#      x y z
#    x 1.741250 0.000000 0.004880 
#    y 0.000000 1.706820 0.000000 
#    z 0.004880 0.000000 1.735030 
# 
# From -- ./inp_files/308268.got.cif
#   From: 2010.06.25/outbox.cif.g09.slc.cpg/sg12_155_cif.got.tgz:308268.got - 2010.06.28 00:19:55.
