data_PCOD8083257
_publ_section_title
;
Structure prediction by ZEFSAII (Michael W. Deem and Ramdas Pophale) SiO2 
 PCOD8083257
Probable space group: C 2/M
;
_chemical_formula_sum "Si O2"
_cell_formula_units_Z 64
_cell_length_a 28.465865
_cell_length_b 9.159370
_cell_length_c 14.281932
_cell_angle_alpha 90.000000
_cell_angle_beta 65.589566
_cell_angle_gamma 90.000000
_cell_volume 3390.850241
_symmetry_space_group_name_H-M "C 2/M"
_symmetry_group_IT_number 12
_symmetry_cell_setting 'monoclinic'
loop_
_space_group_symop_operation_xyz
x,y,z
-x,y,-z
-x,-y,-z
x,-y,z
1/2+x,1/2+y,z
1/2-x,1/2+y,-z
1/2-x,1/2-y,-z
1/2+x,1/2-y,z
loop_
_atom_site_type_symbol
_atom_site_label
_atom_site_fract_x
_atom_site_fract_y
_atom_site_fract_z
Si Si1 0.070556 0.668887 0.346401
Si Si2 0.240541 0.170624 0.787841
Si Si3 0.172777 0.329565 0.146636
Si Si4 0.278601 0.827627 0.559884
Si Si5 0.354230 0.329327 0.015560
Si Si6 0.602036 0.170296 0.530136
Si Si7 0.030019 0.173524 0.065287
Si Si8 0.985675 0.173380 0.300408
O O1 0.054365 0.500000 0.350737
O O2 0.120816 0.704243 0.245163
O O3 0.081383 0.710854 0.444428
O O4 0.024273 0.767485 0.347395
O O5 0.279609 0.235559 0.832975
O O6 0.252518 0.235834 0.676005
O O7 0.181237 0.202649 0.864397
O O8 0.252902 0.000000 0.772839
O O9 0.179325 0.500000 0.120655
O O10 0.172675 0.246853 0.049251
O O11 0.250000 0.750000 0.500000
O O12 0.338513 0.784642 0.510578
O O13 0.270978 0.000000 0.556820
O O14 0.356824 0.500000 0.990843
O O15 0.411387 0.266498 0.986868
O O16 0.570942 0.262490 0.633091
O O17 0.594301 0.000000 0.557058
O O18 0.003173 0.227381 0.182999
O O19 0.030045 0.000000 0.060605
O O20 0.000000 0.238225 0.000000
O O21 0.984169 0.000000 0.307049
#
# Coordination Sequence:
#
# PCOD8083257 Si02
#       8
#     8   8   8   8   8   8   8   8
#     4  10  19  34  57  79 107 148 183 213 266 334
#     4   9  18  34  57  81 106 141 183 218 261 328
#     4  10  18  32  55  81 108 140 177 217 264 324
#     4  10  21  39  59  81 109 143 186 232 269 315
#     4  10  19  33  55  81 107 139 176 220 272 320
#     4  10  21  38  58  79 109 149 185 216 265 333
#     4   9  19  35  52  73 105 142 178 216 263 319
#     4  11  22  35  55  84 113 138 178 233 276 313
#
# _framework density 18.874321999999999
#
# number of rings (size 3 to 8) (size 9 to 14) (size 15 to 20)
#    0.000    2.125    2.500    1.125    0.000    3.500 
#    0.000    3.750    0.000    3.375    0.000    0.000 
#    0.000    0.000    0.000    0.000    0.000    0.000 
#
# Total GULP energy -396838.585647 kJ/mol
# GULP energy per Si atom -12401.205801 kJ/mol
# Density = 1.883136 g / cm^3
# Si number density = 18.874322 Si / 1000 Ang^3
#
#
#
# Elastic Constant Matrix: (Units=GPa)
#
#
# Indices 1 2 3 4 5 6 
#
# 1 129.7400 38.2761 99.5546 0.0000 9.6536 0.0000
# 2 38.2761 38.2114 44.2157 0.0000 -4.3633 0.0000
# 3 99.5546 44.2157 149.4869 0.0000 -8.1230 0.0000
# 4 0.0000 0.0000 0.0000 25.1149 0.0000 2.5736
# 5 9.6536 -4.3633 -8.1230 0.0000 32.1026 0.0000
# 6 0.0000 0.0000 0.0000 2.5736 0.0000 25.3608
#
#
#
# Elastic Compliance Matrix: (Units=1/GPa)
#
#
# Indices 1 2 3 4 5 6 
#
# 1 0.019061 -0.007440 -0.011012 0.000000 -0.009529 0.000000
# 2 -0.007440 0.042885 -0.007393 0.000000 0.006195 0.000000
# 3 -0.011012 -0.007393 0.016563 0.000000 0.006497 0.000000
# 4 0.000000 0.000000 0.000000 0.040235 0.000000 -0.004083
# 5 -0.009529 0.006195 0.006497 0.000000 0.036502 0.000000
# 6 0.000000 0.000000 0.000000 -0.004083 0.000000 0.039845
#
#
# Mechanical properties :
#
#
# Convention : Reuss Voigt Hill
#
# Bulk Modulus (GPa) = 37.28591 75.72569 56.50580
# Shear Modulus (GPa) = 19.55255 25.54181 22.54718
#
# Velocity S-wave (km/s) = 3.22208 3.68265 3.46004
# Velocity P-wave (km/s) = 5.80001 7.63484 6.77978
#
# Compressibility (1/GPa) = 0.02681978
#
# Stress axis : x y z
#
# Youngs Moduli (GPa) = 52.46215 23.31816 60.37595
#
# Poissons Ratio (x) = 0.17348 0.66484
# Poissons Ratio (y) = 0.39031 0.44637
# Poissons Ratio (z) = 0.57769 0.17240
#
# Static dielectric constant tensor:
#      x y z
#    x 3.579620 0.000000 -0.088020 
#    y 0.000000 3.125260 0.000000 
#    z -0.088020 0.000000 3.673880 
# 
# 
# High freq. dielectric constant tensor:
#      x y z
#    x 1.738230 0.000000 -0.009470 
#    y 0.000000 1.698080 0.000000 
#    z -0.009470 0.000000 1.747620 
# 
# From -- ./inp_files/248980.got.cif
#   From: 2010.06.25/outbox.cif.g09.slc.cpg/sg12_125_cif.got.tgz:248980.got - 2010.06.28 00:19:55.
