data_PCOD8083552
_publ_section_title
;
Structure prediction by ZEFSAII (Michael W. Deem and Ramdas Pophale) SiO2 
 PCOD8083552
Probable space group: C 2/M
;
_chemical_formula_sum "Si O2"
_cell_formula_units_Z 48
_cell_length_a 13.737739
_cell_length_b 21.156017
_cell_length_c 9.802989
_cell_angle_alpha 90.000000
_cell_angle_beta 75.807049
_cell_angle_gamma 90.000000
_cell_volume 2762.132653
_symmetry_space_group_name_H-M "C 2/M"
_symmetry_group_IT_number 12
_symmetry_cell_setting 'monoclinic'
loop_
_space_group_symop_operation_xyz
x,y,z
-x,y,-z
-x,-y,-z
x,-y,z
1/2+x,1/2+y,z
1/2-x,1/2+y,-z
1/2-x,1/2-y,-z
1/2+x,1/2-y,z
loop_
_atom_site_type_symbol
_atom_site_label
_atom_site_fract_x
_atom_site_fract_y
_atom_site_fract_z
Si Si1 0.068830 0.646080 0.101458
Si Si2 0.961791 0.573245 0.361896
Si Si3 0.595976 0.707944 0.563763
Si Si4 0.971617 0.793170 0.857899
Si Si5 0.296014 0.828191 0.379813
Si Si6 0.254464 0.687371 0.908799
O O1 0.044832 0.718120 0.153735
O O2 0.048792 0.600677 0.235028
O O3 0.184837 0.637404 0.014204
O O4 0.000000 0.624871 0.000000
O O5 0.946167 0.500000 0.336209
O O6 0.854590 0.605807 0.368948
O O7 0.000000 0.585920 0.500000
O O8 0.500000 0.708639 0.500000
O O9 0.559994 0.685165 0.725626
O O10 0.642830 0.778024 0.550605
O O11 0.683398 0.661650 0.477818
O O12 0.870612 0.832565 0.855520
O O13 0.000000 0.812222 0.000000
O O14 0.292259 0.802681 0.225515
O O15 0.250000 0.750000 0.000000
#
# Coordination Sequence:
#
# PCOD8083552 Si02
#       6
#     8   8   8   8   8   8
#     4  10  18  33  53  74 107 142 178 221 265 323
#     4  11  24  39  55  78 111 146 186 236 277 319
#     4  11  20  31  53  81 109 143 173 219 275 338
#     4  10  19  32  49  78 114 140 173 213 270 332
#     4  11  21  34  53  80 111 145 185 223 271 339
#     4  10  19  31  50  77 111 145 172 213 270 326
#
# _framework density 17.377877000000002
#
# number of rings (size 3 to 8) (size 9 to 14) (size 15 to 20)
#    0.000    1.500    5.000    2.500    0.000    3.000 
#    0.000    0.000    0.000    0.500    0.000    0.000 
#    0.000    4.667    0.000    0.000    0.000    0.000 
#
# Total GULP energy -297522.128177 kJ/mol
# GULP energy per Si atom -12396.755341 kJ/mol
# Density = 1.733832 g / cm^3
# Si number density = 17.377877 Si / 1000 Ang^3
#
#
#
# Elastic Constant Matrix: (Units=GPa)
#
#
# Indices 1 2 3 4 5 6 
#
# 1 120.9502 41.4108 59.3866 0.0000 -14.3868 0.0000
# 2 41.4108 54.9103 41.7917 0.0000 0.0167 0.0000
# 3 59.3866 41.7917 142.0679 0.0000 -15.2725 0.0000
# 4 0.0000 0.0000 0.0000 18.7258 0.0000 0.8097
# 5 -14.3868 0.0167 -15.2725 0.0000 40.0264 0.0000
# 6 0.0000 0.0000 0.0000 0.8097 0.0000 13.7392
#
#
#
# Elastic Compliance Matrix: (Units=1/GPa)
#
#
# Indices 1 2 3 4 5 6 
#
# 1 0.012540 -0.007413 -0.002686 0.000000 0.003485 0.000000
# 2 -0.007413 0.028143 -0.005701 0.000000 -0.004852 0.000000
# 3 -0.002686 -0.005701 0.010152 0.000000 0.002910 0.000000
# 4 0.000000 0.000000 0.000000 0.053539 0.000000 -0.003155
# 5 0.003485 -0.004852 0.002910 0.000000 0.027349 0.000000
# 6 0.000000 0.000000 0.000000 -0.003155 0.000000 0.072970
#
#
# Mechanical properties :
#
#
# Convention : Reuss Voigt Hill
#
# Bulk Modulus (GPa) = 51.99568 67.01182 59.50375
# Shear Modulus (GPa) = 20.60112 26.18758 23.39435
#
# Velocity S-wave (km/s) = 3.44682 3.88616 3.67306
# Velocity P-wave (km/s) = 6.76951 7.66691 7.23215
#
# Compressibility (1/GPa) = 0.01923237
#
# Stress axis : x y z
#
# Youngs Moduli (GPa) = 79.74767 35.53274 98.50410
#
# Poissons Ratio (x) = 0.26341 0.26461
# Poissons Ratio (y) = 0.59119 0.56162
# Poissons Ratio (z) = 0.21423 0.20259
#
# Static dielectric constant tensor:
#      x y z
#    x 3.769500 0.000000 -0.307380 
#    y 0.000000 2.704580 0.000000 
#    z -0.307380 0.000000 3.625520 
# 
# 
# High freq. dielectric constant tensor:
#      x y z
#    x 1.687120 0.000000 -0.006860 
#    y 0.000000 1.592990 0.000000 
#    z -0.006860 0.000000 1.699450 
# 
# From -- ./inp_files/63379.got.cif
#   From: 2010.06.25/outbox.cif.g09.slc.cpg/sg12_32_cif.got.tgz:63379.got - 2010.06.28 00:19:55.
