data_PCOD8083201
_publ_section_title
;
Structure prediction by ZEFSAII (Michael W. Deem and Ramdas Pophale) SiO2 
 PCOD8083201
Probable space group: C 2/M
;
_chemical_formula_sum "Si O2"
_cell_formula_units_Z 64
_cell_length_a 14.362566
_cell_length_b 18.376100
_cell_length_c 21.497186
_cell_angle_alpha 90.000000
_cell_angle_beta 144.758156
_cell_angle_gamma 90.000000
_cell_volume 3273.893813
_symmetry_space_group_name_H-M "C 2/M"
_symmetry_group_IT_number 12
_symmetry_cell_setting 'monoclinic'
loop_
_space_group_symop_operation_xyz
x,y,z
-x,y,-z
-x,-y,-z
x,-y,z
1/2+x,1/2+y,z
1/2-x,1/2+y,-z
1/2-x,1/2-y,-z
1/2+x,1/2-y,z
loop_
_atom_site_type_symbol
_atom_site_label
_atom_site_fract_x
_atom_site_fract_y
_atom_site_fract_z
Si Si1 0.104208 0.417724 0.212473
Si Si2 0.903982 0.081731 0.817286
Si Si3 0.669958 0.323776 0.436947
Si Si4 0.319032 0.821314 0.386068
Si Si5 0.813146 0.208402 0.278610
Si Si6 0.892649 0.584496 0.640304
Si Si7 0.253447 0.583766 0.962367
Si Si8 0.728282 0.152384 0.820736
O O1 0.161968 0.500000 0.228438
O O2 0.195026 0.360511 0.218398
O O3 0.139142 0.401004 0.304154
O O4 0.914316 0.409613 0.092287
O O5 0.768393 0.126430 0.708894
O O6 0.863995 0.097842 0.867545
O O7 0.874411 0.000000 0.781143
O O8 0.093270 0.102069 0.909591
O O9 0.750000 0.250000 0.500000
O O10 0.704088 0.327218 0.382581
O O11 0.481218 0.323420 0.346622
O O12 0.742458 0.390284 0.516378
O O13 0.500000 0.847993 0.500000
O O14 0.329401 0.743233 0.356884
O O15 0.745110 0.265366 0.190161
O O16 0.924738 0.500000 0.645735
O O17 0.048125 0.629007 0.701837
O O18 0.269470 0.500000 0.945431
O O19 0.248378 0.644401 0.905445
#
# Coordination Sequence:
#
# PCOD8083201 Si02
#       8
#     8   8   8   8   8   8   8   8
#     4   9  20  38  60  85 115 153 202 253 299 345
#     4  10  20  35  57  87 121 154 194 240 292 360
#     4  12  21  37  57  80 115 162 200 242 295 352
#     4  11  23  37  57  85 118 160 197 234 298 357
#     4  11  23  36  59  85 119 159 197 246 300 352
#     4  10  20  34  56  86 115 152 202 251 294 348
#     4   9  18  35  63  88 116 156 194 248 304 342
#     4  10  18  32  54  88 119 150 189 240 301 360
#
# _framework density 19.548587999999999
#
# number of rings (size 3 to 8) (size 9 to 14) (size 15 to 20)
#    0.000    1.750    2.500    3.750    1.750    2.250 
#    0.000    3.750    5.500    0.000    0.000    2.625 
#    0.000    0.000    0.000    0.000    0.000    0.000 
#
# Total GULP energy -396601.865036 kJ/mol
# GULP energy per Si atom -12393.808282 kJ/mol
# Density = 1.950409 g / cm^3
# Si number density = 19.548588 Si / 1000 Ang^3
#
#
#
# Elastic Constant Matrix: (Units=GPa)
#
#
# Indices 1 2 3 4 5 6 
#
# 1 83.6110 50.8666 37.1230 0.0001 26.2324 0.0000
# 2 50.8666 102.0877 45.2966 0.0002 10.6757 0.0000
# 3 37.1230 45.2966 106.3882 0.0007 22.5494 0.0001
# 4 0.0001 0.0002 0.0007 24.2515 0.0003 7.7554
# 5 26.2324 10.6757 22.5494 0.0003 26.2397 0.0000
# 6 0.0000 0.0000 0.0001 7.7554 0.0000 32.5761
#
#
#
# Elastic Compliance Matrix: (Units=1/GPa)
#
#
# Indices 1 2 3 4 5 6 
#
# 1 0.024476 -0.010098 0.000091 0.000000 -0.020439 0.000000
# 2 -0.010098 0.016251 -0.005055 0.000000 0.007828 0.000000
# 3 0.000091 -0.005055 0.013576 0.000000 -0.009701 0.000000
# 4 0.000000 0.000000 0.000000 0.044633 0.000000 -0.010626
# 5 -0.020439 0.007828 -0.009701 0.000000 0.063695 0.000000
# 6 0.000000 0.000000 0.000000 -0.010626 0.000000 0.033227
#
#
# Mechanical properties :
#
#
# Convention : Reuss Voigt Hill
#
# Bulk Modulus (GPa) = 41.35780 62.07327 51.71553
# Shear Modulus (GPa) = 21.36368 27.20018 24.28193
#
# Velocity S-wave (km/s) = 3.30941 3.73421 3.52821
# Velocity P-wave (km/s) = 5.98375 7.10033 6.56582
#
# Compressibility (1/GPa) = 0.02417924
#
# Stress axis : x y z
#
# Youngs Moduli (GPa) = 40.85666 61.53308 73.65891
#
# Poissons Ratio (x) = 0.62139 -0.00671
# Poissons Ratio (y) = 0.41259 0.37232
# Poissons Ratio (z) = -0.00372 0.31103
#
# Static dielectric constant tensor:
#      x y z
#    x 3.404180 0.000000 -0.042360 
#    y 0.000000 3.445710 0.000010 
#    z -0.042360 0.000010 4.505100 
# 
# 
# High freq. dielectric constant tensor:
#      x y z
#    x 1.749080 0.000000 0.017790 
#    y 0.000000 1.753520 0.000000 
#    z 0.017790 0.000000 1.759210 
# 
# From -- ./inp_files/216856.got.cif
#   From: 2010.06.25/outbox.cif.g09.slc.cpg/sg12_109_cif.got.tgz:216856.got - 2010.06.28 00:19:55.
