data_PCOD8083313
_publ_section_title
;
Structure prediction by ZEFSAII (Michael W. Deem and Ramdas Pophale) SiO2 
 PCOD8083313
Probable space group: C 2/M
;
_chemical_formula_sum "Si O2"
_cell_formula_units_Z 48
_cell_length_a 25.608241
_cell_length_b 17.966412
_cell_length_c 12.495086
_cell_angle_alpha 90.000000
_cell_angle_beta 152.995542
_cell_angle_gamma 90.000000
_cell_volume 2610.318069
_symmetry_space_group_name_H-M "C 2/M"
_symmetry_group_IT_number 12
_symmetry_cell_setting 'monoclinic'
loop_
_space_group_symop_operation_xyz
x,y,z
-x,y,-z
-x,-y,-z
x,-y,z
1/2+x,1/2+y,z
1/2-x,1/2+y,-z
1/2-x,1/2-y,-z
1/2+x,1/2-y,z
loop_
_atom_site_type_symbol
_atom_site_label
_atom_site_fract_x
_atom_site_fract_y
_atom_site_fract_z
Si Si1 0.726829 0.697335 0.792828
Si Si2 0.290890 0.414524 0.893444
Si Si3 0.444586 0.411642 0.633150
Si Si4 0.402025 0.693361 0.741297
Si Si5 0.267120 0.800711 0.380329
Si Si6 0.368331 0.831766 0.248618
O O1 0.644764 0.628087 0.610759
O O2 0.785297 0.737464 0.796095
O O3 0.648441 0.755029 0.717129
O O4 0.834906 0.673484 0.062668
O O5 0.285039 0.500000 0.855699
O O6 0.229389 0.376729 0.678752
O O7 0.217102 0.395039 0.862683
O O8 0.423624 0.390658 0.156077
O O9 0.422867 0.500000 0.588914
O O10 0.425544 0.382687 0.719685
O O11 0.389300 0.763123 0.635719
O O12 0.291711 0.682252 0.614267
O O13 0.500000 0.716163 0.000000
O O14 0.500000 0.857488 0.500000
#
# Coordination Sequence:
#
# PCOD8083313 Si02
#       6
#     8   8   8   8   8   8
#     4   9  21  36  56  81 112 139 187 232 272 323
#     4  10  21  36  54  81 114 145 183 226 278 331
#     4  10  21  35  55  84 116 146 176 226 285 329
#     4  10  18  32  56  79 110 139 183 222 268 331
#     4   9  19  33  52  81 105 144 177 225 271 318
#     4  10  22  36  58  80 104 149 189 229 271 322
#
# _framework density 18.388563000000001
#
# number of rings (size 3 to 8) (size 9 to 14) (size 15 to 20)
#    0.000    2.333    1.667    0.000    7.000    3.333 
#    0.000    1.667    0.000    0.500    0.000    0.000 
#    0.000    0.000    0.000    0.000    0.000    0.000 
#
# Total GULP energy -297333.182602 kJ/mol
# GULP energy per Si atom -12388.882608 kJ/mol
# Density = 1.834671 g / cm^3
# Si number density = 18.388563 Si / 1000 Ang^3
#
#
#
# Elastic Constant Matrix: (Units=GPa)
#
#
# Indices 1 2 3 4 5 6 
#
# 1 87.1622 30.7335 47.1908 0.0000 -2.3932 0.0000
# 2 30.7335 98.1498 55.1644 0.0000 -3.7109 0.0000
# 3 47.1908 55.1644 121.9290 0.0000 -15.7572 0.0000
# 4 0.0000 0.0000 0.0000 25.4276 0.0000 -2.7715
# 5 -2.3932 -3.7109 -15.7572 0.0000 32.6129 0.0000
# 6 0.0000 0.0000 0.0000 -2.7715 0.0000 78.0161
#
#
#
# Elastic Compliance Matrix: (Units=1/GPa)
#
#
# Indices 1 2 3 4 5 6 
#
# 1 0.014849 -0.001829 -0.005126 0.000000 -0.001595 0.000000
# 2 -0.001829 0.013960 -0.005781 0.000000 -0.001339 0.000000
# 3 -0.005126 -0.005781 0.013511 0.000000 0.005494 0.000000
# 4 0.000000 0.000000 0.000000 0.039480 0.000000 0.001403
# 5 -0.001595 -0.001339 0.005494 0.000000 0.033048 0.000000
# 6 0.000000 0.000000 0.000000 0.001403 0.000000 0.012868
#
#
# Mechanical properties :
#
#
# Convention : Reuss Voigt Hill
#
# Bulk Modulus (GPa) = 59.35360 63.71316 61.53338
# Shear Modulus (GPa) = 31.48557 38.82148 35.15353
#
# Velocity S-wave (km/s) = 4.14241 4.59974 4.37705
# Velocity P-wave (km/s) = 7.43148 7.93307 7.68637
#
# Compressibility (1/GPa) = 0.01684818
#
# Stress axis : x y z
#
# Youngs Moduli (GPa) = 67.34396 71.63446 74.01498
#
# Poissons Ratio (x) = 0.13103 0.37938
# Poissons Ratio (y) = 0.12318 0.42787
# Poissons Ratio (z) = 0.34519 0.41411
#
# Static dielectric constant tensor:
#      x y z
#    x 1.725880 0.000000 -1.049700 
#    y 0.000000 3.290490 0.000000 
#    z -1.049700 0.000000 3.051160 
# 
# 
# High freq. dielectric constant tensor:
#      x y z
#    x 1.716600 0.000000 -0.017010 
#    y 0.000000 1.697360 0.000000 
#    z -0.017010 0.000000 1.711710 
# 
# From -- ./inp_files/131208.got.cif
#   From: 2010.06.25/outbox.cif.g09.slc.cpg/sg12_66_cif.got.tgz:131208.got - 2010.06.28 00:19:55.
