data_PCOD8083886
_publ_section_title
;
Structure prediction by ZEFSAII (Michael W. Deem and Ramdas Pophale) SiO2 
 PCOD8083886
Probable space group: C 2/M
;
_chemical_formula_sum "Si O2"
_cell_formula_units_Z 40
_cell_length_a 10.949120
_cell_length_b 20.232288
_cell_length_c 8.652619
_cell_angle_alpha 90.000000
_cell_angle_beta 96.723903
_cell_angle_gamma 90.000000
_cell_volume 1903.594097
_symmetry_space_group_name_H-M "C 2/M"
_symmetry_group_IT_number 12
_symmetry_cell_setting 'monoclinic'
loop_
_space_group_symop_operation_xyz
x,y,z
-x,y,-z
-x,-y,-z
x,-y,z
1/2+x,1/2+y,z
1/2-x,1/2+y,-z
1/2-x,1/2-y,-z
1/2+x,1/2-y,z
loop_
_atom_site_type_symbol
_atom_site_label
_atom_site_fract_x
_atom_site_fract_y
_atom_site_fract_z
Si Si1 0.144619 0.257210 0.771696
Si Si2 0.140567 0.000000 0.350827
Si Si3 0.636688 0.500000 0.717421
Si Si4 0.294994 0.873797 0.759567
Si Si5 0.500000 0.695115 0.500000
Si Si6 0.000000 0.330777 0.000000
Si Si7 0.759382 0.131626 0.582349
O O1 0.228074 0.192957 0.805743
O O2 0.025074 0.241045 0.651270
O O3 0.222924 0.312256 0.694861
O O4 0.097520 0.283734 0.927732
O O5 0.132948 0.000000 0.533715
O O6 0.220764 0.935491 0.316018
O O7 0.006496 0.000000 0.247963
O O8 0.708129 0.435617 0.791810
O O9 0.330327 0.874588 0.580779
O O10 0.424743 0.877478 0.870120
O O11 0.387575 0.647357 0.517261
#
# Coordination Sequence:
#
# PCOD8083886 Si02
#       7
#     8   4   4   8   4   4   8
#     4  11  21  36  57  83 112 145 188 228 270 324
#     4   9  16  32  60  87 110 134 173 235 286 319
#     4   9  18  35  58  86 112 138 177 226 282 334
#     4  10  21  36  57  83 111 145 184 225 273 330
#     4  10  18  33  60  85 110 140 176 234 284 319
#     4  12  24  37  54  75 114 158 186 224 268 317
#     4  10  19  34  59  88 111 137 182 231 277 327
#
# _framework density 21.012884
#
# number of rings (size 3 to 8) (size 9 to 14) (size 15 to 20)
#    0.000    1.800    0.000    9.000    0.000    0.400 
#    0.000    2.000    0.000    6.000    0.000    0.000 
#    0.000    0.000    0.000    0.000    0.000    0.000 
#
# Total GULP energy -247953.959216 kJ/mol
# GULP energy per Si atom -12397.697961 kJ/mol
# Density = 2.096506 g / cm^3
# Si number density = 21.012884 Si / 1000 Ang^3
#
#
#
# Elastic Constant Matrix: (Units=GPa)
#
#
# Indices 1 2 3 4 5 6 
#
# 1 68.1849 50.5131 42.9534 0.0000 16.5321 0.0000
# 2 50.5131 161.4718 43.5912 0.0000 14.3171 0.0000
# 3 42.9534 43.5912 71.0402 0.0000 7.0784 0.0000
# 4 0.0000 0.0000 0.0000 2.2565 0.0000 10.3141
# 5 16.5321 14.3171 7.0784 0.0000 35.5039 0.0000
# 6 0.0000 0.0000 0.0000 10.3141 0.0000 19.4837
#
#
#
# Elastic Compliance Matrix: (Units=1/GPa)
#
#
# Indices 1 2 3 4 5 6 
#
# 1 0.028845 -0.004516 -0.013787 0.000000 -0.008862 0.000000
# 2 -0.004516 0.008291 -0.002278 0.000000 -0.000786 0.000000
# 3 -0.013787 -0.002278 0.023547 0.000000 0.002644 0.000000
# 4 0.000000 0.000000 0.000000 -0.312163 0.000000 0.165250
# 5 -0.008862 -0.000786 0.002644 0.000000 0.032082 0.000000
# 6 0.000000 0.000000 0.000000 0.165250 0.000000 -0.036154
#
#
# Mechanical properties :
#
#
# Convention : Reuss Voigt Hill
#
# Bulk Modulus (GPa) = 51.22775 63.86801 57.54788
# Shear Modulus (GPa) = -24.05204 22.35811 -0.84696
#
# Velocity S-wave (km/s) = -3.38691 3.26547 -0.63557
# Velocity P-wave (km/s) = 3.02278 6.68419 5.18727
#
# Compressibility (1/GPa) = 0.01952067
#
# Stress axis : x y z
#
# Youngs Moduli (GPa) = 34.66781 120.61961 42.46813
#
# Poissons Ratio (x) = 0.54472 0.58550
# Poissons Ratio (y) = 0.15656 0.09676
# Poissons Ratio (z) = 0.47796 0.27481
#
# Static dielectric constant tensor:
#      x y z
#    x 3.709960 0.000000 0.373650 
#    y 0.000000 4.142040 0.000000 
#    z 0.373650 0.000000 3.694020 
# 
# 
# High freq. dielectric constant tensor:
#      x y z
#    x 1.809810 0.000000 0.026260 
#    y 0.000000 1.829580 0.000000 
#    z 0.026260 0.000000 1.801990 
# 
# From -- ./inp_files/48858.got.cif
#   From: 2010.06.25/outbox.cif.g09.slc.cpg/sg12_25_cif.got.tgz:48858.got - 2010.06.28 00:19:55.
