data_PCOD8083202
_publ_section_title
;
Structure prediction by ZEFSAII (Michael W. Deem and Ramdas Pophale) SiO2 
 PCOD8083202
Probable space group: C 2/M
;
_chemical_formula_sum "Si O2"
_cell_formula_units_Z 64
_cell_length_a 24.705665
_cell_length_b 17.590520
_cell_length_c 16.344881
_cell_angle_alpha 90.000000
_cell_angle_beta 28.019318
_cell_angle_gamma 90.000000
_cell_volume 3336.887454
_symmetry_space_group_name_H-M "C 2/M"
_symmetry_group_IT_number 12
_symmetry_cell_setting 'monoclinic'
loop_
_space_group_symop_operation_xyz
x,y,z
-x,y,-z
-x,-y,-z
x,-y,z
1/2+x,1/2+y,z
1/2-x,1/2+y,-z
1/2-x,1/2-y,-z
1/2+x,1/2-y,z
loop_
_atom_site_type_symbol
_atom_site_label
_atom_site_fract_x
_atom_site_fract_y
_atom_site_fract_z
Si Si1 0.871845 0.726955 0.872904
Si Si2 0.559599 0.296234 0.504093
Si Si3 0.529146 0.914980 0.189400
Si Si4 0.726790 0.910327 0.500348
Si Si5 0.806945 0.770466 0.137983
Si Si6 0.392316 0.880272 0.088169
Si Si7 0.632053 0.586769 0.846008
Si Si8 0.171935 0.916324 0.468447
O O1 0.894768 0.636481 0.850859
O O2 0.972213 0.750015 0.677110
O O3 0.750000 0.750000 0.000000
O O4 0.868947 0.763563 0.967091
O O5 0.500000 0.325370 0.500000
O O6 0.669633 0.246499 0.327248
O O7 0.588292 0.366971 0.523922
O O8 0.402529 0.878303 0.340575
O O9 0.519913 0.000000 0.239320
O O10 0.595375 0.917968 0.016130
O O11 0.797862 0.887264 0.326509
O O12 0.794957 0.876493 0.488348
O O13 0.718110 0.000000 0.526037
O O14 0.868078 0.710324 0.116631
O O15 0.831186 0.857223 0.130618
O O16 0.290007 0.927287 0.263559
O O17 0.500000 0.896465 0.000000
O O18 0.661017 0.500000 0.833658
O O19 0.500000 0.595384 0.000000
O O20 0.115472 0.000000 0.556989
#
# Coordination Sequence:
#
# PCOD8083202 Si02
#       8
#     8   8   8   8   8   8   8   8
#     4  11  23  42  63  83 113 152 195 243 293 339
#     4  11  23  42  61  80 114 156 195 243 293 333
#     4  10  20  35  60  87 115 149 189 236 288 343
#     4   9  18  34  55  85 119 149 184 233 289 340
#     4  10  22  39  59  84 115 151 197 237 286 348
#     4  10  18  32  54  88 122 152 181 225 285 343
#     4  10  21  37  58  83 117 155 189 233 287 344
#     4  10  21  35  56  87 121 155 192 230 282 349
#
# _framework density 19.179549999999999
#
# number of rings (size 3 to 8) (size 9 to 14) (size 15 to 20)
#    0.000    1.875    2.500    1.500    1.750    0.750 
#    0.000    3.125    0.000    0.750    0.000    0.000 
#    0.000    0.000    0.000    0.000    0.000    0.000 
#
# Total GULP energy -396555.499539 kJ/mol
# GULP energy per Si atom -12392.359361 kJ/mol
# Density = 1.913590 g / cm^3
# Si number density = 19.179550 Si / 1000 Ang^3
#
#
#
# Elastic Constant Matrix: (Units=GPa)
#
#
# Indices 1 2 3 4 5 6 
#
# 1 102.9561 57.8041 14.8700 0.0000 -3.1056 0.0000
# 2 57.8041 100.3346 19.5932 0.0000 -2.3639 0.0000
# 3 14.8700 19.5932 85.4476 0.0002 10.3213 0.0000
# 4 0.0000 0.0000 0.0002 29.5830 0.0000 -1.0281
# 5 -3.1056 -2.3639 10.3213 0.0000 31.0012 0.0000
# 6 0.0000 0.0000 0.0000 -1.0281 0.0000 6.6197
#
#
#
# Elastic Compliance Matrix: (Units=1/GPa)
#
#
# Indices 1 2 3 4 5 6 
#
# 1 0.014424 -0.008133 -0.000776 0.000000 0.001083 0.000000
# 2 -0.008133 0.015102 -0.002176 0.000000 0.001061 0.000000
# 3 -0.000776 -0.002176 0.012885 0.000000 -0.004533 0.000000
# 4 0.000000 0.000000 0.000000 0.033987 0.000000 0.005278
# 5 0.001083 0.001061 -0.004533 0.000000 0.033956 0.000000
# 6 0.000000 0.000000 0.000000 0.005278 0.000000 0.151885
#
#
# Mechanical properties :
#
#
# Convention : Reuss Voigt Hill
#
# Bulk Modulus (GPa) = 49.40422 52.58588 50.99505
# Shear Modulus (GPa) = 17.17310 26.53885 21.85597
#
# Velocity S-wave (km/s) = 2.99555 3.72385 3.37938
# Velocity P-wave (km/s) = 6.14647 6.77987 6.47093
#
# Compressibility (1/GPa) = 0.02024119
#
# Stress axis : x y z
#
# Youngs Moduli (GPa) = 69.33067 66.21716 77.61184
#
# Poissons Ratio (x) = 0.53852 0.06023
# Poissons Ratio (y) = 0.56384 0.16887
# Poissons Ratio (z) = 0.05381 0.14407
#
# Static dielectric constant tensor:
#      x y z
#    x 3.525970 0.000000 0.078300 
#    y 0.000000 3.461980 0.000000 
#    z 0.078300 0.000000 3.768620 
# 
# 
# High freq. dielectric constant tensor:
#      x y z
#    x 1.734960 0.000000 0.005150 
#    y 0.000000 1.731430 0.000000 
#    z 0.005150 0.000000 1.762410 
# 
# From -- ./inp_files/241445.got.cif
#   From: 2010.06.25/outbox.cif.g09.slc.cpg/sg12_121_cif.got.tgz:241445.got - 2010.06.28 00:19:55.
