data_PCOD8083590
_publ_section_title
;
Structure prediction by ZEFSAII (Michael W. Deem and Ramdas Pophale) SiO2 
 PCOD8083590
Probable space group: C 2/M
;
_chemical_formula_sum "Si O2"
_cell_formula_units_Z 64
_cell_length_a 16.293652
_cell_length_b 16.740678
_cell_length_c 12.994127
_cell_angle_alpha 90.000000
_cell_angle_beta 106.435126
_cell_angle_gamma 90.000000
_cell_volume 3399.545882
_symmetry_space_group_name_H-M "C 2/M"
_symmetry_group_IT_number 12
_symmetry_cell_setting 'monoclinic'
loop_
_space_group_symop_operation_xyz
x,y,z
-x,y,-z
-x,-y,-z
x,-y,z
1/2+x,1/2+y,z
1/2-x,1/2+y,-z
1/2-x,1/2-y,-z
1/2+x,1/2-y,z
loop_
_atom_site_type_symbol
_atom_site_label
_atom_site_fract_x
_atom_site_fract_y
_atom_site_fract_z
Si Si1 0.580345 0.910708 0.602307
Si Si2 0.784026 0.733442 0.845320
Si Si3 0.881495 0.172243 0.712355
Si Si4 0.120902 0.754824 0.916304
Si Si5 0.523942 0.589573 0.889990
Si Si6 0.817296 0.592355 0.715669
Si Si7 0.513498 0.176411 0.258657
Si Si8 0.757806 0.594075 0.469273
O O1 0.500000 0.915032 0.500000
O O2 0.558051 0.851075 0.686363
O O3 0.661678 0.875702 0.569831
O O4 0.599945 0.000000 0.651680
O O5 0.813382 0.797435 0.771935
O O6 0.695017 0.763442 0.860407
O O7 0.776785 0.645725 0.791769
O O8 0.854124 0.729740 0.960313
O O9 0.943064 0.108043 0.788220
O O10 0.830270 0.132865 0.600209
O O11 0.934588 0.245989 0.682860
O O12 0.036963 0.702471 0.862028
O O13 0.101096 0.849079 0.897903
O O14 0.555663 0.500000 0.875852
O O15 0.500000 0.597750 0.000000
O O16 0.800832 0.500000 0.735908
O O17 0.772530 0.618013 0.592914
O O18 0.919700 0.606130 0.743330
O O19 0.750429 0.500000 0.455666
#
# Coordination Sequence:
#
# PCOD8083590 Si02
#       8
#     8   8   8   8   8   8   8   8
#     4  10  18  33  54  77 107 144 179 219 267 313
#     4  10  21  37  57  76 109 140 178 222 265 319
#     4  10  20  34  55  84 106 139 178 222 266 314
#     4  10  21  38  55  80 107 141 174 223 272 310
#     4  10  19  34  58  80 104 136 173 216 267 322
#     4  10  21  37  55  76 106 148 181 212 263 321
#     4  10  20  33  55  80 109 140 178 223 263 323
#     4  10  20  35  55  78 111 142 177 223 264 314
#
# _framework density 18.826044
#
# number of rings (size 3 to 8) (size 9 to 14) (size 15 to 20)
#    0.000    2.000    2.500    1.500    0.000    2.500 
#    2.250    1.875    0.000    0.750    0.000    4.375 
#    0.000    0.000    0.000    0.000    0.000    0.000 
#
# Total GULP energy -396790.409323 kJ/mol
# GULP energy per Si atom -12399.700291 kJ/mol
# Density = 1.878319 g / cm^3
# Si number density = 18.826044 Si / 1000 Ang^3
#
#
#
# Elastic Constant Matrix: (Units=GPa)
#
#
# Indices 1 2 3 4 5 6 
#
# 1 55.5175 20.3527 38.1427 0.0000 17.5877 0.0000
# 2 20.3527 62.3833 50.4487 0.0000 1.7380 0.0000
# 3 38.1427 50.4487 100.7948 0.0000 17.8433 0.0000
# 4 0.0000 0.0000 0.0000 36.4131 0.0000 -1.3898
# 5 17.5877 1.7380 17.8433 0.0000 25.5942 0.0000
# 6 0.0000 0.0000 0.0000 -1.3898 0.0000 24.0991
#
#
#
# Elastic Compliance Matrix: (Units=1/GPa)
#
#
# Indices 1 2 3 4 5 6 
#
# 1 0.028404 -0.003862 -0.006168 0.000000 -0.014956 0.000000
# 2 -0.003862 0.029238 -0.015162 0.000000 0.011239 0.000000
# 3 -0.006168 -0.015162 0.021574 0.000000 -0.009773 0.000000
# 4 0.000000 0.000000 0.000000 0.027523 0.000000 0.001587
# 5 -0.014956 0.011239 -0.009773 0.000000 0.055399 0.000000
# 6 0.000000 0.000000 0.000000 0.001587 0.000000 0.041587
#
#
# Mechanical properties :
#
#
# Convention : Reuss Voigt Hill
#
# Bulk Modulus (GPa) = 34.68405 48.50931 41.59668
# Shear Modulus (GPa) = 18.95952 24.53806 21.74879
#
# Velocity S-wave (km/s) = 3.17691 3.61419 3.40258
# Velocity P-wave (km/s) = 5.64982 6.57568 6.13025
#
# Compressibility (1/GPa) = 0.02883170
#
# Stress axis : x y z
#
# Youngs Moduli (GPa) = 35.20653 34.20168 46.35224
#
# Poissons Ratio (x) = 0.13210 0.28589
# Poissons Ratio (y) = 0.13598 0.70280
# Poissons Ratio (z) = 0.21715 0.51857
#
# Static dielectric constant tensor:
#      x y z
#    x 3.405420 0.000000 0.091950 
#    y 0.000000 3.451760 0.000000 
#    z 0.091950 0.000000 3.462410 
# 
# 
# High freq. dielectric constant tensor:
#      x y z
#    x 1.726410 0.000000 0.010750 
#    y 0.000000 1.727620 0.000000 
#    z 0.010750 0.000000 1.728890 
# 
# From -- ./inp_files/157891.got.cif
#   From: 2010.06.25/outbox.cif.g09.slc.cpg/sg12_79_cif.got.tgz:157891.got - 2010.06.28 00:19:55.
