data_PCOD8083424
_publ_section_title
;
Structure prediction by ZEFSAII (Michael W. Deem and Ramdas Pophale) SiO2 
 PCOD8083424
Probable space group: C 2/M
;
_chemical_formula_sum "Si O2"
_cell_formula_units_Z 40
_cell_length_a 14.635178
_cell_length_b 13.550318
_cell_length_c 13.010719
_cell_angle_alpha 90.000000
_cell_angle_beta 55.054334
_cell_angle_gamma 90.000000
_cell_volume 2114.956302
_symmetry_space_group_name_H-M "C 2/M"
_symmetry_group_IT_number 12
_symmetry_cell_setting 'monoclinic'
loop_
_space_group_symop_operation_xyz
x,y,z
-x,y,-z
-x,-y,-z
x,-y,z
1/2+x,1/2+y,z
1/2-x,1/2+y,-z
1/2-x,1/2-y,-z
1/2+x,1/2-y,z
loop_
_atom_site_type_symbol
_atom_site_label
_atom_site_fract_x
_atom_site_fract_y
_atom_site_fract_z
Si Si1 0.425824 0.886425 0.648229
Si Si2 0.995402 0.719919 0.203298
Si Si3 0.199970 0.225799 0.798303
Si Si4 0.878975 0.889666 0.970072
Si Si5 0.671689 0.109997 0.970392
O O1 0.500000 0.882706 0.500000
O O2 0.492894 0.827808 0.692681
O O3 0.310038 0.832941 0.695732
O O4 0.404155 0.000000 0.696057
O O5 0.865060 0.736569 0.261193
O O6 0.054883 0.826413 0.157354
O O7 0.049795 0.648240 0.082080
O O8 0.229390 0.321340 0.847780
O O9 0.116115 0.154825 0.917783
O O10 0.748089 0.887384 0.023433
O O11 0.927668 0.000000 0.937958
O O12 0.662065 0.000000 0.931457
#
# Coordination Sequence:
#
# PCOD8083424 Si02
#       5
#     8   8   8   8   8
#     4  11  24  43  63  81 109 153 201 246 288 335
#     4  11  21  35  58  86 117 149 188 238 286 341
#     4  11  21  35  58  86 117 149 188 238 286 341
#     4  10  18  32  57  87 120 155 184 222 285 352
#     4  10  18  32  57  87 120 155 184 222 285 352
#
# _framework density 18.912921000000001
#
# number of rings (size 3 to 8) (size 9 to 14) (size 15 to 20)
#    0.000    1.400    4.000    4.800    0.000    5.600 
#    0.000    0.000    0.000    2.400    0.000    0.000 
#    0.000    0.000    0.000    0.000    0.000    0.000 
#
# Total GULP energy -248004.021756 kJ/mol
# GULP energy per Si atom -12400.201088 kJ/mol
# Density = 1.886987 g / cm^3
# Si number density = 18.912921 Si / 1000 Ang^3
#
#
#
# Elastic Constant Matrix: (Units=GPa)
#
#
# Indices 1 2 3 4 5 6 
#
# 1 97.7329 13.3020 26.9123 0.0000 13.7710 0.0000
# 2 13.3020 133.8921 35.4332 0.0000 16.2784 0.0000
# 3 26.9123 35.4332 63.0704 0.0000 3.6661 0.0000
# 4 0.0000 0.0000 0.0000 26.4095 0.0000 -0.6228
# 5 13.7710 16.2784 3.6661 0.0000 13.5276 0.0000
# 6 0.0000 0.0000 0.0000 -0.6228 0.0000 12.6465
#
#
#
# Elastic Compliance Matrix: (Units=1/GPa)
#
#
# Indices 1 2 3 4 5 6 
#
# 1 0.013731 0.002064 -0.006159 0.000000 -0.014793 0.000000
# 2 0.002064 0.010432 -0.005984 0.000000 -0.013033 0.000000
# 3 -0.006159 -0.005984 0.021399 0.000000 0.007671 0.000000
# 4 0.000000 0.000000 0.000000 0.037909 0.000000 0.001867
# 5 -0.014793 -0.013033 0.007671 0.000000 0.102586 0.000000
# 6 0.000000 0.000000 0.000000 0.001867 0.000000 0.079165
#
#
# Mechanical properties :
#
#
# Convention : Reuss Voigt Hill
#
# Bulk Modulus (GPa) = 39.36215 49.55449 44.45832
# Shear Modulus (GPa) = 17.01555 25.11990 21.06773
#
# Velocity S-wave (km/s) = 3.00272 3.64838 3.34118
# Velocity P-wave (km/s) = 5.73404 6.63369 6.20021
#
# Compressibility (1/GPa) = 0.02540511
#
# Stress axis : x y z
#
# Youngs Moduli (GPa) = 72.82531 95.86188 46.73054
#
# Poissons Ratio (x) = -0.19789 0.28782
# Poissons Ratio (y) = -0.15033 0.27963
# Poissons Ratio (z) = 0.44854 0.57362
#
# Static dielectric constant tensor:
#      x y z
#    x 3.538950 0.000000 0.020660 
#    y 0.000000 3.748620 0.000000 
#    z 0.020660 0.000000 2.966660 
# 
# 
# High freq. dielectric constant tensor:
#      x y z
#    x 1.744610 0.000000 -0.000250 
#    y 0.000000 1.752610 0.000000 
#    z -0.000250 0.000000 1.681720 
# 
# From -- ./inp_files/141850.got.cif
#   From: 2010.06.25/outbox.cif.g09.slc.cpg/sg12_71_cif.got.tgz:141850.got - 2010.06.28 00:19:55.
