data_PCOD8083111
_publ_section_title
;
Structure prediction by ZEFSAII (Michael W. Deem and Ramdas Pophale) SiO2 
 PCOD8083111
Probable space group: C 2/M
;
_chemical_formula_sum "Si O2"
_cell_formula_units_Z 56
_cell_length_a 25.050259
_cell_length_b 16.901447
_cell_length_c 10.986993
_cell_angle_alpha 90.000000
_cell_angle_beta 139.929300
_cell_angle_gamma 90.000000
_cell_volume 2994.472371
_symmetry_space_group_name_H-M "C 2/M"
_symmetry_group_IT_number 12
_symmetry_cell_setting 'monoclinic'
loop_
_space_group_symop_operation_xyz
x,y,z
-x,y,-z
-x,-y,-z
x,-y,z
1/2+x,1/2+y,z
1/2-x,1/2+y,-z
1/2-x,1/2-y,-z
1/2+x,1/2-y,z
loop_
_atom_site_type_symbol
_atom_site_label
_atom_site_fract_x
_atom_site_fract_y
_atom_site_fract_z
Si Si1 0.568840 0.799183 0.926352
Si Si2 0.298287 0.181074 0.650407
Si Si3 0.675103 0.088746 0.951695
Si Si4 0.318761 0.591992 0.371873
Si Si5 0.036022 0.203218 0.434151
Si Si6 0.424684 0.911573 0.714006
Si Si7 0.583328 0.125284 0.570434
O O1 0.607537 0.853655 0.890288
O O2 0.532046 0.723063 0.790148
O O3 0.499988 0.851962 0.875381
O O4 0.636820 0.775455 0.145097
O O5 0.250000 0.250000 0.500000
O O6 0.235172 0.125229 0.611764
O O7 0.342579 0.124787 0.630587
O O8 0.665053 0.099331 0.788984
O O9 0.653053 0.000000 0.955562
O O10 0.768655 0.107801 0.158213
O O11 0.336173 0.500000 0.424615
O O12 0.406584 0.635100 0.519886
O O13 0.089376 0.281526 0.553394
O O14 0.000000 0.172513 0.500000
O O15 0.412871 0.921040 0.548835
O O16 0.441093 0.000000 0.795086
O O17 0.500000 0.103231 0.500000
#
# Coordination Sequence:
#
# PCOD8083111 Si02
#       7
#     8   8   8   8   8   8   8
#     4  10  20  35  57  85 110 146 183 226 278 328
#     4  11  23  40  56  79 113 150 190 231 273 328
#     4  10  18  32  53  83 118 148 178 219 285 342
#     4  10  23  39  58  81 112 150 185 234 287 328
#     4  10  19  38  59  87 110 140 191 233 275 332
#     4  11  21  32  54  85 114 147 185 225 271 332
#     4  10  18  32  53  85 119 150 179 222 280 337
#
# _framework density 18.701124
#
# number of rings (size 3 to 8) (size 9 to 14) (size 15 to 20)
#    0.000    1.714    4.286    3.429    0.000    3.714 
#    2.571    0.000    0.000    2.571    0.000    0.000 
#    0.000    0.000    0.000    0.000    0.000    0.000 
#
# Total GULP energy -347119.457039 kJ/mol
# GULP energy per Si atom -12397.123466 kJ/mol
# Density = 1.865856 g / cm^3
# Si number density = 18.701124 Si / 1000 Ang^3
#
#
#
# Elastic Constant Matrix: (Units=GPa)
#
#
# Indices 1 2 3 4 5 6 
#
# 1 97.3393 46.6325 50.0217 0.0000 2.6288 0.0000
# 2 46.6325 93.5359 58.6830 0.0000 10.1385 0.0000
# 3 50.0217 58.6830 124.5136 0.0000 -10.9225 0.0000
# 4 0.0000 0.0000 0.0000 19.3882 0.0000 1.1242
# 5 2.6288 10.1385 -10.9225 0.0000 26.2192 0.0000
# 6 0.0000 0.0000 0.0000 1.1242 0.0000 21.1473
#
#
#
# Elastic Compliance Matrix: (Units=1/GPa)
#
#
# Indices 1 2 3 4 5 6 
#
# 1 0.014483 -0.004811 -0.003648 0.000000 -0.001112 0.000000
# 2 -0.004811 0.019257 -0.008048 0.000000 -0.010317 0.000000
# 3 -0.003648 -0.008048 0.014111 0.000000 0.009356 0.000000
# 4 0.000000 0.000000 0.000000 0.051737 0.000000 -0.002750
# 5 -0.001112 -0.010317 0.009356 0.000000 0.046138 0.000000
# 6 0.000000 0.000000 0.000000 -0.002750 0.000000 0.047434
#
#
# Mechanical properties :
#
#
# Convention : Reuss Voigt Hill
#
# Bulk Modulus (GPa) = 67.40463 69.56257 68.48360
# Shear Modulus (GPa) = 21.63372 24.02105 22.82739
#
# Velocity S-wave (km/s) = 3.40489 3.58784 3.49756
# Velocity P-wave (km/s) = 7.18185 7.37843 7.28080
#
# Compressibility (1/GPa) = 0.01483578
#
# Stress axis : x y z
#
# Youngs Moduli (GPa) = 69.04583 51.92876 70.86810
#
# Poissons Ratio (x) = 0.24984 0.25856
# Poissons Ratio (y) = 0.33219 0.57035
# Poissons Ratio (z) = 0.25191 0.41792
#
# Static dielectric constant tensor:
#      x y z
#    x 3.422500 0.000000 -0.166930 
#    y 0.000000 3.244140 0.000000 
#    z -0.166930 0.000000 3.535000 
# 
# 
# High freq. dielectric constant tensor:
#      x y z
#    x 1.720220 0.000000 -0.016800 
#    y 0.000000 1.709600 0.000000 
#    z -0.016800 0.000000 1.723920 
# 
# From -- ./inp_files/177170.got.cif
#   From: 2010.06.25/outbox.cif.g09.slc.cpg/sg12_89_cif.got.tgz:177170.got - 2010.06.28 00:19:55.
