data_PCOD8083347
_publ_section_title
;
Structure prediction by ZEFSAII (Michael W. Deem and Ramdas Pophale) SiO2 
 PCOD8083347
Probable space group: C 2/M
;
_chemical_formula_sum "Si O2"
_cell_formula_units_Z 64
_cell_length_a 24.454583
_cell_length_b 8.550403
_cell_length_c 16.436742
_cell_angle_alpha 90.000000
_cell_angle_beta 88.044456
_cell_angle_gamma 90.000000
_cell_volume 3434.864264
_symmetry_space_group_name_H-M "C 2/M"
_symmetry_group_IT_number 12
_symmetry_cell_setting 'monoclinic'
loop_
_space_group_symop_operation_xyz
x,y,z
-x,y,-z
-x,-y,-z
x,-y,z
1/2+x,1/2+y,z
1/2-x,1/2+y,-z
1/2-x,1/2-y,-z
1/2+x,1/2-y,z
loop_
_atom_site_type_symbol
_atom_site_label
_atom_site_fract_x
_atom_site_fract_y
_atom_site_fract_z
Si Si1 0.379643 0.682935 0.629816
Si Si2 0.632972 0.184178 0.124965
Si Si3 0.693897 0.185155 0.968825
Si Si4 0.959353 0.684262 0.755680
Si Si5 0.323298 0.183723 0.212783
Si Si6 0.428950 0.316007 0.290484
Si Si7 0.788465 0.683664 0.737701
Si Si8 0.942812 0.815281 0.471406
O O1 0.367900 0.500000 0.640291
O O2 0.432261 0.727089 0.681279
O O3 0.325393 0.778443 0.656947
O O4 0.394092 0.728402 0.536145
O O5 0.572746 0.234069 0.159528
O O6 0.678960 0.248156 0.185036
O O7 0.638329 0.000000 0.126879
O O8 0.645541 0.243541 0.032758
O O9 0.681587 0.248254 0.879359
O O10 0.698102 0.000000 0.966438
O O11 0.750000 0.250000 0.000000
O O12 0.953700 0.500000 0.741124
O O13 0.022096 0.734204 0.761971
O O14 0.372457 0.274963 0.251376
O O15 0.268373 0.223801 0.264948
O O16 0.334899 0.000000 0.215022
O O17 0.438491 0.500000 0.288095
O O18 0.428332 0.249652 0.382826
O O19 0.776377 0.500000 0.741921
O O20 0.000000 0.741462 0.500000
O O21 0.949590 0.000000 0.466119
#
# Coordination Sequence:
#
# PCOD8083347 Si02
#       8
#     8   8   8   8   8   8   8   8
#     4  10  18  32  56  83 111 139 179 229 275 321
#     4   8  16  31  53  79 108 139 175 219 267 316
#     4  10  19  34  56  82 109 141 182 227 272 319
#     4  10  19  33  53  81 113 143 179 223 273 327
#     4  11  23  37  55  82 113 145 184 227 275 329
#     4  11  22  38  58  78 108 150 186 222 277 331
#     4  10  19  34  55  80 112 145 181 220 272 330
#     4   9  17  33  56  82 107 138 183 230 271 322
#
# _framework density 18.632469
#
# number of rings (size 3 to 8) (size 9 to 14) (size 15 to 20)
#    0.000    2.125    2.500    2.625    0.000    0.500 
#    0.000    5.000    0.000    3.750    0.000    0.000 
#    0.000    0.000    0.000    0.000    0.000    0.000 
#
# Total GULP energy -396735.403610 kJ/mol
# GULP energy per Si atom -12397.981363 kJ/mol
# Density = 1.859006 g / cm^3
# Si number density = 18.632469 Si / 1000 Ang^3
#
#
#
# Elastic Constant Matrix: (Units=GPa)
#
#
# Indices 1 2 3 4 5 6 
#
# 1 119.9854 5.3959 66.7225 0.0000 -14.3112 0.0000
# 2 5.3959 31.3409 20.0354 0.0000 -7.1974 0.0000
# 3 66.7225 20.0354 120.8139 0.0000 -9.7644 0.0000
# 4 0.0000 0.0000 0.0000 20.2897 0.0000 -1.1412
# 5 -14.3112 -7.1974 -9.7644 0.0000 29.2600 0.0000
# 6 0.0000 0.0000 0.0000 -1.1412 0.0000 31.0692
#
#
#
# Elastic Compliance Matrix: (Units=1/GPa)
#
#
# Indices 1 2 3 4 5 6 
#
# 1 0.012771 0.003518 -0.007258 0.000000 0.004690 0.000000
# 2 0.003518 0.038109 -0.007570 0.000000 0.008568 0.000000
# 3 -0.007258 -0.007570 0.013467 0.000000 -0.000918 0.000000
# 4 0.000000 0.000000 0.000000 0.049388 0.000000 0.001814
# 5 0.004690 0.008568 -0.000918 0.000000 0.038272 0.000000
# 6 0.000000 0.000000 0.000000 0.001814 0.000000 0.032253
#
#
# Mechanical properties :
#
#
# Convention : Reuss Voigt Hill
#
# Bulk Modulus (GPa) = 23.96543 50.71639 37.34091
# Shear Modulus (GPa) = 22.64616 28.12289 25.38452
#
# Velocity S-wave (km/s) = 3.49006 3.88925 3.69505
# Velocity P-wave (km/s) = 5.39730 6.88816 6.18779
#
# Compressibility (1/GPa) = 0.04172678
#
# Stress axis : x y z
#
# Youngs Moduli (GPa) = 78.29960 26.24082 74.25752
#
# Poissons Ratio (x) = -0.09231 0.53894
# Poissons Ratio (y) = -0.27545 0.56214
# Poissons Ratio (z) = 0.56827 0.19865
#
# Static dielectric constant tensor:
#      x y z
#    x 3.329760 0.000000 -0.212220 
#    y 0.000000 3.211580 0.000000 
#    z -0.212220 0.000000 3.384400 
# 
# 
# High freq. dielectric constant tensor:
#      x y z
#    x 1.716730 0.000000 -0.026980 
#    y 0.000000 1.709450 0.000000 
#    z -0.026980 0.000000 1.717470 
# 
# From -- ./inp_files/287634.got.cif
#   From: 2010.06.25/outbox.cif.g09.slc.cpg/sg12_144_cif.got.tgz:287634.got - 2010.06.28 00:19:55.
