data_PCOD8083665
_publ_section_title
;
Structure prediction by ZEFSAII (Michael W. Deem and Ramdas Pophale) SiO2 
 PCOD8083665
Probable space group: C 2/M
;
_chemical_formula_sum "Si O2"
_cell_formula_units_Z 48
_cell_length_a 9.320762
_cell_length_b 26.569290
_cell_length_c 11.908333
_cell_angle_alpha 90.000000
_cell_angle_beta 127.294463
_cell_angle_gamma 90.000000
_cell_volume 2346.064854
_symmetry_space_group_name_H-M "C 2/M"
_symmetry_group_IT_number 12
_symmetry_cell_setting 'monoclinic'
loop_
_space_group_symop_operation_xyz
x,y,z
-x,y,-z
-x,-y,-z
x,-y,z
1/2+x,1/2+y,z
1/2-x,1/2+y,-z
1/2-x,1/2-y,-z
1/2+x,1/2-y,z
loop_
_atom_site_type_symbol
_atom_site_label
_atom_site_fract_x
_atom_site_fract_y
_atom_site_fract_z
Si Si1 0.000931 0.384325 0.130245
Si Si2 0.354232 0.295590 0.837367
Si Si3 0.795763 0.131337 0.432619
Si Si4 0.318600 0.410248 0.859476
Si Si5 0.299582 0.943584 0.424149
Si Si6 0.027415 0.712994 0.257880
O O1 0.193751 0.397707 0.280708
O O2 0.973362 0.323659 0.126624
O O3 0.841556 0.411678 0.124445
O O4 0.000000 0.401677 0.000000
O O5 0.350602 0.355234 0.821154
O O6 0.407375 0.267967 0.747732
O O7 0.153628 0.275336 0.761428
O O8 0.500000 0.279688 0.000000
O O9 0.802877 0.094646 0.542700
O O10 0.681153 0.182851 0.403098
O O11 0.000000 0.145839 0.500000
O O12 0.285757 0.446605 0.739689
O O13 0.500000 0.430846 0.000000
O O14 0.500000 0.922690 0.500000
O O15 0.297440 0.000000 0.474577
#
# Coordination Sequence:
#
# PCOD8083665 Si02
#       6
#     8   8   8   8   8   8
#     4   9  19  37  59  87 121 159 197 247 293 349
#     4  10  18  33  55  88 124 162 198 245 292 357
#     4  10  23  41  61  89 120 165 203 246 303 362
#     4  10  22  37  62  93 120 155 203 252 303 351
#     4  11  22  43  68  86 118 159 203 252 305 371
#     4   9  20  34  55  88 123 156 209 241 287 352
#
# _framework density 20.459792
#
# number of rings (size 3 to 8) (size 9 to 14) (size 15 to 20)
#    1.000    1.167    1.667    1.000    2.333    4.667 
#    0.000    4.167    0.000    1.000    0.000    0.000 
#    0.000    0.000    0.000    0.000    0.000    0.000 
#
# Total GULP energy -297371.022301 kJ/mol
# GULP energy per Si atom -12390.459263 kJ/mol
# Density = 2.041322 g / cm^3
# Si number density = 20.459792 Si / 1000 Ang^3
#
#
#
# Elastic Constant Matrix: (Units=GPa)
#
#
# Indices 1 2 3 4 5 6 
#
# 1 77.1109 3.5652 33.0775 0.0000 33.1530 0.0000
# 2 3.5652 40.1506 -0.1048 0.0000 0.3691 0.0000
# 3 33.0775 -0.1048 100.2471 0.0000 13.1140 0.0000
# 4 0.0000 0.0000 0.0000 -8.4349 0.0000 -33.8032
# 5 33.1530 0.3691 13.1140 0.0000 43.1889 0.0000
# 6 0.0000 0.0000 0.0000 -33.8032 0.0000 -14.2066
#
#
#
# Elastic Compliance Matrix: (Units=1/GPa)
#
#
# Indices 1 2 3 4 5 6 
#
# 1 0.021794 -0.001810 -0.005214 0.000000 -0.015131 0.000000
# 2 -0.001810 0.025059 0.000489 0.000000 0.001027 0.000000
# 3 -0.005214 0.000489 0.011635 0.000000 0.000465 0.000000
# 4 0.000000 0.000000 0.000000 0.013890 0.000000 -0.033049
# 5 -0.015131 0.001027 0.000465 0.000000 0.034619 0.000000
# 6 0.000000 0.000000 0.000000 -0.033049 0.000000 0.008247
#
#
# Mechanical properties :
#
#
# Convention : Reuss Voigt Hill
#
# Bulk Modulus (GPa) = 22.01701 32.28715 27.15208
# Shear Modulus (GPa) = 34.85497 16.17420 25.51458
#
# Velocity S-wave (km/s) = 4.13193 2.81470 3.53520
# Velocity P-wave (km/s) = 5.79208 5.13599 5.47388
#
# Compressibility (1/GPa) = 0.04541942
#
# Stress axis : x y z
#
# Youngs Moduli (GPa) = 45.88452 39.90621 85.94523
#
# Poissons Ratio (x) = 0.07222 0.44808
# Poissons Ratio (y) = 0.08304 -0.04203
# Poissons Ratio (z) = 0.23922 -0.01952
#
# Static dielectric constant tensor:
#      x y z
#    x 3.584420 0.000000 0.226140 
#    y 0.000000 3.278300 0.000000 
#    z 0.226140 0.000000 3.676990 
# 
# 
# High freq. dielectric constant tensor:
#      x y z
#    x 1.795260 0.000000 0.016820 
#    y 0.000000 1.773290 0.000000 
#    z 0.016820 0.000000 1.791490 
# 
# From -- ./inp_files/123895.got.cif
#   From: 2010.06.25/outbox.cif.g09.slc.cpg/sg12_62_cif.got.tgz:123895.got - 2010.06.28 00:19:55.
