data_PCOD8083823
_publ_section_title
;
Structure prediction by ZEFSAII (Michael W. Deem and Ramdas Pophale) SiO2 
 PCOD8083823
Probable space group: C 2/M
;
_chemical_formula_sum "Si O2"
_cell_formula_units_Z 64
_cell_length_a 18.160750
_cell_length_b 13.801733
_cell_length_c 15.716887
_cell_angle_alpha 90.000000
_cell_angle_beta 54.054547
_cell_angle_gamma 90.000000
_cell_volume 3189.272822
_symmetry_space_group_name_H-M "C 2/M"
_symmetry_group_IT_number 12
_symmetry_cell_setting 'monoclinic'
loop_
_space_group_symop_operation_xyz
x,y,z
-x,y,-z
-x,-y,-z
x,-y,z
1/2+x,1/2+y,z
1/2-x,1/2+y,-z
1/2-x,1/2-y,-z
1/2+x,1/2-y,z
loop_
_atom_site_type_symbol
_atom_site_label
_atom_site_fract_x
_atom_site_fract_y
_atom_site_fract_z
Si Si1 0.716510 0.607024 0.329756
Si Si2 0.887374 0.392136 0.098347
Si Si3 0.097565 0.752931 0.625554
Si Si4 0.773950 0.303383 0.589216
Si Si5 0.183754 0.885338 0.807091
Si Si6 0.467641 0.392138 0.617575
Si Si7 0.523003 0.748300 0.851435
Si Si8 0.175811 0.235672 0.977725
O O1 0.696611 0.500000 0.383302
O O2 0.814980 0.609707 0.222791
O O3 0.713239 0.687910 0.404416
O O4 0.640765 0.627988 0.308227
O O5 0.916312 0.500000 0.052581
O O6 0.974303 0.335588 0.080914
O O7 0.840685 0.341391 0.049957
O O8 0.136309 0.672963 0.530330
O O9 0.182993 0.820375 0.595805
O O10 0.053983 0.706225 0.739955
O O11 0.016804 0.817080 0.644328
O O12 0.765899 0.361977 0.683847
O O13 0.091093 0.836694 0.836133
O O14 0.208396 0.840483 0.882892
O O15 0.171239 0.000000 0.824169
O O16 0.500000 0.377061 0.500000
O O17 0.489433 0.500000 0.636113
O O18 0.421717 0.702608 0.916619
O O19 0.250000 0.250000 0.000000
#
# Coordination Sequence:
#
# PCOD8083823 Si02
#       8
#     8   8   8   8   8   8   8   8
#     4  10  18  33  58  86 116 148 187 238 294 347
#     4  10  20  39  63  85 114 152 194 241 291 349
#     4  10  20  33  54  82 122 156 192 237 289 349
#     4  10  19  36  57  85 118 157 203 238 290 355
#     4  10  21  41  63  84 118 161 203 250 301 353
#     4  10  20  31  50  84 118 153 190 234 299 354
#     4  10  22  39  60  89 120 154 202 245 294 360
#     4  11  24  39  61  91 122 151 196 249 303 360
#
# _framework density 20.067270000000001
#
# number of rings (size 3 to 8) (size 9 to 14) (size 15 to 20)
#    0.000    1.875    5.000    1.500    1.750    4.500 
#    0.000    3.750    0.000    0.000    0.000    2.625 
#    0.000    0.000    0.000    0.000    0.000    0.000 
#
# Total GULP energy -396482.842957 kJ/mol
# GULP energy per Si atom -12390.088842 kJ/mol
# Density = 2.002160 g / cm^3
# Si number density = 20.067270 Si / 1000 Ang^3
#
#
#
# Elastic Constant Matrix: (Units=GPa)
#
#
# Indices 1 2 3 4 5 6 
#
# 1 118.7884 44.4005 36.5921 0.0000 11.8175 0.0000
# 2 44.4005 109.9339 31.1776 0.0000 13.6636 0.0000
# 3 36.5921 31.1776 131.0626 0.0000 10.0928 0.0000
# 4 0.0000 0.0000 0.0000 12.3490 0.0000 -4.7652
# 5 11.8175 13.6636 10.0928 0.0000 24.2526 0.0000
# 6 0.0000 0.0000 0.0000 -4.7652 0.0000 11.0042
#
#
#
# Elastic Compliance Matrix: (Units=1/GPa)
#
#
# Indices 1 2 3 4 5 6 
#
# 1 0.010528 -0.003402 -0.001945 0.000000 -0.002404 0.000000
# 2 -0.003402 0.011396 -0.001441 0.000000 -0.004163 0.000000
# 3 -0.001945 -0.001441 0.008658 0.000000 -0.001843 0.000000
# 4 0.000000 0.000000 0.000000 0.097224 0.000000 0.042101
# 5 -0.002404 -0.004163 -0.001843 0.000000 0.045517 0.000000
# 6 0.000000 0.000000 0.000000 0.042101 0.000000 0.109105
#
#
# Mechanical properties :
#
#
# Convention : Reuss Voigt Hill
#
# Bulk Modulus (GPa) = 58.79829 64.90281 61.85055
# Shear Modulus (GPa) = 16.57430 26.02883 21.30156
#
# Velocity S-wave (km/s) = 2.87703 3.60540 3.26161
# Velocity P-wave (km/s) = 6.35615 7.05300 6.71362
#
# Compressibility (1/GPa) = 0.01700730
#
# Stress axis : x y z
#
# Youngs Moduli (GPa) = 94.98344 87.74771 115.50463
#
# Poissons Ratio (x) = 0.29849 0.22466
# Poissons Ratio (y) = 0.32311 0.16640
# Poissons Ratio (z) = 0.18475 0.12641
#
# Static dielectric constant tensor:
#      x y z
#    x 3.760950 0.000000 -0.147010 
#    y 0.000000 3.547690 0.000000 
#    z -0.147010 0.000000 4.054380 
# 
# 
# High freq. dielectric constant tensor:
#      x y z
#    x 1.773940 0.000000 -0.009900 
#    y 0.000000 1.744400 0.000000 
#    z -0.009900 0.000000 1.808730 
# 
# From -- ./inp_files/225252.got.cif
#   From: 2010.06.25/outbox.cif.g09.slc.cpg/sg12_113_cif.got.tgz:225252.got - 2010.06.28 00:19:55.
