data_PCOD8083644
_publ_section_title
;
Structure prediction by ZEFSAII (Michael W. Deem and Ramdas Pophale) SiO2 
 PCOD8083644
Probable space group: C 2/M
;
_chemical_formula_sum "Si O2"
_cell_formula_units_Z 64
_cell_length_a 19.976634
_cell_length_b 8.908611
_cell_length_c 19.884694
_cell_angle_alpha 90.000000
_cell_angle_beta 106.484671
_cell_angle_gamma 90.000000
_cell_volume 3393.302566
_symmetry_space_group_name_H-M "C 2/M"
_symmetry_group_IT_number 12
_symmetry_cell_setting 'monoclinic'
loop_
_space_group_symop_operation_xyz
x,y,z
-x,y,-z
-x,-y,-z
x,-y,z
1/2+x,1/2+y,z
1/2-x,1/2+y,-z
1/2-x,1/2-y,-z
1/2+x,1/2-y,z
loop_
_atom_site_type_symbol
_atom_site_label
_atom_site_fract_x
_atom_site_fract_y
_atom_site_fract_z
Si Si1 0.676208 0.174953 0.652508
Si Si2 0.418792 0.830754 0.993437
Si Si3 0.953498 0.825378 0.132363
Si Si4 0.577216 0.673954 0.725091
Si Si5 0.111673 0.176144 0.146591
Si Si6 0.577775 0.675075 0.363097
Si Si7 0.576884 0.825195 0.500155
Si Si8 0.320557 0.822358 0.712355
O O1 0.636449 0.225205 0.708434
O O2 0.629452 0.212815 0.574800
O O3 0.747012 0.266157 0.663147
O O4 0.693353 0.000000 0.662815
O O5 0.377081 0.734312 0.926242
O O6 0.390345 0.000000 0.983973
O O7 0.500000 0.822732 0.000000
O O8 0.407280 0.762960 0.064392
O O9 0.925308 0.781651 0.197417
O O10 0.034821 0.780978 0.151475
O O11 0.945089 0.000000 0.114325
O O12 0.596716 0.500000 0.721600
O O13 0.503778 0.709663 0.669074
O O14 0.167848 0.257617 0.209701
O O15 0.125445 0.000000 0.152831
O O16 0.594523 0.500000 0.358260
O O17 0.601548 0.729163 0.443290
O O18 0.618690 0.766392 0.318798
O O19 0.500000 0.773408 0.500000
O O20 0.577577 0.000000 0.480792
O O21 0.321261 0.000000 0.715526
#
# Coordination Sequence:
#
# PCOD8083644 Si02
#       8
#     8   8   8   8   8   8   8   8
#     4  11  24  41  61  84 116 153 192 236 289 349
#     4   9  17  28  45  78 116 149 189 235 282 332
#     4   9  17  31  52  80 114 150 188 235 283 335
#     4  10  20  36  58  86 117 149 192 238 285 340
#     4  10  18  33  55  80 113 153 192 232 287 343
#     4  11  22  38  62  89 116 151 193 237 287 345
#     4  10  21  39  61  88 117 149 190 239 290 341
#     4  12  25  40  59  84 118 154 194 241 289 342
#
# _framework density 18.860683000000002
#
# number of rings (size 3 to 8) (size 9 to 14) (size 15 to 20)
#    0.000    1.750    2.500    2.625    0.000    4.750 
#    0.000    0.000    0.000    0.750    0.000    0.000 
#    0.000    0.000    0.000    0.000    0.000    0.000 
#
# Total GULP energy -396947.325251 kJ/mol
# GULP energy per Si atom -12404.603914 kJ/mol
# Density = 1.881776 g / cm^3
# Si number density = 18.860683 Si / 1000 Ang^3
#
#
#
# Elastic Constant Matrix: (Units=GPa)
#
#
# Indices 1 2 3 4 5 6 
#
# 1 28.5198 25.7042 22.1986 0.0000 -0.4632 0.0000
# 2 25.7042 103.8334 53.5139 0.0000 0.8961 0.0000
# 3 22.1986 53.5139 118.8521 0.0000 -10.0568 0.0000
# 4 0.0000 0.0000 0.0000 35.1219 0.0000 -2.4307
# 5 -0.4632 0.8961 -10.0568 0.0000 25.3469 0.0000
# 6 0.0000 0.0000 0.0000 -2.4307 0.0000 29.5244
#
#
#
# Elastic Compliance Matrix: (Units=1/GPa)
#
#
# Indices 1 2 3 4 5 6 
#
# 1 0.047006 -0.009215 -0.004688 0.000000 -0.000675 0.000000
# 2 -0.009215 0.014539 -0.005053 0.000000 -0.002687 0.000000
# 3 -0.004688 -0.005053 0.011974 0.000000 0.004844 0.000000
# 4 0.000000 0.000000 0.000000 0.028635 0.000000 0.002358
# 5 -0.000675 -0.002687 0.004844 0.000000 0.041457 0.000000
# 6 0.000000 0.000000 0.000000 0.002358 0.000000 0.034064
#
#
# Mechanical properties :
#
#
# Convention : Reuss Voigt Hill
#
# Bulk Modulus (GPa) = 28.08252 50.44875 39.26564
# Shear Modulus (GPa) = 21.98226 27.98455 24.98340
#
# Velocity S-wave (km/s) = 3.41766 3.85613 3.64349
# Velocity P-wave (km/s) = 5.52228 6.82880 6.20999
#
# Compressibility (1/GPa) = 0.03560934
#
# Stress axis : x y z
#
# Youngs Moduli (GPa) = 21.27388 68.77974 83.51273
#
# Poissons Ratio (x) = 0.63378 0.39148
# Poissons Ratio (y) = 0.19603 0.42196
# Poissons Ratio (z) = 0.09973 0.34752
#
# Static dielectric constant tensor:
#      x y z
#    x 3.162500 0.000000 -0.061330 
#    y 0.000000 3.468950 0.000000 
#    z -0.061330 0.000000 3.643700 
# 
# 
# High freq. dielectric constant tensor:
#      x y z
#    x 1.700020 0.000000 -0.009740 
#    y 0.000000 1.739580 0.000000 
#    z -0.009740 0.000000 1.746910 
# 
# From -- ./inp_files/320102.got.cif
#   From: 2010.06.25/outbox.cif.g09.slc.cpg/sg12_161_cif.got.tgz:320102.got - 2010.06.28 00:19:55.
