data_PCOD8083731
_publ_section_title
;
Structure prediction by ZEFSAII (Michael W. Deem and Ramdas Pophale) SiO2 
 PCOD8083731
Probable space group: C 2/M
;
_chemical_formula_sum "Si O2"
_cell_formula_units_Z 64
_cell_length_a 28.611470
_cell_length_b 9.005305
_cell_length_c 14.377260
_cell_angle_alpha 90.000000
_cell_angle_beta 86.163557
_cell_angle_gamma 90.000000
_cell_volume 3696.072043
_symmetry_space_group_name_H-M "C 2/M"
_symmetry_group_IT_number 12
_symmetry_cell_setting 'monoclinic'
loop_
_space_group_symop_operation_xyz
x,y,z
-x,y,-z
-x,-y,-z
x,-y,z
1/2+x,1/2+y,z
1/2-x,1/2+y,-z
1/2-x,1/2-y,-z
1/2+x,1/2-y,z
loop_
_atom_site_type_symbol
_atom_site_label
_atom_site_fract_x
_atom_site_fract_y
_atom_site_fract_z
Si Si1 0.580892 0.324442 0.303022
Si Si2 0.317287 0.824177 0.225741
Si Si3 0.992648 0.675998 0.393516
Si Si4 0.798040 0.325346 0.022753
Si Si5 0.352067 0.827776 0.836477
Si Si6 0.272442 0.168924 0.701607
Si Si7 0.889960 0.324930 0.360542
Si Si8 0.146652 0.671462 0.439459
O O1 0.577208 0.500000 0.300753
O O2 0.529563 0.255672 0.321694
O O3 0.603428 0.267666 0.202969
O O4 0.612391 0.274030 0.384956
O O5 0.315157 0.763658 0.120481
O O6 0.272277 0.774008 0.290328
O O7 0.364082 0.762958 0.271357
O O8 0.317776 0.000000 0.226165
O O9 0.997505 0.500000 0.381146
O O10 0.942237 0.738203 0.366201
O O11 0.000000 0.721542 0.500000
O O12 0.788301 0.500000 0.027009
O O13 0.750000 0.250000 0.000000
O O14 0.839426 0.287756 0.944473
O O15 0.306828 0.787277 0.781127
O O16 0.365033 0.000000 0.822087
O O17 0.299783 0.193497 0.600600
O O18 0.255398 0.000000 0.714893
O O19 0.894123 0.500000 0.353639
O O20 0.857710 0.280842 0.452994
O O21 0.130911 0.500000 0.425802
#
# Coordination Sequence:
#
# PCOD8083731 Si02
#       8
#     8   8   8   8   8   8   8   8
#     4  11  21  31  49  79 107 124 157 217 265 288
#     4  10  20  32  49  75 104 130 165 213 255 287
#     4  10  18  33  57  75  94 134 176 200 240 307
#     4  10  19  32  52  76 102 133 168 209 251 294
#     4   9  18  33  51  71  99 136 173 201 241 304
#     4   9  17  29  47  69  98 136 174 202 234 290
#     4   9  18  33  52  73  98 133 172 207 243 295
#     4   9  17  33  51  68  98 140 177 198 233 302
#
# _framework density 17.315678999999999
#
# number of rings (size 3 to 8) (size 9 to 14) (size 15 to 20)
#    0.000    2.375    2.500    1.875    0.000    3.250 
#    0.000    1.250    0.000    0.750    0.000    5.250 
#    0.000    0.000    0.000    0.000    0.000    0.000 
#
# Total GULP energy -396719.172035 kJ/mol
# GULP energy per Si atom -12397.474126 kJ/mol
# Density = 1.727627 g / cm^3
# Si number density = 17.315679 Si / 1000 Ang^3
#
#
#
# Elastic Constant Matrix: (Units=GPa)
#
#
# Indices 1 2 3 4 5 6 
#
# 1 126.1549 36.2265 79.4053 0.0000 -2.6338 0.0000
# 2 36.2265 42.4275 31.8438 0.0000 -5.1782 0.0000
# 3 79.4053 31.8438 123.1474 0.0000 -0.9527 0.0000
# 4 0.0000 0.0000 0.0000 14.2201 0.0000 -5.4975
# 5 -2.6338 -5.1782 -0.9527 0.0000 25.1968 0.0000
# 6 0.0000 0.0000 0.0000 -5.4975 0.0000 25.1077
#
#
#
# Elastic Compliance Matrix: (Units=1/GPa)
#
#
# Indices 1 2 3 4 5 6 
#
# 1 0.014760 -0.006796 -0.007761 0.000000 -0.000147 0.000000
# 2 -0.006796 0.033224 -0.004163 0.000000 0.005960 0.000000
# 3 -0.007761 -0.004163 0.014193 0.000000 -0.001130 0.000000
# 4 0.000000 0.000000 0.000000 0.076826 0.000000 0.016822
# 5 -0.000147 0.005960 -0.001130 0.000000 0.040854 0.000000
# 6 0.000000 0.000000 0.000000 0.016822 0.000000 0.043512
#
#
# Mechanical properties :
#
#
# Convention : Reuss Voigt Hill
#
# Bulk Modulus (GPa) = 40.42589 65.18679 52.80634
# Shear Modulus (GPa) = 18.58350 22.52184 20.55267
#
# Velocity S-wave (km/s) = 3.27955 3.61038 3.44894
# Velocity P-wave (km/s) = 6.14310 7.42345 6.81342
#
# Compressibility (1/GPa) = 0.02473662
#
# Stress axis : x y z
#
# Youngs Moduli (GPa) = 67.74910 30.09851 70.45906
#
# Poissons Ratio (x) = 0.20454 0.54686
# Poissons Ratio (y) = 0.46041 0.29334
# Poissons Ratio (z) = 0.52582 0.12531
#
# Static dielectric constant tensor:
#      x y z
#    x 3.289760 0.000000 -0.063560 
#    y 0.000000 2.987280 0.000000 
#    z -0.063560 0.000000 3.490620 
# 
# 
# High freq. dielectric constant tensor:
#      x y z
#    x 1.657830 0.000000 -0.016330 
#    y 0.000000 1.647000 0.000000 
#    z -0.016330 0.000000 1.662280 
# 
# From -- ./inp_files/248344.got.cif
#   From: 2010.06.25/outbox.cif.g09.slc.cpg/sg12_125_cif.got.tgz:248344.got - 2010.06.28 00:19:55.
