data_PCOD8083694
_publ_section_title
;
Structure prediction by ZEFSAII (Michael W. Deem and Ramdas Pophale) SiO2 
 PCOD8083694
Probable space group: C 2/M
;
_chemical_formula_sum "Si O2"
_cell_formula_units_Z 48
_cell_length_a 8.487352
_cell_length_b 17.184488
_cell_length_c 19.476075
_cell_angle_alpha 90.000000
_cell_angle_beta 58.741777
_cell_angle_gamma 90.000000
_cell_volume 2428.252076
_symmetry_space_group_name_H-M "C 2/M"
_symmetry_group_IT_number 12
_symmetry_cell_setting 'monoclinic'
loop_
_space_group_symop_operation_xyz
x,y,z
-x,y,-z
-x,-y,-z
x,-y,z
1/2+x,1/2+y,z
1/2-x,1/2+y,-z
1/2-x,1/2-y,-z
1/2+x,1/2-y,z
loop_
_atom_site_type_symbol
_atom_site_label
_atom_site_fract_x
_atom_site_fract_y
_atom_site_fract_z
Si Si1 0.301347 0.585508 0.739660
Si Si2 0.830580 0.913977 0.085926
Si Si3 0.049070 0.306963 0.336073
Si Si4 0.363225 0.661698 0.591948
Si Si5 0.412281 0.372459 0.212946
Si Si6 0.475471 0.794432 0.814278
O O1 0.208987 0.500000 0.760961
O O2 0.396543 0.598157 0.643895
O O3 0.445231 0.587819 0.768632
O O4 0.152676 0.652145 0.781958
O O5 0.890606 0.925753 0.151211
O O6 0.686102 0.842702 0.112132
O O7 0.753993 0.000000 0.080386
O O8 0.000000 0.889735 0.000000
O O9 0.089980 0.246147 0.387171
O O10 0.217332 0.368660 0.298673
O O11 0.060923 0.270755 0.256892
O O12 0.845360 0.343152 0.391401
O O13 0.500000 0.641294 0.500000
O O14 0.482027 0.289843 0.163911
#
# Coordination Sequence:
#
# PCOD8083694 Si02
#       6
#     8   8   8   8   8   8
#     4  11  21  35  56  83 112 146 188 231 276 329
#     4  10  22  38  55  81 116 147 178 225 283 331
#     4  10  18  33  56  80 108 143 187 232 266 326
#     4  11  20  33  54  83 114 145 181 229 284 326
#     4  11  19  37  60  81 107 145 191 231 267 324
#     4  10  19  36  60  80 107 146 189 228 267 326
#
# _framework density 19.767305
#
# number of rings (size 3 to 8) (size 9 to 14) (size 15 to 20)
#    0.000    1.500    5.000    2.500    0.000    1.000 
#    0.000    1.667    0.000    4.000    0.000    0.000 
#    0.000    0.000    0.000    0.000    0.000    0.000 
#
# Total GULP energy -297373.390895 kJ/mol
# GULP energy per Si atom -12390.557954 kJ/mol
# Density = 1.972231 g / cm^3
# Si number density = 19.767305 Si / 1000 Ang^3
#
#
#
# Elastic Constant Matrix: (Units=GPa)
#
#
# Indices 1 2 3 4 5 6 
#
# 1 82.8035 12.6319 25.9395 0.0000 -7.8719 0.0000
# 2 12.6319 82.3296 20.5042 0.0000 -11.7413 0.0000
# 3 25.9395 20.5042 77.8364 0.0000 -26.0584 0.0000
# 4 0.0000 0.0000 0.0000 3.2570 0.0000 10.3245
# 5 -7.8719 -11.7413 -26.0584 0.0000 28.6782 0.0000
# 6 0.0000 0.0000 0.0000 10.3245 0.0000 9.6659
#
#
#
# Elastic Compliance Matrix: (Units=1/GPa)
#
#
# Indices 1 2 3 4 5 6 
#
# 1 0.013578 -0.001075 -0.004515 0.000000 -0.000815 0.000000
# 2 -0.001075 0.013289 -0.002040 0.000000 0.003292 0.000000
# 3 -0.004515 -0.002040 0.020401 0.000000 0.016463 0.000000
# 4 0.000000 0.000000 0.000000 -0.128684 0.000000 0.137452
# 5 -0.000815 0.003292 0.016463 0.000000 0.050952 0.000000
# 6 0.000000 0.000000 0.000000 0.137452 0.000000 -0.043361
#
#
# Mechanical properties :
#
#
# Convention : Reuss Voigt Hill
#
# Bulk Modulus (GPa) = 31.24310 40.12454 35.68382
# Shear Modulus (GPa) = -104.39371 20.57979 -41.90696
#
# Velocity S-wave (km/s) = -7.27502 3.23011 -4.60936
# Velocity P-wave (km/s) = 7.39785 5.85269 3.19954
#
# Compressibility (1/GPa) = 0.03200707
#
# Stress axis : x y z
#
# Youngs Moduli (GPa) = 73.65104 75.25113 49.01737
#
# Poissons Ratio (x) = 0.08091 0.22129
# Poissons Ratio (y) = 0.07919 0.10001
# Poissons Ratio (z) = 0.33250 0.15354
#
# Static dielectric constant tensor:
#      x y z
#    x 3.915410 0.000000 -0.055540 
#    y 0.000000 3.478590 0.000000 
#    z -0.055540 0.000000 3.459310 
# 
# 
# High freq. dielectric constant tensor:
#      x y z
#    x 1.780110 0.000000 -0.004860 
#    y 0.000000 1.762240 0.000000 
#    z -0.004860 0.000000 1.746550 
# 
# From -- ./inp_files/256206.got.cif
#   From: 2010.06.25/outbox.cif.g09.slc.cpg/sg12_129_cif.got.tgz:256206.got - 2010.06.28 00:19:55.
