data_PCOD8083176
_publ_section_title
;
Structure prediction by ZEFSAII (Michael W. Deem and Ramdas Pophale) SiO2 
 PCOD8083176
Probable space group: C 2/M
;
_chemical_formula_sum "Si O2"
_cell_formula_units_Z 56
_cell_length_a 20.281540
_cell_length_b 8.638719
_cell_length_c 20.887505
_cell_angle_alpha 90.000000
_cell_angle_beta 48.734623
_cell_angle_gamma 90.000000
_cell_volume 2750.805696
_symmetry_space_group_name_H-M "C 2/M"
_symmetry_group_IT_number 12
_symmetry_cell_setting 'monoclinic'
loop_
_space_group_symop_operation_xyz
x,y,z
-x,y,-z
-x,-y,-z
x,-y,z
1/2+x,1/2+y,z
1/2-x,1/2+y,-z
1/2-x,1/2-y,-z
1/2+x,1/2-y,z
loop_
_atom_site_type_symbol
_atom_site_label
_atom_site_fract_x
_atom_site_fract_y
_atom_site_fract_z
Si Si1 0.443416 0.320439 0.402494
Si Si2 0.793841 0.684435 0.909162
Si Si3 0.737978 0.675007 0.811946
Si Si4 0.402456 0.824986 0.623836
Si Si5 0.362268 0.682692 0.245550
Si Si6 0.794194 0.823633 0.586926
Si Si7 0.493287 0.817901 0.768240
O O1 0.469078 0.500000 0.391636
O O2 0.501656 0.222679 0.414688
O O3 0.341277 0.293741 0.488040
O O4 0.457670 0.265097 0.321419
O O5 0.791718 0.500000 0.911730
O O6 0.738344 0.749055 0.883127
O O7 0.894215 0.742332 0.840482
O O8 0.750000 0.750000 0.000000
O O9 0.705483 0.500000 0.838482
O O10 0.838930 0.682948 0.725793
O O11 0.673994 0.751455 0.799418
O O12 0.369013 0.707601 0.591707
O O13 0.404550 0.000000 0.595074
O O14 0.378327 0.500000 0.232193
O O15 0.289581 0.714167 0.347400
O O16 0.452717 0.770332 0.202746
O O17 0.761701 0.000000 0.613492
O O18 0.496071 0.000000 0.755045
#
# Coordination Sequence:
#
# PCOD8083176 Si02
#       7
#     8   8   8   8   8   8   8
#     4  11  22  34  52  80 116 154 199 247 290 340
#     4  10  21  40  64  91 117 145 184 233 290 349
#     4   8  16  35  59  83 113 149 188 231 280 337
#     4  10  18  32  54  80 113 154 198 242 290 343
#     4  10  21  38  61  85 114 155 200 239 284 344
#     4  10  21  35  51  79 117 156 198 246 290 334
#     4  11  23  40  61  84 117 154 189 239 297 349
#
# _framework density 20.357671
#
# number of rings (size 3 to 8) (size 9 to 14) (size 15 to 20)
#    0.000    2.000    1.429    3.429    0.000    5.714 
#    0.000    2.143    0.000    4.286    0.000    0.000 
#    0.000    0.000    0.000    0.000    0.000    0.000 
#
# Total GULP energy -347078.527484 kJ/mol
# GULP energy per Si atom -12395.661696 kJ/mol
# Density = 2.031134 g / cm^3
# Si number density = 20.357671 Si / 1000 Ang^3
#
#
#
# Elastic Constant Matrix: (Units=GPa)
#
#
# Indices 1 2 3 4 5 6 
#
# 1 99.6242 9.7344 48.4143 -0.0002 -4.5798 0.0003
# 2 9.7344 47.0298 22.2173 -0.0003 0.0222 0.0008
# 3 48.4143 22.2173 110.2915 -0.0001 17.7170 0.0001
# 4 -0.0002 -0.0003 -0.0001 29.7674 0.0001 0.5313
# 5 -4.5798 0.0222 17.7170 0.0001 13.9002 -0.0001
# 6 0.0003 0.0008 0.0001 0.5313 -0.0001 31.8428
#
#
#
# Elastic Compliance Matrix: (Units=1/GPa)
#
#
# Indices 1 2 3 4 5 6 
#
# 1 0.015582 0.001499 -0.010017 0.000000 0.017899 0.000000
# 2 0.001499 0.024289 -0.007072 0.000000 0.009468 -0.000001
# 3 -0.010017 -0.007072 0.019386 0.000000 -0.027999 0.000000
# 4 0.000000 0.000000 0.000000 0.033604 0.000000 -0.000561
# 5 0.017899 0.009468 -0.027999 0.000000 0.113510 0.000000
# 6 0.000000 -0.000001 0.000000 -0.000561 0.000000 0.031414
#
#
# Mechanical properties :
#
#
# Convention : Reuss Voigt Hill
#
# Bulk Modulus (GPa) = 35.61641 46.40861 41.01251
# Shear Modulus (GPa) = 17.96463 26.87406 22.41934
#
# Velocity S-wave (km/s) = 2.97383 3.63725 3.32214
# Velocity P-wave (km/s) = 5.41524 6.36283 5.90806
#
# Compressibility (1/GPa) = 0.02807695
#
# Stress axis : x y z
#
# Youngs Moduli (GPa) = 64.17568 41.17065 51.58294
#
# Poissons Ratio (x) = -0.06169 0.51672
# Poissons Ratio (y) = -0.09617 0.36477
# Poissons Ratio (z) = 0.64286 0.29114
#
# Static dielectric constant tensor:
#      x y z
#    x 3.837090 0.000000 0.142710 
#    y 0.000000 3.511130 0.000000 
#    z 0.142710 0.000000 3.684400 
# 
# 
# High freq. dielectric constant tensor:
#      x y z
#    x 1.798150 0.000000 0.007240 
#    y 0.000000 1.781250 0.000000 
#    z 0.007240 0.000000 1.777480 
# 
# From -- ./inp_files/319634.got.cif
#   From: 2010.06.25/outbox.cif.g09.slc.cpg/sg12_160_cif.got.tgz:319634.got - 2010.06.28 00:19:55.
