data_PCOD8083977
_publ_section_title
;
Structure prediction by ZEFSAII (Michael W. Deem and Ramdas Pophale) SiO2 
 PCOD8083977
Probable space group: C 2/M
;
_chemical_formula_sum "Si O2"
_cell_formula_units_Z 48
_cell_length_a 8.933584
_cell_length_b 18.413814
_cell_length_c 18.402237
_cell_angle_alpha 90.000000
_cell_angle_beta 56.320450
_cell_angle_gamma 90.000000
_cell_volume 2519.084946
_symmetry_space_group_name_H-M "C 2/M"
_symmetry_group_IT_number 12
_symmetry_cell_setting 'monoclinic'
loop_
_space_group_symop_operation_xyz
x,y,z
-x,y,-z
-x,-y,-z
x,-y,z
1/2+x,1/2+y,z
1/2-x,1/2+y,-z
1/2-x,1/2-y,-z
1/2+x,1/2-y,z
loop_
_atom_site_type_symbol
_atom_site_label
_atom_site_fract_x
_atom_site_fract_y
_atom_site_fract_z
Si Si1 0.251048 0.705688 0.839164
Si Si2 0.343648 0.416593 0.914701
Si Si3 0.142792 0.666124 0.095791
Si Si4 0.309733 0.716510 0.559862
Si Si5 0.244181 0.580528 0.199145
Si Si6 0.084504 0.700718 0.327457
O O1 0.323988 0.626877 0.844333
O O2 0.243162 0.764703 0.906750
O O3 0.373922 0.733236 0.739298
O O4 0.049786 0.698629 0.867512
O O5 0.275448 0.500000 0.924312
O O6 0.550232 0.415905 0.883120
O O7 0.225897 0.373030 0.004134
O O8 0.124022 0.606187 0.163973
O O9 0.500000 0.670387 0.500000
O O10 0.250000 0.750000 0.500000
O O11 0.366869 0.777550 0.603455
O O12 0.124967 0.675662 0.631729
O O13 0.188658 0.500000 0.237394
O O14 0.210437 0.631895 0.277191
#
# Coordination Sequence:
#
# PCOD8083977 Si02
#       6
#     8   8   8   8   8   8
#     4  11  22  35  55  79 105 141 182 226 274 312
#     4  11  23  37  51  73 108 147 189 230 267 309
#     4  11  22  36  53  75 106 143 189 233 267 307
#     4   9  18  32  56  83 105 129 160 207 263 319
#     4  10  21  36  55  77 105 146 184 220 270 315
#     4  10  18  34  54  80 108 131 170 218 260 317
#
# _framework density 19.054538000000001
#
# number of rings (size 3 to 8) (size 9 to 14) (size 15 to 20)
#    0.000    1.667    0.000    7.000    0.000    6.000 
#    0.000    0.000    0.000    5.000    0.000    4.667 
#    0.000    0.000    0.000    0.000    0.000    0.000 
#
# Total GULP energy -297365.059110 kJ/mol
# GULP energy per Si atom -12390.210796 kJ/mol
# Density = 1.901117 g / cm^3
# Si number density = 19.054538 Si / 1000 Ang^3
#
#
#
# Elastic Constant Matrix: (Units=GPa)
#
#
# Indices 1 2 3 4 5 6 
#
# 1 96.4690 14.6585 34.5214 0.0000 -3.0911 0.0000
# 2 14.6585 75.8069 35.9750 0.0000 10.6841 0.0000
# 3 34.5214 35.9750 90.6713 0.0000 -2.6610 0.0000
# 4 0.0000 0.0000 0.0000 9.2824 0.0000 -3.0156
# 5 -3.0911 10.6841 -2.6610 0.0000 37.7610 0.0000
# 6 0.0000 0.0000 0.0000 -3.0156 0.0000 24.2451
#
#
#
# Elastic Compliance Matrix: (Units=1/GPa)
#
#
# Indices 1 2 3 4 5 6 
#
# 1 0.012024 -0.000334 -0.004423 0.000000 0.000767 0.000000
# 2 -0.000334 0.017288 -0.006890 0.000000 -0.005404 0.000000
# 3 -0.004423 -0.006890 0.015525 0.000000 0.002682 0.000000
# 4 0.000000 0.000000 0.000000 0.112267 0.000000 0.013964
# 5 0.000767 -0.005404 0.002682 0.000000 0.028263 0.000000
# 6 0.000000 0.000000 0.000000 0.013964 0.000000 0.042982
#
#
# Mechanical properties :
#
#
# Convention : Reuss Voigt Hill
#
# Bulk Modulus (GPa) = 46.42089 48.13966 47.28027
# Shear Modulus (GPa) = 19.31808 26.11054 22.71431
#
# Velocity S-wave (km/s) = 3.18753 3.70578 3.45638
# Velocity P-wave (km/s) = 6.16134 6.60526 6.38715
#
# Compressibility (1/GPa) = 0.02154203
#
# Stress axis : x y z
#
# Youngs Moduli (GPa) = 83.16629 57.84472 64.41092
#
# Poissons Ratio (x) = 0.01934 0.28488
# Poissons Ratio (y) = 0.02780 0.44382
# Poissons Ratio (z) = 0.36783 0.39858
#
# Static dielectric constant tensor:
#      x y z
#    x 3.895760 0.000000 -0.235550 
#    y 0.000000 3.459080 0.000000 
#    z -0.235550 0.000000 3.783070 
# 
# 
# High freq. dielectric constant tensor:
#      x y z
#    x 1.759270 0.000000 -0.003310 
#    y 0.000000 1.710910 0.000000 
#    z -0.003310 0.000000 1.742040 
# 
# From -- ./inp_files/196002.got.cif
#   From: 2010.06.25/outbox.cif.g09.slc.cpg/sg12_99_cif.got.tgz:196002.got - 2010.06.28 00:19:55.
