data_PCOD8083519
_publ_section_title
;
Structure prediction by ZEFSAII (Michael W. Deem and Ramdas Pophale) SiO2 
 PCOD8083519
Probable space group: C 2/M
;
_chemical_formula_sum "Si O2"
_cell_formula_units_Z 56
_cell_length_a 15.553067
_cell_length_b 20.025107
_cell_length_c 13.897029
_cell_angle_alpha 90.000000
_cell_angle_beta 133.201950
_cell_angle_gamma 90.000000
_cell_volume 3155.061357
_symmetry_space_group_name_H-M "C 2/M"
_symmetry_group_IT_number 12
_symmetry_cell_setting 'monoclinic'
loop_
_space_group_symop_operation_xyz
x,y,z
-x,y,-z
-x,-y,-z
x,-y,z
1/2+x,1/2+y,z
1/2-x,1/2+y,-z
1/2-x,1/2-y,-z
1/2+x,1/2-y,z
loop_
_atom_site_type_symbol
_atom_site_label
_atom_site_fract_x
_atom_site_fract_y
_atom_site_fract_z
Si Si1 0.935381 0.074508 0.548787
Si Si2 0.036157 0.633844 0.130078
Si Si3 0.628783 0.249848 0.961103
Si Si4 0.333589 0.207978 0.495384
Si Si5 0.732318 0.762580 0.229180
Si Si6 0.461319 0.699768 0.291395
Si Si7 0.828289 0.574350 0.605499
O O1 0.794903 0.081828 0.431550
O O2 0.000000 0.093777 0.500000
O O3 0.979801 0.127366 0.659963
O O4 0.971317 0.000000 0.609220
O O5 0.150618 0.681930 0.215680
O O6 0.067324 0.579606 0.235126
O O7 0.921320 0.674902 0.073779
O O8 0.000000 0.600357 0.000000
O O9 0.541743 0.292641 0.827212
O O10 0.750000 0.250000 0.000000
O O11 0.649772 0.276598 0.086837
O O12 0.250000 0.250000 0.500000
O O13 0.284037 0.212038 0.348364
O O14 0.462087 0.241715 0.599975
O O15 0.340740 0.130300 0.531904
O O16 0.835882 0.799339 0.249038
O O17 0.837291 0.500000 0.565794
#
# Coordination Sequence:
#
# PCOD8083519 Si02
#       7
#     8   8   8   8   8   8   8
#     4  10  20  32  49  77 111 138 169 216 268 318
#     4  10  18  33  51  75 110 135 168 211 265 325
#     4   9  19  32  51  80 106 131 169 222 263 306
#     4  12  19  32  54  77 102 139 178 219 256 308
#     4  10  20  31  52  83 105 132 176 220 267 306
#     4  11  18  32  55  78 102 135 176 217 264 312
#     4  11  22  34  50  77 110 143 176 217 265 317
#
# _framework density 17.749258000000001
#
# number of rings (size 3 to 8) (size 9 to 14) (size 15 to 20)
#    0.000    1.571    4.286    2.143    0.000    0.286 
#    0.000    0.000    0.000    7.714    0.000    2.000 
#    0.000    0.000    0.000    0.000    0.000    0.000 
#
# Total GULP energy -346936.949259 kJ/mol
# GULP energy per Si atom -12390.605331 kJ/mol
# Density = 1.770886 g / cm^3
# Si number density = 17.749258 Si / 1000 Ang^3
#
#
#
# Elastic Constant Matrix: (Units=GPa)
#
#
# Indices 1 2 3 4 5 6 
#
# 1 45.2258 15.8866 15.2070 0.0000 6.0769 0.0000
# 2 15.8866 100.9367 52.5057 0.0000 -11.3899 0.0000
# 3 15.2070 52.5057 136.7328 0.0000 -24.4395 0.0000
# 4 0.0000 0.0000 0.0000 21.9764 0.0000 -3.8843
# 5 6.0769 -11.3899 -24.4395 0.0000 34.3285 0.0000
# 6 0.0000 0.0000 0.0000 -3.8843 0.0000 18.6519
#
#
#
# Elastic Compliance Matrix: (Units=1/GPa)
#
#
# Indices 1 2 3 4 5 6 
#
# 1 0.025284 -0.003335 -0.002898 0.000000 -0.007646 0.000000
# 2 -0.003335 0.012841 -0.004231 0.000000 0.001838 0.000000
# 3 -0.002898 -0.004231 0.010428 0.000000 0.006533 0.000000
# 4 0.000000 0.000000 0.000000 0.047242 0.000000 0.009838
# 5 -0.007646 0.001838 0.006533 0.000000 0.035745 0.000000
# 6 0.000000 0.000000 0.000000 0.009838 0.000000 0.055663
#
#
# Mechanical properties :
#
#
# Convention : Reuss Voigt Hill
#
# Bulk Modulus (GPa) = 36.19891 50.01042 43.10467
# Shear Modulus (GPa) = 23.00540 28.27776 25.64158
#
# Velocity S-wave (km/s) = 3.60409 3.99580 3.80499
# Velocity P-wave (km/s) = 6.14477 7.03745 6.60621
#
# Compressibility (1/GPa) = 0.02762514
#
# Stress axis : x y z
#
# Youngs Moduli (GPa) = 39.54998 77.87808 95.89126
#
# Poissons Ratio (x) = 0.25971 0.27790
# Poissons Ratio (y) = 0.13189 0.40575
# Poissons Ratio (z) = 0.11462 0.32953
#
# Static dielectric constant tensor:
#      x y z
#    x 3.399140 0.000000 -0.080310 
#    y 0.000000 3.167550 0.000000 
#    z -0.080310 0.000000 4.045210 
# 
# 
# High freq. dielectric constant tensor:
#      x y z
#    x 1.682110 0.000000 0.010190 
#    y 0.000000 1.647400 0.000000 
#    z 0.010190 0.000000 1.706030 
# 
# From -- ./inp_files/169382.got.cif
#   From: 2010.06.25/outbox.cif.g09.slc.cpg/sg12_85_cif.got.tgz:169382.got - 2010.06.28 00:19:55.
