data_PCOD8083304
_publ_section_title
;
Structure prediction by ZEFSAII (Michael W. Deem and Ramdas Pophale) SiO2 
 PCOD8083304
Probable space group: C 2/M
;
_chemical_formula_sum "Si O2"
_cell_formula_units_Z 40
_cell_length_a 20.907698
_cell_length_b 19.390692
_cell_length_c 11.100209
_cell_angle_alpha 90.000000
_cell_angle_beta 29.758058
_cell_angle_gamma 90.000000
_cell_volume 2233.617146
_symmetry_space_group_name_H-M "C 2/M"
_symmetry_group_IT_number 12
_symmetry_cell_setting 'monoclinic'
loop_
_space_group_symop_operation_xyz
x,y,z
-x,y,-z
-x,-y,-z
x,-y,z
1/2+x,1/2+y,z
1/2-x,1/2+y,-z
1/2-x,1/2-y,-z
1/2+x,1/2-y,z
loop_
_atom_site_type_symbol
_atom_site_label
_atom_site_fract_x
_atom_site_fract_y
_atom_site_fract_z
Si Si1 0.388532 0.673403 0.089931
Si Si2 0.540892 0.579074 0.242572
Si Si3 0.177422 0.322568 0.601575
Si Si4 0.386070 0.177543 0.033872
Si Si5 0.793898 0.079765 0.801533
O O1 0.273001 0.636002 0.354570
O O2 0.337058 0.743005 0.108347
O O3 0.500000 0.697854 0.000000
O O4 0.445740 0.621320 0.900757
O O5 0.536082 0.500000 0.212454
O O6 0.408899 0.600083 0.523489
O O7 0.660648 0.592550 0.136034
O O8 0.250000 0.250000 0.500000
O O9 0.156499 0.356235 0.767772
O O10 0.039307 0.319401 0.762618
O O11 0.325506 0.130567 0.028116
O O12 0.752942 0.000000 0.850918
#
# Coordination Sequence:
#
# PCOD8083304 Si02
#       5
#     8   8   8   8   8
#     4  11  19  31  56  80 107 138 174 224 268 313
#     4   9  20  37  55  78 106 143 183 220 264 312
#     4   9  17  32  48  80 109 139 165 215 272 318
#     4  10  18  32  56  77 106 141 178 213 266 322
#     4   9  19  37  57  75 106 145 182 220 260 314
#
# _framework density 17.908172
#
# number of rings (size 3 to 8) (size 9 to 14) (size 15 to 20)
#    0.000    2.400    4.000    2.400    2.800    1.200 
#    0.000    5.000    0.000    2.400    0.000    0.000 
#    0.000    0.000    0.000    0.000    0.000    0.000 
#
# Total GULP energy -247850.689940 kJ/mol
# GULP energy per Si atom -12392.534497 kJ/mol
# Density = 1.786741 g / cm^3
# Si number density = 17.908172 Si / 1000 Ang^3
#
#
#
# Elastic Constant Matrix: (Units=GPa)
#
#
# Indices 1 2 3 4 5 6 
#
# 1 66.1862 41.7524 21.7301 -0.0005 -13.0514 0.0003
# 2 41.7524 63.1888 22.0087 -0.0003 -6.5297 0.0002
# 3 21.7301 22.0087 80.0336 -0.0006 -7.4299 0.0003
# 4 -0.0005 -0.0003 -0.0006 10.2691 0.0003 3.3890
# 5 -13.0514 -6.5297 -7.4299 0.0003 32.7858 -0.0001
# 6 0.0003 0.0002 0.0003 3.3890 -0.0001 31.1023
#
#
#
# Elastic Compliance Matrix: (Units=1/GPa)
#
#
# Indices 1 2 3 4 5 6 
#
# 1 0.027970 -0.016944 -0.002262 0.000001 0.007247 0.000000
# 2 -0.016944 0.027961 -0.003266 0.000000 -0.001917 0.000000
# 3 -0.002262 -0.003266 0.014161 0.000001 0.001658 0.000000
# 4 0.000001 0.000000 0.000001 0.101012 -0.000001 -0.011007
# 5 0.007247 -0.001917 0.001658 -0.000001 0.033380 0.000000
# 6 0.000000 0.000000 0.000000 -0.011007 0.000000 0.033351
#
#
# Mechanical properties :
#
#
# Convention : Reuss Voigt Hill
#
# Bulk Modulus (GPa) = 39.76662 42.26566 41.01614
# Shear Modulus (GPa) = 17.17249 23.09258 20.13254
#
# Velocity S-wave (km/s) = 3.10000 3.59486 3.35656
# Velocity P-wave (km/s) = 5.92177 6.39400 6.16241
#
# Compressibility (1/GPa) = 0.02514672
#
# Stress axis : x y z
#
# Youngs Moduli (GPa) = 35.75308 35.76360 70.61624
#
# Poissons Ratio (x) = 0.60600 0.15971
# Poissons Ratio (y) = 0.60582 0.23067
# Poissons Ratio (z) = 0.08086 0.11682
#
# Static dielectric constant tensor:
#      x y z
#    x 3.178500 0.000000 0.105830 
#    y 0.000000 2.966550 0.000000 
#    z 0.105830 0.000000 3.695840 
# 
# 
# High freq. dielectric constant tensor:
#      x y z
#    x 1.680370 0.000000 -0.001260 
#    y 0.000000 1.662410 0.000000 
#    z -0.001260 0.000000 1.697860 
# 
# From -- ./inp_files/130534.got.cif
#   From: 2010.06.25/outbox.cif.g09.slc.cpg/sg12_66_cif.got.tgz:130534.got - 2010.06.28 00:19:55.
