data_PCOD8083983
_publ_section_title
;
Structure prediction by ZEFSAII (Michael W. Deem and Ramdas Pophale) SiO2 
 PCOD8083983
Probable space group: C 2/M
;
_chemical_formula_sum "Si O2"
_cell_formula_units_Z 56
_cell_length_a 16.980678
_cell_length_b 15.875126
_cell_length_c 11.332016
_cell_angle_alpha 90.000000
_cell_angle_beta 63.053508
_cell_angle_gamma 90.000000
_cell_volume 2723.119420
_symmetry_space_group_name_H-M "C 2/M"
_symmetry_group_IT_number 12
_symmetry_cell_setting 'monoclinic'
loop_
_space_group_symop_operation_xyz
x,y,z
-x,y,-z
-x,-y,-z
x,-y,z
1/2+x,1/2+y,z
1/2-x,1/2+y,-z
1/2-x,1/2-y,-z
1/2+x,1/2-y,z
loop_
_atom_site_type_symbol
_atom_site_label
_atom_site_fract_x
_atom_site_fract_y
_atom_site_fract_z
Si Si1 0.586428 0.718090 0.179432
Si Si2 0.400645 0.807559 0.583688
Si Si3 0.293187 0.408111 0.019166
Si Si4 0.890139 0.376510 0.964979
Si Si5 0.586757 0.907747 0.781392
Si Si6 0.229390 0.901244 0.701295
Si Si7 0.611251 0.269140 0.648516
O O1 0.613600 0.764019 0.280998
O O2 0.608171 0.775943 0.051397
O O3 0.483519 0.693782 0.248279
O O4 0.649371 0.639083 0.118016
O O5 0.500000 0.843115 0.500000
O O6 0.334406 0.886239 0.617039
O O7 0.381670 0.735962 0.497861
O O8 0.334787 0.500000 0.991859
O O9 0.191194 0.414308 0.051482
O O10 0.301386 0.373359 0.146943
O O11 0.980516 0.411004 0.846618
O O12 0.880713 0.399618 0.107014
O O13 0.625211 0.827757 0.684032
O O14 0.620291 0.000000 0.710886
O O15 0.182416 0.836635 0.643644
O O16 0.209339 0.000000 0.687709
#
# Coordination Sequence:
#
# PCOD8083983 Si02
#       7
#     8   8   8   8   8   8   8
#     4  10  21  38  63  86 119 164 200 246 308 355
#     4  10  22  43  64  88 116 158 209 256 299 355
#     4  11  22  35  58  91 123 156 200 252 303 364
#     4  10  18  34  54  84 123 153 197 247 307 360
#     4  10  20  33  56  87 122 160 195 248 310 357
#     4  11  24  41  63  91 124 164 201 246 305 361
#     4  10  23  41  61  88 123 161 206 248 292 362
#
# _framework density 20.564651999999999
#
# number of rings (size 3 to 8) (size 9 to 14) (size 15 to 20)
#    0.000    1.714    1.429    3.429    2.000    3.143 
#    0.000    2.143    0.000    2.571    0.000    0.000 
#    0.000    0.000    0.000    0.000    0.000    0.000 
#
# Total GULP energy -347047.399981 kJ/mol
# GULP energy per Si atom -12394.549999 kJ/mol
# Density = 2.051785 g / cm^3
# Si number density = 20.564652 Si / 1000 Ang^3
#
#
#
# Elastic Constant Matrix: (Units=GPa)
#
#
# Indices 1 2 3 4 5 6 
#
# 1 95.3288 57.0192 26.0736 0.0000 2.3500 0.0000
# 2 57.0192 110.0619 38.3471 0.0000 -7.2638 0.0000
# 3 26.0736 38.3471 53.9533 0.0000 -6.7128 0.0000
# 4 0.0000 0.0000 0.0000 14.6168 0.0000 2.1093
# 5 2.3500 -7.2638 -6.7128 0.0000 23.0506 0.0000
# 6 0.0000 0.0000 0.0000 2.1093 0.0000 12.3903
#
#
#
# Elastic Compliance Matrix: (Units=1/GPa)
#
#
# Indices 1 2 3 4 5 6 
#
# 1 0.015929 -0.007550 -0.002936 0.000000 -0.004858 0.000000
# 2 -0.007550 0.015695 -0.007051 0.000000 0.003662 0.000000
# 3 -0.002936 -0.007051 0.025656 0.000000 0.005549 0.000000
# 4 0.000000 0.000000 0.000000 0.070138 0.000000 -0.011940
# 5 -0.004858 0.003662 0.005549 0.000000 0.046648 0.000000
# 6 0.000000 0.000000 0.000000 -0.011940 0.000000 0.082741
#
#
# Mechanical properties :
#
#
# Convention : Reuss Voigt Hill
#
# Bulk Modulus (GPa) = 45.03459 55.80265 50.41862
# Shear Modulus (GPa) = 16.70662 19.20514 17.95588
#
# Velocity S-wave (km/s) = 2.85335 3.05928 2.95810
# Velocity P-wave (km/s) = 5.72730 6.29865 6.01976
#
# Compressibility (1/GPa) = 0.02220515
#
# Stress axis : x y z
#
# Youngs Moduli (GPa) = 62.78044 63.71260 38.97773
#
# Poissons Ratio (x) = 0.48100 0.11445
# Poissons Ratio (y) = 0.47397 0.27485
# Poissons Ratio (z) = 0.18434 0.44926
#
# Static dielectric constant tensor:
#      x y z
#    x 3.773330 0.000000 0.115860 
#    y 0.000000 3.247500 0.000000 
#    z 0.115860 0.000000 3.697270 
# 
# 
# High freq. dielectric constant tensor:
#      x y z
#    x 1.806720 0.000000 0.008770 
#    y 0.000000 1.793240 0.000000 
#    z 0.008770 0.000000 1.799010 
# 
# From -- ./inp_files/156540.got.cif
#   From: 2010.06.25/outbox.cif.g09.slc.cpg/sg12_79_cif.got.tgz:156540.got - 2010.06.28 00:19:55.
