data_PCOD8083341
_publ_section_title
;
Structure prediction by ZEFSAII (Michael W. Deem and Ramdas Pophale) SiO2 
 PCOD8083341
Probable space group: C 2/M
;
_chemical_formula_sum "Si O2"
_cell_formula_units_Z 48
_cell_length_a 30.702244
_cell_length_b 8.719791
_cell_length_c 9.082461
_cell_angle_alpha 90.000000
_cell_angle_beta 87.442009
_cell_angle_gamma 90.000000
_cell_volume 2429.107711
_symmetry_space_group_name_H-M "C 2/M"
_symmetry_group_IT_number 12
_symmetry_cell_setting 'monoclinic'
loop_
_space_group_symop_operation_xyz
x,y,z
-x,y,-z
-x,-y,-z
x,-y,z
1/2+x,1/2+y,z
1/2-x,1/2+y,-z
1/2-x,1/2-y,-z
1/2+x,1/2-y,z
loop_
_atom_site_type_symbol
_atom_site_label
_atom_site_fract_x
_atom_site_fract_y
_atom_site_fract_z
Si Si1 0.914920 0.681297 0.805311
Si Si2 0.258333 0.818242 0.840016
Si Si3 0.663057 0.318515 0.343063
Si Si4 0.489827 0.168949 0.172680
Si Si5 0.675835 0.318301 0.670448
Si Si6 0.595231 0.679801 0.875819
O O1 0.907665 0.500000 0.794068
O O2 0.885831 0.770398 0.691391
O O3 0.965158 0.725777 0.758394
O O4 0.902079 0.731408 0.971436
O O5 0.304572 0.760415 0.776248
O O6 0.220553 0.758476 0.735990
O O7 0.258336 0.000000 0.850921
O O8 0.250000 0.750000 0.000000
O O9 0.668393 0.500000 0.331829
O O10 0.673055 0.255014 0.504840
O O11 0.449768 0.284820 0.205373
O O12 0.476756 0.000000 0.234025
O O13 0.500000 0.157031 0.000000
O O14 0.674401 0.500000 0.667450
O O15 0.634930 0.258327 0.770919
O O16 0.598513 0.500000 0.907043
#
# Coordination Sequence:
#
# PCOD8083341 Si02
#       6
#     8   8   8   8   8   8
#     4  10  20  35  54  79 110 144 183 226 272 323
#     4  11  22  39  61  85 111 141 179 221 267 320
#     4  11  22  38  57  79 109 144 181 223 271 319
#     4   8  16  31  50  75 109 143 178 225 274 318
#     4   9  21  38  55  78 111 145 177 219 269 323
#     4  10  18  32  56  83 108 140 184 228 271 321
#
# _framework density 19.760342999999999
#
# number of rings (size 3 to 8) (size 9 to 14) (size 15 to 20)
#    0.000    2.167    0.000    4.500    0.000    5.000 
#    0.000    9.167    0.000    5.000    0.000    0.000 
#    0.000    0.000    0.000    0.000    0.000    0.000 
#
# Total GULP energy -297596.957724 kJ/mol
# GULP energy per Si atom -12399.873239 kJ/mol
# Density = 1.971537 g / cm^3
# Si number density = 19.760343 Si / 1000 Ang^3
#
#
#
# Elastic Constant Matrix: (Units=GPa)
#
#
# Indices 1 2 3 4 5 6 
#
# 1 107.1762 24.4038 25.8401 0.0000 28.0621 0.0000
# 2 24.4038 60.1528 22.1124 0.0000 4.8799 0.0000
# 3 25.8401 22.1124 83.7280 0.0000 24.6524 0.0000
# 4 0.0000 0.0000 0.0000 20.8282 0.0000 2.0710
# 5 28.0621 4.8799 24.6524 0.0000 29.5264 0.0000
# 6 0.0000 0.0000 0.0000 2.0710 0.0000 34.4749
#
#
#
# Elastic Compliance Matrix: (Units=1/GPa)
#
#
# Indices 1 2 3 4 5 6 
#
# 1 0.013569 -0.004777 0.000847 0.000000 -0.012813 0.000000
# 2 -0.004777 0.020134 -0.005569 0.000000 0.005862 0.000000
# 3 0.000847 -0.005569 0.017395 0.000000 -0.014408 0.000000
# 4 0.000000 0.000000 0.000000 0.048300 0.000000 -0.002902
# 5 -0.012813 0.005862 -0.014408 0.000000 0.057106 0.000000
# 6 0.000000 0.000000 0.000000 -0.002902 0.000000 0.029181
#
#
# Mechanical properties :
#
#
# Convention : Reuss Voigt Hill
#
# Bulk Modulus (GPa) = 31.15307 43.97440 37.56373
# Shear Modulus (GPa) = 23.21441 28.87928 26.04685
#
# Velocity S-wave (km/s) = 3.43125 3.82707 3.63455
# Velocity P-wave (km/s) = 5.61228 6.46768 6.05510
#
# Compressibility (1/GPa) = 0.03209957
#
# Stress axis : x y z
#
# Youngs Moduli (GPa) = 73.69803 49.66765 57.48749
#
# Poissons Ratio (x) = 0.23724 -0.04866
# Poissons Ratio (y) = 0.35202 0.32015
# Poissons Ratio (z) = -0.06239 0.27660
#
# Static dielectric constant tensor:
#      x y z
#    x 4.054470 0.000000 0.201090 
#    y 0.000000 3.460860 0.000000 
#    z 0.201090 0.000000 3.508130 
# 
# 
# High freq. dielectric constant tensor:
#      x y z
#    x 1.789760 0.000000 0.009160 
#    y 0.000000 1.760580 0.000000 
#    z 0.009160 0.000000 1.750870 
# 
# From -- ./inp_files/108769.got.cif
#   From: 2010.06.25/outbox.cif.g09.slc.cpg/sg12_55_cif.got.tgz:108769.got - 2010.06.28 00:19:55.
