data_PCOD8083771
_publ_section_title
;
Structure prediction by ZEFSAII (Michael W. Deem and Ramdas Pophale) SiO2 
 PCOD8083771
Probable space group: C 2/M
;
_chemical_formula_sum "Si O2"
_cell_formula_units_Z 64
_cell_length_a 24.371762
_cell_length_b 13.161751
_cell_length_c 10.760369
_cell_angle_alpha 90.000000
_cell_angle_beta 71.251682
_cell_angle_gamma 90.000000
_cell_volume 3268.511567
_symmetry_space_group_name_H-M "C 2/M"
_symmetry_group_IT_number 12
_symmetry_cell_setting 'monoclinic'
loop_
_space_group_symop_operation_xyz
x,y,z
-x,y,-z
-x,-y,-z
x,-y,z
1/2+x,1/2+y,z
1/2-x,1/2+y,-z
1/2-x,1/2-y,-z
1/2+x,1/2-y,z
loop_
_atom_site_type_symbol
_atom_site_label
_atom_site_fract_x
_atom_site_fract_y
_atom_site_fract_z
Si Si1 0.702844 0.789333 0.438841
Si Si2 0.373503 0.608762 0.540652
Si Si3 0.522350 0.715054 0.623236
Si Si4 0.754927 0.378370 0.845610
Si Si5 0.595468 0.886218 0.655137
Si Si6 0.915680 0.889548 0.778311
Si Si7 0.662231 0.239193 0.032978
Si Si8 0.932960 0.383997 0.044297
O O1 0.750000 0.750000 0.500000
O O2 0.677603 0.687355 0.395735
O O3 0.725522 0.860907 0.311150
O O4 0.654738 0.848564 0.551315
O O5 0.347549 0.500000 0.515256
O O6 0.418911 0.648719 0.404533
O O7 0.410493 0.592062 0.636505
O O8 0.500000 0.719310 0.500000
O O9 0.538140 0.828867 0.650437
O O10 0.475807 0.670754 0.754586
O O11 0.741668 0.500000 0.872393
O O12 0.802738 0.345162 0.913377
O O13 0.700561 0.301988 0.905223
O O14 0.598928 0.876955 0.800569
O O15 0.585451 0.000000 0.618249
O O16 0.860310 0.826729 0.860270
O O17 0.917937 0.000000 0.844108
O O18 0.606059 0.186035 0.015351
O O19 0.932500 0.500000 0.994956
O O20 0.000000 0.345499 0.000000
#
# Coordination Sequence:
#
# PCOD8083771 Si02
#       8
#     8   8   8   8   8   8   8   8
#     4  11  22  39  58  82 117 154 193 244 296 352
#     4   9  18  33  53  81 111 144 186 227 277 342
#     4   9  18  32  54  83 116 147 181 228 288 341
#     4  11  24  41  60  87 121 158 203 256 304 349
#     4  10  21  37  56  82 115 152 194 237 285 349
#     4  10  18  33  57  84 112 142 183 233 283 340
#     4  11  22  39  62  87 116 159 201 248 298 357
#     4  10  21  39  62  88 119 156 198 243 295 356
#
# _framework density 19.580777999999999
#
# number of rings (size 3 to 8) (size 9 to 14) (size 15 to 20)
#    0.000    1.875    1.250    3.000    0.000    2.750 
#    0.000    1.250    0.000    9.000    0.000    0.000 
#    0.000    0.000    0.000    0.000    0.000    0.000 
#
# Total GULP energy -396563.876385 kJ/mol
# GULP energy per Si atom -12392.621137 kJ/mol
# Density = 1.953621 g / cm^3
# Si number density = 19.580778 Si / 1000 Ang^3
#
#
#
# Elastic Constant Matrix: (Units=GPa)
#
#
# Indices 1 2 3 4 5 6 
#
# 1 100.6942 54.8786 26.1553 0.0000 -6.5265 0.0000
# 2 54.8786 145.7648 31.6112 0.0000 -1.7875 0.0000
# 3 26.1553 31.6112 73.5451 0.0000 -11.2905 0.0000
# 4 0.0000 0.0000 0.0000 21.9447 0.0000 -3.4710
# 5 -6.5265 -1.7875 -11.2905 0.0000 26.4166 0.0000
# 6 0.0000 0.0000 0.0000 -3.4710 0.0000 26.6638
#
#
#
# Elastic Compliance Matrix: (Units=1/GPa)
#
#
# Indices 1 2 3 4 5 6 
#
# 1 0.013075 -0.004360 -0.002489 0.000000 0.001872 0.000000
# 2 -0.004360 0.009041 -0.002576 0.000000 -0.001566 0.000000
# 3 -0.002489 -0.002576 0.016554 0.000000 0.006286 0.000000
# 4 0.000000 0.000000 0.000000 0.046527 0.000000 0.006057
# 5 0.001872 -0.001566 0.006286 0.000000 0.040898 0.000000
# 6 0.000000 0.000000 0.000000 0.006057 0.000000 0.038292
#
#
# Mechanical properties :
#
#
# Convention : Reuss Voigt Hill
#
# Bulk Modulus (GPa) = 50.45027 60.58824 55.51926
# Shear Modulus (GPa) = 26.33732 28.82896 27.58314
#
# Velocity S-wave (km/s) = 3.67148 3.84123 3.75732
# Velocity P-wave (km/s) = 6.61772 7.11922 6.87305
#
# Compressibility (1/GPa) = 0.01982150
#
# Stress axis : x y z
#
# Youngs Moduli (GPa) = 76.48220 110.60405 60.40684
#
# Poissons Ratio (x) = 0.48222 0.15033
# Poissons Ratio (y) = 0.33346 0.15561
# Poissons Ratio (z) = 0.19033 0.28492
#
# Static dielectric constant tensor:
#      x y z
#    x 3.541880 0.000000 -0.224750 
#    y 0.000000 3.904070 0.000000 
#    z -0.224750 0.000000 3.484380 
# 
# 
# High freq. dielectric constant tensor:
#      x y z
#    x 1.753610 0.000000 -0.018670 
#    y 0.000000 1.777350 0.000000 
#    z -0.018670 0.000000 1.754790 
# 
# From -- ./inp_files/175260.got.cif
#   From: 2010.06.25/outbox.cif.g09.slc.cpg/sg12_88_cif.got.tgz:175260.got - 2010.06.28 00:19:55.
