data_PCOD8083956
_publ_section_title
;
Structure prediction by ZEFSAII (Michael W. Deem and Ramdas Pophale) SiO2 
 PCOD8083956
Probable space group: C 2/M
;
_chemical_formula_sum "Si O2"
_cell_formula_units_Z 44
_cell_length_a 17.842755
_cell_length_b 25.075949
_cell_length_c 9.003186
_cell_angle_alpha 90.000000
_cell_angle_beta 140.146849
_cell_angle_gamma 90.000000
_cell_volume 2581.386376
_symmetry_space_group_name_H-M "C 2/M"
_symmetry_group_IT_number 12
_symmetry_cell_setting 'monoclinic'
loop_
_space_group_symop_operation_xyz
x,y,z
-x,y,-z
-x,-y,-z
x,-y,z
1/2+x,1/2+y,z
1/2-x,1/2+y,-z
1/2-x,1/2-y,-z
1/2+x,1/2-y,z
loop_
_atom_site_type_symbol
_atom_site_label
_atom_site_fract_x
_atom_site_fract_y
_atom_site_fract_z
Si Si1 0.496156 0.057876 0.749860
Si Si2 0.240265 0.673567 0.357528
Si Si3 0.500000 0.137866 0.500000
Si Si4 0.847291 0.710165 0.087662
Si Si5 0.563099 0.248643 0.241474
Si Si6 0.188600 0.558546 0.271020
O O1 0.460324 0.102443 0.578168
O O2 0.404236 0.057862 0.740593
O O3 0.495837 0.000000 0.670353
O O4 0.623842 0.068107 0.015267
O O5 0.356050 0.705683 0.569574
O O6 0.135232 0.695121 0.304459
O O7 0.269213 0.610521 0.424436
O O8 0.205172 0.679970 0.132993
O O9 0.384313 0.171350 0.278944
O O10 0.968983 0.737734 0.225804
O O11 0.750000 0.750000 0.000000
O O12 0.500000 0.272165 0.000000
O O13 0.253814 0.500000 0.367816
#
# Coordination Sequence:
#
# PCOD8083956 Si02
#       6
#     8   8   4   8   8   8
#     4   9  18  29  46  73 101 128 164 207 254 305
#     4  10  18  34  53  74 100 134 171 209 251 307
#     4  12  19  30  48  70 104 138 159 204 254 304
#     4  11  22  32  46  73 106 136 168 205 254 303
#     4   9  20  34  53  74  99 133 174 212 248 303
#     4   9  17  31  50  72  98 131 169 209 254 303
#
# _framework density 17.045105
#
# number of rings (size 3 to 8) (size 9 to 14) (size 15 to 20)
#    0.000    2.182    1.818    3.545    5.091    2.909 
#    0.000    0.000    0.000    0.545    0.000    5.091 
#    0.000    0.000    0.000    0.000    0.000    0.000 
#
# Total GULP energy -272587.516248 kJ/mol
# GULP energy per Si atom -12390.341648 kJ/mol
# Density = 1.700631 g / cm^3
# Si number density = 17.045105 Si / 1000 Ang^3
#
#
#
# Elastic Constant Matrix: (Units=GPa)
#
#
# Indices 1 2 3 4 5 6 
#
# 1 73.1618 43.0494 26.6465 0.0000 1.0467 0.0000
# 2 43.0494 161.2097 61.8367 0.0000 -2.3899 0.0000
# 3 26.6465 61.8367 91.1182 0.0000 -6.3198 0.0000
# 4 0.0000 0.0000 0.0000 26.1367 0.0000 -10.5953
# 5 1.0467 -2.3899 -6.3198 0.0000 21.7656 0.0000
# 6 0.0000 0.0000 0.0000 -10.5953 0.0000 2.5144
#
#
#
# Elastic Compliance Matrix: (Units=1/GPa)
#
#
# Indices 1 2 3 4 5 6 
#
# 1 0.016709 -0.003467 -0.002669 0.000000 -0.001959 0.000000
# 2 -0.003467 0.009117 -0.005197 0.000000 -0.000341 0.000000
# 3 -0.002669 -0.005197 0.015565 0.000000 0.004077 0.000000
# 4 0.000000 0.000000 0.000000 -0.054021 0.000000 -0.227640
# 5 -0.001959 -0.000341 0.004077 0.000000 0.047185 0.000000
# 6 0.000000 0.000000 0.000000 -0.227640 0.000000 -0.561546
#
#
# Mechanical properties :
#
#
# Convention : Reuss Voigt Hill
#
# Bulk Modulus (GPa) = 53.40695 65.39500 59.40097
# Shear Modulus (GPa) = -10.03850 23.01381 6.48765
#
# Velocity S-wave (km/s) = -2.42944 3.67845 1.95306
# Velocity P-wave (km/s) = 4.85090 7.51602 6.32541
#
# Compressibility (1/GPa) = 0.01872415
#
# Stress axis : x y z
#
# Youngs Moduli (GPa) = 59.84945 109.68001 64.24593
#
# Poissons Ratio (x) = 0.38026 0.17149
# Poissons Ratio (y) = 0.20750 0.33390
# Poissons Ratio (z) = 0.15975 0.57003
#
# Static dielectric constant tensor:
#      x y z
#    x 3.016050 0.000000 -0.192880 
#    y 0.000000 3.582620 0.000000 
#    z -0.192880 0.000000 3.198790 
# 
# 
# High freq. dielectric constant tensor:
#      x y z
#    x 1.633960 0.000000 -0.029270 
#    y 0.000000 1.665820 0.000000 
#    z -0.029270 0.000000 1.643860 
# 
# From -- ./inp_files/51557.got.cif
#   From: 2010.06.25/outbox.cif.g09.slc.cpg/sg12_26_cif.got.tgz:51557.got - 2010.06.28 00:19:55.
