data_PCOD8083763
_publ_section_title
;
Structure prediction by ZEFSAII (Michael W. Deem and Ramdas Pophale) SiO2 
 PCOD8083763
Probable space group: C 2/M
;
_chemical_formula_sum "Si O2"
_cell_formula_units_Z 48
_cell_length_a 8.813787
_cell_length_b 19.154112
_cell_length_c 16.237214
_cell_angle_alpha 90.000000
_cell_angle_beta 121.193579
_cell_angle_gamma 90.000000
_cell_volume 2344.858606
_symmetry_space_group_name_H-M "C 2/M"
_symmetry_group_IT_number 12
_symmetry_cell_setting 'monoclinic'
loop_
_space_group_symop_operation_xyz
x,y,z
-x,y,-z
-x,-y,-z
x,-y,z
1/2+x,1/2+y,z
1/2-x,1/2+y,-z
1/2-x,1/2-y,-z
1/2+x,1/2-y,z
loop_
_atom_site_type_symbol
_atom_site_label
_atom_site_fract_x
_atom_site_fract_y
_atom_site_fract_z
Si Si1 0.897501 0.162830 0.890196
Si Si2 0.809037 0.577178 0.284616
Si Si3 0.771796 0.579868 0.575192
Si Si4 0.918308 0.761232 0.198344
Si Si5 0.724162 0.303179 0.671942
Si Si6 0.300094 0.166041 0.429926
O O1 0.767592 0.100191 0.825386
O O2 0.772935 0.228903 0.876809
O O3 0.040506 0.180083 0.858506
O O4 0.000000 0.138199 0.000000
O O5 0.741616 0.500000 0.286543
O O6 0.723729 0.631460 0.325152
O O7 0.019671 0.580492 0.349016
O O8 0.703002 0.500000 0.545421
O O9 0.685880 0.618152 0.630240
O O10 0.704709 0.629687 0.481118
O O11 0.914343 0.789324 0.292628
O O12 0.073814 0.703367 0.238640
O O13 0.708362 0.249344 0.588822
O O14 0.500000 0.141635 0.500000
#
# Coordination Sequence:
#
# PCOD8083763 Si02
#       6
#     8   8   8   8   8   8
#     4  11  21  37  59  85 111 141 183 234 284 336
#     4  10  19  34  55  80 113 146 185 232 275 327
#     4  10  20  33  54  83 113 151 190 223 269 329
#     4  10  20  36  58  84 108 146 184 229 284 327
#     4  11  19  36  59  80 114 148 188 228 274 327
#     4  10  18  33  57  82 108 150 193 229 263 320
#
# _framework density 20.470317000000001
#
# number of rings (size 3 to 8) (size 9 to 14) (size 15 to 20)
#    0.000    1.667    5.000    2.500    0.000    2.333 
#    0.000    0.833    0.000    1.500    0.000    2.333 
#    0.000    0.000    0.000    0.000    0.000    0.000 
#
# Total GULP energy -297339.021469 kJ/mol
# GULP energy per Si atom -12389.125895 kJ/mol
# Density = 2.042373 g / cm^3
# Si number density = 20.470317 Si / 1000 Ang^3
#
#
#
# Elastic Constant Matrix: (Units=GPa)
#
#
# Indices 1 2 3 4 5 6 
#
# 1 74.5714 15.6050 13.6841 0.0000 -9.8033 0.0000
# 2 15.6050 113.1958 28.8148 0.0000 -18.2356 0.0000
# 3 13.6841 28.8148 106.3026 0.0000 -10.9264 0.0000
# 4 0.0000 0.0000 0.0000 20.7661 0.0000 0.4201
# 5 -9.8033 -18.2356 -10.9264 0.0000 19.0830 0.0000
# 6 0.0000 0.0000 0.0000 0.4201 0.0000 13.5068
#
#
#
# Elastic Compliance Matrix: (Units=1/GPa)
#
#
# Indices 1 2 3 4 5 6 
#
# 1 0.014569 -0.000750 -0.001038 0.000000 0.006174 0.000000
# 2 -0.000750 0.010862 -0.001934 0.000000 0.008887 0.000000
# 3 -0.001038 -0.001934 0.010434 0.000000 0.003593 0.000000
# 4 0.000000 0.000000 0.000000 0.048186 0.000000 -0.001499
# 5 0.006174 0.008887 0.003593 0.000000 0.066124 0.000000
# 6 0.000000 0.000000 0.000000 -0.001499 0.000000 0.074084
#
#
# Mechanical properties :
#
#
# Convention : Reuss Voigt Hill
#
# Bulk Modulus (GPa) = 35.18452 45.58640 40.38546
# Shear Modulus (GPa) = 20.73185 26.40222 23.56704
#
# Velocity S-wave (km/s) = 3.18587 3.59525 3.39673
# Velocity P-wave (km/s) = 5.54602 6.28906 5.92919
#
# Compressibility (1/GPa) = 0.02842159
#
# Stress axis : x y z
#
# Youngs Moduli (GPa) = 68.63940 92.06740 95.83780
#
# Poissons Ratio (x) = 0.06902 0.09944
# Poissons Ratio (y) = 0.05146 0.18538
# Poissons Ratio (z) = 0.07122 0.17808
#
# Static dielectric constant tensor:
#      x y z
#    x 3.618200 0.000000 -0.079590 
#    y 0.000000 3.643710 0.000000 
#    z -0.079590 0.000000 3.653070 
# 
# 
# High freq. dielectric constant tensor:
#      x y z
#    x 1.794340 0.000000 0.003790 
#    y 0.000000 1.780450 0.000000 
#    z 0.003790 0.000000 1.790250 
# 
# From -- ./inp_files/196480.got.cif
#   From: 2010.06.25/outbox.cif.g09.slc.cpg/sg12_99_cif.got.tgz:196480.got - 2010.06.28 00:19:55.
