data_PCOD8083769
_publ_section_title
;
Structure prediction by ZEFSAII (Michael W. Deem and Ramdas Pophale) SiO2 
 PCOD8083769
Probable space group: C 2/M
;
_chemical_formula_sum "Si O2"
_cell_formula_units_Z 64
_cell_length_a 25.167601
_cell_length_b 8.938428
_cell_length_c 14.359170
_cell_angle_alpha 90.000000
_cell_angle_beta 89.279446
_cell_angle_gamma 90.000000
_cell_volume 3229.966064
_symmetry_space_group_name_H-M "C 2/M"
_symmetry_group_IT_number 12
_symmetry_cell_setting 'monoclinic'
loop_
_space_group_symop_operation_xyz
x,y,z
-x,y,-z
-x,-y,-z
x,-y,z
1/2+x,1/2+y,z
1/2-x,1/2+y,-z
1/2-x,1/2-y,-z
1/2+x,1/2-y,z
loop_
_atom_site_type_symbol
_atom_site_label
_atom_site_fract_x
_atom_site_fract_y
_atom_site_fract_z
Si Si1 0.144576 0.175280 0.157219
Si Si2 0.416933 0.677850 0.506836
Si Si3 0.804997 0.174936 0.028383
Si Si4 0.800943 0.836531 0.527883
Si Si5 0.950866 0.177511 0.714010
Si Si6 0.943298 0.322075 0.319940
Si Si7 0.840211 0.176677 0.231931
Si Si8 0.738334 0.333353 0.273473
O O1 0.092528 0.240380 0.210363
O O2 0.200782 0.239058 0.194955
O O3 0.144723 0.000000 0.179277
O O4 0.147358 0.210405 0.046837
O O5 0.422538 0.500000 0.492997
O O6 0.356322 0.734725 0.493514
O O7 0.434932 0.723603 0.609487
O O8 0.449844 0.760909 0.425796
O O9 0.827344 0.230964 0.126974
O O10 0.793143 0.000000 0.032450
O O11 0.750000 0.250000 0.000000
O O12 0.750000 0.750000 0.500000
O O13 0.801465 0.844517 0.638964
O O14 0.796885 0.000000 0.483093
O O15 0.005520 0.262307 0.737517
O O16 0.959107 0.000000 0.723492
O O17 0.941366 0.500000 0.320642
O O18 0.891732 0.259010 0.269342
O O19 0.788873 0.227050 0.293359
O O20 0.849153 0.000000 0.239969
O O21 0.759293 0.500000 0.246656
#
# Coordination Sequence:
#
# PCOD8083769 Si02
#       8
#     8   8   8   8   8   8   8   8
#     4   9  17  34  61  89 115 146 185 228 281 343
#     4  10  20  37  60  85 113 148 193 238 283 342
#     4  10  20  35  60  91 120 150 187 231 282 343
#     4  10  20  32  49  78 113 150 188 227 277 336
#     4  10  20  39  65  87 112 152 195 238 285 340
#     4  12  26  41  57  81 114 155 197 243 293 337
#     4  11  23  38  57  86 119 154 195 236 282 342
#     4  10  18  33  57  83 115 150 184 228 284 339
#
# _framework density 19.814450999999998
#
# number of rings (size 3 to 8) (size 9 to 14) (size 15 to 20)
#    0.000    1.750    2.500    2.625    0.000    5.500 
#    0.000    1.875    0.000    3.750    0.000    0.000 
#    0.000    0.000    0.000    0.000    0.000    0.000 
#
# Total GULP energy -396649.818175 kJ/mol
# GULP energy per Si atom -12395.306818 kJ/mol
# Density = 1.976935 g / cm^3
# Si number density = 19.814451 Si / 1000 Ang^3
#
#
#
# Elastic Constant Matrix: (Units=GPa)
#
#
# Indices 1 2 3 4 5 6 
#
# 1 123.2169 34.1446 24.0438 0.0000 -17.9306 0.0000
# 2 34.1446 63.3333 21.6545 0.0000 -3.4824 0.0000
# 3 24.0438 21.6545 71.3178 0.0000 -12.4446 0.0000
# 4 0.0000 0.0000 0.0000 19.1638 0.0000 0.7354
# 5 -17.9306 -3.4824 -12.4446 0.0000 25.6032 0.0000
# 6 0.0000 0.0000 0.0000 0.7354 0.0000 32.2994
#
#
#
# Elastic Compliance Matrix: (Units=1/GPa)
#
#
# Indices 1 2 3 4 5 6 
#
# 1 0.010616 -0.005054 -0.000948 0.000000 0.006287 0.000000
# 2 -0.005054 0.020026 -0.004938 0.000000 -0.003215 0.000000
# 3 -0.000948 -0.004938 0.017054 0.000000 0.006954 0.000000
# 4 0.000000 0.000000 0.000000 0.052227 0.000000 -0.001189
# 5 0.006287 -0.003215 0.006954 0.000000 0.046403 0.000000
# 6 0.000000 0.000000 0.000000 -0.001189 0.000000 0.030987
#
#
# Mechanical properties :
#
#
# Convention : Reuss Voigt Hill
#
# Bulk Modulus (GPa) = 38.73352 46.39487 42.56419
# Shear Modulus (GPa) = 24.06196 27.28162 25.67179
#
# Velocity S-wave (km/s) = 3.48855 3.71462 3.60336
# Velocity P-wave (km/s) = 5.98475 6.47019 6.23220
#
# Compressibility (1/GPa) = 0.02581743
#
# Stress axis : x y z
#
# Youngs Moduli (GPa) = 94.19811 49.93632 58.63765
#
# Poissons Ratio (x) = 0.25236 0.05556
# Poissons Ratio (y) = 0.47604 0.28954
# Poissons Ratio (z) = 0.08926 0.24657
#
# Static dielectric constant tensor:
#      x y z
#    x 3.757930 0.000000 -0.204010 
#    y 0.000000 3.346680 0.000000 
#    z -0.204010 0.000000 4.000820 
# 
# 
# High freq. dielectric constant tensor:
#      x y z
#    x 1.778050 0.000000 -0.008360 
#    y 0.000000 1.745020 0.000000 
#    z -0.008360 0.000000 1.774360 
# 
# From -- ./inp_files/238755.got.cif
#   From: 2010.06.25/outbox.cif.g09.slc.cpg/sg12_120_cif.got.tgz:238755.got - 2010.06.28 00:19:55.
