data_PCOD8083549
_publ_section_title
;
Structure prediction by ZEFSAII (Michael W. Deem and Ramdas Pophale) SiO2 
 PCOD8083549
Probable space group: C 2/M
;
_chemical_formula_sum "Si O2"
_cell_formula_units_Z 64
_cell_length_a 29.934936
_cell_length_b 14.537051
_cell_length_c 12.340546
_cell_angle_alpha 90.000000
_cell_angle_beta 140.933179
_cell_angle_gamma 90.000000
_cell_volume 3384.430113
_symmetry_space_group_name_H-M "C 2/M"
_symmetry_group_IT_number 12
_symmetry_cell_setting 'monoclinic'
loop_
_space_group_symop_operation_xyz
x,y,z
-x,y,-z
-x,-y,-z
x,-y,z
1/2+x,1/2+y,z
1/2-x,1/2+y,-z
1/2-x,1/2-y,-z
1/2+x,1/2-y,z
loop_
_atom_site_type_symbol
_atom_site_label
_atom_site_fract_x
_atom_site_fract_y
_atom_site_fract_z
Si Si1 0.916235 0.105072 0.326863
Si Si2 0.823181 0.151905 0.574309
Si Si3 0.565493 0.897459 0.934338
Si Si4 0.566803 0.399355 0.063076
Si Si5 0.934838 0.206772 0.150668
Si Si6 0.400198 0.292512 0.508116
Si Si7 0.834008 0.646617 0.680311
Si Si8 0.904261 0.400474 0.599915
O O1 0.895787 0.157014 0.177135
O O2 0.879352 0.162766 0.353878
O O3 0.000000 0.106147 0.500000
O O4 0.887877 0.000000 0.271618
O O5 0.870639 0.082340 0.732765
O O6 0.850387 0.159797 0.502861
O O7 0.833957 0.245086 0.662230
O O8 0.742686 0.115987 0.419240
O O9 0.585141 0.815939 0.885930
O O10 0.481747 0.887473 0.799317
O O11 0.582599 0.000000 0.919290
O O12 0.606167 0.883712 0.123003
O O13 0.544552 0.500000 0.975580
O O14 0.500000 0.353141 0.000000
O O15 0.593074 0.335920 0.013958
O O16 0.018391 0.186748 0.311886
O O17 0.387778 0.181655 0.483869
O O18 0.848343 0.598503 0.592510
O O19 0.898815 0.500000 0.529688
#
# Coordination Sequence:
#
# PCOD8083549 Si02
#       8
#     8   8   8   8   8   8   8   8
#     4   9  18  32  52  76 100 134 177 216 253 298
#     4  10  20  33  48  75 107 140 171 208 257 308
#     4  10  19  31  52  77 101 134 173 211 256 309
#     4  11  21  31  48  74 105 139 169 203 257 314
#     4  10  18  33  53  73 105 134 168 215 258 298
#     4   9  18  32  52  74 103 135 170 213 259 298
#     4  10  19  31  50  74 106 140 173 207 255 308
#     4   9  18  31  50  77 105 135 173 210 258 313
#
# _framework density 18.910126000000002
#
# number of rings (size 3 to 8) (size 9 to 14) (size 15 to 20)
#    0.000    2.250    2.500    1.125    0.000    3.000 
#    0.000    0.625    0.000    4.500    0.000    0.000 
#    0.000    0.000    0.000    0.000    0.000    0.000 
#
# Total GULP energy -396612.572733 kJ/mol
# GULP energy per Si atom -12394.142898 kJ/mol
# Density = 1.886709 g / cm^3
# Si number density = 18.910126 Si / 1000 Ang^3
#
#
#
# Elastic Constant Matrix: (Units=GPa)
#
#
# Indices 1 2 3 4 5 6 
#
# 1 111.7587 58.6266 47.2137 0.0000 -20.1385 0.0000
# 2 58.6266 146.1653 35.5028 0.0000 -22.3495 0.0000
# 3 47.2137 35.5028 42.6922 0.0000 -12.8528 0.0000
# 4 0.0000 0.0000 0.0000 15.1915 0.0000 -7.2693
# 5 -20.1385 -22.3495 -12.8528 0.0000 27.2593 0.0000
# 6 0.0000 0.0000 0.0000 -7.2693 0.0000 15.8654
#
#
#
# Elastic Compliance Matrix: (Units=1/GPa)
#
#
# Indices 1 2 3 4 5 6 
#
# 1 0.017981 -0.002662 -0.016700 0.000000 0.003227 0.000000
# 2 -0.002662 0.009417 -0.003677 0.000000 0.004021 0.000000
# 3 -0.016700 -0.003677 0.046999 0.000000 0.006808 0.000000
# 4 0.000000 0.000000 0.000000 0.084311 0.000000 0.038630
# 5 0.003227 0.004021 0.006808 0.000000 0.045575 0.000000
# 6 0.000000 0.000000 0.000000 0.038630 0.000000 0.080730
#
#
# Mechanical properties :
#
#
# Convention : Reuss Voigt Hill
#
# Bulk Modulus (GPa) = 35.31096 64.81138 50.06117
# Shear Modulus (GPa) = 14.68294 22.28146 18.48220
#
# Velocity S-wave (km/s) = 2.78952 3.43633 3.12968
# Velocity P-wave (km/s) = 5.39341 7.07759 6.29210
#
# Compressibility (1/GPa) = 0.02831982
#
# Stress axis : x y z
#
# Youngs Moduli (GPa) = 55.61417 106.18811 21.27703
#
# Poissons Ratio (x) = 0.28272 0.35532
# Poissons Ratio (y) = 0.14807 0.07823
# Poissons Ratio (z) = 0.92874 0.39041
#
# Static dielectric constant tensor:
#      x y z
#    x 3.336010 0.000000 -0.005940 
#    y 0.000000 3.739480 0.000000 
#    z -0.005940 0.000000 3.143710 
# 
# 
# High freq. dielectric constant tensor:
#      x y z
#    x 1.705650 0.000000 -0.001320 
#    y 0.000000 1.752960 0.000000 
#    z -0.001320 0.000000 1.696540 
# 
# From -- ./inp_files/189494.got.cif
#   From: 2010.06.25/outbox.cif.g09.slc.cpg/sg12_95_cif.got.tgz:189494.got - 2010.06.28 00:19:55.
