data_PCOD8083399
_publ_section_title
;
Structure prediction by ZEFSAII (Michael W. Deem and Ramdas Pophale) SiO2 
 PCOD8083399
Probable space group: C 2/M
;
_chemical_formula_sum "Si O2"
_cell_formula_units_Z 56
_cell_length_a 15.388935
_cell_length_b 8.873347
_cell_length_c 21.175108
_cell_angle_alpha 90.000000
_cell_angle_beta 90.319014
_cell_angle_gamma 90.000000
_cell_volume 2891.444981
_symmetry_space_group_name_H-M "C 2/M"
_symmetry_group_IT_number 12
_symmetry_cell_setting 'monoclinic'
loop_
_space_group_symop_operation_xyz
x,y,z
-x,y,-z
-x,-y,-z
x,-y,z
1/2+x,1/2+y,z
1/2-x,1/2+y,-z
1/2-x,1/2-y,-z
1/2+x,1/2-y,z
loop_
_atom_site_type_symbol
_atom_site_label
_atom_site_fract_x
_atom_site_fract_y
_atom_site_fract_z
Si Si1 0.747842 0.677706 0.285503
Si Si2 0.841861 0.825887 0.505193
Si Si3 0.105614 0.174682 0.633697
Si Si4 0.914149 0.821684 0.635004
Si Si5 0.089499 0.178515 0.078491
Si Si6 0.257509 0.821159 0.848356
Si Si7 0.604565 0.321594 0.936660
O O1 0.747540 0.500000 0.272999
O O2 0.824009 0.718107 0.334260
O O3 0.656433 0.734367 0.314327
O O4 0.764615 0.765041 0.221176
O O5 0.750000 0.750000 0.500000
O O6 0.896065 0.800655 0.441640
O O7 0.892831 0.755219 0.565339
O O8 0.824360 0.000000 0.517698
O O9 0.010474 0.227202 0.657554
O O10 0.125297 0.000000 0.650608
O O11 0.911772 0.000000 0.630126
O O12 0.149187 0.259766 0.129988
O O13 0.989704 0.229412 0.090156
O O14 0.100115 0.000000 0.086158
O O15 0.117667 0.233692 0.008669
O O16 0.181795 0.756015 0.893849
O O17 0.258911 0.000000 0.849467
O O18 0.606392 0.500000 0.936593
#
# Coordination Sequence:
#
# PCOD8083399 Si02
#       7
#     8   8   8   8   8   8   8
#     4  11  23  39  55  75 107 146 184 223 265 316
#     4  10  18  32  57  84 109 136 171 219 271 322
#     4  10  20  36  59  82 104 137 180 225 270 318
#     4   9  19  36  57  79 106 141 179 217 267 326
#     4   9  17  35  60  84 107 139 181 219 263 317
#     4  11  22  36  54  80 112 144 179 220 268 316
#     4   8  17  34  58  83 110 142 176 217 265 322
#
# _framework density 19.367477999999998
#
# number of rings (size 3 to 8) (size 9 to 14) (size 15 to 20)
#    0.000    2.286    1.429    2.571    0.000    2.857 
#    0.000   11.429    0.000    1.714    0.000    0.000 
#    0.000    0.000    0.000    0.000    0.000    0.000 
#
# Total GULP energy -347161.602092 kJ/mol
# GULP energy per Si atom -12398.628646 kJ/mol
# Density = 1.932340 g / cm^3
# Si number density = 19.367478 Si / 1000 Ang^3
#
#
#
# Elastic Constant Matrix: (Units=GPa)
#
#
# Indices 1 2 3 4 5 6 
#
# 1 115.0214 22.9528 24.2327 0.0000 -9.0429 0.0000
# 2 22.9528 39.3910 22.5999 0.0000 -0.0104 0.0000
# 3 24.2327 22.5999 68.3228 0.0000 -5.9730 0.0000
# 4 0.0000 0.0000 0.0000 28.5913 0.0000 5.5891
# 5 -9.0429 -0.0104 -5.9730 0.0000 20.3317 0.0000
# 6 0.0000 0.0000 0.0000 5.5891 0.0000 25.6406
#
#
#
# Elastic Compliance Matrix: (Units=1/GPa)
#
#
# Indices 1 2 3 4 5 6 
#
# 1 0.010383 -0.005114 -0.001629 0.000000 0.004137 0.000000
# 2 -0.005114 0.034045 -0.009899 0.000000 -0.005165 0.000000
# 3 -0.001629 -0.009899 0.018911 0.000000 0.004826 0.000000
# 4 0.000000 0.000000 0.000000 0.036532 0.000000 -0.007963
# 5 0.004137 -0.005165 0.004826 0.000000 0.052439 0.000000
# 6 0.000000 0.000000 0.000000 -0.007963 0.000000 0.040736
#
#
# Mechanical properties :
#
#
# Convention : Reuss Voigt Hill
#
# Bulk Modulus (GPa) = 33.27436 40.25621 36.76529
# Shear Modulus (GPa) = 21.15514 25.10938 23.13226
#
# Velocity S-wave (km/s) = 3.30859 3.60456 3.45974
# Velocity P-wave (km/s) = 5.64034 6.17692 5.91472
#
# Compressibility (1/GPa) = 0.03005317
#
# Stress axis : x y z
#
# Youngs Moduli (GPa) = 96.31047 29.37326 52.88042
#
# Poissons Ratio (x) = 0.15022 0.08616
# Poissons Ratio (y) = 0.49256 0.52346
# Poissons Ratio (z) = 0.15692 0.29077
#
# Static dielectric constant tensor:
#      x y z
#    x 3.789580 0.000000 -0.097970 
#    y 0.000000 3.184790 0.000000 
#    z -0.097970 0.000000 3.514200 
# 
# 
# High freq. dielectric constant tensor:
#      x y z
#    x 1.767900 0.000000 -0.001270 
#    y 0.000000 1.719610 0.000000 
#    z -0.001270 0.000000 1.754000 
# 
# From -- ./inp_files/309063.got.cif
#   From: 2010.06.25/outbox.cif.g09.slc.cpg/sg12_155_cif.got.tgz:309063.got - 2010.06.28 00:19:55.
