data_PCOD8083403
_publ_section_title
;
Structure prediction by ZEFSAII (Michael W. Deem and Ramdas Pophale) SiO2 
 PCOD8083403
Probable space group: C 2/M
;
_chemical_formula_sum "Si O2"
_cell_formula_units_Z 56
_cell_length_a 19.810384
_cell_length_b 8.846192
_cell_length_c 21.200196
_cell_angle_alpha 90.000000
_cell_angle_beta 126.131241
_cell_angle_gamma 90.000000
_cell_volume 3000.697913
_symmetry_space_group_name_H-M "C 2/M"
_symmetry_group_IT_number 12
_symmetry_cell_setting 'monoclinic'
loop_
_space_group_symop_operation_xyz
x,y,z
-x,y,-z
-x,-y,-z
x,-y,z
1/2+x,1/2+y,z
1/2-x,1/2+y,-z
1/2-x,1/2-y,-z
1/2+x,1/2-y,z
loop_
_atom_site_type_symbol
_atom_site_label
_atom_site_fract_x
_atom_site_fract_y
_atom_site_fract_z
Si Si1 0.011791 0.675028 0.808276
Si Si2 0.141147 0.177851 0.209403
Si Si3 0.741918 0.179137 0.370822
Si Si4 0.072930 0.820923 0.493345
Si Si5 0.588315 0.173168 0.370297
Si Si6 0.339409 0.320313 0.046231
Si Si7 0.091732 0.178668 0.048000
O O1 0.010090 0.500000 0.827479
O O2 0.103167 0.746598 0.867781
O O3 0.949198 0.768805 0.817292
O O4 0.985609 0.691976 0.720999
O O5 0.215717 0.256930 0.288463
O O6 0.147949 0.224869 0.139567
O O7 0.148166 0.000000 0.223763
O O8 0.835360 0.238714 0.435562
O O9 0.676305 0.233972 0.388850
O O10 0.737267 0.000000 0.364081
O O11 0.058543 0.767653 0.414131
O O12 0.000000 0.757921 0.500000
O O13 0.071100 0.000000 0.493597
O O14 0.599619 0.000000 0.397231
O O15 0.338812 0.500000 0.053974
O O16 0.250000 0.250000 0.000000
O O17 0.368160 0.263358 0.993790
O O18 0.082843 0.000000 0.042435
O O19 0.000000 0.252934 0.000000
#
# Coordination Sequence:
#
# PCOD8083403 Si02
#       7
#     8   8   8   8   8   8   8
#     4  10  20  36  56  82 114 144 179 228 279 323
#     4  10  18  32  57  85 107 139 185 228 273 323
#     4   9  19  36  55  79 112 141 175 226 273 319
#     4  10  21  37  56  79 111 145 175 218 276 327
#     4   9  19  35  57  81 105 138 179 224 269 319
#     4  11  22  38  57  79 112 150 189 230 274 327
#     4   9  17  33  56  80 108 141 180 228 273 317
#
# _framework density 18.662327000000001
#
# number of rings (size 3 to 8) (size 9 to 14) (size 15 to 20)
#    0.000    2.286    1.429    2.571    0.000    3.714 
#    2.571    3.571    0.000    0.000    0.000    0.000 
#    0.000    0.000    0.000    0.000    0.000    0.000 
#
# Total GULP energy -347122.382013 kJ/mol
# GULP energy per Si atom -12397.227929 kJ/mol
# Density = 1.861985 g / cm^3
# Si number density = 18.662327 Si / 1000 Ang^3
#
#
#
# Elastic Constant Matrix: (Units=GPa)
#
#
# Indices 1 2 3 4 5 6 
#
# 1 117.6840 15.6033 71.9947 0.0000 0.7496 0.0000
# 2 15.6033 19.9210 30.6248 0.0000 -3.1483 0.0000
# 3 71.9947 30.6248 128.9966 0.0000 4.2056 0.0000
# 4 0.0000 0.0000 0.0000 34.1993 0.0000 1.0648
# 5 0.7496 -3.1483 4.2056 0.0000 29.7080 0.0000
# 6 0.0000 0.0000 0.0000 1.0648 0.0000 21.3255
#
#
#
# Elastic Compliance Matrix: (Units=1/GPa)
#
#
# Indices 1 2 3 4 5 6 
#
# 1 0.012958 0.001839 -0.007700 0.000000 0.000958 0.000000
# 2 0.001839 0.083119 -0.021143 0.000000 0.011755 0.000000
# 3 -0.007700 -0.021143 0.017215 0.000000 -0.004483 0.000000
# 4 0.000000 0.000000 0.000000 0.029286 0.000000 -0.001462
# 5 0.000958 0.011755 -0.004483 0.000000 0.035517 0.000000
# 6 0.000000 0.000000 0.000000 -0.001462 0.000000 0.046965
#
#
# Mechanical properties :
#
#
# Convention : Reuss Voigt Hill
#
# Bulk Modulus (GPa) = 16.86775 55.89413 36.38094
# Shear Modulus (GPa) = 16.73202 26.93848 21.83525
#
# Velocity S-wave (km/s) = 2.99752 3.80342 3.42426
# Velocity P-wave (km/s) = 4.58674 7.02163 5.93049
#
# Compressibility (1/GPa) = 0.05928473
#
# Stress axis : x y z
#
# Youngs Moduli (GPa) = 77.17346 12.03100 58.08864
#
# Poissons Ratio (x) = -0.02213 0.44727
# Poissons Ratio (y) = -0.14192 1.22815
# Poissons Ratio (z) = 0.59422 0.25437
#
# Static dielectric constant tensor:
#      x y z
#    x 3.380000 0.000000 0.056970 
#    y 0.000000 3.274790 0.000000 
#    z 0.056970 0.000000 3.624890 
# 
# 
# High freq. dielectric constant tensor:
#      x y z
#    x 1.707530 0.000000 0.000810 
#    y 0.000000 1.713130 0.000000 
#    z 0.000810 0.000000 1.739040 
# 
# From -- ./inp_files/314430.got.cif
#   From: 2010.06.25/outbox.cif.g09.slc.cpg/sg12_158_cif.got.tgz:314430.got - 2010.06.28 00:19:55.
