data_PCOD8083911
_publ_section_title
;
Structure prediction by ZEFSAII (Michael W. Deem and Ramdas Pophale) SiO2 
 PCOD8083911
Probable space group: C 2/M
;
_chemical_formula_sum "Si O2"
_cell_formula_units_Z 40
_cell_length_a 14.190451
_cell_length_b 13.777705
_cell_length_c 9.270400
_cell_angle_alpha 90.000000
_cell_angle_beta 105.253931
_cell_angle_gamma 90.000000
_cell_volume 1748.618294
_symmetry_space_group_name_H-M "C 2/M"
_symmetry_group_IT_number 12
_symmetry_cell_setting 'monoclinic'
loop_
_space_group_symop_operation_xyz
x,y,z
-x,y,-z
-x,-y,-z
x,-y,z
1/2+x,1/2+y,z
1/2-x,1/2+y,-z
1/2-x,1/2-y,-z
1/2+x,1/2-y,z
loop_
_atom_site_type_symbol
_atom_site_label
_atom_site_fract_x
_atom_site_fract_y
_atom_site_fract_z
Si Si1 0.993822 0.717887 0.158267
Si Si2 0.890502 0.108030 0.450326
Si Si3 0.877885 0.110068 0.772972
Si Si4 0.309309 0.783115 0.273148
Si Si5 0.405075 0.893431 0.557973
O O1 0.018748 0.833828 0.164853
O O2 0.076220 0.666486 0.288726
O O3 0.886542 0.695665 0.177382
O O4 0.000000 0.674244 0.000000
O O5 0.848896 0.104099 0.593969
O O6 0.817467 0.169204 0.318459
O O7 0.000000 0.156423 0.500000
O O8 0.899168 0.000000 0.386668
O O9 0.796060 0.176904 0.822577
O O10 0.883799 0.000000 0.838892
O O11 0.326590 0.839214 0.429614
O O12 0.500000 0.904223 0.500000
O O13 0.365228 0.000000 0.584815
#
# Coordination Sequence:
#
# PCOD8083911 Si02
#       5
#     8   8   8   8   8
#     4  11  24  40  61  89 128 169 207 251 304 367
#     4  10  18  33  61  95 125 155 198 257 312 358
#     4  11  23  39  64  95 125 160 207 258 311 365
#     4  11  20  39  64  92 123 160 204 258 313 364
#     4   9  18  35  59  87 118 156 199 246 305 363
#
# _framework density 22.875205000000001
#
# number of rings (size 3 to 8) (size 9 to 14) (size 15 to 20)
#    0.000    1.600    4.000    1.800    0.000    2.400 
#    0.000    0.000    0.000    0.000    0.000    0.000 
#    0.000    0.000    0.000    0.000    0.000    0.000 
#
# Total GULP energy -247906.512597 kJ/mol
# GULP energy per Si atom -12395.325630 kJ/mol
# Density = 2.282314 g / cm^3
# Si number density = 22.875205 Si / 1000 Ang^3
#
#
#
# Elastic Constant Matrix: (Units=GPa)
#
#
# Indices 1 2 3 4 5 6 
#
# 1 97.2894 28.2779 5.2112 0.0000 -7.6285 0.0000
# 2 28.2779 138.4993 16.8147 0.0000 -2.4859 0.0000
# 3 5.2112 16.8147 77.8068 0.0000 -26.4373 0.0000
# 4 0.0000 0.0000 0.0000 11.6708 0.0000 -2.1713
# 5 -7.6285 -2.4859 -26.4373 0.0000 20.5432 0.0000
# 6 0.0000 0.0000 0.0000 -2.1713 0.0000 30.4385
#
#
#
# Elastic Compliance Matrix: (Units=1/GPa)
#
#
# Indices 1 2 3 4 5 6 
#
# 1 0.011391 -0.002448 0.001960 0.000000 0.006456 0.000000
# 2 -0.002448 0.007991 -0.002742 0.000000 -0.003471 0.000000
# 3 0.001960 -0.002742 0.023898 0.000000 0.031151 0.000000
# 4 0.000000 0.000000 0.000000 0.086836 0.000000 0.006194
# 5 0.006456 -0.003471 0.031151 0.000000 0.090743 0.000000
# 6 0.000000 0.000000 0.000000 0.006194 0.000000 0.033295
#
#
# Mechanical properties :
#
#
# Convention : Reuss Voigt Hill
#
# Bulk Modulus (GPa) = 27.16004 46.02257 36.59130
# Shear Modulus (GPa) = 18.32248 30.08328 24.20288
#
# Velocity S-wave (km/s) = 2.83322 3.63037 3.25628
# Velocity P-wave (km/s) = 4.75413 6.14292 5.49260
#
# Compressibility (1/GPa) = 0.03681880
#
# Stress axis : x y z
#
# Youngs Moduli (GPa) = 87.78615 125.14594 41.84424
#
# Poissons Ratio (x) = 0.30634 -0.08199
# Poissons Ratio (y) = 0.21489 0.11475
# Poissons Ratio (z) = -0.17202 0.34320
#
# Static dielectric constant tensor:
#      x y z
#    x 4.098650 0.000000 -0.107000 
#    y 0.000000 4.358140 0.000000 
#    z -0.107000 0.000000 3.703490 
# 
# 
# High freq. dielectric constant tensor:
#      x y z
#    x 1.904690 0.000000 -0.010520 
#    y 0.000000 1.906060 0.000000 
#    z -0.010520 0.000000 1.855330 
# 
# From -- ./inp_files/59214.got.cif
#   From: 2010.06.25/outbox.cif.g09.slc.cpg/sg12_30_cif.got.tgz:59214.got - 2010.06.28 00:19:55.
