data_PCOD8083776
_publ_section_title
;
Structure prediction by ZEFSAII (Michael W. Deem and Ramdas Pophale) SiO2 
 PCOD8083776
Probable space group: C 2/M
;
_chemical_formula_sum "Si O2"
_cell_formula_units_Z 64
_cell_length_a 19.293588
_cell_length_b 17.366982
_cell_length_c 14.692357
_cell_angle_alpha 90.000000
_cell_angle_beta 141.133919
_cell_angle_gamma 90.000000
_cell_volume 3089.186297
_symmetry_space_group_name_H-M "C 2/M"
_symmetry_group_IT_number 12
_symmetry_cell_setting 'monoclinic'
loop_
_space_group_symop_operation_xyz
x,y,z
-x,y,-z
-x,-y,-z
x,-y,z
1/2+x,1/2+y,z
1/2-x,1/2+y,-z
1/2-x,1/2-y,-z
1/2+x,1/2-y,z
loop_
_atom_site_type_symbol
_atom_site_label
_atom_site_fract_x
_atom_site_fract_y
_atom_site_fract_z
Si Si1 0.514743 0.169912 0.804219
Si Si2 0.773043 0.912708 0.662263
Si Si3 0.108623 0.413391 0.171638
Si Si4 0.469564 0.350331 0.754196
Si Si5 0.531402 0.663609 0.625301
Si Si6 0.215112 0.313022 0.136676
Si Si7 0.455921 0.166338 0.549524
Si Si8 0.607066 0.655568 0.057837
O O1 0.420093 0.121152 0.758860
O O2 0.474951 0.257955 0.764821
O O3 0.525688 0.140659 0.710634
O O4 0.633412 0.158143 0.973101
O O5 0.850046 0.881331 0.660092
O O6 0.668989 0.857473 0.561008
O O7 0.838516 0.910571 0.825136
O O8 0.737199 0.000000 0.605664
O O9 0.153983 0.500000 0.230265
O O10 0.200503 0.362428 0.214076
O O11 0.000000 0.412017 0.000000
O O12 0.492526 0.381620 0.675816
O O13 0.565657 0.381587 0.920396
O O14 0.500000 0.617228 0.500000
O O15 0.660737 0.679099 0.770791
O O16 0.460143 0.741809 0.544606
O O17 0.195165 0.223394 0.135546
O O18 0.500000 0.127956 0.500000
O O19 0.500000 0.691915 0.000000
#
# Coordination Sequence:
#
# PCOD8083776 Si02
#       8
#     8   8   8   8   8   8   8   8
#     4   9  19  34  57  85 113 146 189 236 276 328
#     4  11  23  38  57  81 114 154 188 227 283 338
#     4   9  17  31  53  82 113 143 179 224 274 330
#     4   9  20  36  56  83 109 144 194 240 277 326
#     4  10  21  35  56  84 112 142 182 233 283 333
#     4  10  18  33  57  85 113 146 187 232 285 331
#     4  10  22  37  54  80 111 142 180 228 280 334
#     4   9  17  32  56  82 110 143 191 242 278 323
#
# _framework density 20.71743
#
# number of rings (size 3 to 8) (size 9 to 14) (size 15 to 20)
#    0.000    2.375    0.000    4.125    0.000   11.500 
#    0.000    0.625    0.000    3.750    0.000    0.000 
#    0.000    0.000    0.000    0.000    0.000    0.000 
#
# Total GULP energy -396669.301992 kJ/mol
# GULP energy per Si atom -12395.915687 kJ/mol
# Density = 2.067028 g / cm^3
# Si number density = 20.717430 Si / 1000 Ang^3
#
#
#
# Elastic Constant Matrix: (Units=GPa)
#
#
# Indices 1 2 3 4 5 6 
#
# 1 149.1027 24.4662 68.4405 0.0000 -22.0229 0.0000
# 2 24.4662 43.8129 15.2978 0.0000 4.2981 0.0000
# 3 68.4405 15.2978 92.0999 0.0000 -13.3660 0.0000
# 4 0.0000 0.0000 0.0000 15.0842 0.0000 -0.5502
# 5 -22.0229 4.2981 -13.3660 0.0000 50.1797 0.0000
# 6 0.0000 0.0000 0.0000 -0.5502 0.0000 5.7154
#
#
#
# Elastic Compliance Matrix: (Units=1/GPa)
#
#
# Indices 1 2 3 4 5 6 
#
# 1 0.011131 -0.004060 -0.007113 0.000000 0.003338 0.000000
# 2 -0.004060 0.026239 -0.002004 0.000000 -0.004563 0.000000
# 3 -0.007113 -0.002004 0.016693 0.000000 0.001496 0.000000
# 4 0.000000 0.000000 0.000000 0.066528 0.000000 0.006404
# 5 0.003338 -0.004563 0.001496 0.000000 0.022183 0.000000
# 6 0.000000 0.000000 0.000000 0.006404 0.000000 0.175584
#
#
# Mechanical properties :
#
#
# Convention : Reuss Voigt Hill
#
# Bulk Modulus (GPa) = 36.08715 55.71385 45.90050
# Shear Modulus (GPa) = 14.12644 25.98323 20.05484
#
# Velocity S-wave (km/s) = 2.61408 3.54527 3.11467
# Velocity P-wave (km/s) = 5.15440 6.61130 5.92778
#
# Compressibility (1/GPa) = 0.02771069
#
# Stress axis : x y z
#
# Youngs Moduli (GPa) = 89.84021 38.11181 59.90438
#
# Poissons Ratio (x) = 0.15473 0.42608
# Poissons Ratio (y) = 0.36473 0.12002
# Poissons Ratio (z) = 0.63901 0.07636
#
# Static dielectric constant tensor:
#      x y z
#    x 4.125890 0.000000 -0.475250 
#    y 0.000000 3.339610 0.000000 
#    z -0.475250 0.000000 3.931420 
# 
# 
# High freq. dielectric constant tensor:
#      x y z
#    x 1.819060 0.000000 -0.015380 
#    y 0.000000 1.763300 0.000000 
#    z -0.015380 0.000000 1.811850 
# 
# From -- ./inp_files/226861.got.cif
#   From: 2010.06.25/outbox.cif.g09.slc.cpg/sg12_114_cif.got.tgz:226861.got - 2010.06.28 00:19:55.
