data_PCOD8083989
_publ_section_title
;
Structure prediction by ZEFSAII (Michael W. Deem and Ramdas Pophale) SiO2 
 PCOD8083989
Probable space group: C 2/M
;
_chemical_formula_sum "Si O2"
_cell_formula_units_Z 32
_cell_length_a 8.309387
_cell_length_b 28.447247
_cell_length_c 8.300808
_cell_angle_alpha 90.000000
_cell_angle_beta 64.086363
_cell_angle_gamma 90.000000
_cell_volume 1764.852663
_symmetry_space_group_name_H-M "C 2/M"
_symmetry_group_IT_number 12
_symmetry_cell_setting 'monoclinic'
loop_
_space_group_symop_operation_xyz
x,y,z
-x,y,-z
-x,-y,-z
x,-y,z
1/2+x,1/2+y,z
1/2-x,1/2+y,-z
1/2-x,1/2-y,-z
1/2+x,1/2-y,z
loop_
_atom_site_type_symbol
_atom_site_label
_atom_site_fract_x
_atom_site_fract_y
_atom_site_fract_z
Si Si1 0.044689 0.875872 0.167967
Si Si2 0.677271 0.946423 0.026643
Si Si3 0.315125 0.802608 0.988596
Si Si4 0.337596 0.872269 0.691949
O O1 0.157886 0.923706 0.147338
O O2 0.168328 0.831190 0.159350
O O3 0.847252 0.875063 0.335574
O O4 0.000000 0.871810 0.000000
O O5 0.726066 0.000000 0.045405
O O6 0.500000 0.942328 0.000000
O O7 0.645975 0.918983 0.206877
O O8 0.500000 0.804805 0.000000
O O9 0.250000 0.750000 0.000000
O O10 0.339033 0.825817 0.802380
O O11 0.500000 0.869515 0.500000
#
# Coordination Sequence:
#
# PCOD8083989 Si02
#       4
#     8   8   8   8
#     4   8  16  30  49  71  96 129 165 197 239 294
#     4   9  17  32  53  74  98 135 174 200 236 297
#     4  10  18  34  55  72  95 130 168 199 240 301
#     4  10  20  33  50  76 104 127 162 212 256 286
#
# _framework density 18.131824000000002
#
# number of rings (size 3 to 8) (size 9 to 14) (size 15 to 20)
#    0.000    3.250    0.000    5.250    0.000    5.000 
#    0.000   10.000    0.000    3.000    0.000    0.000 
#    0.000    0.000    0.000    0.000    0.000    0.000 
#
# Total GULP energy -198221.409785 kJ/mol
# GULP energy per Si atom -12388.838112 kJ/mol
# Density = 1.809056 g / cm^3
# Si number density = 18.131824 Si / 1000 Ang^3
#
#
#
# Elastic Constant Matrix: (Units=GPa)
#
#
# Indices 1 2 3 4 5 6 
#
# 1 145.8111 68.1513 42.6080 0.0000 -36.8367 0.0000
# 2 68.1513 186.2630 48.3377 0.0000 -17.7631 0.0000
# 3 42.6080 48.3377 85.6555 0.0000 -37.9978 0.0000
# 4 0.0000 0.0000 0.0000 12.0369 0.0000 1.6402
# 5 -36.8367 -17.7631 -37.9978 0.0000 33.3076 0.0000
# 6 0.0000 0.0000 0.0000 1.6402 0.0000 35.2050
#
#
#
# Elastic Compliance Matrix: (Units=1/GPa)
#
#
# Indices 1 2 3 4 5 6 
#
# 1 0.011059 -0.003365 0.002080 0.000000 0.012809 0.000000
# 2 -0.003365 0.007346 -0.004828 0.000000 -0.005311 0.000000
# 3 0.002080 -0.004828 0.026812 0.000000 0.030313 0.000000
# 4 0.000000 0.000000 0.000000 0.083609 0.000000 -0.003895
# 5 0.012809 -0.005311 0.030313 0.000000 0.075938 0.000000
# 6 0.000000 0.000000 0.000000 -0.003895 0.000000 0.028587
#
#
# Mechanical properties :
#
#
# Convention : Reuss Voigt Hill
#
# Bulk Modulus (GPa) = 30.31098 81.76931 56.04015
# Shear Modulus (GPa) = 19.48756 33.35206 26.41981
#
# Velocity S-wave (km/s) = 3.28193 4.29350 3.82133
# Velocity P-wave (km/s) = 5.57805 8.35308 7.10241
#
# Compressibility (1/GPa) = 0.03299134
#
# Stress axis : x y z
#
# Youngs Moduli (GPa) = 90.42388 136.12356 37.29696
#
# Poissons Ratio (x) = 0.45800 -0.07757
# Poissons Ratio (y) = 0.30424 0.18008
# Poissons Ratio (z) = -0.18807 0.65724
#
# Static dielectric constant tensor:
#      x y z
#    x 4.360220 0.000000 -0.714270 
#    y 0.000000 3.310710 0.000000 
#    z -0.714270 0.000000 3.159650 
# 
# 
# High freq. dielectric constant tensor:
#      x y z
#    x 1.733690 0.000000 -0.027110 
#    y 0.000000 1.709190 0.000000 
#    z -0.027110 0.000000 1.646290 
# 
# From -- ./inp_files/39738.got.cif
#   From: 2010.06.25/outbox.cif.g09.slc.cpg/sg12_20_cif.got.tgz:39738.got - 2010.06.28 00:19:55.
