data_PCOD8083140
_publ_section_title
;
Structure prediction by ZEFSAII (Michael W. Deem and Ramdas Pophale) SiO2 
 PCOD8083140
Probable space group: C 2/M
;
_chemical_formula_sum "Si O2"
_cell_formula_units_Z 48
_cell_length_a 16.024196
_cell_length_b 8.928767
_cell_length_c 23.369329
_cell_angle_alpha 90.000000
_cell_angle_beta 46.470503
_cell_angle_gamma 90.000000
_cell_volume 2424.174653
_symmetry_space_group_name_H-M "C 2/M"
_symmetry_group_IT_number 12
_symmetry_cell_setting 'monoclinic'
loop_
_space_group_symop_operation_xyz
x,y,z
-x,y,-z
-x,-y,-z
x,-y,z
1/2+x,1/2+y,z
1/2-x,1/2+y,-z
1/2-x,1/2-y,-z
1/2+x,1/2-y,z
loop_
_atom_site_type_symbol
_atom_site_label
_atom_site_fract_x
_atom_site_fract_y
_atom_site_fract_z
Si Si1 0.093995 0.822364 0.820174
Si Si2 0.336985 0.678209 0.914770
Si Si3 0.176900 0.177005 0.661849
Si Si4 0.992334 0.329194 0.337002
Si Si5 0.590854 0.178640 0.502010
Si Si6 0.729731 0.828208 0.171522
O O1 0.173099 0.768134 0.729491
O O2 0.153964 0.768800 0.851341
O O3 0.963928 0.761912 0.873062
O O4 0.090246 0.000000 0.822380
O O5 0.330879 0.500000 0.920751
O O6 0.300821 0.727430 0.868268
O O7 0.250000 0.750000 0.000000
O O8 0.059420 0.231485 0.689225
O O9 0.285384 0.243678 0.575738
O O10 0.181608 0.000000 0.657068
O O11 0.950619 0.500000 0.350326
O O12 0.946634 0.260973 0.418298
O O13 0.129904 0.318366 0.266723
O O14 0.500000 0.242828 0.500000
O O15 0.589721 0.000000 0.502242
O O16 0.745094 0.000000 0.143568
#
# Coordination Sequence:
#
# PCOD8083140 Si02
#       6
#     8   8   8   8   8   8
#     4   9  19  36  59  83 110 149 191 226 269 334
#     4  11  23  41  62  86 115 144 181 228 281 339
#     4  10  18  32  54  77 107 148 190 227 271 327
#     4  10  19  31  51  80 111 142 183 233 278 318
#     4   9  17  29  48  76 107 143 190 235 268 312
#     4  10  20  37  60  84 112 149 189 229 275 329
#
# _framework density 19.800553000000001
#
# number of rings (size 3 to 8) (size 9 to 14) (size 15 to 20)
#    0.000    2.167    1.667    2.000    0.000    4.667 
#    0.000    5.833    0.000    4.000    0.000    0.000 
#    0.000    0.000    0.000    0.000    0.000    0.000 
#
# Total GULP energy -297495.563350 kJ/mol
# GULP energy per Si atom -12395.648473 kJ/mol
# Density = 1.975549 g / cm^3
# Si number density = 19.800553 Si / 1000 Ang^3
#
#
#
# Elastic Constant Matrix: (Units=GPa)
#
#
# Indices 1 2 3 4 5 6 
#
# 1 157.8433 24.2256 58.6063 0.0000 1.8723 0.0001
# 2 24.2256 28.6369 30.5743 0.0001 -0.5801 0.0004
# 3 58.6063 30.5743 127.7300 0.0000 -0.3300 0.0000
# 4 0.0000 0.0001 0.0000 22.3539 0.0000 1.6042
# 5 1.8723 -0.5801 -0.3300 0.0000 24.6164 0.0000
# 6 0.0001 0.0004 0.0000 1.6042 0.0000 25.2006
#
#
#
# Elastic Compliance Matrix: (Units=1/GPa)
#
#
# Indices 1 2 3 4 5 6 
#
# 1 0.007945 -0.003817 -0.002733 0.000000 -0.000731 0.000000
# 2 -0.003817 0.048764 -0.009918 0.000000 0.001307 -0.000001
# 3 -0.002733 -0.009918 0.011457 0.000000 0.000128 0.000000
# 4 0.000000 0.000000 0.000000 0.044940 0.000000 -0.002861
# 5 -0.000731 0.001307 0.000128 0.000000 0.040711 0.000000
# 6 0.000000 -0.000001 0.000000 -0.002861 0.000000 0.039864
#
#
# Mechanical properties :
#
#
# Convention : Reuss Voigt Hill
#
# Bulk Modulus (GPa) = 28.38517 60.11363 44.24940
# Shear Modulus (GPa) = 20.97647 27.82112 24.39880
#
# Velocity S-wave (km/s) = 3.25836 3.75249 3.51412
# Velocity P-wave (km/s) = 5.34065 7.01430 6.23390
#
# Compressibility (1/GPa) = 0.03522966
#
# Stress axis : x y z
#
# Youngs Moduli (GPa) = 125.86721 20.50678 87.27912
#
# Poissons Ratio (x) = 0.07828 0.23857
# Poissons Ratio (y) = 0.48049 0.86560
# Poissons Ratio (z) = 0.34405 0.20338
#
# Static dielectric constant tensor:
#      x y z
#    x 3.832500 0.000000 -0.063030 
#    y 0.000000 3.152510 0.000000 
#    z -0.063030 0.000000 3.837520 
# 
# 
# High freq. dielectric constant tensor:
#      x y z
#    x 1.782900 0.000000 -0.000290 
#    y 0.000000 1.724330 0.000000 
#    z -0.000290 0.000000 1.782030 
# 
# From -- ./inp_files/309417.got.cif
#   From: 2010.06.25/outbox.cif.g09.slc.cpg/sg12_155_cif.got.tgz:309417.got - 2010.06.28 00:19:55.
