data_PCOD8083960
_publ_section_title
;
Structure prediction by ZEFSAII (Michael W. Deem and Ramdas Pophale) SiO2 
 PCOD8083960
Probable space group: C 2/M
;
_chemical_formula_sum "Si O2"
_cell_formula_units_Z 48
_cell_length_a 17.927211
_cell_length_b 9.823054
_cell_length_c 30.228551
_cell_angle_alpha 90.000000
_cell_angle_beta 27.929176
_cell_angle_gamma 90.000000
_cell_volume 2493.301118
_symmetry_space_group_name_H-M "C 2/M"
_symmetry_group_IT_number 12
_symmetry_cell_setting 'monoclinic'
loop_
_space_group_symop_operation_xyz
x,y,z
-x,y,-z
-x,-y,-z
x,-y,z
1/2+x,1/2+y,z
1/2-x,1/2+y,-z
1/2-x,1/2-y,-z
1/2+x,1/2-y,z
loop_
_atom_site_type_symbol
_atom_site_label
_atom_site_fract_x
_atom_site_fract_y
_atom_site_fract_z
Si Si1 0.812465 0.500000 0.106831
Si Si2 0.867158 0.252139 0.780119
Si Si3 0.104409 0.500000 0.116437
Si Si4 0.817517 0.656276 0.584053
Si Si5 0.317040 0.166438 0.423804
Si Si6 0.535617 0.727854 0.784119
Si Si7 0.314217 0.500000 0.091905
Si Si8 0.324987 0.500000 0.919115
O O1 0.748172 0.625356 0.170219
O O2 0.740305 0.500000 0.095934
O O3 0.000000 0.500000 0.000000
O O4 0.745286 0.371861 0.850608
O O5 0.994653 0.295520 0.675956
O O6 0.965658 0.216917 0.771903
O O7 0.250538 0.500000 0.074749
O O8 0.983004 0.376457 0.185995
O O9 0.177594 0.500000 0.029522
O O10 0.784828 0.500000 0.584575
O O11 0.771573 0.771786 0.572502
O O12 0.719447 0.683621 0.681226
O O13 0.000000 0.676119 0.500000
O O14 0.250000 0.250000 0.500000
O O15 0.294371 0.000000 0.438345
O O16 0.437558 0.630150 0.868366
O O17 0.500000 0.500000 0.000000
#
# Coordination Sequence:
#
# PCOD8083960 Si02
#       8
#     4   8   4   8   8   8   4   4
#     4  10  20  34  55  80 108 144 187 230 279 334
#     4   9  19  34  56  79 106 145 189 227 272 345
#     4  10  20  32  51  78 108 138 183 228 269 328
#     4  10  21  39  62  87 115 150 193 240 291 348
#     4  11  23  39  62  89 116 152 196 242 293 349
#     4   9  18  33  55  78 104 145 185 222 272 338
#     4  10  18  34  53  78 106 140 181 228 277 328
#     4  10  18  34  53  76 104 142 183 222 275 328
#
# _framework density 19.251584999999999
#
# number of rings (size 3 to 8) (size 9 to 14) (size 15 to 20)
#    0.000    2.167    1.667    1.500    8.167    0.333 
#    0.000    3.333    0.000    0.000    0.000    0.000 
#    0.000    0.000    0.000    0.000    0.000    0.000 
#
# Total GULP energy -297351.664188 kJ/mol
# GULP energy per Si atom -12389.652674 kJ/mol
# Density = 1.920777 g / cm^3
# Si number density = 19.251585 Si / 1000 Ang^3
#
#
#
# Elastic Constant Matrix: (Units=GPa)
#
#
# Indices 1 2 3 4 5 6 
#
# 1 25.8323 29.6401 33.8572 0.0008 -2.1838 0.0044
# 2 29.6401 178.4764 72.8555 0.0005 -4.6310 0.0051
# 3 33.8572 72.8555 163.9793 0.0006 -10.1526 0.0023
# 4 0.0008 0.0005 0.0006 48.9821 -0.0002 5.0734
# 5 -2.1838 -4.6310 -10.1526 -0.0002 31.9786 -0.0004
# 6 0.0044 0.0051 0.0023 5.0734 -0.0004 21.3671
#
#
#
# Elastic Compliance Matrix: (Units=1/GPa)
#
#
# Indices 1 2 3 4 5 6 
#
# 1 0.057527 -0.005747 -0.009316 0.000000 0.000139 -0.000010
# 2 -0.005747 0.007419 -0.002109 0.000000 0.000012 0.000000
# 3 -0.009316 -0.002109 0.009079 0.000000 0.001941 0.000001
# 4 0.000000 0.000000 0.000000 0.020930 0.000000 -0.004970
# 5 0.000139 0.000012 0.001941 0.000000 0.031898 0.000000
# 6 -0.000010 0.000000 0.000001 -0.004970 0.000000 0.047981
#
#
# Mechanical properties :
#
#
# Convention : Reuss Voigt Hill
#
# Bulk Modulus (GPa) = 25.20091 71.22152 48.21121
# Shear Modulus (GPa) = 22.48159 35.92789 29.20474
#
# Velocity S-wave (km/s) = 3.42098 4.32468 3.89910
# Velocity P-wave (km/s) = 5.35938 7.87480 6.73556
#
# Compressibility (1/GPa) = 0.03968111
#
# Stress axis : x y z
#
# Youngs Moduli (GPa) = 17.38314 134.79753 110.14728
#
# Poissons Ratio (x) = 0.77473 1.02609
# Poissons Ratio (y) = 0.09991 0.23226
# Poissons Ratio (z) = 0.16193 0.28423
#
# Static dielectric constant tensor:
#      x y z
#    x 2.991300 0.000000 -0.032520 
#    y 0.000000 3.067790 0.000000 
#    z -0.032520 0.000000 3.943430 
# 
# 
# High freq. dielectric constant tensor:
#      x y z
#    x 1.691220 0.000000 -0.004630 
#    y 0.000000 1.773040 0.000000 
#    z -0.004630 0.000000 1.771470 
# 
# From -- ./inp_files/377942.got.cif
#   From: 2010.06.25/outbox.cif.g09.slc.cpg/sg12_189_cif.got.tgz:377942.got - 2010.06.28 00:19:55.
