data_PCOD8083221
_publ_section_title
;
Structure prediction by ZEFSAII (Michael W. Deem and Ramdas Pophale) SiO2 
 PCOD8083221
Probable space group: C 2/M
;
_chemical_formula_sum "Si O2"
_cell_formula_units_Z 64
_cell_length_a 14.564071
_cell_length_b 8.992184
_cell_length_c 30.313474
_cell_angle_alpha 90.000000
_cell_angle_beta 121.554097
_cell_angle_gamma 90.000000
_cell_volume 3382.968277
_symmetry_space_group_name_H-M "C 2/M"
_symmetry_group_IT_number 12
_symmetry_cell_setting 'monoclinic'
loop_
_space_group_symop_operation_xyz
x,y,z
-x,y,-z
-x,-y,-z
x,-y,z
1/2+x,1/2+y,z
1/2-x,1/2+y,-z
1/2-x,1/2-y,-z
1/2+x,1/2-y,z
loop_
_atom_site_type_symbol
_atom_site_label
_atom_site_fract_x
_atom_site_fract_y
_atom_site_fract_z
Si Si1 0.265259 0.326898 0.372979
Si Si2 0.466917 0.172505 0.879363
Si Si3 0.976633 0.326522 0.712519
Si Si4 0.854934 0.323792 0.008067
Si Si5 0.054130 0.823482 0.820235
Si Si6 0.787885 0.327791 0.898639
Si Si7 0.704612 0.326941 0.445637
Si Si8 0.962606 0.826886 0.360113
O O1 0.278196 0.500000 0.387722
O O2 0.151385 0.294722 0.320690
O O3 0.267474 0.237477 0.419180
O O4 0.364018 0.273765 0.366626
O O5 0.470805 0.269480 0.836275
O O6 0.347364 0.199067 0.867531
O O7 0.488847 0.000000 0.873740
O O8 0.545587 0.232952 0.937689
O O9 0.000774 0.500000 0.722802
O O10 0.023994 0.242028 0.765878
O O11 0.039061 0.266593 0.685282
O O12 0.849238 0.500000 0.010256
O O13 0.860226 0.270047 0.958158
O O14 0.750000 0.250000 0.000000
O O15 0.169596 0.755871 0.864755
O O16 0.052961 0.000000 0.816070
O O17 0.769043 0.500000 0.902830
O O18 0.730471 0.500000 0.454194
O O19 0.750000 0.250000 0.500000
O O20 0.576495 0.296495 0.412533
O O21 0.949187 0.000000 0.344735
#
# Coordination Sequence:
#
# PCOD8083221 Si02
#       8
#     8   8   8   8   8   8   8   8
#     4   9  19  37  59  80 106 143 185 226 267 314
#     4  10  20  35  56  78 101 134 175 216 254 308
#     4  10  21  37  57  80 106 136 176 225 270 316
#     4  10  18  32  55  78 102 133 170 210 256 310
#     4  11  22  37  55  76 107 139 170 215 267 320
#     4   9  19  35  54  76 103 137 173 207 256 317
#     4  10  20  34  54  82 117 150 183 223 265 313
#     4   9  19  37  59  81 106 143 186 223 265 315
#
# _framework density 18.918298
#
# number of rings (size 3 to 8) (size 9 to 14) (size 15 to 20)
#    0.000    2.250    1.250    1.500    0.000    4.500 
#    0.000    9.375    0.000    1.500    0.000    0.000 
#    0.000    0.000    0.000    0.000    0.000    0.000 
#
# Total GULP energy -396709.762201 kJ/mol
# GULP energy per Si atom -12397.180069 kJ/mol
# Density = 1.887524 g / cm^3
# Si number density = 18.918298 Si / 1000 Ang^3
#
#
#
# Elastic Constant Matrix: (Units=GPa)
#
#
# Indices 1 2 3 4 5 6 
#
# 1 119.1703 36.9193 44.6876 0.0000 -20.3313 0.0000
# 2 36.9193 65.1327 51.7197 0.0000 -14.2259 0.0000
# 3 44.6876 51.7197 113.1232 0.0000 -25.6881 0.0000
# 4 0.0000 0.0000 0.0000 32.5863 0.0000 -4.3971
# 5 -20.3313 -14.2259 -25.6881 0.0000 22.3442 0.0000
# 6 0.0000 0.0000 0.0000 -4.3971 0.0000 28.9504
#
#
#
# Elastic Compliance Matrix: (Units=1/GPa)
#
#
# Indices 1 2 3 4 5 6 
#
# 1 0.011137 -0.004052 -0.001125 0.000000 0.006260 0.000000
# 2 -0.004052 0.025797 -0.009881 0.000000 0.001378 0.000000
# 3 -0.001125 -0.009881 0.016430 0.000000 0.011574 0.000000
# 4 0.000000 0.000000 0.000000 0.031330 0.000000 0.004759
# 5 0.006260 0.001378 0.011574 0.000000 0.064634 0.000000
# 6 0.000000 0.000000 0.000000 0.004759 0.000000 0.035265
#
#
# Mechanical properties :
#
#
# Convention : Reuss Voigt Hill
#
# Bulk Modulus (GPa) = 43.01462 62.67548 52.84505
# Shear Modulus (GPa) = 22.47623 27.71615 25.09619
#
# Velocity S-wave (km/s) = 3.45058 3.83174 3.64614
# Velocity P-wave (km/s) = 6.21785 7.26483 6.76164
#
# Compressibility (1/GPa) = 0.02324791
#
# Stress axis : x y z
#
# Youngs Moduli (GPa) = 89.79425 38.76439 60.86315
#
# Poissons Ratio (x) = 0.15706 0.06850
# Poissons Ratio (y) = 0.36381 0.60138
# Poissons Ratio (z) = 0.10106 0.38302
#
# Static dielectric constant tensor:
#      x y z
#    x 3.583180 0.000000 0.069920 
#    y 0.000000 3.353810 0.000000 
#    z 0.069920 0.000000 3.658870 
# 
# 
# High freq. dielectric constant tensor:
#      x y z
#    x 1.740810 0.000000 -0.005570 
#    y 0.000000 1.720990 0.000000 
#    z -0.005570 0.000000 1.737780 
# 
# From -- ./inp_files/338714.got.cif
#   From: 2010.06.25/outbox.cif.g09.slc.cpg/sg12_170_cif.got.tgz:338714.got - 2010.06.28 00:19:55.
