data_PCOD8083265
_publ_section_title
;
Structure prediction by ZEFSAII (Michael W. Deem and Ramdas Pophale) SiO2 
 PCOD8083265
Probable space group: C 2/M
;
_chemical_formula_sum "Si O2"
_cell_formula_units_Z 56
_cell_length_a 8.674515
_cell_length_b 18.790603
_cell_length_c 24.958924
_cell_angle_alpha 90.000000
_cell_angle_beta 45.959992
_cell_angle_gamma 90.000000
_cell_volume 2924.507995
_symmetry_space_group_name_H-M "C 2/M"
_symmetry_group_IT_number 12
_symmetry_cell_setting 'monoclinic'
loop_
_space_group_symop_operation_xyz
x,y,z
-x,y,-z
-x,-y,-z
x,-y,z
1/2+x,1/2+y,z
1/2-x,1/2+y,-z
1/2-x,1/2-y,-z
1/2+x,1/2-y,z
loop_
_atom_site_type_symbol
_atom_site_label
_atom_site_fract_x
_atom_site_fract_y
_atom_site_fract_z
Si Si1 0.482047 0.172118 0.349573
Si Si2 0.347133 0.676062 0.916948
Si Si3 0.619767 0.672157 0.349534
Si Si4 0.740295 0.417367 0.219770
Si Si5 0.380644 0.417366 0.219789
Si Si6 0.515032 0.823972 0.083022
Si Si7 0.316973 0.828784 0.500016
O O1 0.582774 0.249969 0.333643
O O2 0.279619 0.180195 0.360196
O O3 0.654388 0.120362 0.281836
O O4 0.405293 0.135563 0.424131
O O5 0.506742 0.613315 0.860803
O O6 0.475456 0.750031 0.887241
O O7 0.161346 0.685606 0.919314
O O8 0.244399 0.657784 0.999975
O O9 0.718484 0.620448 0.281755
O O10 0.398242 0.635587 0.424072
O O11 0.781417 0.500000 0.219521
O O12 0.527290 0.403338 0.236370
O O13 0.950077 0.386760 0.139130
O O14 0.340755 0.500000 0.219443
O O15 0.500000 0.830010 0.500000
O O16 0.250000 0.750000 0.500000
#
# Coordination Sequence:
#
# PCOD8083265 Si02
#       7
#     8   8   8   8   8   8   8
#     4  11  21  35  56  81 109 140 178 221 266 316
#     4   9  18  33  54  79 105 136 176 221 267 315
#     4  11  21  35  56  81 109 140 178 221 266 316
#     4  10  21  36  53  76 108 144 181 221 267 318
#     4  10  21  36  53  76 108 144 181 221 267 318
#     4   9  18  33  54  79 105 136 176 221 267 315
#     4  10  18  32  55  82 109 136 173 219 267 315
#
# _framework density 19.148520000000001
#
# number of rings (size 3 to 8) (size 9 to 14) (size 15 to 20)
#    0.000    2.000    0.000    6.429    0.000    4.571 
#    0.000    3.571    0.000    4.286    0.000    6.000 
#    0.000    0.000    0.000    0.000    0.000    0.000 
#
# Total GULP energy -347188.086422 kJ/mol
# GULP energy per Si atom -12399.574515 kJ/mol
# Density = 1.910494 g / cm^3
# Si number density = 19.148520 Si / 1000 Ang^3
#
#
#
# Elastic Constant Matrix: (Units=GPa)
#
#
# Indices 1 2 3 4 5 6 
#
# 1 110.9390 42.2703 56.6610 0.0010 -0.0334 0.0000
# 2 42.2703 102.2166 67.7573 0.0135 -1.6959 -0.0024
# 3 56.6610 67.7573 142.4368 0.0213 -2.0318 -0.0046
# 4 0.0010 0.0135 0.0213 -17.9197 -0.0126 2.8727
# 5 -0.0334 -1.6959 -2.0318 -0.0126 28.0165 0.0018
# 6 0.0000 -0.0024 -0.0046 2.8727 0.0018 23.9367
#
#
#
# Elastic Compliance Matrix: (Units=1/GPa)
#
#
# Indices 1 2 3 4 5 6 
#
# 1 0.011762 -0.002578 -0.003458 -0.000005 -0.000393 0.000000
# 2 -0.002578 0.014858 -0.006036 0.000004 0.000459 0.000000
# 3 -0.003458 -0.006036 0.011274 0.000008 0.000448 0.000001
# 4 -0.000005 0.000004 0.000008 -0.054751 -0.000024 0.006571
# 5 -0.000393 0.000459 0.000448 -0.000024 0.035753 0.000000
# 6 0.000000 0.000000 0.000001 0.006571 0.000000 0.040988
#
#
# Mechanical properties :
#
#
# Convention : Reuss Voigt Hill
#
# Bulk Modulus (GPa) = 72.72827 76.55217 74.64022
# Shear Modulus (GPa) = 56.42560 19.40030 37.91295
#
# Velocity S-wave (km/s) = 5.43427 3.18645 4.45448
# Velocity P-wave (km/s) = 8.79993 7.32140 8.09449
#
# Compressibility (1/GPa) = 0.01374981
#
# Stress axis : x y z
#
# Youngs Moduli (GPa) = 85.01607 67.30384 88.70045
#
# Poissons Ratio (x) = 0.17354 0.30674
# Poissons Ratio (y) = 0.21920 0.53537
# Poissons Ratio (z) = 0.29400 0.40623
#
# Static dielectric constant tensor:
#      x y z
#    x 3.448520 0.000040 -0.059110 
#    y 0.000040 3.049140 -0.000100 
#    z -0.059110 -0.000100 4.297350 
# 
# 
# High freq. dielectric constant tensor:
#      x y z
#    x 1.744750 0.000000 -0.001540 
#    y 0.000000 1.714630 0.000000 
#    z -0.001540 0.000000 1.766890 
# 
# From -- ./inp_files/333315.got.cif
#   From: 2010.06.25/outbox.cif.g09.slc.cpg/sg12_167_cif.got.tgz:333315.got - 2010.06.28 00:19:55.
