data_PCOD8083634
_publ_section_title
;
Structure prediction by ZEFSAII (Michael W. Deem and Ramdas Pophale) SiO2 
 PCOD8083634
Probable space group: C 2/M
;
_chemical_formula_sum "Si O2"
_cell_formula_units_Z 64
_cell_length_a 24.430317
_cell_length_b 8.992990
_cell_length_c 20.574119
_cell_angle_alpha 90.000000
_cell_angle_beta 52.042254
_cell_angle_gamma 90.000000
_cell_volume 3563.991374
_symmetry_space_group_name_H-M "C 2/M"
_symmetry_group_IT_number 12
_symmetry_cell_setting 'monoclinic'
loop_
_space_group_symop_operation_xyz
x,y,z
-x,y,-z
-x,-y,-z
x,-y,z
1/2+x,1/2+y,z
1/2-x,1/2+y,-z
1/2-x,1/2-y,-z
1/2+x,1/2-y,z
loop_
_atom_site_type_symbol
_atom_site_label
_atom_site_fract_x
_atom_site_fract_y
_atom_site_fract_z
Si Si1 0.462141 0.675796 0.709542
Si Si2 0.177023 0.326231 0.375093
Si Si3 0.958943 0.670503 0.463093
Si Si4 0.026679 0.173102 0.797086
Si Si5 0.174623 0.323227 0.229460
Si Si6 0.459851 0.828636 0.966780
Si Si7 0.313801 0.171661 0.129870
Si Si8 0.329072 0.326940 0.252701
O O1 0.452164 0.500000 0.714035
O O2 0.506180 0.726516 0.615662
O O3 0.502835 0.728724 0.744038
O O4 0.387170 0.753324 0.767165
O O5 0.162851 0.500000 0.382073
O O6 0.118976 0.263859 0.467076
O O7 0.166424 0.265856 0.309660
O O8 0.255359 0.287886 0.341405
O O9 0.958790 0.500000 0.438180
O O10 0.000000 0.682354 0.500000
O O11 0.981768 0.249446 0.885165
O O12 0.108591 0.210859 0.743825
O O13 0.013257 0.000000 0.814880
O O14 0.172763 0.500000 0.224524
O O15 0.248490 0.263407 0.149403
O O16 0.481066 0.000000 0.945012
O O17 0.500000 0.760086 0.000000
O O18 0.377320 0.807192 0.033929
O O19 0.339048 0.230485 0.181137
O O20 0.292756 0.000000 0.152343
O O21 0.328484 0.500000 0.232204
#
# Coordination Sequence:
#
# PCOD8083634 Si02
#       8
#     8   8   8   8   8   8   8   8
#     4  11  23  37  52  78 113 145 179 227 280 321
#     4   8  15  29  52  78 102 130 174 225 264 309
#     4  10  18  33  55  79 106 138 182 229 269 324
#     4  10  22  37  54  77 110 148 186 225 267 323
#     4  10  19  35  56  79 106 142 182 220 266 327
#     4  10  20  35  55  82 113 141 177 225 273 319
#     4  10  19  32  53  83 113 137 169 225 277 316
#     4   9  17  32  53  77 105 144 184 219 263 318
#
# _framework density 17.957395000000002
#
# number of rings (size 3 to 8) (size 9 to 14) (size 15 to 20)
#    0.000    2.250    2.500    1.875    0.000    2.500 
#    0.000    1.875    0.000    0.000    0.000    0.000 
#    0.000    0.000    0.000    0.000    0.000    0.000 
#
# Total GULP energy -396739.050746 kJ/mol
# GULP energy per Si atom -12398.095336 kJ/mol
# Density = 1.791652 g / cm^3
# Si number density = 17.957395 Si / 1000 Ang^3
#
#
#
# Elastic Constant Matrix: (Units=GPa)
#
#
# Indices 1 2 3 4 5 6 
#
# 1 134.6540 48.8271 60.1164 0.0001 -16.3092 -0.0005
# 2 48.8271 63.0278 35.4898 -0.0001 -4.8038 -0.0005
# 3 60.1164 35.4898 89.0200 -0.0007 -13.8599 0.0006
# 4 0.0001 -0.0001 -0.0007 27.3623 0.0004 -3.8681
# 5 -16.3092 -4.8038 -13.8599 0.0004 28.4291 -0.0004
# 6 -0.0005 -0.0005 0.0006 -3.8681 -0.0004 23.9376
#
#
#
# Elastic Compliance Matrix: (Units=1/GPa)
#
#
# Indices 1 2 3 4 5 6 
#
# 1 0.012599 -0.006460 -0.005386 0.000000 0.003510 0.000000
# 2 -0.006460 0.023779 -0.005486 0.000000 -0.002362 0.000001
# 3 -0.005386 -0.005486 0.017782 0.000000 0.004652 -0.000001
# 4 0.000000 0.000000 0.000000 0.037401 0.000000 0.006044
# 5 0.003510 -0.002362 0.004652 0.000000 0.039058 0.000000
# 6 0.000000 0.000001 -0.000001 0.006044 0.000000 0.042752
#
#
# Mechanical properties :
#
#
# Convention : Reuss Voigt Hill
#
# Bulk Modulus (GPa) = 51.29004 63.95204 57.62104
# Shear Modulus (GPa) = 23.30652 25.43036 24.36844
#
# Velocity S-wave (km/s) = 3.60652 3.76726 3.68776
# Velocity P-wave (km/s) = 6.77987 7.39010 7.09155
#
# Compressibility (1/GPa) = 0.01949696
#
# Stress axis : x y z
#
# Youngs Moduli (GPa) = 79.37393 42.05395 56.23634
#
# Poissons Ratio (x) = 0.27165 0.30290
# Poissons Ratio (y) = 0.51272 0.30849
# Poissons Ratio (z) = 0.42753 0.23069
#
# Static dielectric constant tensor:
#      x y z
#    x 3.480730 0.000000 -0.301110 
#    y 0.000000 3.225670 0.000000 
#    z -0.301110 0.000000 3.374870 
# 
# 
# High freq. dielectric constant tensor:
#      x y z
#    x 1.690500 0.000000 -0.028560 
#    y 0.000000 1.685780 0.000000 
#    z -0.028560 0.000000 1.687790 
# 
# From -- ./inp_files/324199.got.cif
#   From: 2010.06.25/outbox.cif.g09.slc.cpg/sg12_163_cif.got.tgz:324199.got - 2010.06.28 00:19:55.
