data_PCOD8083115
_publ_section_title
;
Structure prediction by ZEFSAII (Michael W. Deem and Ramdas Pophale) SiO2 
 PCOD8083115
Probable space group: C 2/M
;
_chemical_formula_sum "Si O2"
_cell_formula_units_Z 60
_cell_length_a 18.931120
_cell_length_b 24.310372
_cell_length_c 8.242915
_cell_angle_alpha 90.000000
_cell_angle_beta 52.672548
_cell_angle_gamma 90.000000
_cell_volume 3016.586930
_symmetry_space_group_name_H-M "C 2/M"
_symmetry_group_IT_number 12
_symmetry_cell_setting 'monoclinic'
loop_
_space_group_symop_operation_xyz
x,y,z
-x,y,-z
-x,-y,-z
x,-y,z
1/2+x,1/2+y,z
1/2-x,1/2+y,-z
1/2-x,1/2-y,-z
1/2+x,1/2-y,z
loop_
_atom_site_type_symbol
_atom_site_label
_atom_site_fract_x
_atom_site_fract_y
_atom_site_fract_z
Si Si1 0.380170 0.862762 0.872359
Si Si2 0.303975 0.938267 0.242529
Si Si3 0.552546 0.881462 0.773855
Si Si4 0.806492 0.665964 0.639094
Si Si5 0.368537 0.721011 0.586423
Si Si6 0.000000 0.838371 0.000000
Si Si7 0.665149 0.626773 0.606800
Si Si8 0.059497 0.761567 0.185078
O O1 0.475297 0.895340 0.749502
O O2 0.339854 0.868092 0.749179
O O3 0.397151 0.798841 0.898165
O O4 0.311933 0.892914 0.089201
O O5 0.389669 0.933720 0.243789
O O6 0.211480 0.927735 0.469501
O O7 0.300458 0.000000 0.177542
O O8 0.622010 0.838453 0.605265
O O9 0.500000 0.854218 0.000000
O O10 0.795730 0.730247 0.693532
O O11 0.713414 0.643109 0.706658
O O12 0.325274 0.671783 0.547965
O O13 0.388650 0.704716 0.745279
O O14 0.457124 0.745301 0.379978
O O15 0.063849 0.798706 0.017658
O O16 0.938768 0.878112 0.198352
#
# Coordination Sequence:
#
# PCOD8083115 Si02
#       8
#     8   8   8   8   8   4   8   8
#     4  10  19  32  56  84 118 155 185 222 278 341
#     4  10  23  40  56  78 110 150 202 249 284 323
#     4   9  18  30  54  80 113 153 187 217 271 333
#     4  10  18  32  53  87 119 149 187 227 272 343
#     4   9  17  32  52  82 118 156 180 213 277 344
#     4  10  22  36  57  84 111 144 188 230 294 352
#     4  10  22  37  56  78 110 147 190 242 286 338
#     4   9  18  30  53  85 121 150 179 220 268 349
#
# _framework density 19.890028000000001
#
# number of rings (size 3 to 8) (size 9 to 14) (size 15 to 20)
#    0.000    2.400    1.333    0.800    2.800    5.600 
#    0.000    5.667    0.000    6.400    0.000   12.133 
#    0.000    0.000    0.000    0.000    0.000    0.000 
#
# Total GULP energy -371650.424228 kJ/mol
# GULP energy per Si atom -12388.347474 kJ/mol
# Density = 1.984476 g / cm^3
# Si number density = 19.890028 Si / 1000 Ang^3
#
#
#
# Elastic Constant Matrix: (Units=GPa)
#
#
# Indices 1 2 3 4 5 6 
#
# 1 92.3123 34.8236 31.6315 0.0000 20.2140 0.0000
# 2 34.8236 63.3201 38.3782 0.0000 1.4601 0.0000
# 3 31.6315 38.3782 86.3268 0.0000 -2.4608 0.0000
# 4 0.0000 0.0000 0.0000 19.3770 0.0000 -0.5410
# 5 20.2140 1.4601 -2.4608 0.0000 30.2784 0.0000
# 6 0.0000 0.0000 0.0000 -0.5410 0.0000 13.3813
#
#
#
# Elastic Compliance Matrix: (Units=1/GPa)
#
#
# Indices 1 2 3 4 5 6 
#
# 1 0.017199 -0.007089 -0.003476 0.000000 -0.011423 0.000000
# 2 -0.007089 0.024641 -0.008275 0.000000 0.002872 0.000000
# 3 -0.003476 -0.008275 0.016653 0.000000 0.004073 0.000000
# 4 0.000000 0.000000 0.000000 0.051666 0.000000 0.002089
# 5 -0.011423 0.002872 0.004073 0.000000 0.040846 0.000000
# 6 0.000000 0.000000 0.000000 0.002089 0.000000 0.074816
#
#
# Mechanical properties :
#
#
# Convention : Reuss Voigt Hill
#
# Bulk Modulus (GPa) = 48.04838 50.18064 49.11451
# Shear Modulus (GPa) = 18.48855 21.74906 20.11880
#
# Velocity S-wave (km/s) = 3.05214 3.31035 3.18386
# Velocity P-wave (km/s) = 6.05229 6.31625 6.18568
#
# Compressibility (1/GPa) = 0.02081235
#
# Stress axis : x y z
#
# Youngs Moduli (GPa) = 58.14139 40.58343 60.05021
#
# Poissons Ratio (x) = 0.28768 0.20876
# Poissons Ratio (y) = 0.41214 0.49693
# Poissons Ratio (z) = 0.20212 0.33584
#
# Static dielectric constant tensor:
#      x y z
#    x 3.859140 0.000000 0.137570 
#    y 0.000000 3.023130 0.000000 
#    z 0.137570 0.000000 3.613570 
# 
# 
# High freq. dielectric constant tensor:
#      x y z
#    x 1.783840 0.000000 0.005070 
#    y 0.000000 1.709760 0.000000 
#    z 0.005070 0.000000 1.779020 
# 
# From -- ./inp_files/79100.got.cif
#   From: 2010.06.25/outbox.cif.g09.slc.cpg/sg12_40_cif.got.tgz:79100.got - 2010.06.28 00:19:55.
