data_PCOD8083739
_publ_section_title
;
Structure prediction by ZEFSAII (Michael W. Deem and Ramdas Pophale) SiO2 
 PCOD8083739
Probable space group: C 2/M
;
_chemical_formula_sum "Si O2"
_cell_formula_units_Z 64
_cell_length_a 15.540001
_cell_length_b 8.916818
_cell_length_c 24.015420
_cell_angle_alpha 90.000000
_cell_angle_beta 90.168413
_cell_angle_gamma 90.000000
_cell_volume 3327.738988
_symmetry_space_group_name_H-M "C 2/M"
_symmetry_group_IT_number 12
_symmetry_cell_setting 'monoclinic'
loop_
_space_group_symop_operation_xyz
x,y,z
-x,y,-z
-x,-y,-z
x,-y,z
1/2+x,1/2+y,z
1/2-x,1/2+y,-z
1/2-x,1/2-y,-z
1/2+x,1/2-y,z
loop_
_atom_site_type_symbol
_atom_site_label
_atom_site_fract_x
_atom_site_fract_y
_atom_site_fract_z
Si Si1 0.001517 0.821753 0.063078
Si Si2 0.600081 0.677868 0.251586
Si Si3 0.842786 0.175407 0.367493
Si Si4 0.852814 0.676142 0.133893
Si Si5 0.096353 0.824844 0.754470
Si Si6 0.839315 0.823088 0.865602
Si Si7 0.504943 0.678544 0.437286
Si Si8 0.832664 0.821783 0.631624
O O1 0.918606 0.761393 0.094662
O O2 0.088919 0.759448 0.091747
O O3 0.997569 0.000000 0.065305
O O4 0.000000 0.762206 0.000000
O O5 0.605006 0.500000 0.253087
O O6 0.501420 0.729186 0.252180
O O7 0.644678 0.744464 0.196129
O O8 0.647439 0.741341 0.306359
O O9 0.854618 0.210803 0.302428
O O10 0.757534 0.256457 0.389606
O O11 0.923684 0.239672 0.402177
O O12 0.832997 0.000000 0.378228
O O13 0.870108 0.500000 0.130086
O O14 0.859800 0.727393 0.197569
O O15 0.756136 0.717949 0.113338
O O16 0.100843 0.000000 0.770404
O O17 0.851035 0.000000 0.861552
O O18 0.500000 0.741064 0.500000
O O19 0.503720 0.500000 0.436206
O O20 0.592840 0.736844 0.409467
O O21 0.828140 0.000000 0.631177
#
# Coordination Sequence:
#
# PCOD8083739 Si02
#       8
#     8   8   8   8   8   8   8   8
#     4  10  21  39  61  80 103 145 193 224 255 313
#     4   9  15  29  55  77  99 137 179 212 254 320
#     4  10  20  34  54  81 109 139 177 226 274 313
#     4  11  22  35  55  84 113 140 172 220 278 321
#     4  10  18  33  57  79 105 142 180 216 261 324
#     4   9  18  33  54  78 106 139 172 211 264 322
#     4   9  18  34  55  77 104 144 191 225 258 322
#     4  10  19  33  55  80 104 140 182 218 267 329
#
# _framework density 19.232277
#
# number of rings (size 3 to 8) (size 9 to 14) (size 15 to 20)
#    0.000    2.250    2.500    1.125    0.000    2.750 
#    0.000    2.500    0.000    0.750    0.000    0.000 
#    0.000    0.000    0.000    0.000    0.000    0.000 
#
# Total GULP energy -396786.752890 kJ/mol
# GULP energy per Si atom -12399.586028 kJ/mol
# Density = 1.918850 g / cm^3
# Si number density = 19.232277 Si / 1000 Ang^3
#
#
#
# Elastic Constant Matrix: (Units=GPa)
#
#
# Indices 1 2 3 4 5 6 
#
# 1 162.2613 20.1778 67.6772 0.0000 -3.7853 0.0000
# 2 20.1778 15.5470 19.4011 0.0000 0.8077 0.0000
# 3 67.6772 19.4011 135.5569 0.0000 -2.3394 0.0000
# 4 0.0000 0.0000 0.0000 10.5528 0.0000 -2.4898
# 5 -3.7853 0.8077 -2.3394 0.0000 15.5702 0.0000
# 6 0.0000 0.0000 0.0000 -2.4898 0.0000 28.1467
#
#
#
# Elastic Compliance Matrix: (Units=1/GPa)
#
#
# Indices 1 2 3 4 5 6 
#
# 1 0.008401 -0.007075 -0.003148 0.000000 0.001936 0.000000
# 2 -0.007075 0.084785 -0.008730 0.000000 -0.007430 0.000000
# 3 -0.003148 -0.008730 0.010219 0.000000 0.001223 0.000000
# 4 0.000000 0.000000 0.000000 0.096782 0.000000 0.008561
# 5 0.001936 -0.007430 0.001223 0.000000 0.065265 0.000000
# 6 0.000000 0.000000 0.000000 0.008561 0.000000 0.036285
#
#
# Mechanical properties :
#
#
# Convention : Reuss Voigt Hill
#
# Bulk Modulus (GPa) = 15.26779 58.65305 36.96042
# Shear Modulus (GPa) = 13.83211 24.59454 19.21332
#
# Velocity S-wave (km/s) = 2.68472 3.57993 3.16415
# Velocity P-wave (km/s) = 4.19120 6.90299 5.71041
#
# Compressibility (1/GPa) = 0.06549735
#
# Stress axis : x y z
#
# Youngs Moduli (GPa) = 119.03381 11.79457 97.85382
#
# Poissons Ratio (x) = 0.08345 0.30806
# Poissons Ratio (y) = 0.84220 0.85430
# Poissons Ratio (z) = 0.37474 0.10297
#
# Static dielectric constant tensor:
#      x y z
#    x 3.691580 0.000000 0.077540 
#    y 0.000000 3.002180 0.000000 
#    z 0.077540 0.000000 3.712910 
# 
# 
# High freq. dielectric constant tensor:
#      x y z
#    x 1.765280 0.000000 -0.000180 
#    y 0.000000 1.698710 0.000000 
#    z -0.000180 0.000000 1.750340 
# 
# From -- ./inp_files/338719.got.cif
#   From: 2010.06.25/outbox.cif.g09.slc.cpg/sg12_170_cif.got.tgz:338719.got - 2010.06.28 00:19:55.
