data_PCOD8083390
_publ_section_title
;
Structure prediction by ZEFSAII (Michael W. Deem and Ramdas Pophale) SiO2 
 PCOD8083390
Probable space group: C 2/M
;
_chemical_formula_sum "Si O2"
_cell_formula_units_Z 64
_cell_length_a 20.165438
_cell_length_b 9.438642
_cell_length_c 25.408594
_cell_angle_alpha 90.000000
_cell_angle_beta 133.468966
_cell_angle_gamma 90.000000
_cell_volume 3509.806077
_symmetry_space_group_name_H-M "C 2/M"
_symmetry_group_IT_number 12
_symmetry_cell_setting 'monoclinic'
loop_
_space_group_symop_operation_xyz
x,y,z
-x,y,-z
-x,-y,-z
x,-y,z
1/2+x,1/2+y,z
1/2-x,1/2+y,-z
1/2-x,1/2-y,-z
1/2+x,1/2-y,z
loop_
_atom_site_type_symbol
_atom_site_label
_atom_site_fract_x
_atom_site_fract_y
_atom_site_fract_z
Si Si1 0.197727 0.835351 0.926800
Si Si2 0.717459 0.831505 0.533082
Si Si3 0.547346 0.162851 0.078516
Si Si4 0.006791 0.834970 0.158482
Si Si5 0.983302 0.667297 0.548016
Si Si6 0.833803 0.332414 0.297753
Si Si7 0.244898 0.162368 0.836004
Si Si8 0.305676 0.332742 0.689454
O O1 0.239082 0.788678 0.893371
O O2 0.089445 0.801876 0.866275
O O3 0.215569 0.000000 0.947789
O O4 0.250000 0.750000 0.000000
O O5 0.750000 0.750000 0.500000
O O6 0.613208 0.781590 0.482658
O O7 0.775155 0.777539 0.615345
O O8 0.726995 0.000000 0.530442
O O9 0.508552 0.253356 0.104814
O O10 0.654512 0.183936 0.131353
O O11 0.520486 0.000000 0.073973
O O12 0.500000 0.219709 0.000000
O O13 0.090158 0.784212 0.241704
O O14 0.018535 0.000000 0.152041
O O15 0.982497 0.500000 0.541199
O O16 0.000000 0.736485 0.500000
O O17 0.064640 0.714418 0.630620
O O18 0.823501 0.500000 0.285348
O O19 0.820379 0.259962 0.234206
O O20 0.761736 0.274034 0.301811
O O21 0.212580 0.000000 0.813660
O O22 0.295446 0.500000 0.683509
#
# Coordination Sequence:
#
# PCOD8083390 Si02
#       8
#     8   8   8   8   8   8   8   8
#     4  10  22  39  57  77 107 144 179 218 266 321
#     4  10  20  35  55  81 112 143 178 220 266 316
#     4  10  20  34  53  77 106 139 173 212 264 322
#     4  10  20  35  56  81 104 135 181 223 262 311
#     4   9  16  30  55  81 103 138 186 225 258 304
#     4  10  18  32  57  83 105 137 183 227 262 306
#     4  10  21  36  53  78 111 142 171 214 272 323
#     4   9  17  32  55  79 106 139 175 219 267 311
#
# _framework density 18.234625999999999
#
# number of rings (size 3 to 8) (size 9 to 14) (size 15 to 20)
#    0.000    2.250    2.500    0.750    0.000    3.250 
#    0.000    3.125    0.000    0.750    0.000    0.000 
#    0.000    0.000    0.000    0.000    0.000    0.000 
#
# Total GULP energy -396792.446005 kJ/mol
# GULP energy per Si atom -12399.763938 kJ/mol
# Density = 1.819312 g / cm^3
# Si number density = 18.234626 Si / 1000 Ang^3
#
#
#
# Elastic Constant Matrix: (Units=GPa)
#
#
# Indices 1 2 3 4 5 6 
#
# 1 77.6767 25.6634 35.4153 0.0000 -4.1353 0.0000
# 2 25.6634 36.5558 39.1282 0.0000 -5.7202 0.0000
# 3 35.4153 39.1282 132.7339 0.0000 -2.6692 0.0000
# 4 0.0000 0.0000 0.0000 29.5431 0.0000 -5.8748
# 5 -4.1353 -5.7202 -2.6692 0.0000 37.0380 0.0000
# 6 0.0000 0.0000 0.0000 -5.8748 0.0000 25.3158
#
#
#
# Elastic Compliance Matrix: (Units=1/GPa)
#
#
# Indices 1 2 3 4 5 6 
#
# 1 0.016961 -0.010280 -0.001491 0.000000 0.000199 0.000000
# 2 -0.010280 0.047276 -0.011086 0.000000 0.005355 0.000000
# 3 -0.001491 -0.011086 0.011178 0.000000 -0.001073 0.000000
# 4 0.000000 0.000000 0.000000 0.035486 0.000000 0.008235
# 5 0.000199 0.005355 -0.001073 0.000000 0.027771 0.000000
# 6 0.000000 0.000000 0.000000 0.008235 0.000000 0.041412
#
#
# Mechanical properties :
#
#
# Convention : Reuss Voigt Hill
#
# Bulk Modulus (GPa) = 33.66861 49.70890 41.68876
# Shear Modulus (GPa) = 21.21358 28.16336 24.68847
#
# Velocity S-wave (km/s) = 3.41452 3.93428 3.68358
# Velocity P-wave (km/s) = 5.83519 6.92517 6.40341
#
# Compressibility (1/GPa) = 0.02970126
#
# Stress axis : x y z
#
# Youngs Moduli (GPa) = 58.96029 21.15234 89.46102
#
# Poissons Ratio (x) = 0.21744 0.13338
# Poissons Ratio (y) = 0.60611 0.99175
# Poissons Ratio (z) = 0.08791 0.23449
#
# Static dielectric constant tensor:
#      x y z
#    x 3.500750 0.000000 0.142630 
#    y 0.000000 3.047820 0.000000 
#    z 0.142630 0.000000 3.571880 
# 
# 
# High freq. dielectric constant tensor:
#      x y z
#    x 1.712720 0.000000 0.006080 
#    y 0.000000 1.671770 0.000000 
#    z 0.006080 0.000000 1.720470 
# 
# From -- ./inp_files/320994.got.cif
#   From: 2010.06.25/outbox.cif.g09.slc.cpg/sg12_161_cif.got.tgz:320994.got - 2010.06.28 00:19:55.
