data_PCOD8083671
_publ_section_title
;
Structure prediction by ZEFSAII (Michael W. Deem and Ramdas Pophale) SiO2 
 PCOD8083671
Probable space group: C 2/M
;
_chemical_formula_sum "Si O2"
_cell_formula_units_Z 56
_cell_length_a 19.536020
_cell_length_b 16.563118
_cell_length_c 9.166245
_cell_angle_alpha 90.000000
_cell_angle_beta 89.559762
_cell_angle_gamma 90.000000
_cell_volume 2965.902214
_symmetry_space_group_name_H-M "C 2/M"
_symmetry_group_IT_number 12
_symmetry_cell_setting 'monoclinic'
loop_
_space_group_symop_operation_xyz
x,y,z
-x,y,-z
-x,-y,-z
x,-y,z
1/2+x,1/2+y,z
1/2-x,1/2+y,-z
1/2-x,1/2-y,-z
1/2+x,1/2-y,z
loop_
_atom_site_type_symbol
_atom_site_label
_atom_site_fract_x
_atom_site_fract_y
_atom_site_fract_z
Si Si1 0.253073 0.695783 0.212293
Si Si2 0.946399 0.142192 0.896818
Si Si3 0.314394 0.909727 0.024724
Si Si4 0.038115 0.809495 0.639015
Si Si5 0.694028 0.631766 0.230867
Si Si6 0.168518 0.907618 0.559901
Si Si7 0.390865 0.768038 0.110838
O O1 0.202661 0.770980 0.247999
O O2 0.279118 0.652167 0.358391
O O3 0.315496 0.727079 0.110893
O O4 0.212587 0.629172 0.123080
O O5 0.871483 0.105557 0.868053
O O6 0.979226 0.151942 0.738532
O O7 0.936927 0.225582 0.987856
O O8 0.000000 0.090922 0.000000
O O9 0.259034 0.908699 0.154953
O O10 0.382427 0.862281 0.075566
O O11 0.337215 0.000000 0.989819
O O12 0.090870 0.879155 0.590535
O O13 0.076503 0.739446 0.728400
O O14 0.000000 0.771116 0.500000
O O15 0.685791 0.594210 0.389731
O O16 0.175605 0.000000 0.615943
#
# Coordination Sequence:
#
# PCOD8083671 Si02
#       7
#     8   8   8   8   8   8   8
#     4  10  19  35  57  78 104 143 185 215 256 318
#     4  10  18  33  56  77 100 135 189 219 250 302
#     4  11  20  33  56  85 110 135 169 224 282 315
#     4  10  20  34  56  77  99 145 188 215 250 312
#     4  11  19  36  56  79 108 145 182 210 258 324
#     4  11  23  36  50  80 118 142 170 223 270 307
#     4   9  18  35  56  77 105 134 181 230 255 312
#
# _framework density 18.881271000000002
#
# number of rings (size 3 to 8) (size 9 to 14) (size 15 to 20)
#    0.000    1.714    4.286    2.143    0.000    0.286 
#    0.000    0.000    0.000    8.143    0.000    0.000 
#    0.000    0.000    0.000    0.000    0.000    0.000 
#
# Total GULP energy -347051.094135 kJ/mol
# GULP energy per Si atom -12394.681933 kJ/mol
# Density = 1.883830 g / cm^3
# Si number density = 18.881271 Si / 1000 Ang^3
#
#
#
# Elastic Constant Matrix: (Units=GPa)
#
#
# Indices 1 2 3 4 5 6 
#
# 1 48.3131 4.3592 13.7455 0.0000 7.8512 0.0000
# 2 4.3592 93.5812 12.0268 0.0000 13.7802 0.0000
# 3 13.7455 12.0268 91.2052 0.0000 9.3136 0.0000
# 4 0.0000 0.0000 0.0000 20.7482 0.0000 -0.0288
# 5 7.8512 13.7802 9.3136 0.0000 35.4675 0.0000
# 6 0.0000 0.0000 0.0000 -0.0288 0.0000 8.6834
#
#
#
# Elastic Compliance Matrix: (Units=1/GPa)
#
#
# Indices 1 2 3 4 5 6 
#
# 1 0.022204 -0.000051 -0.002918 0.000000 -0.004129 0.000000
# 2 -0.000051 0.011438 -0.001077 0.000000 -0.004150 0.000000
# 3 -0.002918 -0.001077 0.011753 0.000000 -0.002022 0.000000
# 4 0.000000 0.000000 0.000000 0.048197 0.000000 0.000160
# 5 -0.004129 -0.004150 -0.002022 0.000000 0.031252 0.000000
# 6 0.000000 0.000000 0.000000 0.000160 0.000000 0.115162
#
#
# Mechanical properties :
#
#
# Convention : Reuss Voigt Hill
#
# Bulk Modulus (GPa) = 26.80793 32.59582 29.70188
# Shear Modulus (GPa) = 19.19149 26.51104 22.85127
#
# Velocity S-wave (km/s) = 3.19161 3.75119 3.48265
# Velocity P-wave (km/s) = 5.27360 6.00524 5.65127
#
# Compressibility (1/GPa) = 0.03730239
#
# Stress axis : x y z
#
# Youngs Moduli (GPa) = 45.03668 87.42979 85.08823
#
# Poissons Ratio (x) = 0.00448 0.24828
# Poissons Ratio (y) = 0.00231 0.09162
# Poissons Ratio (z) = 0.13142 0.09414
#
# Static dielectric constant tensor:
#      x y z
#    x 3.618840 0.000000 0.151910 
#    y 0.000000 3.263300 0.000000 
#    z 0.151910 0.000000 3.504840 
# 
# 
# High freq. dielectric constant tensor:
#      x y z
#    x 1.733180 0.000000 0.008730 
#    y 0.000000 1.698260 0.000000 
#    z 0.008730 0.000000 1.745900 
# 
# From -- ./inp_files/86351.got.cif
#   From: 2010.06.25/outbox.cif.g09.slc.cpg/sg12_44_cif.got.tgz:86351.got - 2010.06.28 00:19:55.
