data_PCOD8083567
_publ_section_title
;
Structure prediction by ZEFSAII (Michael W. Deem and Ramdas Pophale) SiO2 
 PCOD8083567
Probable space group: C 2/M
;
_chemical_formula_sum "Si O2"
_cell_formula_units_Z 52
_cell_length_a 12.271083
_cell_length_b 20.935013
_cell_length_c 17.857417
_cell_angle_alpha 90.000000
_cell_angle_beta 40.148021
_cell_angle_gamma 90.000000
_cell_volume 2957.848245
_symmetry_space_group_name_H-M "C 2/M"
_symmetry_group_IT_number 12
_symmetry_cell_setting 'monoclinic'
loop_
_space_group_symop_operation_xyz
x,y,z
-x,y,-z
-x,-y,-z
x,-y,z
1/2+x,1/2+y,z
1/2-x,1/2+y,-z
1/2-x,1/2-y,-z
1/2+x,1/2-y,z
loop_
_atom_site_type_symbol
_atom_site_label
_atom_site_fract_x
_atom_site_fract_y
_atom_site_fract_z
Si Si1 0.320429 0.661755 0.629894
Si Si2 0.203597 0.322846 0.022006
Si Si3 0.515641 0.191157 0.264294
Si Si4 0.172551 0.927199 0.239628
Si Si5 0.500000 0.121244 0.000000
Si Si6 0.363442 0.803914 0.637090
Si Si7 0.010437 0.837747 0.768106
O O1 0.500000 0.647599 0.500000
O O2 0.280390 0.603950 0.706083
O O3 0.318991 0.729693 0.673140
O O4 0.175005 0.664816 0.643327
O O5 0.138354 0.343481 0.138810
O O6 0.050551 0.333721 0.043498
O O7 0.250000 0.250000 0.000000
O O8 0.376662 0.356969 0.904140
O O9 0.570398 0.170311 0.318407
O O10 0.521971 0.267439 0.248817
O O11 0.341749 0.923909 0.101108
O O12 0.016989 0.888553 0.284102
O O13 0.115836 0.000000 0.280195
O O14 0.500000 0.812865 0.500000
O O15 0.198311 0.844369 0.701672
#
# Coordination Sequence:
#
# PCOD8083567 Si02
#       7
#     8   8   8   8   4   8   8
#     4  10  21  33  53  79 110 140 178 227 270 321
#     4   9  18  28  51  77 110 135 163 223 271 321
#     4  10  18  33  53  80 109 139 169 221 283 319
#     4  11  21  36  56  77 108 145 183 219 258 315
#     4  10  19  36  50  82 112 138 177 210 272 324
#     4  10  21  33  53  79 111 144 173 219 277 330
#     4   9  20  32  50  81 107 139 176 216 264 326
#
# _framework density 17.580348000000001
#
# number of rings (size 3 to 8) (size 9 to 14) (size 15 to 20)
#    0.000    2.154    3.077    0.231    2.154    2.769 
#    0.000    0.000    0.000    1.385    0.000    2.154 
#    0.000    0.000    0.000    0.000    0.000    0.000 
#
# Total GULP energy -322284.912269 kJ/mol
# GULP energy per Si atom -12395.573549 kJ/mol
# Density = 1.754033 g / cm^3
# Si number density = 17.580348 Si / 1000 Ang^3
#
#
#
# Elastic Constant Matrix: (Units=GPa)
#
#
# Indices 1 2 3 4 5 6 
#
# 1 153.5848 40.9591 61.4164 0.0015 0.1340 -0.0014
# 2 40.9591 70.4170 22.6396 -0.0004 -1.7218 -0.0005
# 3 61.4164 22.6396 92.5298 -0.0021 -5.9587 -0.0009
# 4 0.0015 -0.0004 -0.0021 13.6078 -0.0025 0.1303
# 5 0.1340 -1.7218 -5.9587 -0.0025 33.3587 0.0022
# 6 -0.0014 -0.0005 -0.0009 0.1303 0.0022 16.2590
#
#
#
# Elastic Compliance Matrix: (Units=1/GPa)
#
#
# Indices 1 2 3 4 5 6 
#
# 1 0.009812 -0.003927 -0.005632 -0.000002 -0.001248 0.000001
# 2 -0.003927 0.016986 -0.001509 0.000001 0.000623 0.000000
# 3 -0.005632 -0.001509 0.015085 0.000003 0.002639 0.000000
# 4 -0.000002 0.000001 0.000003 0.073493 0.000006 -0.000589
# 5 -0.001248 0.000623 0.002639 0.000006 0.030486 -0.000004
# 6 0.000001 0.000000 0.000000 -0.000589 -0.000004 0.061509
#
#
# Mechanical properties :
#
#
# Convention : Reuss Voigt Hill
#
# Bulk Modulus (GPa) = 50.64410 62.95131 56.79770
# Shear Modulus (GPa) = 21.17851 25.41287 23.29569
#
# Velocity S-wave (km/s) = 3.47460 3.80613 3.64414
# Velocity P-wave (km/s) = 6.70574 7.42974 7.07700
#
# Compressibility (1/GPa) = 0.01974564
#
# Stress axis : x y z
#
# Youngs Moduli (GPa) = 101.92110 58.87294 66.29195
#
# Poissons Ratio (x) = 0.23118 0.37335
# Poissons Ratio (y) = 0.40022 0.10006
# Poissons Ratio (z) = 0.57401 0.08887
#
# Static dielectric constant tensor:
#      x y z
#    x 3.296660 0.000000 -0.032200 
#    y 0.000000 2.806690 0.000010 
#    z -0.032200 0.000010 3.614290 
# 
# 
# High freq. dielectric constant tensor:
#      x y z
#    x 1.681540 0.000000 -0.004110 
#    y 0.000000 1.620980 0.000000 
#    z -0.004110 0.000000 1.693230 
# 
# From -- ./inp_files/184321.got.cif
#   From: 2010.06.25/outbox.cif.g09.slc.cpg/sg12_93_cif.got.tgz:184321.got - 2010.06.28 00:19:55.
