data_PCOD8083389
_publ_section_title
;
Structure prediction by ZEFSAII (Michael W. Deem and Ramdas Pophale) SiO2 
 PCOD8083389
Probable space group: C 2/M
;
_chemical_formula_sum "Si O2"
_cell_formula_units_Z 48
_cell_length_a 20.630160
_cell_length_b 8.868315
_cell_length_c 15.196112
_cell_angle_alpha 90.000000
_cell_angle_beta 68.096263
_cell_angle_gamma 90.000000
_cell_volume 2579.503626
_symmetry_space_group_name_H-M "C 2/M"
_symmetry_group_IT_number 12
_symmetry_cell_setting 'monoclinic'
loop_
_space_group_symop_operation_xyz
x,y,z
-x,y,-z
-x,-y,-z
x,-y,z
1/2+x,1/2+y,z
1/2-x,1/2+y,-z
1/2-x,1/2-y,-z
1/2+x,1/2-y,z
loop_
_atom_site_type_symbol
_atom_site_label
_atom_site_fract_x
_atom_site_fract_y
_atom_site_fract_z
Si Si1 0.828375 0.179571 0.713358
Si Si2 0.924895 0.179030 0.509283
Si Si3 0.579517 0.675927 0.981892
Si Si4 0.926902 0.178377 0.816427
Si Si5 0.920609 0.178959 0.312955
Si Si6 0.829453 0.321667 0.211788
O O1 0.865732 0.239818 0.605770
O O2 0.870131 0.244129 0.776921
O O3 0.749533 0.239977 0.756061
O O4 0.829635 0.000000 0.714782
O O5 0.906274 0.231060 0.420158
O O6 0.000000 0.245617 0.500000
O O7 0.928897 0.000000 0.511561
O O8 0.594104 0.500000 0.957696
O O9 0.629738 0.772689 0.895682
O O10 0.500000 0.715437 0.000000
O O11 0.595315 0.724717 0.074004
O O12 0.003775 0.241719 0.755120
O O13 0.930747 0.000000 0.805372
O O14 0.861516 0.252219 0.283308
O O15 0.916893 0.000000 0.303614
O O16 0.831470 0.500000 0.218764
#
# Coordination Sequence:
#
# PCOD8083389 Si02
#       6
#     8   8   8   8   8   8
#     4   9  18  32  49  78 113 138 166 214 270 310
#     4   9  15  27  54  85 104 127 175 227 257 293
#     4  10  19  34  57  80 100 131 179 226 260 297
#     4   9  16  30  54  79 102 130 171 223 264 297
#     4  10  18  32  57  83 102 131 180 224 255 296
#     4  11  23  35  49  75 115 147 166 205 267 325
#
# _framework density 18.608231
#
# number of rings (size 3 to 8) (size 9 to 14) (size 15 to 20)
#    0.000    2.333    3.333    0.500    0.000    1.667 
#    0.000    0.000    0.000    4.500    0.000    0.000 
#    0.000    0.000    0.000    0.000    0.000    0.000 
#
# Total GULP energy -297581.729159 kJ/mol
# GULP energy per Si atom -12399.238715 kJ/mol
# Density = 1.856588 g / cm^3
# Si number density = 18.608231 Si / 1000 Ang^3
#
#
#
# Elastic Constant Matrix: (Units=GPa)
#
#
# Indices 1 2 3 4 5 6 
#
# 1 163.5200 26.9202 86.0271 0.0000 10.4674 0.0000
# 2 26.9202 23.6984 23.0259 0.0000 0.5383 0.0000
# 3 86.0271 23.0259 157.5758 0.0000 13.7003 0.0000
# 4 0.0000 0.0000 0.0000 16.1612 0.0000 1.2880
# 5 10.4674 0.5383 13.7003 0.0000 33.8151 0.0000
# 6 0.0000 0.0000 0.0000 1.2880 0.0000 15.7001
#
#
#
# Elastic Compliance Matrix: (Units=1/GPa)
#
#
# Indices 1 2 3 4 5 6 
#
# 1 0.009440 -0.006746 -0.004067 0.000000 -0.001167 0.000000
# 2 -0.006746 0.054159 -0.004496 0.000000 0.003048 0.000000
# 3 -0.004067 -0.004496 0.009440 0.000000 -0.002494 0.000000
# 4 0.000000 0.000000 0.000000 0.062284 0.000000 -0.005109
# 5 -0.001167 0.003048 -0.002494 0.000000 0.030896 0.000000
# 6 0.000000 0.000000 0.000000 -0.005109 0.000000 0.064113
#
#
# Mechanical properties :
#
#
# Convention : Reuss Voigt Hill
#
# Bulk Modulus (GPa) = 23.57247 68.52674 46.04960
# Shear Modulus (GPa) = 18.17585 27.05667 22.61626
#
# Velocity S-wave (km/s) = 3.12871 3.81729 3.49003
# Velocity P-wave (km/s) = 5.07416 7.50566 6.40633
#
# Compressibility (1/GPa) = 0.04242236
#
# Stress axis : x y z
#
# Youngs Moduli (GPa) = 105.93068 18.46404 105.93100
#
# Poissons Ratio (x) = 0.12456 0.43077
# Poissons Ratio (y) = 0.71460 0.47628
# Poissons Ratio (z) = 0.43077 0.08302
#
# Static dielectric constant tensor:
#      x y z
#    x 3.616280 0.000000 0.073770 
#    y 0.000000 2.851900 0.000000 
#    z 0.073770 0.000000 3.688560 
# 
# 
# High freq. dielectric constant tensor:
#      x y z
#    x 1.727800 0.000000 0.007180 
#    y 0.000000 1.664180 0.000000 
#    z 0.007180 0.000000 1.740360 
# 
# From -- ./inp_files/229834.got.cif
#   From: 2010.06.25/outbox.cif.g09.slc.cpg/sg12_115_cif.got.tgz:229834.got - 2010.06.28 00:19:55.
