data_PCOD8083709
_publ_section_title
;
Structure prediction by ZEFSAII (Michael W. Deem and Ramdas Pophale) SiO2 
 PCOD8083709
Probable space group: C 2/M
;
_chemical_formula_sum "Si O2"
_cell_formula_units_Z 56
_cell_length_a 24.705664
_cell_length_b 8.997942
_cell_length_c 15.037593
_cell_angle_alpha 90.000000
_cell_angle_beta 105.281833
_cell_angle_gamma 90.000000
_cell_volume 3224.658881
_symmetry_space_group_name_H-M "C 2/M"
_symmetry_group_IT_number 12
_symmetry_cell_setting 'monoclinic'
loop_
_space_group_symop_operation_xyz
x,y,z
-x,y,-z
-x,-y,-z
x,-y,z
1/2+x,1/2+y,z
1/2-x,1/2+y,-z
1/2-x,1/2-y,-z
1/2+x,1/2-y,z
loop_
_atom_site_type_symbol
_atom_site_label
_atom_site_fract_x
_atom_site_fract_y
_atom_site_fract_z
Si Si1 0.240707 0.174820 0.590122
Si Si2 0.062523 0.829369 0.383902
Si Si3 0.616633 0.328380 0.594114
Si Si4 0.576033 0.675468 0.099068
Si Si5 0.449088 0.175144 0.282241
Si Si6 0.657495 0.326025 0.283852
Si Si7 0.454698 0.324057 0.104910
O O1 0.250000 0.250000 0.500000
O O2 0.179940 0.218594 0.600340
O O3 0.285888 0.233008 0.680632
O O4 0.246475 0.000000 0.579342
O O5 0.077327 0.798634 0.492307
O O6 0.116595 0.791248 0.348352
O O7 0.011261 0.726856 0.334252
O O8 0.044435 0.000000 0.360550
O O9 0.612885 0.500000 0.620987
O O10 0.595735 0.226949 0.664852
O O11 0.571988 0.500000 0.103384
O O12 0.628817 0.731121 0.179771
O O13 0.518243 0.734132 0.117263
O O14 0.581588 0.722736 0.998104
O O15 0.429585 0.241581 0.179272
O O16 0.448251 0.000000 0.275947
O O17 0.672266 0.500000 0.286664
O O18 0.452341 0.500000 0.119827
#
# Coordination Sequence:
#
# PCOD8083709 Si02
#       7
#     8   8   8   8   8   8   8
#     4  11  22  37  56  79 105 139 180 221 263 307
#     4  10  19  35  56  76 104 144 179 210 254 317
#     4  10  22  39  55  72 100 145 188 214 251 313
#     4   8  15  29  55  82 103 134 178 214 252 311
#     4  12  24  34  49  79 112 141 173 220 271 309
#     4  10  18  33  56  83 110 137 172 217 262 311
#     4   9  16  32  55  77 103 140 178 212 252 316
#
# _framework density 17.366178999999999
#
# number of rings (size 3 to 8) (size 9 to 14) (size 15 to 20)
#    0.000    2.000    2.857    3.000    0.000    4.000 
#    0.000    2.143    0.000    0.857    0.000    0.000 
#    0.000    0.000    0.000    0.000    0.000    0.000 
#
# Total GULP energy -347207.624582 kJ/mol
# GULP energy per Si atom -12400.272306 kJ/mol
# Density = 1.732665 g / cm^3
# Si number density = 17.366179 Si / 1000 Ang^3
#
#
#
# Elastic Constant Matrix: (Units=GPa)
#
#
# Indices 1 2 3 4 5 6 
#
# 1 66.3013 42.6274 48.6360 0.0000 -3.3727 0.0000
# 2 42.6274 77.7604 48.2907 0.0000 -8.3078 0.0000
# 3 48.6360 48.2907 133.3404 0.0000 -5.4644 0.0000
# 4 0.0000 0.0000 0.0000 16.9026 0.0000 4.9339
# 5 -3.3727 -8.3078 -5.4644 0.0000 27.3337 0.0000
# 6 0.0000 0.0000 0.0000 4.9339 0.0000 26.0517
#
#
#
# Elastic Compliance Matrix: (Units=1/GPa)
#
#
# Indices 1 2 3 4 5 6 
#
# 1 0.026232 -0.011016 -0.005629 0.000000 -0.001237 0.000000
# 2 -0.011016 0.021635 -0.003633 0.000000 0.004490 0.000000
# 3 -0.005629 -0.003633 0.010884 0.000000 0.000377 0.000000
# 4 0.000000 0.000000 0.000000 0.062624 0.000000 -0.011860
# 5 -0.001237 0.004490 0.000377 0.000000 0.037872 0.000000
# 6 0.000000 0.000000 0.000000 -0.011860 0.000000 0.040631
#
#
# Mechanical properties :
#
#
# Convention : Reuss Voigt Hill
#
# Bulk Modulus (GPa) = 54.96394 61.83448 58.39921
# Shear Modulus (GPa) = 20.28391 23.24747 21.76569
#
# Velocity S-wave (km/s) = 3.42133 3.66274 3.54409
# Velocity P-wave (km/s) = 6.87939 7.31923 7.10272
#
# Compressibility (1/GPa) = 0.01819375
#
# Stress axis : x y z
#
# Youngs Moduli (GPa) = 38.12168 46.22130 91.87769
#
# Poissons Ratio (x) = 0.50919 0.51718
# Poissons Ratio (y) = 0.41996 0.33380
# Poissons Ratio (z) = 0.21459 0.16793
#
# Static dielectric constant tensor:
#      x y z
#    x 3.188740 0.000000 0.132700 
#    y 0.000000 3.025360 0.000000 
#    z 0.132700 0.000000 3.652930 
# 
# 
# High freq. dielectric constant tensor:
#      x y z
#    x 1.650580 0.000000 0.001140 
#    y 0.000000 1.651810 0.000000 
#    z 0.001140 0.000000 1.682520 
# 
# From -- ./inp_files/237869.got.cif
#   From: 2010.06.25/outbox.cif.g09.slc.cpg/sg12_119_cif.got.tgz:237869.got - 2010.06.28 00:19:55.
