data_PCOD8083791
_publ_section_title
;
Structure prediction by ZEFSAII (Michael W. Deem and Ramdas Pophale) SiO2 
 PCOD8083791
Probable space group: C 2/M
;
_chemical_formula_sum "Si O2"
_cell_formula_units_Z 64
_cell_length_a 16.203959
_cell_length_b 9.444178
_cell_length_c 21.896087
_cell_angle_alpha 90.000000
_cell_angle_beta 89.370083
_cell_angle_gamma 90.000000
_cell_volume 3350.622976
_symmetry_space_group_name_H-M "C 2/M"
_symmetry_group_IT_number 12
_symmetry_cell_setting 'monoclinic'
loop_
_space_group_symop_operation_xyz
x,y,z
-x,y,-z
-x,-y,-z
x,-y,z
1/2+x,1/2+y,z
1/2-x,1/2+y,-z
1/2-x,1/2-y,-z
1/2+x,1/2-y,z
loop_
_atom_site_type_symbol
_atom_site_label
_atom_site_fract_x
_atom_site_fract_y
_atom_site_fract_z
Si Si1 0.662774 0.668232 0.118199
Si Si2 0.916757 0.164615 0.758244
Si Si3 0.348509 0.832708 0.121439
Si Si4 0.345050 0.163407 0.372646
Si Si5 0.161955 0.164490 0.364670
Si Si6 0.504556 0.663757 0.571886
Si Si7 0.926193 0.661049 0.247015
Si Si8 0.904541 0.843843 0.008142
O O1 0.656192 0.500000 0.119244
O O2 0.611004 0.728232 0.176062
O O3 0.755314 0.720991 0.125667
O O4 0.630494 0.726932 0.053697
O O5 0.846090 0.189931 0.708110
O O6 0.997385 0.243603 0.733661
O O7 0.938406 0.000000 0.763713
O O8 0.391122 0.782103 0.183286
O O9 0.354111 0.000000 0.112491
O O10 0.391197 0.760229 0.064002
O O11 0.251698 0.224102 0.386090
O O12 0.414367 0.253254 0.406629
O O13 0.356997 0.173750 0.299566
O O14 0.353000 0.000000 0.393842
O O15 0.081290 0.228899 0.399906
O O16 0.163259 0.000000 0.380211
O O17 0.500000 0.680377 0.500000
O O18 0.514456 0.500000 0.591896
O O19 0.956482 0.500000 0.239737
O O20 0.864196 0.000000 0.019930
O O21 0.000000 0.866062 0.000000
#
# Coordination Sequence:
#
# PCOD8083791 Si02
#       8
#     8   8   8   8   8   8   8   8
#     4   9  18  32  51  74  98 130 173 219 261 314
#     4  10  18  33  58  79 101 139 183 218 263 327
#     4  10  20  34  51  72 100 134 172 212 264 323
#     4  10  20  36  58  82 112 148 188 228 271 327
#     4   9  18  34  57  83 110 147 188 223 269 332
#     4  10  21  38  58  84 118 149 183 230 275 319
#     4  10  20  33  51  78 108 134 170 227 274 308
#     4  10  20  34  50  71  99 129 169 219 267 313
#
# _framework density 19.100926999999999
#
# number of rings (size 3 to 8) (size 9 to 14) (size 15 to 20)
#    0.000    2.250    1.250    1.875    0.000    5.500 
#    0.000    2.500    0.000    1.500    0.000    0.000 
#    0.000    0.000    0.000    0.000    0.000    0.000 
#
# Total GULP energy -396667.126097 kJ/mol
# GULP energy per Si atom -12395.847691 kJ/mol
# Density = 1.905745 g / cm^3
# Si number density = 19.100927 Si / 1000 Ang^3
#
#
#
# Elastic Constant Matrix: (Units=GPa)
#
#
# Indices 1 2 3 4 5 6 
#
# 1 146.0948 41.0539 43.8028 0.0000 11.7767 0.0000
# 2 41.0539 39.7706 28.3253 0.0000 5.0396 0.0000
# 3 43.8028 28.3253 96.4159 0.0000 3.8809 0.0000
# 4 0.0000 0.0000 0.0000 30.2264 0.0000 -15.6291
# 5 11.7767 5.0396 3.8809 0.0000 26.3730 0.0000
# 6 0.0000 0.0000 0.0000 -15.6291 0.0000 62.7512
#
#
#
# Elastic Compliance Matrix: (Units=1/GPa)
#
#
# Indices 1 2 3 4 5 6 
#
# 1 0.010072 -0.008711 -0.001914 0.000000 -0.002551 0.000000
# 2 -0.008711 0.039928 -0.007668 0.000000 -0.002612 0.000000
# 3 -0.001914 -0.007668 0.013480 0.000000 0.000336 0.000000
# 4 0.000000 0.000000 0.000000 0.037974 0.000000 0.009458
# 5 -0.002551 -0.002612 0.000336 0.000000 0.039507 0.000000
# 6 0.000000 0.000000 0.000000 0.009458 0.000000 0.018292
#
#
# Mechanical properties :
#
#
# Convention : Reuss Voigt Hill
#
# Bulk Modulus (GPa) = 37.18075 56.51615 46.84845
# Shear Modulus (GPa) = 24.41373 35.14342 29.77857
#
# Velocity S-wave (km/s) = 3.57899 4.29404 3.95272
# Velocity P-wave (km/s) = 6.04869 7.36460 6.73884
#
# Compressibility (1/GPa) = 0.02689564
#
# Stress axis : x y z
#
# Youngs Moduli (GPa) = 99.28296 25.04520 74.18148
#
# Poissons Ratio (x) = 0.21816 0.14200
# Poissons Ratio (y) = 0.86481 0.56880
# Poissons Ratio (z) = 0.19005 0.19204
#
# Static dielectric constant tensor:
#      x y z
#    x 3.368380 0.000000 0.603040 
#    y 0.000000 3.199380 0.000000 
#    z 0.603040 0.000000 2.146630 
# 
# 
# High freq. dielectric constant tensor:
#      x y z
#    x 1.751810 0.000000 0.001830 
#    y 0.000000 1.703550 0.000000 
#    z 0.001830 0.000000 1.752010 
# 
# From -- ./inp_files/314087.got.cif
#   From: 2010.06.25/outbox.cif.g09.slc.cpg/sg12_158_cif.got.tgz:314087.got - 2010.06.28 00:19:55.
