data_PCOD8083116
_publ_section_title
;
Structure prediction by ZEFSAII (Michael W. Deem and Ramdas Pophale) SiO2 
 PCOD8083116
Probable space group: C 2/M
;
_chemical_formula_sum "Si O2"
_cell_formula_units_Z 64
_cell_length_a 16.294369
_cell_length_b 22.533659
_cell_length_c 15.629217
_cell_angle_alpha 90.000000
_cell_angle_beta 143.943314
_cell_angle_gamma 90.000000
_cell_volume 3377.660150
_symmetry_space_group_name_H-M "C 2/M"
_symmetry_group_IT_number 12
_symmetry_cell_setting 'monoclinic'
loop_
_space_group_symop_operation_xyz
x,y,z
-x,y,-z
-x,-y,-z
x,-y,z
1/2+x,1/2+y,z
1/2-x,1/2+y,-z
1/2-x,1/2-y,-z
1/2+x,1/2-y,z
loop_
_atom_site_type_symbol
_atom_site_label
_atom_site_fract_x
_atom_site_fract_y
_atom_site_fract_z
Si Si1 0.511232 0.636959 0.415712
Si Si2 0.093392 0.067242 0.323952
Si Si3 0.066124 0.112362 0.965027
Si Si4 0.238105 0.764778 0.588343
Si Si5 0.657683 0.863531 0.544423
Si Si6 0.179176 0.768403 0.812815
Si Si7 0.960959 0.757836 0.124535
Si Si8 0.349936 0.137627 0.270734
O O1 0.500000 0.606605 0.500000
O O2 0.518960 0.587265 0.348832
O O3 0.648525 0.677375 0.529926
O O4 0.371993 0.676692 0.287070
O O5 0.225248 0.109768 0.418390
O O6 0.145342 0.000000 0.378248
O O7 0.984809 0.069574 0.153634
O O8 0.234938 0.107779 0.111791
O O9 0.016674 0.178604 0.900847
O O10 0.000000 0.093525 0.000000
O O11 0.250000 0.750000 0.500000
O O12 0.165992 0.706885 0.567036
O O13 0.392073 0.776272 0.758186
O O14 0.674966 0.888438 0.655033
O O15 0.507345 0.879723 0.376119
O O16 0.078151 0.766414 0.809514
O O17 0.168733 0.708555 0.749416
O O18 0.339758 0.779623 0.975675
#
# Coordination Sequence:
#
# PCOD8083116 Si02
#       8
#     8   8   8   8   8   8   8   8
#     4  12  24  40  61  88 118 154 205 249 299 357
#     4  12  26  44  61  79 112 159 210 256 292 341
#     4  11  19  37  58  85 119 160 197 235 288 357
#     4  12  17  32  58  89 122 153 185 229 297 361
#     4  11  19  36  54  90 123 153 190 236 293 358
#     4  10  18  32  53  91 126 154 182 225 289 360
#     4  10  19  30  55  88 129 156 179 224 289 359
#     4  10  20  30  59  90 123 155 183 230 297 358
#
# _framework density 18.948028000000001
#
# number of rings (size 3 to 8) (size 9 to 14) (size 15 to 20)
#    0.000    1.000    7.500    0.750    0.000    1.500 
#    0.000    1.875    0.000    0.000    0.000    0.000 
#    0.000    4.000    0.000    0.000    0.000    0.000 
#
# Total GULP energy -396723.034715 kJ/mol
# GULP energy per Si atom -12397.594835 kJ/mol
# Density = 1.890490 g / cm^3
# Si number density = 18.948028 Si / 1000 Ang^3
#
#
#
# Elastic Constant Matrix: (Units=GPa)
#
#
# Indices 1 2 3 4 5 6 
#
# 1 86.4853 17.5636 41.2930 0.0000 -15.1946 0.0000
# 2 17.5636 48.8787 16.4642 0.0000 -3.6655 0.0000
# 3 41.2930 16.4642 128.7028 0.0000 12.3129 0.0000
# 4 0.0000 0.0000 0.0000 10.1404 0.0000 0.6149
# 5 -15.1946 -3.6655 12.3129 0.0000 36.1756 0.0000
# 6 0.0000 0.0000 0.0000 0.6149 0.0000 6.7189
#
#
#
# Elastic Compliance Matrix: (Units=1/GPa)
#
#
# Indices 1 2 3 4 5 6 
#
# 1 0.016437 -0.003365 -0.005655 0.000000 0.008488 0.000000
# 2 -0.003365 0.022434 -0.001935 0.000000 0.001519 0.000000
# 3 -0.005655 -0.001935 0.010417 0.000000 -0.006117 0.000000
# 4 0.000000 0.000000 0.000000 0.099166 0.000000 -0.009076
# 5 0.008488 0.001519 -0.006117 0.000000 0.033444 0.000000
# 6 0.000000 0.000000 0.000000 -0.009076 0.000000 0.149665
#
#
# Mechanical properties :
#
#
# Convention : Reuss Voigt Hill
#
# Bulk Modulus (GPa) = 36.52745 46.07872 41.30308
# Shear Modulus (GPa) = 13.78928 23.19004 18.48966
#
# Velocity S-wave (km/s) = 2.70060 3.50219 3.12718
# Velocity P-wave (km/s) = 5.38923 6.38162 5.90631
#
# Compressibility (1/GPa) = 0.02737667
#
# Stress axis : x y z
#
# Youngs Moduli (GPa) = 60.83654 44.57563 95.99580
#
# Poissons Ratio (x) = 0.15000 0.54289
# Poissons Ratio (y) = 0.20472 0.18580
# Poissons Ratio (z) = 0.34405 0.08628
#
# Static dielectric constant tensor:
#      x y z
#    x 3.570460 0.000000 0.064520 
#    y 0.000000 3.798660 0.000000 
#    z 0.064520 0.000000 3.877100 
# 
# 
# High freq. dielectric constant tensor:
#      x y z
#    x 1.735720 0.000000 0.001060 
#    y 0.000000 1.671620 0.000000 
#    z 0.001060 0.000000 1.758890 
# 
# From -- ./inp_files/218522.got.cif
#   From: 2010.06.25/outbox.cif.g09.slc.cpg/sg12_110_cif.got.tgz:218522.got - 2010.06.28 00:19:55.
