data_PCOD8083353
_publ_section_title
;
Structure prediction by ZEFSAII (Michael W. Deem and Ramdas Pophale) SiO2 
 PCOD8083353
Probable space group: C 2/M
;
_chemical_formula_sum "Si O2"
_cell_formula_units_Z 48
_cell_length_a 20.941265
_cell_length_b 13.500641
_cell_length_c 16.023390
_cell_angle_alpha 90.000000
_cell_angle_beta 147.277256
_cell_angle_gamma 90.000000
_cell_volume 2448.877817
_symmetry_space_group_name_H-M "C 2/M"
_symmetry_group_IT_number 12
_symmetry_cell_setting 'monoclinic'
loop_
_space_group_symop_operation_xyz
x,y,z
-x,y,-z
-x,-y,-z
x,-y,z
1/2+x,1/2+y,z
1/2-x,1/2+y,-z
1/2-x,1/2-y,-z
1/2+x,1/2-y,z
loop_
_atom_site_type_symbol
_atom_site_label
_atom_site_fract_x
_atom_site_fract_y
_atom_site_fract_z
Si Si1 0.496664 0.321220 0.868311
Si Si2 0.110543 0.752280 0.563792
Si Si3 0.225535 0.891023 0.815969
Si Si4 0.817237 0.112659 0.799033
Si Si5 0.494017 0.107347 0.092756
Si Si6 0.481476 0.614434 0.294612
O O1 0.397406 0.386372 0.804306
O O2 0.446086 0.207461 0.806193
O O3 0.521764 0.366442 0.806620
O O4 0.618537 0.325088 0.056208
O O5 0.198947 0.824136 0.708152
O O6 0.187926 0.654309 0.632032
O O7 0.072137 0.808898 0.437435
O O8 0.000000 0.723358 0.500000
O O9 0.149564 0.861991 0.814257
O O10 0.186645 0.000000 0.744579
O O11 0.363178 0.887341 0.987686
O O12 0.801704 0.000000 0.812146
O O13 0.549943 0.000000 0.182516
O O14 0.500000 0.111933 0.000000
O O15 0.518162 0.500000 0.352001
#
# Coordination Sequence:
#
# PCOD8083353 Si02
#       6
#     8   8   8   8   8   8
#     4  11  20  38  59  85 113 144 189 234 279 330
#     4  10  20  37  56  82 110 150 188 232 282 334
#     4   9  17  33  55  81 111 143 185 230 274 329
#     4  11  22  38  59  80 110 151 191 230 276 339
#     4  10  18  32  56  84 111 143 182 225 278 328
#     4  10  21  35  57  86 114 147 188 233 281 330
#
# _framework density 19.600815000000001
#
# number of rings (size 3 to 8) (size 9 to 14) (size 15 to 20)
#    0.000    1.833    3.333    2.500    0.000    3.667 
#    0.000    1.667    0.000    0.000    0.000    0.000 
#    0.000    0.000    0.000    0.000    0.000    0.000 
#
# Total GULP energy -297412.574941 kJ/mol
# GULP energy per Si atom -12392.190623 kJ/mol
# Density = 1.955620 g / cm^3
# Si number density = 19.600815 Si / 1000 Ang^3
#
#
#
# Elastic Constant Matrix: (Units=GPa)
#
#
# Indices 1 2 3 4 5 6 
#
# 1 94.3448 20.1332 37.0265 0.0000 -12.6513 0.0000
# 2 20.1332 116.1991 20.5593 0.0000 0.7355 0.0000
# 3 37.0265 20.5593 54.4211 0.0000 2.6573 0.0000
# 4 0.0000 0.0000 0.0000 27.7249 0.0000 3.4636
# 5 -12.6513 0.7355 2.6573 0.0000 21.9890 0.0000
# 6 0.0000 0.0000 0.0000 3.4636 0.0000 25.2773
#
#
#
# Elastic Compliance Matrix: (Units=1/GPa)
#
#
# Indices 1 2 3 4 5 6 
#
# 1 0.016875 -0.000929 -0.011675 0.000000 0.011151 0.000000
# 2 -0.000929 0.009274 -0.002847 0.000000 -0.000500 0.000000
# 3 -0.011675 -0.002847 0.027882 0.000000 -0.009991 0.000000
# 4 0.000000 0.000000 0.000000 0.036697 0.000000 -0.005028
# 5 0.011151 -0.000500 -0.009991 0.000000 0.053117 0.000000
# 6 0.000000 0.000000 0.000000 -0.005028 0.000000 0.040250
#
#
# Mechanical properties :
#
#
# Convention : Reuss Voigt Hill
#
# Bulk Modulus (GPa) = 43.23545 46.71143 44.97344
# Shear Modulus (GPa) = 22.45120 27.48130 24.96625
#
# Velocity S-wave (km/s) = 3.38808 3.74846 3.57281
# Velocity P-wave (km/s) = 6.11648 6.52822 6.32570
#
# Compressibility (1/GPa) = 0.02312917
#
# Stress axis : x y z
#
# Youngs Moduli (GPa) = 59.26024 107.83122 35.86571
#
# Poissons Ratio (x) = 0.10015 0.41872
# Poissons Ratio (y) = 0.05504 0.10211
# Poissons Ratio (z) = 0.69184 0.30701
#
# Static dielectric constant tensor:
#      x y z
#    x 3.559210 0.000000 0.219730 
#    y 0.000000 3.887100 0.000000 
#    z 0.219730 0.000000 3.246420 
# 
# 
# High freq. dielectric constant tensor:
#      x y z
#    x 1.767150 0.000000 0.017560 
#    y 0.000000 1.779420 0.000000 
#    z 0.017560 0.000000 1.715180 
# 
# From -- ./inp_files/225465.got.cif
#   From: 2010.06.25/outbox.cif.g09.slc.cpg/sg12_113_cif.got.tgz:225465.got - 2010.06.28 00:19:55.
