data_PCOD8083043
_publ_section_title
;
Structure prediction by ZEFSAII (Michael W. Deem and Ramdas Pophale) SiO2 
 PCOD8083043
Probable space group: C 2/M
;
_chemical_formula_sum "Si O2"
_cell_formula_units_Z 64
_cell_length_a 15.357517
_cell_length_b 8.631348
_cell_length_c 28.451595
_cell_angle_alpha 90.000000
_cell_angle_beta 122.519672
_cell_angle_gamma 90.000000
_cell_volume 3180.097323
_symmetry_space_group_name_H-M "C 2/M"
_symmetry_group_IT_number 12
_symmetry_cell_setting 'monoclinic'
loop_
_space_group_symop_operation_xyz
x,y,z
-x,y,-z
-x,-y,-z
x,-y,z
1/2+x,1/2+y,z
1/2-x,1/2+y,-z
1/2-x,1/2-y,-z
1/2+x,1/2-y,z
loop_
_atom_site_type_symbol
_atom_site_label
_atom_site_fract_x
_atom_site_fract_y
_atom_site_fract_z
Si Si1 0.057075 0.677497 0.384446
Si Si2 0.403524 0.815569 0.500338
Si Si3 0.125714 0.323699 0.732871
Si Si4 0.832562 0.318545 0.078819
Si Si5 0.314800 0.682798 0.730463
Si Si6 0.598022 0.316758 0.996237
Si Si7 0.545771 0.680935 0.801659
Si Si8 0.730412 0.679948 0.382777
O O1 0.095599 0.500000 0.392236
O O2 0.082501 0.748239 0.442970
O O3 0.114103 0.786774 0.364068
O O4 0.937490 0.688806 0.334636
O O5 0.500000 0.752744 0.500000
O O6 0.305269 0.744168 0.444020
O O7 0.400955 0.000000 0.501653
O O8 0.120056 0.500000 0.750385
O O9 0.243260 0.276952 0.754232
O O10 0.085437 0.207070 0.760373
O O11 0.835265 0.500000 0.070419
O O12 0.712080 0.262896 0.047500
O O13 0.882394 0.276484 0.142688
O O14 0.902683 0.241586 0.058000
O O15 0.325307 0.500000 0.725723
O O16 0.429480 0.748379 0.772604
O O17 0.261656 0.751196 0.667469
O O18 0.588186 0.500000 0.992949
O O19 0.500000 0.252868 0.000000
O O20 0.551988 0.500000 0.815813
O O21 0.757295 0.500000 0.389125
#
# Coordination Sequence:
#
# PCOD8083043 Si02
#       8
#     8   8   8   8   8   8   8   8
#     4  10  19  31  50  76 102 129 169 224 281 329
#     4   9  17  29  48  74  99 128 172 222 268 327
#     4  10  20  36  56  76 103 141 185 231 277 330
#     4  10  21  37  59  88 120 152 189 230 273 320
#     4   9  19  35  55  76 101 142 188 225 270 332
#     4   9  19  38  63  89 119 156 192 226 268 319
#     4  11  22  38  57  80 113 148 188 232 275 325
#     4  10  18  32  53  73  99 135 176 218 270 337
#
# _framework density 20.125171000000002
#
# number of rings (size 3 to 8) (size 9 to 14) (size 15 to 20)
#    0.000    2.250    1.250    1.875    0.000    4.750 
#    0.000    6.875    0.000    3.000    0.000    0.000 
#    0.000    0.000    0.000    0.000    0.000    0.000 
#
# Total GULP energy -396524.403055 kJ/mol
# GULP energy per Si atom -12391.387595 kJ/mol
# Density = 2.007936 g / cm^3
# Si number density = 20.125171 Si / 1000 Ang^3
#
#
#
# Elastic Constant Matrix: (Units=GPa)
#
#
# Indices 1 2 3 4 5 6 
#
# 1 140.1812 12.3271 41.8069 0.0000 6.0335 0.0000
# 2 12.3271 10.7118 10.8519 0.0000 1.4133 0.0000
# 3 41.8069 10.8519 114.2461 0.0000 7.0253 0.0000
# 4 0.0000 0.0000 0.0000 6.8001 0.0000 0.1416
# 5 6.0335 1.4133 7.0253 0.0000 20.9674 0.0000
# 6 0.0000 0.0000 0.0000 0.1416 0.0000 24.0969
#
#
#
# Elastic Compliance Matrix: (Units=1/GPa)
#
#
# Indices 1 2 3 4 5 6 
#
# 1 0.008526 -0.007269 -0.002358 0.000000 -0.001174 0.000000
# 2 -0.007269 0.109782 -0.007598 0.000000 -0.002762 0.000000
# 3 -0.002358 -0.007598 0.010480 0.000000 -0.002321 0.000000
# 4 0.000000 0.000000 0.000000 0.147074 0.000000 -0.000864
# 5 -0.001174 -0.002762 -0.002321 0.000000 0.048995 0.000000
# 6 0.000000 0.000000 0.000000 -0.000864 0.000000 0.041504
#
#
# Mechanical properties :
#
#
# Convention : Reuss Voigt Hill
#
# Bulk Modulus (GPa) = 10.59998 43.90119 27.25058
# Shear Modulus (GPa) = 11.56718 23.71645 17.64182
#
# Velocity S-wave (km/s) = 2.40002 3.43658 2.96396
# Velocity P-wave (km/s) = 3.59980 6.13255 5.02826
#
# Compressibility (1/GPa) = 0.09433982
#
# Stress axis : x y z
#
# Youngs Moduli (GPa) = 117.28228 9.10894 95.41830
#
# Poissons Ratio (x) = 0.06621 0.22495
# Poissons Ratio (y) = 0.85252 0.72499
# Poissons Ratio (z) = 0.27649 0.06921
#
# Static dielectric constant tensor:
#      x y z
#    x 3.778400 0.000000 0.126060 
#    y 0.000000 3.207720 0.000000 
#    z 0.126060 0.000000 3.778670 
# 
# 
# High freq. dielectric constant tensor:
#      x y z
#    x 1.791130 0.000000 0.002580 
#    y 0.000000 1.744490 0.000000 
#    z 0.002580 0.000000 1.791540 
# 
# From -- ./inp_files/359842.got.cif
#   From: 2010.06.25/outbox.cif.g09.slc.cpg/sg12_180_cif.got.tgz:359842.got - 2010.06.28 00:19:55.
