data_PCOD8083560
_publ_section_title
;
Structure prediction by ZEFSAII (Michael W. Deem and Ramdas Pophale) SiO2 
 PCOD8083560
Probable space group: C 2/M
;
_chemical_formula_sum "Si O2"
_cell_formula_units_Z 56
_cell_length_a 23.128569
_cell_length_b 17.012660
_cell_length_c 9.609707
_cell_angle_alpha 90.000000
_cell_angle_beta 54.638065
_cell_angle_gamma 90.000000
_cell_volume 3083.626268
_symmetry_space_group_name_H-M "C 2/M"
_symmetry_group_IT_number 12
_symmetry_cell_setting 'monoclinic'
loop_
_space_group_symop_operation_xyz
x,y,z
-x,y,-z
-x,-y,-z
x,-y,z
1/2+x,1/2+y,z
1/2-x,1/2+y,-z
1/2-x,1/2-y,-z
1/2+x,1/2-y,z
loop_
_atom_site_type_symbol
_atom_site_label
_atom_site_fract_x
_atom_site_fract_y
_atom_site_fract_z
Si Si1 0.847819 0.815215 0.112972
Si Si2 0.335603 0.911571 0.599856
Si Si3 0.936095 0.671704 0.983666
Si Si4 0.986132 0.588983 0.357610
Si Si5 0.707543 0.410963 0.573062
Si Si6 0.721217 0.841265 0.785838
Si Si7 0.235723 0.906298 0.978246
O O1 0.921299 0.766102 0.997105
O O2 0.850483 0.864503 0.253730
O O3 0.781175 0.753696 0.212482
O O4 0.835536 0.871352 0.995913
O O5 0.408153 0.870525 0.447927
O O6 0.280981 0.908688 0.551452
O O7 0.301435 0.878623 0.789574
O O8 0.359403 0.000000 0.601996
O O9 0.860638 0.628763 0.127390
O O10 0.000000 0.650826 0.000000
O O11 0.957680 0.642570 0.801114
O O12 0.991541 0.500000 0.290385
O O13 0.000000 0.591060 0.500000
O O14 0.680779 0.500000 0.587459
O O15 0.721930 0.370419 0.405744
O O16 0.752025 0.871562 0.887955
O O17 0.227348 0.000000 0.995017
#
# Coordination Sequence:
#
# PCOD8083560 Si02
#       7
#     8   8   8   8   8   8   8
#     4   9  21  35  51  73 111 141 173 212 264 315
#     4   8  16  28  47  68  98 132 168 205 250 302
#     4  10  22  35  50  73 110 147 179 207 251 308
#     4  10  19  32  48  70 101 140 178 211 246 302
#     4  10  18  33  53  76  99 134 174 216 265 313
#     4  10  20  31  53  78 110 129 171 221 266 303
#     4  10  18  34  56  81 104 134 175 219 265 312
#
# _framework density 18.160437999999999
#
# number of rings (size 3 to 8) (size 9 to 14) (size 15 to 20)
#    0.857    1.571    0.000    4.286    0.000    2.571 
#    0.000    0.000    0.000    1.714    0.000    0.000 
#    0.000    4.571    0.000    0.000    0.000    0.000 
#
# Total GULP energy -346867.556635 kJ/mol
# GULP energy per Si atom -12388.127023 kJ/mol
# Density = 1.811910 g / cm^3
# Si number density = 18.160438 Si / 1000 Ang^3
#
#
#
# Elastic Constant Matrix: (Units=GPa)
#
#
# Indices 1 2 3 4 5 6 
#
# 1 33.6980 -0.4065 27.5392 0.0000 4.5166 0.0000
# 2 -0.4065 79.5029 37.2356 0.0000 6.4877 0.0000
# 3 27.5392 37.2356 91.1651 0.0000 18.0260 0.0000
# 4 0.0000 0.0000 0.0000 31.0363 0.0000 -3.8401
# 5 4.5166 6.4877 18.0260 0.0000 26.9825 0.0000
# 6 0.0000 0.0000 0.0000 -3.8401 0.0000 18.6760
#
#
#
# Elastic Compliance Matrix: (Units=1/GPa)
#
#
# Indices 1 2 3 4 5 6 
#
# 1 0.043074 0.007835 -0.016608 0.000000 0.002001 0.000000
# 2 0.007835 0.016987 -0.009492 0.000000 0.000945 0.000000
# 3 -0.016608 -0.009492 0.021733 0.000000 -0.009457 0.000000
# 4 0.000000 0.000000 0.000000 0.033061 0.000000 0.006798
# 5 0.002001 0.000945 -0.009457 0.000000 0.042816 0.000000
# 6 0.000000 0.000000 0.000000 0.006798 0.000000 0.054943
#
#
# Mechanical properties :
#
#
# Convention : Reuss Voigt Hill
#
# Bulk Modulus (GPa) = 22.09222 37.01142 29.55182
# Shear Modulus (GPa) = 18.92284 24.67213 21.79748
#
# Velocity S-wave (km/s) = 3.23148 3.68987 3.46825
# Velocity P-wave (km/s) = 5.11025 6.21112 5.68738
#
# Compressibility (1/GPa) = 0.04526481
#
# Stress axis : x y z
#
# Youngs Moduli (GPa) = 23.21578 58.86977 46.01351
#
# Poissons Ratio (x) = -0.46126 0.76418
# Poissons Ratio (y) = -0.18190 0.43675
# Poissons Ratio (z) = 0.38556 0.55878
#
# Static dielectric constant tensor:
#      x y z
#    x 3.147420 0.000000 0.015470 
#    y 0.000000 3.358320 0.000000 
#    z 0.015470 0.000000 3.330690 
# 
# 
# High freq. dielectric constant tensor:
#      x y z
#    x 1.675890 0.000000 0.016090 
#    y 0.000000 1.690880 0.000000 
#    z 0.016090 0.000000 1.701190 
# 
# From -- ./inp_files/104430.got.cif
#   From: 2010.06.25/outbox.cif.g09.slc.cpg/sg12_53_cif.got.tgz:104430.got - 2010.06.28 00:19:55.
