data_PCOD8083246
_publ_section_title
;
Structure prediction by ZEFSAII (Michael W. Deem and Ramdas Pophale) SiO2 
 PCOD8083246
Probable space group: C 2/M
;
_chemical_formula_sum "Si O2"
_cell_formula_units_Z 56
_cell_length_a 20.164411
_cell_length_b 8.775478
_cell_length_c 19.020243
_cell_angle_alpha 90.000000
_cell_angle_beta 59.600568
_cell_angle_gamma 90.000000
_cell_volume 2902.958961
_symmetry_space_group_name_H-M "C 2/M"
_symmetry_group_IT_number 12
_symmetry_cell_setting 'monoclinic'
loop_
_space_group_symop_operation_xyz
x,y,z
-x,y,-z
-x,-y,-z
x,-y,z
1/2+x,1/2+y,z
1/2-x,1/2+y,-z
1/2-x,1/2-y,-z
1/2+x,1/2-y,z
loop_
_atom_site_type_symbol
_atom_site_label
_atom_site_fract_x
_atom_site_fract_y
_atom_site_fract_z
Si Si1 0.869318 0.819540 0.743928
Si Si2 0.086876 0.180032 0.435022
Si Si3 0.648383 0.319755 0.732716
Si Si4 0.978872 0.181890 0.807009
Si Si5 0.065509 0.819427 0.016750
Si Si6 0.293006 0.320918 0.149245
Si Si7 0.776496 0.681079 0.558455
O O1 0.890603 0.757953 0.654767
O O2 0.930697 0.754030 0.767029
O O3 0.786614 0.766689 0.815030
O O4 0.871912 0.000000 0.741802
O O5 0.139584 0.259905 0.465102
O O6 0.000000 0.226269 0.500000
O O7 0.098812 0.000000 0.433836
O O8 0.647339 0.500000 0.728512
O O9 0.565864 0.256266 0.752047
O O10 0.663793 0.266857 0.803632
O O11 0.715793 0.254950 0.647792
O O12 0.944460 0.244922 0.899033
O O13 0.977201 0.000000 0.808612
O O14 0.055762 0.000000 0.022007
O O15 0.150930 0.774519 0.944818
O O16 0.000000 0.751004 0.000000
O O17 0.275549 0.500000 0.160312
O O18 0.777399 0.500000 0.553440
O O19 0.750000 0.750000 0.500000
#
# Coordination Sequence:
#
# PCOD8083246 Si02
#       7
#     8   8   8   8   8   8   8
#     4  10  21  35  53  77 109 145 177 217 270 330
#     4  10  22  39  58  80 109 147 189 232 278 329
#     4   9  17  31  54  79 105 137 178 225 268 310
#     4   9  17  30  50  79 108 138 181 225 267 315
#     4   9  15  26  49  81 108 132 176 231 268 303
#     4  10  18  32  55  80 106 139 177 223 268 313
#     4  11  23  38  59  86 114 144 180 228 278 331
#
# _framework density 19.290661
#
# number of rings (size 3 to 8) (size 9 to 14) (size 15 to 20)
#    0.000    2.286    2.857    0.429    2.000    0.857 
#    0.000    0.000    0.000    1.286    0.000    0.000 
#    0.000    0.000    0.000    0.000    0.000    0.000 
#
# Total GULP energy -347166.647165 kJ/mol
# GULP energy per Si atom -12398.808827 kJ/mol
# Density = 1.924675 g / cm^3
# Si number density = 19.290661 Si / 1000 Ang^3
#
#
#
# Elastic Constant Matrix: (Units=GPa)
#
#
# Indices 1 2 3 4 5 6 
#
# 1 167.9303 24.3598 63.4074 0.0001 -1.0270 0.0002
# 2 24.3598 19.0018 20.9457 0.0002 1.2002 0.0015
# 3 63.4074 20.9457 116.2917 0.0000 -5.3313 -0.0002
# 4 0.0001 0.0002 0.0000 19.0919 0.0000 -4.5657
# 5 -1.0270 1.2002 -5.3313 0.0000 38.9672 0.0001
# 6 0.0002 0.0015 -0.0002 -4.5657 0.0001 25.7390
#
#
#
# Elastic Compliance Matrix: (Units=1/GPa)
#
#
# Indices 1 2 3 4 5 6 
#
# 1 0.008172 -0.006942 -0.003206 0.000000 -0.000009 0.000000
# 2 -0.006942 0.072084 -0.009367 -0.000002 -0.003685 -0.000004
# 3 -0.003206 -0.009367 0.012120 0.000000 0.001862 0.000001
# 4 0.000000 -0.000002 0.000000 0.054699 0.000000 0.009703
# 5 -0.000009 -0.003685 0.001862 0.000000 0.026031 0.000000
# 6 0.000000 -0.000004 0.000001 0.009703 0.000000 0.040573
#
#
# Mechanical properties :
#
#
# Convention : Reuss Voigt Hill
#
# Bulk Modulus (GPa) = 18.74562 57.84995 38.29779
# Shear Modulus (GPa) = 18.48493 29.72702 24.10597
#
# Velocity S-wave (km/s) = 3.09889 3.92982 3.53883
# Velocity P-wave (km/s) = 4.74792 7.11653 6.04929
#
# Compressibility (1/GPa) = 0.05334581
#
# Stress axis : x y z
#
# Youngs Moduli (GPa) = 122.36407 13.87264 82.51080
#
# Poissons Ratio (x) = 0.09631 0.26453
# Poissons Ratio (y) = 0.84947 0.77289
# Poissons Ratio (z) = 0.39230 0.12995
#
# Static dielectric constant tensor:
#      x y z
#    x 3.807430 0.000000 -0.033390 
#    y 0.000000 2.983820 0.000000 
#    z -0.033390 0.000000 3.843510 
# 
# 
# High freq. dielectric constant tensor:
#      x y z
#    x 1.762270 0.000000 -0.004050 
#    y 0.000000 1.695880 0.000000 
#    z -0.004050 0.000000 1.764040 
# 
# From -- ./inp_files/281031.got.cif
#   From: 2010.06.25/outbox.cif.g09.slc.cpg/sg12_141_cif.got.tgz:281031.got - 2010.06.28 00:19:55.
