data_PCOD8083473
_publ_section_title
;
Structure prediction by ZEFSAII (Michael W. Deem and Ramdas Pophale) SiO2 
 PCOD8083473
Probable space group: C 2/M
;
_chemical_formula_sum "Si O2"
_cell_formula_units_Z 40
_cell_length_a 9.573134
_cell_length_b 28.091113
_cell_length_c 14.623110
_cell_angle_alpha 90.000000
_cell_angle_beta 32.230043
_cell_angle_gamma 90.000000
_cell_volume 2097.252031
_symmetry_space_group_name_H-M "C 2/M"
_symmetry_group_IT_number 12
_symmetry_cell_setting 'monoclinic'
loop_
_space_group_symop_operation_xyz
x,y,z
-x,y,-z
-x,-y,-z
x,-y,z
1/2+x,1/2+y,z
1/2-x,1/2+y,-z
1/2-x,1/2-y,-z
1/2+x,1/2-y,z
loop_
_atom_site_type_symbol
_atom_site_label
_atom_site_fract_x
_atom_site_fract_y
_atom_site_fract_z
Si Si1 0.674300 0.500000 0.993690
Si Si2 0.000000 0.836659 0.000000
Si Si3 0.045551 0.306028 0.666581
Si Si4 0.674104 0.906209 0.523996
Si Si5 0.261742 0.000000 0.406670
Si Si6 0.000000 0.252918 0.500000
Si Si7 0.902919 0.909563 0.211423
O O1 0.979571 0.500000 0.799660
O O2 0.500000 0.500000 0.000000
O O3 0.604759 0.453314 0.090980
O O4 0.257261 0.804419 0.870258
O O5 0.006038 0.867380 0.904414
O O6 0.151339 0.359862 0.600636
O O7 0.239827 0.278985 0.628545
O O8 0.997057 0.285215 0.591826
O O9 0.780409 0.952040 0.514304
O O10 0.879388 0.892406 0.329579
O O11 0.389566 0.924962 0.651611
O O12 0.000000 0.000000 0.500000
#
# Coordination Sequence:
#
# PCOD8083473 Si02
#       7
#     4   4   8   8   4   4   8
#     4  12  17  33  55  81 109 149 201 237 262 322
#     4  10  18  33  58  90 112 146 184 241 286 336
#     4  10  21  38  62  85 117 150 193 240 288 346
#     4  10  20  37  58  87 116 152 188 235 282 340
#     4  12  25  37  55  84 120 156 185 226 295 345
#     4  10  22  40  60  86 112 154 192 236 298 348
#     4  10  18  32  60  84 110 148 201 235 270 327
#
# _framework density 19.072578
#
# number of rings (size 3 to 8) (size 9 to 14) (size 15 to 20)
#    0.000    1.600    3.000    4.200    1.400    2.400 
#    0.000    2.000    0.000    0.000    0.000    0.000 
#    0.000    0.000    0.000    0.000    0.000    0.000 
#
# Total GULP energy -247793.339299 kJ/mol
# GULP energy per Si atom -12389.666965 kJ/mol
# Density = 1.902917 g / cm^3
# Si number density = 19.072578 Si / 1000 Ang^3
#
#
#
# Elastic Constant Matrix: (Units=GPa)
#
#
# Indices 1 2 3 4 5 6 
#
# 1 77.5008 37.0174 44.9122 0.0000 -14.3182 0.0000
# 2 37.0174 98.9905 37.5199 0.0000 -10.8470 0.0000
# 3 44.9122 37.5199 139.6309 0.0000 -5.4250 0.0000
# 4 0.0000 0.0000 0.0000 35.1376 0.0000 -1.1764
# 5 -14.3182 -10.8470 -5.4250 0.0000 26.4329 0.0000
# 6 0.0000 0.0000 0.0000 -1.1764 0.0000 27.9539
#
#
#
# Elastic Compliance Matrix: (Units=1/GPa)
#
#
# Indices 1 2 3 4 5 6 
#
# 1 0.019180 -0.004584 -0.004644 0.000000 0.007555 0.000000
# 2 -0.004584 0.012785 -0.001869 0.000000 0.002380 0.000000
# 3 -0.004644 -0.001869 0.009103 0.000000 -0.001414 0.000000
# 4 0.000000 0.000000 0.000000 0.028500 0.000000 0.001199
# 5 0.007555 0.002380 -0.001414 0.000000 0.042610 0.000000
# 6 0.000000 0.000000 0.000000 0.001199 0.000000 0.035824
#
#
# Mechanical properties :
#
#
# Convention : Reuss Voigt Hill
#
# Bulk Modulus (GPa) = 52.98198 61.66903 57.32550
# Shear Modulus (GPa) = 28.33095 31.01640 29.67368
#
# Velocity S-wave (km/s) = 3.85831 4.03703 3.94868
# Velocity P-wave (km/s) = 6.90566 7.35760 7.13521
#
# Compressibility (1/GPa) = 0.01887434
#
# Stress axis : x y z
#
# Youngs Moduli (GPa) = 52.13890 78.21517 109.85940
#
# Poissons Ratio (x) = 0.35856 0.51016
# Poissons Ratio (y) = 0.23902 0.20527
# Poissons Ratio (z) = 0.24212 0.14615
#
# Static dielectric constant tensor:
#      x y z
#    x 3.286970 0.000000 0.073010 
#    y 0.000000 3.521470 0.000000 
#    z 0.073010 0.000000 3.754740 
# 
# 
# High freq. dielectric constant tensor:
#      x y z
#    x 1.713930 0.000000 0.009230 
#    y 0.000000 1.747290 0.000000 
#    z 0.009230 0.000000 1.751800 
# 
# From -- ./inp_files/201151.got.cif
#   From: 2010.06.25/outbox.cif.g09.slc.cpg/sg12_101_cif.got.tgz:201151.got - 2010.06.28 00:19:55.
