data_PCOD8083893
_publ_section_title
;
Structure prediction by ZEFSAII (Michael W. Deem and Ramdas Pophale) SiO2 
 PCOD8083893
Probable space group: C 2/M
;
_chemical_formula_sum "Si O2"
_cell_formula_units_Z 48
_cell_length_a 20.463026
_cell_length_b 8.771910
_cell_length_c 24.767690
_cell_angle_alpha 90.000000
_cell_angle_beta 145.453234
_cell_angle_gamma 90.000000
_cell_volume 2521.116267
_symmetry_space_group_name_H-M "C 2/M"
_symmetry_group_IT_number 12
_symmetry_cell_setting 'monoclinic'
loop_
_space_group_symop_operation_xyz
x,y,z
-x,y,-z
-x,-y,-z
x,-y,z
1/2+x,1/2+y,z
1/2-x,1/2+y,-z
1/2-x,1/2-y,-z
1/2+x,1/2-y,z
loop_
_atom_site_type_symbol
_atom_site_label
_atom_site_fract_x
_atom_site_fract_y
_atom_site_fract_z
Si Si1 0.749000 0.322790 0.237709
Si Si2 0.111316 0.819278 0.249240
Si Si3 0.733520 0.181153 0.547047
Si Si4 0.504317 0.822998 0.444188
Si Si5 0.378736 0.176956 0.943663
Si Si6 0.360239 0.320270 0.046349
O O1 0.718001 0.500000 0.207114
O O2 0.684850 0.260409 0.247739
O O3 0.884901 0.296540 0.333044
O O4 0.716809 0.221595 0.164653
O O5 0.168814 0.760284 0.344086
O O6 0.115902 0.000000 0.251282
O O7 0.979154 0.760704 0.155042
O O8 0.750000 0.250000 0.500000
O O9 0.609904 0.245905 0.482223
O O10 0.736746 0.000000 0.544928
O O11 0.500000 0.744003 0.500000
O O12 0.532470 0.000000 0.471738
O O13 0.360310 0.276372 0.984035
O O14 0.368799 0.000000 0.952185
O O15 0.500000 0.219531 0.000000
O O16 0.351684 0.500000 0.045933
O O17 0.250000 0.250000 0.000000
#
# Coordination Sequence:
#
# PCOD8083893 Si02
#       6
#     8   8   8   8   8   8
#     4  10  18  33  60  89 111 144 193 239 282 337
#     4   9  18  34  59  83 109 148 190 230 283 342
#     4  10  20  36  56  83 115 148 183 227 280 337
#     4   9  16  30  57  86 108 136 186 238 275 323
#     4  11  23  38  57  85 118 151 190 241 289 336
#     4  11  23  40  61  86 116 154 195 239 288 344
#
# _framework density 19.039186000000001
#
# number of rings (size 3 to 8) (size 9 to 14) (size 15 to 20)
#    0.000    2.000    3.333    1.000    0.000    2.000 
#    0.000    6.667    0.000    1.000    0.000    0.000 
#    0.000    0.000    0.000    0.000    0.000    0.000 
#
# Total GULP energy -297566.622834 kJ/mol
# GULP energy per Si atom -12398.609285 kJ/mol
# Density = 1.899585 g / cm^3
# Si number density = 19.039186 Si / 1000 Ang^3
#
#
#
# Elastic Constant Matrix: (Units=GPa)
#
#
# Indices 1 2 3 4 5 6 
#
# 1 155.7177 30.9616 92.5639 0.0000 4.8062 0.0000
# 2 30.9616 29.7289 27.8022 0.0000 3.2529 0.0000
# 3 92.5639 27.8022 140.1284 -0.0001 -0.2707 0.0000
# 4 0.0000 0.0000 -0.0001 21.5689 0.0000 -2.3469
# 5 4.8062 3.2529 -0.2707 0.0000 38.5155 0.0000
# 6 0.0000 0.0000 0.0000 -2.3469 0.0000 30.2084
#
#
#
# Elastic Compliance Matrix: (Units=1/GPa)
#
#
# Indices 1 2 3 4 5 6 
#
# 1 0.011397 -0.005796 -0.006381 0.000000 -0.000978 0.000000
# 2 -0.005796 0.044738 -0.005054 0.000000 -0.003091 0.000000
# 3 -0.006381 -0.005054 0.012356 0.000000 0.001310 0.000000
# 4 0.000000 0.000000 0.000000 0.046758 0.000000 0.003633
# 5 -0.000978 -0.003091 0.001310 0.000000 0.026356 0.000000
# 6 0.000000 0.000000 0.000000 0.003633 0.000000 0.033386
#
#
# Mechanical properties :
#
#
# Convention : Reuss Voigt Hill
#
# Bulk Modulus (GPa) = 29.38484 69.80338 49.59411
# Shear Modulus (GPa) = 22.64545 29.67504 26.16024
#
# Velocity S-wave (km/s) = 3.45253 3.95223 3.71080
# Velocity P-wave (km/s) = 5.60006 7.58745 6.66821
#
# Compressibility (1/GPa) = 0.03403116
#
# Stress axis : x y z
#
# Youngs Moduli (GPa) = 87.74004 22.35251 80.93025
#
# Poissons Ratio (x) = 0.12955 0.51639
# Poissons Ratio (y) = 0.50853 0.40899
# Poissons Ratio (z) = 0.55984 0.11296
#
# Static dielectric constant tensor:
#      x y z
#    x 3.460170 0.000000 0.094080 
#    y 0.000000 3.118080 0.000000 
#    z 0.094080 0.000000 3.767780 
# 
# 
# High freq. dielectric constant tensor:
#      x y z
#    x 1.744470 0.000000 0.001100 
#    y 0.000000 1.702420 0.000000 
#    z 0.001100 0.000000 1.757510 
# 
# From -- ./inp_files/365576.got.cif
#   From: 2010.06.25/outbox.cif.g09.slc.cpg/sg12_183_cif.got.tgz:365576.got - 2010.06.28 00:19:55.
