data_PCOD8083468
_publ_section_title
;
Structure prediction by ZEFSAII (Michael W. Deem and Ramdas Pophale) SiO2 
 PCOD8083468
Probable space group: C 2/M
;
_chemical_formula_sum "Si O2"
_cell_formula_units_Z 40
_cell_length_a 14.241544
_cell_length_b 14.999265
_cell_length_c 18.957786
_cell_angle_alpha 90.000000
_cell_angle_beta 151.677172
_cell_angle_gamma 90.000000
_cell_volume 1921.299320
_symmetry_space_group_name_H-M "C 2/M"
_symmetry_group_IT_number 12
_symmetry_cell_setting 'monoclinic'
loop_
_space_group_symop_operation_xyz
x,y,z
-x,y,-z
-x,-y,-z
x,-y,z
1/2+x,1/2+y,z
1/2-x,1/2+y,-z
1/2-x,1/2-y,-z
1/2+x,1/2-y,z
loop_
_atom_site_type_symbol
_atom_site_label
_atom_site_fract_x
_atom_site_fract_y
_atom_site_fract_z
Si Si1 0.680034 0.905772 0.904561
Si Si2 0.099666 0.104818 0.237246
Si Si3 0.470302 0.858610 0.054979
Si Si4 0.645501 0.749152 0.656303
Si Si5 0.574490 0.266566 0.766029
O O1 0.613206 0.923994 0.941207
O O2 0.542174 0.830119 0.780008
O O3 0.649119 0.000000 0.843543
O O4 0.913008 0.882740 0.061687
O O5 0.284484 0.150339 0.318737
O O6 0.060402 0.157979 0.285426
O O7 0.143014 0.000000 0.281406
O O8 0.667905 0.815114 0.215984
O O9 0.500000 0.910499 0.000000
O O10 0.307730 0.782800 0.930879
O O11 0.500000 0.711962 0.500000
O O12 0.524785 0.744896 0.650376
#
# Coordination Sequence:
#
# PCOD8083468 Si02
#       5
#     8   8   8   8   8
#     4  10  18  32  59  87 108 141 190 237 281 327
#     4  10  20  37  60  86 115 146 188 237 283 335
#     4   9  17  34  56  80 109 145 185 231 278 332
#     4  11  22  35  58  83 114 153 188 226 284 339
#     4  10  19  37  61  82 112 146 191 236 283 326
#
# _framework density 20.819244000000001
#
# number of rings (size 3 to 8) (size 9 to 14) (size 15 to 20)
#    0.000    2.000    4.000    1.200    0.000    2.400 
#    0.000    5.000    0.000    1.200    0.000    0.000 
#    0.000    0.000    0.000    0.000    0.000    0.000 
#
# Total GULP energy -247765.525660 kJ/mol
# GULP energy per Si atom -12388.276283 kJ/mol
# Density = 2.077186 g / cm^3
# Si number density = 20.819244 Si / 1000 Ang^3
#
#
#
# Elastic Constant Matrix: (Units=GPa)
#
#
# Indices 1 2 3 4 5 6 
#
# 1 73.1093 34.5565 8.7790 0.0018 -23.2827 -0.0011
# 2 34.5565 105.6405 26.3510 0.0061 -15.0806 0.0020
# 3 8.7790 26.3510 73.8161 0.0068 -20.3616 0.0023
# 4 0.0018 0.0061 0.0068 10.2465 0.0046 2.9143
# 5 -23.2827 -15.0806 -20.3616 0.0046 25.8613 0.0019
# 6 -0.0011 0.0020 0.0023 2.9143 0.0019 9.0593
#
#
#
# Elastic Compliance Matrix: (Units=1/GPa)
#
#
# Indices 1 2 3 4 5 6 
#
# 1 0.022367 -0.005608 0.005103 -0.000014 0.020884 0.000003
# 2 -0.005608 0.012133 -0.003967 -0.000003 -0.001097 -0.000001
# 3 0.005103 -0.003967 0.019143 -0.000019 0.017353 -0.000001
# 4 -0.000014 -0.000003 -0.000019 0.107423 -0.000045 -0.034557
# 5 0.020884 -0.001097 0.017353 -0.000045 0.070492 -0.000002
# 6 0.000003 -0.000001 -0.000001 -0.034557 -0.000002 0.121501
#
#
# Mechanical properties :
#
#
# Convention : Reuss Voigt Hill
#
# Bulk Modulus (GPa) = 22.37214 43.54877 32.96046
# Shear Modulus (GPa) = 13.26597 21.22536 17.24567
#
# Velocity S-wave (km/s) = 2.52702 3.19644 2.88123
# Velocity P-wave (km/s) = 4.39131 5.88098 5.18987
#
# Compressibility (1/GPa) = 0.04469846
#
# Stress axis : x y z
#
# Youngs Moduli (GPa) = 44.70876 82.41647 52.23825
#
# Poissons Ratio (x) = 0.46220 -0.26655
# Poissons Ratio (y) = 0.25073 0.20723
# Poissons Ratio (z) = -0.22813 0.32695
#
# Static dielectric constant tensor:
#      x y z
#    x 4.064930 -0.000010 -0.107040 
#    y -0.000010 3.539510 -0.000020 
#    z -0.107040 -0.000020 3.397400 
# 
# 
# High freq. dielectric constant tensor:
#      x y z
#    x 1.822160 0.000000 -0.003290 
#    y 0.000000 1.802210 0.000000 
#    z -0.003290 0.000000 1.778530 
# 
# From -- ./inp_files/59109.got.cif
#   From: 2010.06.25/outbox.cif.g09.slc.cpg/sg12_30_cif.got.tgz:59109.got - 2010.06.28 00:19:55.
