data_PCOD8083807
_publ_section_title
;
Structure prediction by ZEFSAII (Michael W. Deem and Ramdas Pophale) SiO2 
 PCOD8083807
Probable space group: C 2/M
;
_chemical_formula_sum "Si O2"
_cell_formula_units_Z 32
_cell_length_a 15.169484
_cell_length_b 8.786573
_cell_length_c 26.590671
_cell_angle_alpha 90.000000
_cell_angle_beta 30.743727
_cell_angle_gamma 90.000000
_cell_volume 1811.797327
_symmetry_space_group_name_H-M "C 2/M"
_symmetry_group_IT_number 12
_symmetry_cell_setting 'monoclinic'
loop_
_space_group_symop_operation_xyz
x,y,z
-x,y,-z
-x,-y,-z
x,-y,z
1/2+x,1/2+y,z
1/2-x,1/2+y,-z
1/2-x,1/2-y,-z
1/2+x,1/2-y,z
loop_
_atom_site_type_symbol
_atom_site_label
_atom_site_fract_x
_atom_site_fract_y
_atom_site_fract_z
Si Si1 0.925668 0.180058 0.394745
Si Si2 0.406132 0.179342 0.893272
Si Si3 0.750196 0.172208 0.281049
Si Si4 0.519857 0.672131 0.744098
O O1 0.750000 0.250000 0.500000
O O2 0.963226 0.240546 0.319921
O O3 0.078666 0.231890 0.356094
O O4 0.908049 0.000000 0.403899
O O5 0.585608 0.248885 0.827401
O O6 0.389889 0.225796 0.841905
O O7 0.406119 0.000000 0.899762
O O8 0.250000 0.250000 0.000000
O O9 0.791772 0.173009 0.320738
O O10 0.727017 0.000000 0.272376
O O11 0.446918 0.500000 0.777886
#
# Coordination Sequence:
#
# PCOD8083807 Si02
#       4
#     8   8   8   8
#     4  11  22  37  56  81 111 145 182 224 271 321
#     4  10  18  33  58  83 109 142 179 220 270 323
#     4   9  19  37  56  79 110 143 181 224 269 319
#     4   8  19  37  55  77 111 145 178 221 271 319
#
# _framework density 17.662019999999998
#
# number of rings (size 3 to 8) (size 9 to 14) (size 15 to 20)
#    1.500    1.000    0.000    3.000    0.000    3.000 
#    0.000    6.250    0.000    7.500    0.000    0.000 
#    0.000    0.000    0.000    0.000    0.000    0.000 
#
# Total GULP energy -198235.010185 kJ/mol
# GULP energy per Si atom -12389.688137 kJ/mol
# Density = 1.762182 g / cm^3
# Si number density = 17.662020 Si / 1000 Ang^3
#
#
#
# Elastic Constant Matrix: (Units=GPa)
#
#
# Indices 1 2 3 4 5 6 
#
# 1 42.3964 16.8007 5.2773 0.0000 1.9772 0.0001
# 2 16.8007 102.0782 37.2933 0.0006 2.7643 -0.0011
# 3 5.2773 37.2933 75.0559 -0.0007 -0.2746 0.0012
# 4 0.0000 0.0006 -0.0007 34.8228 -0.0001 -3.8330
# 5 1.9772 2.7643 -0.2746 -0.0001 32.7106 0.0005
# 6 0.0001 -0.0011 0.0012 -3.8330 0.0005 27.9240
#
#
#
# Elastic Compliance Matrix: (Units=1/GPa)
#
#
# Indices 1 2 3 4 5 6 
#
# 1 0.025285 -0.004250 0.000330 0.000000 -0.001166 0.000000
# 2 -0.004250 0.012721 -0.006025 0.000000 -0.000869 0.000001
# 3 0.000330 -0.006025 0.016296 0.000000 0.000626 -0.000001
# 4 0.000000 0.000000 0.000000 0.029157 0.000000 0.004002
# 5 -0.001166 -0.000869 0.000626 0.000000 0.030720 -0.000001
# 6 0.000000 0.000001 -0.000001 0.004002 -0.000001 0.036361
#
#
# Mechanical properties :
#
#
# Convention : Reuss Voigt Hill
#
# Bulk Modulus (GPa) = 29.06098 37.58592 33.32345
# Shear Modulus (GPa) = 27.48751 29.76877 28.62814
#
# Velocity S-wave (km/s) = 3.94928 4.10990 4.03039
# Velocity P-wave (km/s) = 6.10618 6.62182 6.36922
#
# Compressibility (1/GPa) = 0.03441040
#
# Stress axis : x y z
#
# Youngs Moduli (GPa) = 39.54981 78.61244 61.36440
#
# Poissons Ratio (x) = 0.33414 -0.02024
# Poissons Ratio (y) = 0.16810 0.36971
# Poissons Ratio (z) = -0.01305 0.47363
#
# Static dielectric constant tensor:
#      x y z
#    x 2.735960 0.000000 -0.094200 
#    y 0.000000 2.697270 0.000000 
#    z -0.094200 0.000000 3.071660 
# 
# 
# High freq. dielectric constant tensor:
#      x y z
#    x 1.664480 0.000000 0.000510 
#    y 0.000000 1.695470 0.000000 
#    z 0.000510 0.000000 1.668480 
# 
# From -- ./inp_files/138344.got.cif
#   From: 2010.06.25/outbox.cif.g09.slc.cpg/sg12_70_cif.got.tgz:138344.got - 2010.06.28 00:19:55.
