data_PCOD8083357
_publ_section_title
;
Structure prediction by ZEFSAII (Michael W. Deem and Ramdas Pophale) SiO2 
 PCOD8083357
Probable space group: C 2/M
;
_chemical_formula_sum "Si O2"
_cell_formula_units_Z 64
_cell_length_a 17.415419
_cell_length_b 14.212114
_cell_length_c 14.080274
_cell_angle_alpha 90.000000
_cell_angle_beta 66.092986
_cell_angle_gamma 90.000000
_cell_volume 3186.009018
_symmetry_space_group_name_H-M "C 2/M"
_symmetry_group_IT_number 12
_symmetry_cell_setting 'monoclinic'
loop_
_space_group_symop_operation_xyz
x,y,z
-x,y,-z
-x,-y,-z
x,-y,z
1/2+x,1/2+y,z
1/2-x,1/2+y,-z
1/2-x,1/2-y,-z
1/2+x,1/2-y,z
loop_
_atom_site_type_symbol
_atom_site_label
_atom_site_fract_x
_atom_site_fract_y
_atom_site_fract_z
Si Si1 0.790789 0.104773 0.087230
Si Si2 0.308223 0.106574 0.196044
Si Si3 0.101744 0.101587 0.144836
Si Si4 0.457542 0.835371 0.232919
Si Si5 0.670895 0.247492 0.238095
Si Si6 0.541494 0.109613 0.377712
Si Si7 0.049283 0.166265 0.885339
Si Si8 0.420459 0.898190 0.974552
O O1 0.718648 0.180949 0.139881
O O2 0.867462 0.114908 0.122608
O O3 0.754340 0.000000 0.120710
O O4 0.819927 0.118329 0.964484
O O5 0.382016 0.096202 0.237714
O O6 0.234243 0.179834 0.260412
O O7 0.273230 0.000000 0.199311
O O8 0.348006 0.149277 0.076816
O O9 0.101667 0.187262 0.219720
O O10 0.016750 0.093558 0.126055
O O11 0.111767 0.000000 0.191097
O O12 0.473027 0.852595 0.335896
O O13 0.424137 0.734414 0.214547
O O14 0.549775 0.844921 0.135553
O O15 0.623222 0.177645 0.334850
O O16 0.500000 0.121057 0.500000
O O17 0.564831 0.000000 0.346111
O O18 0.000000 0.217642 0.000000
O O19 0.385947 0.000000 0.959009
O O20 0.500000 0.914626 0.000000
#
# Coordination Sequence:
#
# PCOD8083357 Si02
#       8
#     8   8   8   8   8   8   8   8
#     4  10  21  35  53  83 124 163 196 229 270 333
#     4  10  20  33  56  92 128 154 181 227 286 345
#     4  10  21  35  53  83 124 167 197 222 269 337
#     4  11  18  35  61  85 113 157 200 239 278 331
#     4  12  22  37  58  84 116 152 191 241 292 346
#     4  11  26  46  65  83 105 142 196 252 301 349
#     4  10  18  32  56  84 119 161 199 225 261 334
#     4   8  15  26  46  81 118 150 182 214 259 324
#
# _framework density 20.087827000000001
#
# number of rings (size 3 to 8) (size 9 to 14) (size 15 to 20)
#    0.000    1.750    2.500    4.500    1.750    2.500 
#    0.000    1.875    0.000    1.500    0.000    0.000 
#    0.000    0.000    0.000    0.000    0.000    0.000 
#
# Total GULP energy -396435.564403 kJ/mol
# GULP energy per Si atom -12388.611388 kJ/mol
# Density = 2.004211 g / cm^3
# Si number density = 20.087827 Si / 1000 Ang^3
#
#
#
# Elastic Constant Matrix: (Units=GPa)
#
#
# Indices 1 2 3 4 5 6 
#
# 1 80.0710 23.9096 21.5643 0.0000 2.6711 0.0000
# 2 23.9096 119.6679 40.4233 0.0000 -4.2482 0.0000
# 3 21.5643 40.4233 72.0292 0.0000 8.9606 0.0000
# 4 0.0000 0.0000 0.0000 23.2824 0.0000 -4.8103
# 5 2.6711 -4.2482 8.9606 0.0000 23.5554 0.0000
# 6 0.0000 0.0000 0.0000 -4.8103 0.0000 18.6819
#
#
#
# Elastic Compliance Matrix: (Units=1/GPa)
#
#
# Indices 1 2 3 4 5 6 
#
# 1 0.013866 -0.001757 -0.003076 0.000000 -0.000719 0.000000
# 2 -0.001757 0.010958 -0.006187 0.000000 0.004529 0.000000
# 3 -0.003076 -0.006187 0.019284 0.000000 -0.008103 0.000000
# 4 0.000000 0.000000 0.000000 0.045364 0.000000 0.011681
# 5 -0.000719 0.004529 -0.008103 0.000000 0.046434 0.000000
# 6 0.000000 0.000000 0.000000 0.011681 0.000000 0.056535
#
#
# Mechanical properties :
#
#
# Convention : Reuss Voigt Hill
#
# Bulk Modulus (GPa) = 45.31309 49.28470 47.29890
# Shear Modulus (GPa) = 22.53892 25.49534 24.01713
#
# Velocity S-wave (km/s) = 3.35329 3.56644 3.46150
# Velocity P-wave (km/s) = 6.13182 6.44571 6.29072
#
# Compressibility (1/GPa) = 0.02206868
#
# Stress axis : x y z
#
# Youngs Moduli (GPa) = 72.11946 91.25458 51.85515
#
# Poissons Ratio (x) = 0.16033 0.15949
# Poissons Ratio (y) = 0.12671 0.32085
# Poissons Ratio (z) = 0.22182 0.56462
#
# Static dielectric constant tensor:
#      x y z
#    x 3.685040 0.000000 -0.051750 
#    y 0.000000 3.807750 0.000000 
#    z -0.051750 0.000000 3.114560 
# 
# 
# High freq. dielectric constant tensor:
#      x y z
#    x 1.794930 0.000000 -0.000440 
#    y 0.000000 1.805310 0.000000 
#    z -0.000440 0.000000 1.699850 
# 
# From -- ./inp_files/225231.got.cif
#   From: 2010.06.25/outbox.cif.g09.slc.cpg/sg12_113_cif.got.tgz:225231.got - 2010.06.28 00:19:55.
