data_PCOD8083312
_publ_section_title
;
Structure prediction by ZEFSAII (Michael W. Deem and Ramdas Pophale) SiO2 
 PCOD8083312
Probable space group: C 2/M
;
_chemical_formula_sum "Si O2"
_cell_formula_units_Z 56
_cell_length_a 30.130072
_cell_length_b 9.146454
_cell_length_c 16.732302
_cell_angle_alpha 90.000000
_cell_angle_beta 45.078396
_cell_angle_gamma 90.000000
_cell_volume 3265.028975
_symmetry_space_group_name_H-M "C 2/M"
_symmetry_group_IT_number 12
_symmetry_cell_setting 'monoclinic'
loop_
_space_group_symop_operation_xyz
x,y,z
-x,y,-z
-x,-y,-z
x,-y,z
1/2+x,1/2+y,z
1/2-x,1/2+y,-z
1/2-x,1/2-y,-z
1/2+x,1/2-y,z
loop_
_atom_site_type_symbol
_atom_site_label
_atom_site_fract_x
_atom_site_fract_y
_atom_site_fract_z
Si Si1 0.527074 0.327326 0.346918
Si Si2 0.902081 0.826962 0.591240
Si Si3 0.483875 0.328527 0.816207
Si Si4 0.688431 0.170535 0.402131
Si Si5 0.940698 0.672781 0.023661
Si Si6 0.128619 0.832193 0.625796
Si Si7 0.668851 0.667464 0.750073
O O1 0.521953 0.500000 0.355395
O O2 0.459360 0.271104 0.462813
O O3 0.582450 0.278578 0.336952
O O4 0.540216 0.273699 0.240205
O O5 0.839717 0.745821 0.641273
O O6 0.891751 0.000000 0.597945
O O7 0.471971 0.500000 0.843695
O O8 0.443915 0.241259 0.931677
O O9 0.556775 0.289418 0.733099
O O10 0.657314 0.232001 0.521454
O O11 0.761977 0.203904 0.307445
O O12 0.674305 0.000000 0.417274
O O13 0.939435 0.500000 0.017283
O O14 0.877528 0.724993 0.145656
O O15 0.000000 0.726824 0.000000
O O16 0.167102 0.803629 0.657580
O O17 0.133231 0.000000 0.591249
O O18 0.649622 0.500000 0.792602
#
# Coordination Sequence:
#
# PCOD8083312 Si02
#       7
#     8   8   8   8   8   8   8
#     4   8  15  29  52  79 101 130 172 214 249 297
#     4   9  16  31  53  75 103 135 172 209 249 307
#     4  10  18  32  56  79 102 135 174 210 251 305
#     4  11  22  33  49  77 111 139 169 211 258 301
#     4  11  23  36  52  77 105 134 170 217 263 298
#     4  10  19  33  54  76 101 139 178 205 247 306
#     4  10  22  38  53  72 101 142 182 211 245 303
#
# _framework density 17.151457000000001
#
# number of rings (size 3 to 8) (size 9 to 14) (size 15 to 20)
#    0.000    2.143    2.857    2.143    0.000    2.857 
#    0.000    2.143    0.000    0.857    0.000    0.000 
#    0.000    0.000    0.000    0.000    0.000    0.000 
#
# Total GULP energy -347209.055462 kJ/mol
# GULP energy per Si atom -12400.323409 kJ/mol
# Density = 1.711242 g / cm^3
# Si number density = 17.151457 Si / 1000 Ang^3
#
#
#
# Elastic Constant Matrix: (Units=GPa)
#
#
# Indices 1 2 3 4 5 6 
#
# 1 142.0191 46.0881 45.8893 0.0000 3.0737 -0.0001
# 2 46.0881 60.5866 37.5060 0.0027 -2.3947 -0.0027
# 3 45.8893 37.5060 63.5247 0.0005 3.6402 -0.0011
# 4 0.0000 0.0027 0.0005 26.7510 0.0000 -2.0326
# 5 3.0737 -2.3947 3.6402 0.0000 24.7817 -0.0002
# 6 -0.0001 -0.0027 -0.0011 -2.0326 -0.0002 24.7599
#
#
#
# Elastic Compliance Matrix: (Units=1/GPa)
#
#
# Indices 1 2 3 4 5 6 
#
# 1 0.010082 -0.005115 -0.004199 0.000001 -0.001128 -0.000001
# 2 -0.005115 0.029189 -0.013853 -0.000003 0.005490 0.000002
# 3 -0.004199 -0.013853 0.027230 0.000001 -0.004818 0.000000
# 4 0.000001 -0.000003 0.000001 0.037616 0.000000 0.003088
# 5 -0.001128 0.005490 -0.004818 0.000000 0.041730 0.000001
# 6 -0.000001 0.000002 0.000000 0.003088 0.000001 0.040641
#
#
# Mechanical properties :
#
#
# Convention : Reuss Voigt Hill
#
# Bulk Modulus (GPa) = 49.58426 58.34415 53.96420
# Shear Modulus (GPa) = 20.87278 24.36834 22.62056
#
# Velocity S-wave (km/s) = 3.49229 3.77340 3.63557
# Velocity P-wave (km/s) = 6.72561 7.28530 7.01105
#
# Compressibility (1/GPa) = 0.02016769
#
# Stress axis : x y z
#
# Youngs Moduli (GPa) = 99.18336 34.25932 36.72385
#
# Poissons Ratio (x) = 0.17524 0.15419
# Poissons Ratio (y) = 0.50732 0.50875
# Poissons Ratio (z) = 0.41644 0.47460
#
# Static dielectric constant tensor:
#      x y z
#    x 3.564250 0.000000 0.153710 
#    y 0.000000 3.034240 0.000000 
#    z 0.153710 0.000000 3.033840 
# 
# 
# High freq. dielectric constant tensor:
#      x y z
#    x 1.672130 0.000000 0.008360 
#    y 0.000000 1.647750 0.000000 
#    z 0.008360 0.000000 1.639330 
# 
# From -- ./inp_files/281005.got.cif
#   From: 2010.06.25/outbox.cif.g09.slc.cpg/sg12_141_cif.got.tgz:281005.got - 2010.06.28 00:19:55.
