data_PCOD8083200
_publ_section_title
;
Structure prediction by ZEFSAII (Michael W. Deem and Ramdas Pophale) SiO2 
 PCOD8083200
Probable space group: C 2/M
;
_chemical_formula_sum "Si O2"
_cell_formula_units_Z 48
_cell_length_a 26.823833
_cell_length_b 13.953009
_cell_length_c 18.931407
_cell_angle_alpha 90.000000
_cell_angle_beta 157.584074
_cell_angle_gamma 90.000000
_cell_volume 2701.901784
_symmetry_space_group_name_H-M "C 2/M"
_symmetry_group_IT_number 12
_symmetry_cell_setting 'monoclinic'
loop_
_space_group_symop_operation_xyz
x,y,z
-x,y,-z
-x,-y,-z
x,-y,z
1/2+x,1/2+y,z
1/2-x,1/2+y,-z
1/2-x,1/2-y,-z
1/2+x,1/2-y,z
loop_
_atom_site_type_symbol
_atom_site_label
_atom_site_fract_x
_atom_site_fract_y
_atom_site_fract_z
Si Si1 0.389359 0.388669 0.058146
Si Si2 0.402746 0.757214 0.686746
Si Si3 0.470935 0.107903 0.037818
Si Si4 0.122885 0.716372 0.700665
Si Si5 0.333771 0.608540 0.337380
Si Si6 0.003573 0.207462 0.676155
O O1 0.389997 0.500000 0.040464
O O2 0.512728 0.337823 0.179821
O O3 0.404602 0.369362 0.162291
O O4 0.252369 0.343416 0.852937
O O5 0.250000 0.750000 0.500000
O O6 0.453128 0.845039 0.798246
O O7 0.429314 0.773616 0.637520
O O8 0.524993 0.000000 0.106006
O O9 0.500000 0.157788 0.000000
O O10 0.319123 0.112023 0.852653
O O11 0.132276 0.826256 0.685620
O O12 0.000000 0.665903 0.500000
O O13 0.093541 0.723345 0.745858
O O14 0.381766 0.500000 0.385939
O O15 0.398160 0.650160 0.492438
#
# Coordination Sequence:
#
# PCOD8083200 Si02
#       6
#     8   8   8   8   8   8
#     4  10  21  36  57  81 111 151 194 232 277 341
#     4  10  21  37  56  82 115 152 185 235 284 345
#     4  10  20  34  57  85 112 142 183 233 287 344
#     4  10  20  36  56  83 116 151 192 238 287 335
#     4  10  18  32  54  86 116 144 183 234 290 339
#     4   9  20  33  56  82 115 147 184 234 283 345
#
# _framework density 17.765263999999998
#
# number of rings (size 3 to 8) (size 9 to 14) (size 15 to 20)
#    1.000    1.167    1.667    2.000    0.000    4.667 
#    0.000    2.500    0.000    1.500    0.000    0.000 
#    0.000    0.000    0.000    0.000    0.000    0.000 
#
# Total GULP energy -297392.742500 kJ/mol
# GULP energy per Si atom -12391.364271 kJ/mol
# Density = 1.772483 g / cm^3
# Si number density = 17.765264 Si / 1000 Ang^3
#
#
#
# Elastic Constant Matrix: (Units=GPa)
#
#
# Indices 1 2 3 4 5 6 
#
# 1 109.6872 39.2341 36.4459 0.0000 1.8528 0.0000
# 2 39.2341 88.4429 54.7145 0.0000 1.8672 0.0000
# 3 36.4459 54.7145 127.9201 0.0000 9.1396 0.0000
# 4 0.0000 0.0000 0.0000 9.3631 0.0000 -2.8920
# 5 1.8528 1.8672 9.1396 0.0000 31.3642 0.0000
# 6 0.0000 0.0000 0.0000 -2.8920 0.0000 21.5189
#
#
#
# Elastic Compliance Matrix: (Units=1/GPa)
#
#
# Indices 1 2 3 4 5 6 
#
# 1 0.011024 -0.004008 -0.001427 0.000000 0.000003 0.000000
# 2 -0.004008 0.016864 -0.006144 0.000000 0.001023 0.000000
# 3 -0.001427 -0.006144 0.011050 0.000000 -0.002770 0.000000
# 4 0.000000 0.000000 0.000000 0.111428 0.000000 0.014975
# 5 0.000003 0.001023 -0.002770 0.000000 0.032630 0.000000
# 6 0.000000 0.000000 0.000000 0.014975 0.000000 0.048483
#
#
# Mechanical properties :
#
#
# Convention : Reuss Voigt Hill
#
# Bulk Modulus (GPa) = 63.37080 65.20436 64.28758
# Shear Modulus (GPa) = 19.23832 25.49295 22.36564
#
# Velocity S-wave (km/s) = 3.29434 3.79223 3.55202
# Velocity P-wave (km/s) = 7.08653 7.48049 7.28617
#
# Compressibility (1/GPa) = 0.01578014
#
# Stress axis : x y z
#
# Youngs Moduli (GPa) = 90.70716 59.29699 90.49787
#
# Poissons Ratio (x) = 0.23765 0.12914
# Poissons Ratio (y) = 0.36354 0.55606
# Poissons Ratio (z) = 0.12944 0.36435
#
# Static dielectric constant tensor:
#      x y z
#    x 3.287330 0.000000 0.023420 
#    y 0.000000 3.222230 0.000000 
#    z 0.023420 0.000000 3.470410 
# 
# 
# High freq. dielectric constant tensor:
#      x y z
#    x 1.683730 0.000000 0.005570 
#    y 0.000000 1.657400 0.000000 
#    z 0.005570 0.000000 1.704790 
# 
# From -- ./inp_files/330059.got.cif
#   From: 2010.06.25/outbox.cif.g09.slc.cpg/sg12_166_cif.got.tgz:330059.got - 2010.06.28 00:19:55.
