data_PCOD8083656
_publ_section_title
;
Structure prediction by ZEFSAII (Michael W. Deem and Ramdas Pophale) SiO2 
 PCOD8083656
Probable space group: C 2/M
;
_chemical_formula_sum "Si O2"
_cell_formula_units_Z 64
_cell_length_a 14.684330
_cell_length_b 23.398918
_cell_length_c 14.574489
_cell_angle_alpha 90.000000
_cell_angle_beta 42.498188
_cell_angle_gamma 90.000000
_cell_volume 3383.074836
_symmetry_space_group_name_H-M "C 2/M"
_symmetry_group_IT_number 12
_symmetry_cell_setting 'monoclinic'
loop_
_space_group_symop_operation_xyz
x,y,z
-x,y,-z
-x,-y,-z
x,-y,z
1/2+x,1/2+y,z
1/2-x,1/2+y,-z
1/2-x,1/2-y,-z
1/2+x,1/2-y,z
loop_
_atom_site_type_symbol
_atom_site_label
_atom_site_fract_x
_atom_site_fract_y
_atom_site_fract_z
Si Si1 0.399295 0.662108 0.892252
Si Si2 0.914620 0.246652 0.144464
Si Si3 0.699384 0.316899 0.390897
Si Si4 0.701992 0.171000 0.194394
Si Si5 0.624686 0.562680 0.476620
Si Si6 0.651827 0.065147 0.355068
Si Si7 0.543177 0.279715 0.328727
Si Si8 0.593177 0.435887 0.714153
O O1 0.483477 0.714170 0.867833
O O2 0.381353 0.679015 0.799718
O O3 0.480896 0.603375 0.845410
O O4 0.256944 0.659437 0.050719
O O5 0.846165 0.290355 0.266524
O O6 0.812096 0.201766 0.175860
O O7 0.000000 0.278092 0.000000
O O8 0.723968 0.385231 0.378796
O O9 0.609933 0.299288 0.372224
O O10 0.618423 0.292457 0.541235
O O11 0.670705 0.108826 0.257673
O O12 0.570492 0.212316 0.288492
O O13 0.500000 0.566881 0.500000
O O14 0.694504 0.500000 0.413722
O O15 0.580539 0.571430 0.614394
O O16 0.500000 0.073871 0.500000
O O17 0.756444 0.079197 0.360297
O O18 0.673658 0.000000 0.303933
O O19 0.556087 0.500000 0.770810
#
# Coordination Sequence:
#
# PCOD8083656 Si02
#       8
#     8   8   8   8   8   8   8   8
#     4  11  19  35  51  79 112 141 181 226 281 340
#     4   9  20  33  49  74 107 140 172 219 275 326
#     4  10  18  34  52  75 104 139 175 222 271 333
#     4  10  21  34  53  75 111 148 180 226 279 331
#     4  10  18  33  55  83 112 138 174 230 290 331
#     4  10  22  39  57  77 109 152 195 237 279 325
#     4  10  20  32  52  79 107 140 179 224 275 333
#     4  10  20  34  56  84 112 143 187 237 277 332
#
# _framework density 18.917701999999998
#
# number of rings (size 3 to 8) (size 9 to 14) (size 15 to 20)
#    0.000    2.000    3.750    0.375    3.500    1.000 
#    2.250    1.250    0.000    0.375    0.000    0.000 
#    0.000    0.000    0.000    0.000    0.000    0.000 
#
# Total GULP energy -396499.302672 kJ/mol
# GULP energy per Si atom -12390.603208 kJ/mol
# Density = 1.887464 g / cm^3
# Si number density = 18.917702 Si / 1000 Ang^3
#
#
#
# Elastic Constant Matrix: (Units=GPa)
#
#
# Indices 1 2 3 4 5 6 
#
# 1 36.9234 20.7954 23.4272 0.0005 4.9964 -0.0005
# 2 20.7954 144.0728 80.6962 -0.0003 0.7587 0.0002
# 3 23.4272 80.6962 126.5029 -0.0003 7.9934 0.0007
# 4 0.0005 -0.0003 -0.0003 29.4022 0.0000 1.8226
# 5 4.9964 0.7587 7.9934 0.0000 20.9806 0.0000
# 6 -0.0005 0.0002 0.0007 1.8226 0.0000 13.1667
#
#
#
# Elastic Compliance Matrix: (Units=1/GPa)
#
#
# Indices 1 2 3 4 5 6 
#
# 1 0.031740 -0.002284 -0.004046 -0.000001 -0.005935 0.000002
# 2 -0.002284 0.011072 -0.006813 0.000000 0.002739 0.000000
# 3 -0.004046 -0.006813 0.013243 0.000000 -0.003835 -0.000001
# 4 -0.000001 0.000000 0.000000 0.034305 0.000000 -0.004749
# 5 -0.005935 0.002739 -0.003835 0.000000 0.050438 0.000000
# 6 0.000002 0.000000 -0.000001 -0.004749 0.000000 0.076606
#
#
# Mechanical properties :
#
#
# Convention : Reuss Voigt Hill
#
# Bulk Modulus (GPa) = 33.59252 61.92630 47.75941
# Shear Modulus (GPa) = 19.71502 24.88192 22.29847
#
# Velocity S-wave (km/s) = 3.23173 3.63060 3.43696
# Velocity P-wave (km/s) = 5.63216 7.09793 6.40710
#
# Compressibility (1/GPa) = 0.02976853
#
# Stress axis : x y z
#
# Youngs Moduli (GPa) = 31.50643 90.31599 75.51331
#
# Poissons Ratio (x) = 0.20626 0.30553
# Poissons Ratio (y) = 0.07195 0.51448
# Poissons Ratio (z) = 0.12748 0.61533
#
# Static dielectric constant tensor:
#      x y z
#    x 3.376390 0.000000 0.143760 
#    y 0.000000 3.758710 0.000000 
#    z 0.143760 0.000000 4.363140 
# 
# 
# High freq. dielectric constant tensor:
#      x y z
#    x 1.719850 0.000000 0.015810 
#    y 0.000000 1.739330 0.000000 
#    z 0.015810 0.000000 1.725480 
# 
# From -- ./inp_files/218495.got.cif
#   From: 2010.06.25/outbox.cif.g09.slc.cpg/sg12_110_cif.got.tgz:218495.got - 2010.06.28 00:19:55.
