data_PCOD8083737
_publ_section_title
;
Structure prediction by ZEFSAII (Michael W. Deem and Ramdas Pophale) SiO2 
 PCOD8083737
Probable space group: C 2/M
;
_chemical_formula_sum "Si O2"
_cell_formula_units_Z 64
_cell_length_a 23.610632
_cell_length_b 13.382932
_cell_length_c 11.280617
_cell_angle_alpha 90.000000
_cell_angle_beta 74.609173
_cell_angle_gamma 90.000000
_cell_volume 3436.615118
_symmetry_space_group_name_H-M "C 2/M"
_symmetry_group_IT_number 12
_symmetry_cell_setting 'monoclinic'
loop_
_space_group_symop_operation_xyz
x,y,z
-x,y,-z
-x,-y,-z
x,-y,z
1/2+x,1/2+y,z
1/2-x,1/2+y,-z
1/2-x,1/2-y,-z
1/2+x,1/2-y,z
loop_
_atom_site_type_symbol
_atom_site_label
_atom_site_fract_x
_atom_site_fract_y
_atom_site_fract_z
Si Si1 0.504058 0.313115 0.131481
Si Si2 0.810717 0.114866 0.185145
Si Si3 0.563389 0.778653 0.514864
Si Si4 0.712966 0.235170 0.137521
Si Si5 0.886979 0.390258 0.727660
Si Si6 0.630050 0.385808 0.102515
Si Si7 0.514815 0.109469 0.756643
Si Si8 0.901759 0.112267 0.335936
O O1 0.569646 0.323535 0.146839
O O2 0.479383 0.198788 0.151189
O O3 0.463631 0.383684 0.233447
O O4 0.500000 0.351910 0.000000
O O5 0.757163 0.195955 0.215685
O O6 0.850377 0.145028 0.274530
O O7 0.787944 0.000000 0.208598
O O8 0.847780 0.125203 0.044212
O O9 0.500000 0.744114 0.500000
O O10 0.606635 0.819762 0.390584
O O11 0.552729 0.864498 0.618960
O O12 0.597309 0.684306 0.551331
O O13 0.662617 0.150726 0.154938
O O14 0.677193 0.340000 0.171318
O O15 0.750000 0.250000 0.000000
O O16 0.867875 0.500000 0.694817
O O17 0.946980 0.397682 0.764241
O O18 0.619257 0.500000 0.143882
O O19 0.535848 0.000000 0.793226
O O20 0.891500 0.000000 0.387195
#
# Coordination Sequence:
#
# PCOD8083737 Si02
#       8
#     8   8   8   8   8   8   8   8
#     4  11  19  30  51  78 112 143 177 216 268 331
#     4   9  18  33  53  76 103 139 182 220 259 313
#     4   9  19  34  52  78 110 139 182 226 275 317
#     4  10  20  34  54  79 108 133 173 223 271 309
#     4  10  18  33  57  78  98 135 185 225 263 317
#     4  10  19  32  50  76 108 140 177 217 260 319
#     4   9  18  32  51  76 107 139 175 224 274 317
#     4  10  20  33  52  78 110 147 180 219 270 324
#
# _framework density 18.622976000000001
#
# number of rings (size 3 to 8) (size 9 to 14) (size 15 to 20)
#    0.000    2.250    2.500    1.125    0.000    3.000 
#    0.000    1.250    0.000    3.750    0.000    0.000 
#    0.000    0.000    0.000    0.000    0.000    0.000 
#
# Total GULP energy -396507.618609 kJ/mol
# GULP energy per Si atom -12390.863082 kJ/mol
# Density = 1.858059 g / cm^3
# Si number density = 18.622976 Si / 1000 Ang^3
#
#
#
# Elastic Constant Matrix: (Units=GPa)
#
#
# Indices 1 2 3 4 5 6 
#
# 1 84.0275 43.2383 17.7353 0.0000 -0.6846 0.0000
# 2 43.2383 114.1639 23.3867 0.0000 8.0932 0.0000
# 3 17.7353 23.3867 53.2580 0.0000 -3.7617 0.0000
# 4 0.0000 0.0000 0.0000 21.3346 0.0000 2.3891
# 5 -0.6846 8.0932 -3.7617 0.0000 22.8319 0.0000
# 6 0.0000 0.0000 0.0000 2.3891 0.0000 21.5450
#
#
#
# Elastic Compliance Matrix: (Units=1/GPa)
#
#
# Indices 1 2 3 4 5 6 
#
# 1 0.015227 -0.005377 -0.002572 0.000000 0.001939 0.000000
# 2 -0.005377 0.011931 -0.003803 0.000000 -0.005017 0.000000
# 3 -0.002572 -0.003803 0.021645 0.000000 0.004837 0.000000
# 4 0.000000 0.000000 0.000000 0.047462 0.000000 -0.005263
# 5 0.001939 -0.005017 0.004837 0.000000 0.046432 0.000000
# 6 0.000000 0.000000 0.000000 -0.005263 0.000000 0.046998
#
#
# Mechanical properties :
#
#
# Convention : Reuss Voigt Hill
#
# Bulk Modulus (GPa) = 39.53012 46.68555 43.10784
# Shear Modulus (GPa) = 22.56010 24.28158 23.42084
#
# Velocity S-wave (km/s) = 3.48431 3.61480 3.55016
# Velocity P-wave (km/s) = 6.12044 6.52270 6.32477
#
# Compressibility (1/GPa) = 0.02529716
#
# Stress axis : x y z
#
# Youngs Moduli (GPa) = 65.67418 83.81813 46.20095
#
# Poissons Ratio (x) = 0.45073 0.11884
# Poissons Ratio (y) = 0.35316 0.17568
# Poissons Ratio (z) = 0.16893 0.31873
#
# Static dielectric constant tensor:
#      x y z
#    x 3.479780 0.000000 -0.161330 
#    y 0.000000 3.761550 0.000000 
#    z -0.161330 0.000000 3.312140 
# 
# 
# High freq. dielectric constant tensor:
#      x y z
#    x 1.709940 0.000000 -0.012880 
#    y 0.000000 1.729620 0.000000 
#    z -0.012880 0.000000 1.694790 
# 
# From -- ./inp_files/175255.got.cif
#   From: 2010.06.25/outbox.cif.g09.slc.cpg/sg12_88_cif.got.tgz:175255.got - 2010.06.28 00:19:55.
